MODEL 1
REMARK VINA RESULT:     -12.9      0.000      0.000
REMARK SMILES O=C(NCCCNC(=O)c1c(C(F)(F)F)nn(-c2ccccc2)c1C(F)(F)Cl)c1ccc(-c2c3nc(c(-c4c(F)c(F)c(F)c(F)c4F)c4ccc([nH]4)c(-c4c(F)c(F)c(F)c(F)c4F)c4nc(c(-c5c(F)c(F)c(F)c(F)c5F)c5ccc2[nH]5)C=C4)C=C3)cc1
REMARK SMILES IDX 4 1 3 2 1 3 2 4 29 6 30 7 91 8 31 9 90 10 32 11 33 12 34 13
REMARK SMILES IDX 84 14 35 15 89 16 83 17 85 18 36 19 88 20 82 21 81 22 37 24
REMARK SMILES IDX 69 25 49 26 68 27 50 28 53 29 67 30 86 31 51 32 52 33 66 35
REMARK SMILES IDX 87 36 54 37 38 38 39 39 47 40 40 41 41 42 45 43 48 44 42 45
REMARK SMILES IDX 43 46 46 47 44 48 70 49 71 50 79 51 72 52 73 53 77 54 80 55
REMARK SMILES IDX 74 56 75 57 78 58 76 59 55 60 56 61 64 62 57 63 58 64 62 65
REMARK SMILES IDX 65 66 59 67 60 68 63 69 61 70 5 71 6 72 7 73 8 74 9 76 10 77
REMARK SMILES IDX 11 78 24 79 16 80 17 81 12 82 13 83 14 84 15 85 25 86 26 87
REMARK SMILES IDX 27 88 28 89 18 90 19 91 23 92 20 93 22 94 21 95
REMARK H PARENT 3 5 85 23 53 34 7 75
REMARK Flexibility Score: inf
ROOT
ATOM      1  C   UNL A   1      37.020  22.006  25.424  1.00  0.00     0.118 C 
ENDROOT
BRANCH   1   2
ATOM      2  N   UNL A   1      38.361  21.464  25.527  1.00  0.00    -0.352 N 
ATOM      3  O   UNL A   1      40.389  20.954  26.234  1.00  0.00    -0.269 OA
ATOM      4  C   UNL A   1      39.489  21.799  26.224  1.00  0.00     0.251 C 
ATOM      5  H   UNL A   1      38.490  20.667  24.962  1.00  0.00     0.163 HD
BRANCH   4   6
ATOM      6  C   UNL A   1      39.734  23.103  26.901  1.00  0.00     0.039 A 
ATOM      7  C   UNL A   1      38.974  24.259  26.733  1.00  0.00     0.014 A 
ATOM      8  C   UNL A   1      40.872  23.170  27.728  1.00  0.00     0.014 A 
ATOM      9  C   UNL A   1      39.392  25.471  27.282  1.00  0.00     0.010 A 
ATOM     10  C   UNL A   1      41.277  24.370  28.308  1.00  0.00     0.010 A 
ATOM     11  C   UNL A   1      40.556  25.532  28.048  1.00  0.00    -0.014 A 
BRANCH  11  12
ATOM     12  C   UNL A   1      40.922  26.822  28.633  1.00  0.00     0.031 A 
ATOM     13  C   UNL A   1      42.172  27.457  28.116  1.00  0.00     0.074 A 
ATOM     14  C   UNL A   1      40.127  27.508  29.478  1.00  0.00     0.049 A 
ATOM     15  N   UNL A   1      43.188  27.909  28.782  1.00  0.00    -0.248 NA
ATOM     16  C   UNL A   1      42.312  27.579  26.658  1.00  0.00     0.031 C 
ATOM     17  C   UNL A   1      38.743  27.208  29.848  1.00  0.00     0.029 A 
ATOM     18  N   UNL A   1      40.368  28.700  30.101  1.00  0.00    -0.354 N 
ATOM     19  C   UNL A   1      44.033  28.506  27.845  1.00  0.00     0.074 A 
ATOM     20  C   UNL A   1      43.490  28.194  26.549  1.00  0.00     0.031 C 
ATOM     21  C   UNL A   1      38.202  28.292  30.447  1.00  0.00     0.029 A 
ATOM     22  C   UNL A   1      39.231  29.306  30.610  1.00  0.00     0.049 A 
ATOM     23  H   UNL A   1      41.267  29.093  30.179  1.00  0.00     0.167 HD
ATOM     24  C   UNL A   1      45.027  29.365  28.206  1.00  0.00     0.037 A 
ATOM     25  C   UNL A   1      39.121  30.577  31.064  1.00  0.00     0.037 A 
ATOM     26  C   UNL A   1      45.416  29.188  29.579  1.00  0.00     0.049 A 
ATOM     27  C   UNL A   1      40.479  31.084  31.368  1.00  0.00     0.074 A 
ATOM     28  C   UNL A   1      45.919  28.138  30.324  1.00  0.00     0.029 A 
ATOM     29  N   UNL A   1      45.068  30.145  30.496  1.00  0.00    -0.354 N 
ATOM     30  N   UNL A   1      41.211  30.691  32.371  1.00  0.00    -0.248 NA
ATOM     31  C   UNL A   1      41.186  31.817  30.328  1.00  0.00     0.031 C 
ATOM     32  C   UNL A   1      45.390  28.323  31.636  1.00  0.00     0.029 A 
ATOM     33  C   UNL A   1      44.611  29.479  31.602  1.00  0.00     0.049 A 
ATOM     34  H   UNL A   1      45.134  31.120  30.383  1.00  0.00     0.167 HD
ATOM     35  C   UNL A   1      42.512  30.754  31.901  1.00  0.00     0.074 A 
ATOM     36  C   UNL A   1      42.444  31.569  30.695  1.00  0.00     0.031 C 
ATOM     37  C   UNL A   1      43.473  29.908  32.374  1.00  0.00     0.037 A 
BRANCH  24  38
ATOM     38  C   UNL A   1      45.432  30.589  27.413  1.00  0.00     0.064 A 
ATOM     39  C   UNL A   1      46.796  30.795  27.110  1.00  0.00     0.173 A 
ATOM     40  C   UNL A   1      44.596  31.712  27.224  1.00  0.00     0.173 A 
ATOM     41  F   UNL A   1      47.687  29.802  27.253  1.00  0.00    -0.203 F 
ATOM     42  C   UNL A   1      47.296  32.051  26.755  1.00  0.00     0.198 A 
ATOM     43  C   UNL A   1      45.093  32.950  26.816  1.00  0.00     0.198 A 
ATOM     44  F   UNL A   1      43.295  31.688  27.531  1.00  0.00    -0.203 F 
ATOM     45  F   UNL A   1      48.618  32.226  26.621  1.00  0.00    -0.200 F 
ATOM     46  C   UNL A   1      46.445  33.131  26.620  1.00  0.00     0.200 A 
ATOM     47  F   UNL A   1      44.253  33.989  26.699  1.00  0.00    -0.200 F 
ATOM     48  F   UNL A   1      46.929  34.351  26.353  1.00  0.00    -0.200 F 
ENDBRANCH  24  38
BRANCH  25  49
ATOM     49  C   UNL A   1      37.940  31.468  31.015  1.00  0.00     0.064 A 
ATOM     50  C   UNL A   1      37.453  31.964  29.796  1.00  0.00     0.173 A 
ATOM     51  C   UNL A   1      37.112  31.645  32.141  1.00  0.00     0.173 A 
ATOM     52  F   UNL A   1      38.155  31.791  28.667  1.00  0.00    -0.203 F 
ATOM     53  C   UNL A   1      36.204  32.589  29.706  1.00  0.00     0.198 A 
ATOM     54  C   UNL A   1      35.873  32.280  32.053  1.00  0.00     0.198 A 
ATOM     55  F   UNL A   1      37.446  31.123  33.329  1.00  0.00    -0.203 F 
ATOM     56  F   UNL A   1      35.745  32.996  28.516  1.00  0.00    -0.200 F 
ATOM     57  C   UNL A   1      35.414  32.741  30.834  1.00  0.00     0.200 A 
ATOM     58  F   UNL A   1      35.105  32.389  33.146  1.00  0.00    -0.200 F 
ATOM     59  F   UNL A   1      34.197  33.293  30.740  1.00  0.00    -0.200 F 
ENDBRANCH  25  49
BRANCH  37  60
ATOM     60  C   UNL A   1      43.182  29.150  33.632  1.00  0.00     0.064 A 
ATOM     61  C   UNL A   1      42.416  27.972  33.670  1.00  0.00     0.173 A 
ATOM     62  C   UNL A   1      43.816  29.551  34.816  1.00  0.00     0.173 A 
ATOM     63  F   UNL A   1      41.873  27.467  32.555  1.00  0.00    -0.203 F 
ATOM     64  C   UNL A   1      42.252  27.260  34.856  1.00  0.00     0.198 A 
ATOM     65  C   UNL A   1      43.679  28.817  35.991  1.00  0.00     0.198 A 
ATOM     66  F   UNL A   1      44.611  30.633  34.821  1.00  0.00    -0.203 F 
ATOM     67  F   UNL A   1      41.505  26.146  34.872  1.00  0.00    -0.200 F 
ATOM     68  C   UNL A   1      42.888  27.680  36.013  1.00  0.00     0.200 A 
ATOM     69  F   UNL A   1      44.338  29.196  37.094  1.00  0.00    -0.200 F 
ATOM     70  F   UNL A   1      42.762  26.971  37.144  1.00  0.00    -0.200 F 
ENDBRANCH  37  60
ENDBRANCH  11  12
ENDBRANCH   4   6
ENDBRANCH   1   2
BRANCH   1  71
ATOM     71  C   UNL A   1      36.643  22.575  24.055  1.00  0.00     0.042 C 
BRANCH  71  72
ATOM     72  C   UNL A   1      35.716  23.783  24.079  1.00  0.00     0.118 C 
BRANCH  72  73
ATOM     73  N   UNL A   1      34.589  23.674  23.167  1.00  0.00    -0.352 N 
ATOM     74  C   UNL A   1      33.392  24.336  23.186  1.00  0.00     0.255 C 
ATOM     75  H   UNL A   1      34.702  23.031  22.430  1.00  0.00     0.163 HD
ATOM     76  O   UNL A   1      32.556  24.133  22.303  1.00  0.00    -0.269 OA
BRANCH  74  77
ATOM     77  C   UNL A   1      33.123  25.247  24.276  1.00  0.00     0.101 A 
ATOM     78  C   UNL A   1      32.757  24.876  25.594  1.00  0.00     0.180 A 
ATOM     79  C   UNL A   1      33.168  26.644  24.268  1.00  0.00     0.143 A 
ATOM     80  N   UNL A   1      32.790  25.950  26.399  1.00  0.00    -0.162 NA
ATOM     81  N   UNL A   1      33.000  27.018  25.591  1.00  0.00    -0.229 N 
BRANCH  78  82
ATOM     82  C   UNL A   1      32.455  23.493  26.121  1.00  0.00     0.436 C 
ATOM     83  F   UNL A   1      31.888  23.533  27.358  1.00  0.00    -0.164 F 
ATOM     84  F   UNL A   1      31.594  22.817  25.314  1.00  0.00    -0.164 F 
ATOM     85  F   UNL A   1      33.562  22.716  26.248  1.00  0.00    -0.164 F 
ENDBRANCH  78  82
BRANCH  79  86
ATOM     86  C   UNL A   1      33.539  27.607  23.194  1.00  0.00     0.365 C 
ATOM     87  F   UNL A   1      34.568  28.416  23.531  1.00  0.00    -0.181 F 
ATOM     88  F   UNL A   1      33.947  26.918  22.092  1.00  0.00    -0.181 F 
ATOM     89  Cl  UNL A   1      32.212  28.692  22.719  1.00  0.00    -0.040 Cl
ENDBRANCH  79  86
BRANCH  81  90
ATOM     90  C   UNL A   1      33.144  28.286  26.206  1.00  0.00     0.065 A 
ATOM     91  C   UNL A   1      34.384  28.622  26.766  1.00  0.00     0.028 A 
ATOM     92  C   UNL A   1      32.074  29.179  26.295  1.00  0.00     0.028 A 
ATOM     93  C   UNL A   1      34.575  29.888  27.322  1.00  0.00     0.002 A 
ATOM     94  C   UNL A   1      32.269  30.440  26.861  1.00  0.00     0.002 A 
ATOM     95  C   UNL A   1      33.521  30.800  27.357  1.00  0.00     0.000 A 
ENDBRANCH  81  90
ENDBRANCH  74  77
ENDBRANCH  72  73
ENDBRANCH  71  72
ENDBRANCH   1  71
TORSDOF 13
ENDMDL
MODEL 2
REMARK VINA RESULT:     -12.5      2.878      8.277
REMARK SMILES O=C(NCCCNC(=O)c1c(C(F)(F)F)nn(-c2ccccc2)c1C(F)(F)Cl)c1ccc(-c2c3nc(c(-c4c(F)c(F)c(F)c(F)c4F)c4ccc([nH]4)c(-c4c(F)c(F)c(F)c(F)c4F)c4nc(c(-c5c(F)c(F)c(F)c(F)c5F)c5ccc2[nH]5)C=C4)C=C3)cc1
REMARK SMILES IDX 4 1 3 2 1 3 2 4 29 6 30 7 91 8 31 9 90 10 32 11 33 12 34 13
REMARK SMILES IDX 84 14 35 15 89 16 83 17 85 18 36 19 88 20 82 21 81 22 37 24
REMARK SMILES IDX 69 25 49 26 68 27 50 28 53 29 67 30 86 31 51 32 52 33 66 35
REMARK SMILES IDX 87 36 54 37 38 38 39 39 47 40 40 41 41 42 45 43 48 44 42 45
REMARK SMILES IDX 43 46 46 47 44 48 70 49 71 50 79 51 72 52 73 53 77 54 80 55
REMARK SMILES IDX 74 56 75 57 78 58 76 59 55 60 56 61 64 62 57 63 58 64 62 65
REMARK SMILES IDX 65 66 59 67 60 68 63 69 61 70 5 71 6 72 7 73 8 74 9 76 10 77
REMARK SMILES IDX 11 78 24 79 16 80 17 81 12 82 13 83 14 84 15 85 25 86 26 87
REMARK SMILES IDX 27 88 28 89 18 90 19 91 23 92 20 93 22 94 21 95
REMARK H PARENT 3 5 85 23 53 34 7 75
REMARK Flexibility Score: inf
ROOT
ATOM      1  C   UNL A   1      33.363  29.839  27.023  1.00  0.00     0.118 C 
ENDROOT
BRANCH   1   2
ATOM      2  N   UNL A   1      33.638  30.971  27.886  1.00  0.00    -0.352 N 
ATOM      3  O   UNL A   1      34.626  32.652  28.921  1.00  0.00    -0.269 OA
ATOM      4  C   UNL A   1      34.769  31.540  28.405  1.00  0.00     0.251 C 
ATOM      5  H   UNL A   1      32.819  31.443  28.163  1.00  0.00     0.163 HD
BRANCH   4   6
ATOM      6  C   UNL A   1      36.115  30.903  28.452  1.00  0.00     0.039 A 
ATOM      7  C   UNL A   1      36.390  29.565  28.178  1.00  0.00     0.014 A 
ATOM      8  C   UNL A   1      37.178  31.727  28.873  1.00  0.00     0.014 A 
ATOM      9  C   UNL A   1      37.656  29.035  28.419  1.00  0.00     0.010 A 
ATOM     10  C   UNL A   1      38.454  31.212  29.083  1.00  0.00     0.010 A 
ATOM     11  C   UNL A   1      38.683  29.852  28.895  1.00  0.00    -0.014 A 
BRANCH  11  12
ATOM     12  C   UNL A   1      40.002  29.250  29.089  1.00  0.00     0.031 A 
ATOM     13  C   UNL A   1      40.456  29.083  30.502  1.00  0.00     0.074 A 
ATOM     14  C   UNL A   1      40.731  28.719  28.087  1.00  0.00     0.049 A 
ATOM     15  N   UNL A   1      41.569  29.463  31.047  1.00  0.00    -0.248 NA
ATOM     16  C   UNL A   1      39.530  28.424  31.435  1.00  0.00     0.031 C 
ATOM     17  C   UNL A   1      40.321  28.499  26.699  1.00  0.00     0.029 A 
ATOM     18  N   UNL A   1      41.974  28.154  28.142  1.00  0.00    -0.354 N 
ATOM     19  C   UNL A   1      41.554  28.967  32.352  1.00  0.00     0.074 A 
ATOM     20  C   UNL A   1      40.241  28.416  32.562  1.00  0.00     0.031 C 
ATOM     21  C   UNL A   1      41.202  27.662  26.107  1.00  0.00     0.029 A 
ATOM     22  C   UNL A   1      42.292  27.391  27.030  1.00  0.00     0.049 A 
ATOM     23  H   UNL A   1      42.587  28.278  28.902  1.00  0.00     0.167 HD
ATOM     24  C   UNL A   1      42.681  28.887  33.112  1.00  0.00     0.037 A 
ATOM     25  C   UNL A   1      43.334  26.536  26.902  1.00  0.00     0.037 A 
ATOM     26  C   UNL A   1      43.703  29.787  32.651  1.00  0.00     0.049 A 
ATOM     27  C   UNL A   1      44.343  26.870  27.934  1.00  0.00     0.074 A 
ATOM     28  C   UNL A   1      43.796  31.156  32.483  1.00  0.00     0.029 A 
ATOM     29  N   UNL A   1      44.807  29.273  32.022  1.00  0.00    -0.354 N 
ATOM     30  N   UNL A   1      45.094  27.934  27.922  1.00  0.00    -0.248 NA
ATOM     31  C   UNL A   1      44.284  26.162  29.204  1.00  0.00     0.031 C 
ATOM     32  C   UNL A   1      44.660  31.338  31.362  1.00  0.00     0.029 A 
ATOM     33  C   UNL A   1      45.042  30.068  30.933  1.00  0.00     0.049 A 
ATOM     34  H   UNL A   1      45.329  28.485  32.300  1.00  0.00     0.167 HD
ATOM     35  C   UNL A   1      45.260  28.260  29.257  1.00  0.00     0.074 A 
ATOM     36  C   UNL A   1      44.853  27.072  29.995  1.00  0.00     0.031 C 
ATOM     37  C   UNL A   1      45.444  29.555  29.647  1.00  0.00     0.037 A 
BRANCH  24  38
ATOM     38  C   UNL A   1      42.984  27.763  34.080  1.00  0.00     0.064 A 
ATOM     39  C   UNL A   1      43.342  26.494  33.574  1.00  0.00     0.173 A 
ATOM     40  C   UNL A   1      42.627  27.789  35.446  1.00  0.00     0.173 A 
ATOM     41  F   UNL A   1      43.697  26.345  32.289  1.00  0.00    -0.203 F 
ATOM     42  C   UNL A   1      43.242  25.333  34.345  1.00  0.00     0.198 A 
ATOM     43  C   UNL A   1      42.582  26.633  36.227  1.00  0.00     0.198 A 
ATOM     44  F   UNL A   1      42.203  28.905  36.049  1.00  0.00    -0.203 F 
ATOM     45  F   UNL A   1      43.452  24.137  33.777  1.00  0.00    -0.200 F 
ATOM     46  C   UNL A   1      42.851  25.402  35.668  1.00  0.00     0.200 A 
ATOM     47  F   UNL A   1      42.192  26.719  37.507  1.00  0.00    -0.200 F 
ATOM     48  F   UNL A   1      42.683  24.285  36.389  1.00  0.00    -0.200 F 
ENDBRANCH  24  38
BRANCH  25  49
ATOM     49  C   UNL A   1      43.404  25.290  26.107  1.00  0.00     0.064 A 
ATOM     50  C   UNL A   1      44.475  25.043  25.234  1.00  0.00     0.173 A 
ATOM     51  C   UNL A   1      42.551  24.202  26.378  1.00  0.00     0.173 A 
ATOM     52  F   UNL A   1      45.363  26.010  24.963  1.00  0.00    -0.203 F 
ATOM     53  C   UNL A   1      44.687  23.778  24.675  1.00  0.00     0.198 A 
ATOM     54  C   UNL A   1      42.756  22.944  25.810  1.00  0.00     0.198 A 
ATOM     55  F   UNL A   1      41.558  24.311  27.272  1.00  0.00    -0.203 F 
ATOM     56  F   UNL A   1      45.754  23.564  23.894  1.00  0.00    -0.200 F 
ATOM     57  C   UNL A   1      43.831  22.729  24.969  1.00  0.00     0.200 A 
ATOM     58  F   UNL A   1      41.940  21.930  26.132  1.00  0.00    -0.200 F 
ATOM     59  F   UNL A   1      44.064  21.505  24.476  1.00  0.00    -0.200 F 
ENDBRANCH  25  49
BRANCH  37  60
ATOM     60  C   UNL A   1      45.794  30.562  28.596  1.00  0.00     0.064 A 
ATOM     61  C   UNL A   1      44.841  31.193  27.776  1.00  0.00     0.173 A 
ATOM     62  C   UNL A   1      47.120  31.006  28.510  1.00  0.00     0.173 A 
ATOM     63  F   UNL A   1      43.539  30.900  27.882  1.00  0.00    -0.203 F 
ATOM     64  C   UNL A   1      45.215  32.187  26.875  1.00  0.00     0.198 A 
ATOM     65  C   UNL A   1      47.484  32.025  27.634  1.00  0.00     0.198 A 
ATOM     66  F   UNL A   1      48.059  30.482  29.315  1.00  0.00    -0.203 F 
ATOM     67  F   UNL A   1      44.292  32.766  26.093  1.00  0.00    -0.200 F 
ATOM     68  C   UNL A   1      46.535  32.605  26.809  1.00  0.00     0.200 A 
ATOM     69  F   UNL A   1      48.750  32.463  27.611  1.00  0.00    -0.200 F 
ATOM     70  F   UNL A   1      46.886  33.590  25.970  1.00  0.00    -0.200 F 
ENDBRANCH  37  60
ENDBRANCH  11  12
ENDBRANCH   4   6
ENDBRANCH   1   2
BRANCH   1  71
ATOM     71  C   UNL A   1      32.070  29.080  27.326  1.00  0.00     0.042 C 
BRANCH  71  72
ATOM     72  C   UNL A   1      32.161  27.563  27.224  1.00  0.00     0.118 C 
BRANCH  72  73
ATOM     73  N   UNL A   1      31.011  26.950  26.578  1.00  0.00    -0.352 N 
ATOM     74  C   UNL A   1      30.974  25.977  25.616  1.00  0.00     0.255 C 
ATOM     75  H   UNL A   1      30.133  27.282  26.874  1.00  0.00     0.163 HD
ATOM     76  O   UNL A   1      29.893  25.554  25.203  1.00  0.00    -0.269 OA
BRANCH  74  77
ATOM     77  C   UNL A   1      32.224  25.487  25.082  1.00  0.00     0.101 A 
ATOM     78  C   UNL A   1      32.987  26.103  24.058  1.00  0.00     0.180 A 
ATOM     79  C   UNL A   1      32.931  24.337  25.448  1.00  0.00     0.143 A 
ATOM     80  N   UNL A   1      34.184  25.505  23.953  1.00  0.00    -0.162 NA
ATOM     81  N   UNL A   1      34.133  24.420  24.763  1.00  0.00    -0.229 N 
BRANCH  78  82
ATOM     82  C   UNL A   1      32.625  27.314  23.230  1.00  0.00     0.436 C 
ATOM     83  F   UNL A   1      33.599  27.626  22.333  1.00  0.00    -0.164 F 
ATOM     84  F   UNL A   1      31.481  27.121  22.519  1.00  0.00    -0.164 F 
ATOM     85  F   UNL A   1      32.436  28.434  23.975  1.00  0.00    -0.164 F 
ENDBRANCH  78  82
BRANCH  79  86
ATOM     86  C   UNL A   1      32.663  23.315  26.497  1.00  0.00     0.365 C 
ATOM     87  F   UNL A   1      33.716  23.100  27.319  1.00  0.00    -0.181 F 
ATOM     88  F   UNL A   1      31.645  23.741  27.294  1.00  0.00    -0.181 F 
ATOM     89  Cl  UNL A   1      32.235  21.717  25.843  1.00  0.00    -0.040 Cl
ENDBRANCH  79  86
BRANCH  81  90
ATOM     90  C   UNL A   1      35.308  23.639  24.888  1.00  0.00     0.065 A 
ATOM     91  C   UNL A   1      36.364  24.137  25.664  1.00  0.00     0.028 A 
ATOM     92  C   UNL A   1      35.445  22.416  24.227  1.00  0.00     0.028 A 
ATOM     93  C   UNL A   1      37.509  23.363  25.856  1.00  0.00     0.002 A 
ATOM     94  C   UNL A   1      36.597  21.651  24.417  1.00  0.00     0.002 A 
ATOM     95  C   UNL A   1      37.619  22.116  25.244  1.00  0.00     0.000 A 
ENDBRANCH  81  90
ENDBRANCH  74  77
ENDBRANCH  72  73
ENDBRANCH  71  72
ENDBRANCH   1  71
TORSDOF 13
ENDMDL
MODEL 3
REMARK VINA RESULT:     -12.4      0.498      1.772
REMARK SMILES O=C(NCCCNC(=O)c1c(C(F)(F)F)nn(-c2ccccc2)c1C(F)(F)Cl)c1ccc(-c2c3nc(c(-c4c(F)c(F)c(F)c(F)c4F)c4ccc([nH]4)c(-c4c(F)c(F)c(F)c(F)c4F)c4nc(c(-c5c(F)c(F)c(F)c(F)c5F)c5ccc2[nH]5)C=C4)C=C3)cc1
REMARK SMILES IDX 4 1 3 2 1 3 2 4 29 6 30 7 91 8 31 9 90 10 32 11 33 12 34 13
REMARK SMILES IDX 84 14 35 15 89 16 83 17 85 18 36 19 88 20 82 21 81 22 37 24
REMARK SMILES IDX 69 25 49 26 68 27 50 28 53 29 67 30 86 31 51 32 52 33 66 35
REMARK SMILES IDX 87 36 54 37 38 38 39 39 47 40 40 41 41 42 45 43 48 44 42 45
REMARK SMILES IDX 43 46 46 47 44 48 70 49 71 50 79 51 72 52 73 53 77 54 80 55
REMARK SMILES IDX 74 56 75 57 78 58 76 59 55 60 56 61 64 62 57 63 58 64 62 65
REMARK SMILES IDX 65 66 59 67 60 68 63 69 61 70 5 71 6 72 7 73 8 74 9 76 10 77
REMARK SMILES IDX 11 78 24 79 16 80 17 81 12 82 13 83 14 84 15 85 25 86 26 87
REMARK SMILES IDX 27 88 28 89 18 90 19 91 23 92 20 93 22 94 21 95
REMARK H PARENT 3 5 85 23 53 34 7 75
REMARK Flexibility Score: inf
ROOT
ATOM      1  C   UNL A   1      37.276  21.916  25.429  1.00  0.00     0.118 C 
ENDROOT
BRANCH   1   2
ATOM      2  N   UNL A   1      38.618  21.388  25.577  1.00  0.00    -0.352 N 
ATOM      3  O   UNL A   1      40.629  20.906  26.348  1.00  0.00    -0.269 OA
ATOM      4  C   UNL A   1      39.723  21.743  26.300  1.00  0.00     0.251 C 
ATOM      5  H   UNL A   1      38.769  20.584  25.028  1.00  0.00     0.163 HD
BRANCH   4   6
ATOM      6  C   UNL A   1      39.938  23.059  26.964  1.00  0.00     0.039 A 
ATOM      7  C   UNL A   1      39.188  24.212  26.741  1.00  0.00     0.014 A 
ATOM      8  C   UNL A   1      41.037  23.140  27.842  1.00  0.00     0.014 A 
ATOM      9  C   UNL A   1      39.581  25.433  27.286  1.00  0.00     0.010 A 
ATOM     10  C   UNL A   1      41.416  24.351  28.418  1.00  0.00     0.010 A 
ATOM     11  C   UNL A   1      40.709  25.508  28.105  1.00  0.00    -0.014 A 
BRANCH  11  12
ATOM     12  C   UNL A   1      41.050  26.808  28.683  1.00  0.00     0.031 A 
ATOM     13  C   UNL A   1      42.264  27.484  28.134  1.00  0.00     0.074 A 
ATOM     14  C   UNL A   1      40.255  27.466  29.551  1.00  0.00     0.049 A 
ATOM     15  N   UNL A   1      43.282  27.968  28.773  1.00  0.00    -0.248 NA
ATOM     16  C   UNL A   1      42.360  27.613  26.672  1.00  0.00     0.031 C 
ATOM     17  C   UNL A   1      38.892  27.121  29.957  1.00  0.00     0.029 A 
ATOM     18  N   UNL A   1      40.475  28.665  30.170  1.00  0.00    -0.354 N 
ATOM     19  C   UNL A   1      44.082  28.593  27.815  1.00  0.00     0.074 A 
ATOM     20  C   UNL A   1      43.514  28.266  26.533  1.00  0.00     0.031 C 
ATOM     21  C   UNL A   1      38.333  28.187  30.573  1.00  0.00     0.029 A 
ATOM     22  C   UNL A   1      39.333  29.233  30.711  1.00  0.00     0.049 A 
ATOM     23  H   UNL A   1      41.363  29.086  30.224  1.00  0.00     0.167 HD
ATOM     24  C   UNL A   1      45.057  29.483  28.151  1.00  0.00     0.037 A 
ATOM     25  C   UNL A   1      39.195  30.499  31.171  1.00  0.00     0.037 A 
ATOM     26  C   UNL A   1      45.489  29.316  29.512  1.00  0.00     0.049 A 
ATOM     27  C   UNL A   1      40.544  31.049  31.440  1.00  0.00     0.074 A 
ATOM     28  C   UNL A   1      46.045  28.282  30.241  1.00  0.00     0.029 A 
ATOM     29  N   UNL A   1      45.135  30.259  30.441  1.00  0.00    -0.354 N 
ATOM     30  N   UNL A   1      41.316  30.678  32.421  1.00  0.00    -0.248 NA
ATOM     31  C   UNL A   1      41.199  31.806  30.382  1.00  0.00     0.031 C 
ATOM     32  C   UNL A   1      45.547  28.447  31.567  1.00  0.00     0.029 A 
ATOM     33  C   UNL A   1      44.730  29.577  31.557  1.00  0.00     0.049 A 
ATOM     34  H   UNL A   1      45.167  31.237  30.328  1.00  0.00     0.167 HD
ATOM     35  C   UNL A   1      42.600  30.784  31.916  1.00  0.00     0.074 A 
ATOM     36  C   UNL A   1      42.473  31.598  30.714  1.00  0.00     0.031 C 
ATOM     37  C   UNL A   1      43.600  29.969  32.361  1.00  0.00     0.037 A 
BRANCH  24  38
ATOM     38  C   UNL A   1      45.401  30.721  27.350  1.00  0.00     0.064 A 
ATOM     39  C   UNL A   1      46.750  30.975  27.018  1.00  0.00     0.173 A 
ATOM     40  C   UNL A   1      44.522  31.812  27.181  1.00  0.00     0.173 A 
ATOM     41  F   UNL A   1      47.678  30.014  27.141  1.00  0.00    -0.203 F 
ATOM     42  C   UNL A   1      47.197  32.248  26.653  1.00  0.00     0.198 A 
ATOM     43  C   UNL A   1      44.965  33.068  26.763  1.00  0.00     0.198 A 
ATOM     44  F   UNL A   1      43.229  31.743  27.515  1.00  0.00    -0.203 F 
ATOM     45  F   UNL A   1      48.508  32.471  26.491  1.00  0.00    -0.200 F 
ATOM     46  C   UNL A   1      46.305  33.297  26.537  1.00  0.00     0.200 A 
ATOM     47  F   UNL A   1      44.086  34.076  26.664  1.00  0.00    -0.200 F 
ATOM     48  F   UNL A   1      46.739  34.533  26.261  1.00  0.00    -0.200 F 
ENDBRANCH  24  38
BRANCH  25  49
ATOM     49  C   UNL A   1      37.985  31.351  31.156  1.00  0.00     0.064 A 
ATOM     50  C   UNL A   1      37.292  31.651  32.339  1.00  0.00     0.173 A 
ATOM     51  C   UNL A   1      37.632  32.098  30.016  1.00  0.00     0.173 A 
ATOM     52  F   UNL A   1      37.603  31.022  33.482  1.00  0.00    -0.203 F 
ATOM     53  C   UNL A   1      36.312  32.648  32.381  1.00  0.00     0.198 A 
ATOM     54  C   UNL A   1      36.645  33.083  30.055  1.00  0.00     0.198 A 
ATOM     55  F   UNL A   1      38.302  31.953  28.863  1.00  0.00    -0.203 F 
ATOM     56  F   UNL A   1      35.713  32.948  33.541  1.00  0.00    -0.200 F 
ATOM     57  C   UNL A   1      35.994  33.367  31.240  1.00  0.00     0.200 A 
ATOM     58  F   UNL A   1      36.374  33.795  28.951  1.00  0.00    -0.200 F 
ATOM     59  F   UNL A   1      35.093  34.357  31.291  1.00  0.00    -0.200 F 
ENDBRANCH  25  49
BRANCH  37  60
ATOM     60  C   UNL A   1      43.369  29.199  33.624  1.00  0.00     0.064 A 
ATOM     61  C   UNL A   1      43.723  29.673  34.899  1.00  0.00     0.173 A 
ATOM     62  C   UNL A   1      42.639  28.005  33.555  1.00  0.00     0.173 A 
ATOM     63  F   UNL A   1      44.323  30.861  35.050  1.00  0.00    -0.203 F 
ATOM     64  C   UNL A   1      43.405  28.952  36.048  1.00  0.00     0.198 A 
ATOM     65  C   UNL A   1      42.290  27.306  34.707  1.00  0.00     0.198 A 
ATOM     66  F   UNL A   1      42.220  27.539  32.367  1.00  0.00    -0.203 F 
ATOM     67  F   UNL A   1      43.765  29.417  37.253  1.00  0.00    -0.200 F 
ATOM     68  C   UNL A   1      42.684  27.773  35.950  1.00  0.00     0.200 A 
ATOM     69  F   UNL A   1      41.548  26.194  34.613  1.00  0.00    -0.200 F 
ATOM     70  F   UNL A   1      42.342  27.101  37.059  1.00  0.00    -0.200 F 
ENDBRANCH  37  60
ENDBRANCH  11  12
ENDBRANCH   4   6
ENDBRANCH   1   2
BRANCH   1  71
ATOM     71  C   UNL A   1      36.881  22.321  24.008  1.00  0.00     0.042 C 
BRANCH  71  72
ATOM     72  C   UNL A   1      35.853  23.440  23.906  1.00  0.00     0.118 C 
BRANCH  72  73
ATOM     73  N   UNL A   1      34.675  23.085  23.131  1.00  0.00    -0.352 N 
ATOM     74  C   UNL A   1      33.395  23.557  23.233  1.00  0.00     0.255 C 
ATOM     75  H   UNL A   1      34.818  22.407  22.431  1.00  0.00     0.163 HD
ATOM     76  O   UNL A   1      32.522  23.157  22.462  1.00  0.00    -0.269 OA
BRANCH  74  77
ATOM     77  C   UNL A   1      33.091  24.505  24.282  1.00  0.00     0.101 A 
ATOM     78  C   UNL A   1      32.789  24.183  25.628  1.00  0.00     0.180 A 
ATOM     79  C   UNL A   1      33.033  25.900  24.198  1.00  0.00     0.143 A 
ATOM     80  N   UNL A   1      32.766  25.299  26.373  1.00  0.00    -0.162 NA
ATOM     81  N   UNL A   1      32.875  26.333  25.504  1.00  0.00    -0.229 N 
BRANCH  78  82
ATOM     82  C   UNL A   1      32.603  22.813  26.237  1.00  0.00     0.436 C 
ATOM     83  F   UNL A   1      33.734  22.061  26.150  1.00  0.00    -0.164 F 
ATOM     84  F   UNL A   1      32.277  22.882  27.556  1.00  0.00    -0.164 F 
ATOM     85  F   UNL A   1      31.628  22.086  25.632  1.00  0.00    -0.164 F 
ENDBRANCH  78  82
BRANCH  79  86
ATOM     86  C   UNL A   1      33.303  26.825  23.063  1.00  0.00     0.365 C 
ATOM     87  F   UNL A   1      34.125  27.849  23.389  1.00  0.00    -0.181 F 
ATOM     88  F   UNL A   1      33.930  26.144  22.064  1.00  0.00    -0.181 F 
ATOM     89  Cl  UNL A   1      31.839  27.581  22.394  1.00  0.00    -0.040 Cl
ENDBRANCH  79  86
BRANCH  81  90
ATOM     90  C   UNL A   1      32.943  27.641  26.046  1.00  0.00     0.065 A 
ATOM     91  C   UNL A   1      31.797  28.446  25.995  1.00  0.00     0.028 A 
ATOM     92  C   UNL A   1      34.127  28.145  26.586  1.00  0.00     0.028 A 
ATOM     93  C   UNL A   1      31.815  29.715  26.576  1.00  0.00     0.002 A 
ATOM     94  C   UNL A   1      34.140  29.418  27.158  1.00  0.00     0.002 A 
ATOM     95  C   UNL A   1      32.982  30.194  27.168  1.00  0.00     0.000 A 
ENDBRANCH  81  90
ENDBRANCH  74  77
ENDBRANCH  72  73
ENDBRANCH  71  72
ENDBRANCH   1  71
TORSDOF 13
ENDMDL
