MODEL 1
REMARK VINA RESULT:     -11.8      0.000      0.000
REMARK SMILES CC(C)[NH2+][C@]1(C(=O)NCCCNC(=O)c2ccc(-c3c4nc(c(-c5c(F)c(F)c(F)c(F)c5F)c5ccc([nH]5)c(-c5c(F)c(F)c(F)c(F)c5F)c5nc(c(-c6c(F)c(F)c(F)c(F)c6F)c6ccc3[nH]6)C=C5)C=C4)cc2)CCC[C@@H]1CCSc1cnccn1
REMARK SMILES IDX 9 1 8 2 6 3 7 4 5 6 78 7 81 8 79 9 80 10 4 11 2 14 1 15 3 16
REMARK SMILES IDX 82 17 83 18 84 19 85 20 86 21 90 22 87 23 89 24 88 25 10 26
REMARK SMILES IDX 11 27 12 28 13 29 14 31 15 32 16 33 77 34 17 35 76 36 18 37
REMARK SMILES IDX 19 38 20 39 70 40 21 41 75 42 69 43 71 44 22 45 74 46 68 47
REMARK SMILES IDX 67 48 23 50 55 51 35 52 54 53 36 54 39 55 53 56 72 57 37 58
REMARK SMILES IDX 38 59 52 61 73 62 40 63 24 64 25 65 33 66 26 67 27 68 31 69
REMARK SMILES IDX 34 70 28 71 29 72 32 73 30 74 56 75 57 76 65 77 58 78 59 79
REMARK SMILES IDX 63 80 66 81 60 82 61 83 64 84 62 85 41 86 42 87 50 88 43 89
REMARK SMILES IDX 44 90 48 91 51 92 45 93 46 94 49 95 47 96
REMARK H PARENT 8 5 4 12 4 13 12 30 71 49 39 60
REMARK Flexibility Score: inf
ROOT
ATOM      1  C   UNL A   1      33.929  28.166  22.897  1.00  0.00     0.118 C 
ENDROOT
BRANCH   1   2
ATOM      2  N   UNL A   1      33.102  27.242  22.144  1.00  0.00    -0.351 N 
ATOM      3  C   UNL A   1      32.324  26.171  22.441  1.00  0.00     0.281 C 
ATOM      4  O   UNL A   1      31.888  25.573  21.446  1.00  0.00    -0.268 OA
ATOM      5  H   UNL A   1      33.107  27.440  21.180  1.00  0.00     0.163 HD
BRANCH   3   6
ATOM      6  C   UNL A   1      32.026  25.624  23.868  1.00  0.00     0.178 C 
ATOM      7  C   UNL A   1      33.174  25.625  24.887  1.00  0.00     0.079 C 
ATOM      8  C   UNL A   1      31.090  26.671  24.575  1.00  0.00     0.061 C 
ATOM      9  C   UNL A   1      32.529  25.634  26.266  1.00  0.00     0.008 C 
ATOM     10  C   UNL A   1      31.225  26.403  26.088  1.00  0.00     0.011 C 
BRANCH   6  11
ATOM     11  N   UNL A   1      31.338  24.304  23.815  1.00  0.00    -0.331 N 
ATOM     12  H   UNL A   1      30.632  24.298  24.551  1.00  0.00     0.347 HD
ATOM     13  H   UNL A   1      30.978  24.236  22.863  1.00  0.00     0.347 HD
BRANCH  11  14
ATOM     14  C   UNL A   1      32.162  23.098  23.989  1.00  0.00     0.176 C 
ATOM     15  C   UNL A   1      31.523  22.279  25.116  1.00  0.00     0.075 C 
ATOM     16  C   UNL A   1      32.216  22.213  22.734  1.00  0.00     0.075 C 
ENDBRANCH  11  14
ENDBRANCH   6  11
BRANCH   8  17
ATOM     17  C   UNL A   1      29.612  26.728  24.133  1.00  0.00     0.022 C 
BRANCH  17  18
ATOM     18  C   UNL A   1      29.311  27.846  23.127  1.00  0.00     0.077 C 
BRANCH  18  19
ATOM     19  S   UNL A   1      27.573  28.440  23.163  1.00  0.00    -0.105 SA
BRANCH  19  20
ATOM     20  C   UNL A   1      27.757  30.096  22.559  1.00  0.00     0.114 A 
ATOM     21  C   UNL A   1      27.663  31.205  23.394  1.00  0.00     0.146 A 
ATOM     22  N   UNL A   1      28.036  30.244  21.243  1.00  0.00    -0.247 NA
ATOM     23  N   UNL A   1      27.888  32.477  22.972  1.00  0.00    -0.260 NA
ATOM     24  C   UNL A   1      28.248  31.507  20.814  1.00  0.00     0.132 A 
ATOM     25  C   UNL A   1      28.185  32.599  21.659  1.00  0.00     0.131 A 
ENDBRANCH  19  20
ENDBRANCH  18  19
ENDBRANCH  17  18
ENDBRANCH   8  17
ENDBRANCH   3   6
ENDBRANCH   1   2
BRANCH   1  26
ATOM     26  C   UNL A   1      33.115  29.249  23.592  1.00  0.00     0.042 C 
BRANCH  26  27
ATOM     27  C   UNL A   1      33.364  29.324  25.093  1.00  0.00     0.118 C 
BRANCH  27  28
ATOM     28  N   UNL A   1      32.844  30.557  25.672  1.00  0.00    -0.352 N 
ATOM     29  C   UNL A   1      33.189  31.215  26.819  1.00  0.00     0.251 C 
ATOM     30  H   UNL A   1      32.127  30.987  25.150  1.00  0.00     0.163 HD
ATOM     31  O   UNL A   1      32.440  32.097  27.257  1.00  0.00    -0.269 OA
BRANCH  29  32
ATOM     32  C   UNL A   1      34.439  30.900  27.540  1.00  0.00     0.039 A 
ATOM     33  C   UNL A   1      34.648  29.597  28.002  1.00  0.00     0.014 A 
ATOM     34  C   UNL A   1      35.372  31.897  27.838  1.00  0.00     0.014 A 
ATOM     35  C   UNL A   1      35.800  29.289  28.730  1.00  0.00     0.010 A 
ATOM     36  C   UNL A   1      36.561  31.573  28.482  1.00  0.00     0.010 A 
ATOM     37  C   UNL A   1      36.773  30.274  28.963  1.00  0.00    -0.014 A 
BRANCH  37  38
ATOM     38  C   UNL A   1      37.985  29.991  29.771  1.00  0.00     0.031 A 
ATOM     39  C   UNL A   1      39.045  29.071  29.225  1.00  0.00     0.074 A 
ATOM     40  C   UNL A   1      38.105  30.503  31.010  1.00  0.00     0.049 A 
ATOM     41  N   UNL A   1      40.128  28.615  29.802  1.00  0.00    -0.248 NA
ATOM     42  C   UNL A   1      38.842  28.571  27.856  1.00  0.00     0.031 C 
ATOM     43  C   UNL A   1      37.126  31.369  31.667  1.00  0.00     0.029 A 
ATOM     44  N   UNL A   1      39.100  30.358  31.943  1.00  0.00    -0.354 N 
ATOM     45  C   UNL A   1      40.711  27.755  28.881  1.00  0.00     0.074 A 
ATOM     46  C   UNL A   1      39.839  27.710  27.729  1.00  0.00     0.031 C 
ATOM     47  C   UNL A   1      37.579  31.696  32.888  1.00  0.00     0.029 A 
ATOM     48  C   UNL A   1      38.862  31.037  33.112  1.00  0.00     0.049 A 
ATOM     49  H   UNL A   1      39.908  29.817  31.789  1.00  0.00     0.167 HD
ATOM     50  C   UNL A   1      41.883  27.082  28.976  1.00  0.00     0.037 A 
ATOM     51  C   UNL A   1      39.597  31.114  34.237  1.00  0.00     0.037 A 
ATOM     52  C   UNL A   1      42.772  27.167  30.104  1.00  0.00     0.049 A 
ATOM     53  C   UNL A   1      40.912  30.385  34.305  1.00  0.00     0.074 A 
ATOM     54  C   UNL A   1      44.008  26.572  30.278  1.00  0.00     0.029 A 
ATOM     55  N   UNL A   1      42.518  27.907  31.250  1.00  0.00    -0.354 N 
ATOM     56  N   UNL A   1      41.480  29.617  33.408  1.00  0.00    -0.248 NA
ATOM     57  C   UNL A   1      41.694  30.544  35.539  1.00  0.00     0.031 C 
ATOM     58  C   UNL A   1      44.489  26.927  31.543  1.00  0.00     0.029 A 
ATOM     59  C   UNL A   1      43.572  27.779  32.138  1.00  0.00     0.049 A 
ATOM     60  H   UNL A   1      41.707  28.444  31.408  1.00  0.00     0.167 HD
ATOM     61  C   UNL A   1      42.697  29.230  33.951  1.00  0.00     0.074 A 
ATOM     62  C   UNL A   1      42.791  29.857  35.254  1.00  0.00     0.031 C 
ATOM     63  C   UNL A   1      43.654  28.430  33.420  1.00  0.00     0.037 A 
BRANCH  50  64
ATOM     64  C   UNL A   1      42.275  26.205  27.821  1.00  0.00     0.064 A 
ATOM     65  C   UNL A   1      43.177  26.640  26.839  1.00  0.00     0.173 A 
ATOM     66  C   UNL A   1      41.760  24.904  27.708  1.00  0.00     0.173 A 
ATOM     67  F   UNL A   1      43.687  27.880  26.892  1.00  0.00    -0.203 F 
ATOM     68  C   UNL A   1      43.522  25.820  25.768  1.00  0.00     0.198 A 
ATOM     69  C   UNL A   1      42.132  24.075  26.654  1.00  0.00     0.198 A 
ATOM     70  F   UNL A   1      40.899  24.436  28.623  1.00  0.00    -0.203 F 
ATOM     71  F   UNL A   1      44.342  26.279  24.812  1.00  0.00    -0.200 F 
ATOM     72  C   UNL A   1      43.005  24.537  25.679  1.00  0.00     0.200 A 
ATOM     73  F   UNL A   1      41.641  22.831  26.575  1.00  0.00    -0.200 F 
ATOM     74  F   UNL A   1      43.342  23.746  24.651  1.00  0.00    -0.200 F 
ENDBRANCH  50  64
BRANCH  51  75
ATOM     75  C   UNL A   1      39.129  31.948  35.374  1.00  0.00     0.064 A 
ATOM     76  C   UNL A   1      38.386  31.383  36.419  1.00  0.00     0.173 A 
ATOM     77  C   UNL A   1      39.413  33.320  35.441  1.00  0.00     0.173 A 
ATOM     78  F   UNL A   1      38.074  30.079  36.389  1.00  0.00    -0.203 F 
ATOM     79  C   UNL A   1      37.923  32.162  37.477  1.00  0.00     0.198 A 
ATOM     80  C   UNL A   1      38.973  34.093  36.513  1.00  0.00     0.198 A 
ATOM     81  F   UNL A   1      40.127  33.906  34.470  1.00  0.00    -0.203 F 
ATOM     82  F   UNL A   1      37.177  31.604  38.440  1.00  0.00    -0.200 F 
ATOM     83  C   UNL A   1      38.221  33.515  37.527  1.00  0.00     0.200 A 
ATOM     84  F   UNL A   1      39.274  35.397  36.565  1.00  0.00    -0.200 F 
ATOM     85  F   UNL A   1      37.780  34.264  38.546  1.00  0.00    -0.200 F 
ENDBRANCH  51  75
BRANCH  63  86
ATOM     86  C   UNL A   1      44.907  28.230  34.221  1.00  0.00     0.064 A 
ATOM     87  C   UNL A   1      46.023  29.063  34.067  1.00  0.00     0.173 A 
ATOM     88  C   UNL A   1      44.970  27.212  35.185  1.00  0.00     0.173 A 
ATOM     89  F   UNL A   1      46.014  30.039  33.147  1.00  0.00    -0.203 F 
ATOM     90  C   UNL A   1      47.169  28.868  34.832  1.00  0.00     0.198 A 
ATOM     91  C   UNL A   1      46.107  27.039  35.969  1.00  0.00     0.198 A 
ATOM     92  F   UNL A   1      43.924  26.394  35.376  1.00  0.00    -0.203 F 
ATOM     93  F   UNL A   1      48.243  29.646  34.637  1.00  0.00    -0.200 F 
ATOM     94  C   UNL A   1      47.209  27.862  35.786  1.00  0.00     0.200 A 
ATOM     95  F   UNL A   1      46.138  26.075  36.898  1.00  0.00    -0.200 F 
ATOM     96  F   UNL A   1      48.311  27.681  36.526  1.00  0.00    -0.200 F 
ENDBRANCH  63  86
ENDBRANCH  37  38
ENDBRANCH  29  32
ENDBRANCH  27  28
ENDBRANCH  26  27
ENDBRANCH   1  26
TORSDOF 16
ENDMDL
MODEL 2
REMARK VINA RESULT:     -11.7      0.483      7.306
REMARK SMILES CC(C)[NH2+][C@]1(C(=O)NCCCNC(=O)c2ccc(-c3c4nc(c(-c5c(F)c(F)c(F)c(F)c5F)c5ccc([nH]5)c(-c5c(F)c(F)c(F)c(F)c5F)c5nc(c(-c6c(F)c(F)c(F)c(F)c6F)c6ccc3[nH]6)C=C5)C=C4)cc2)CCC[C@@H]1CCSc1cnccn1
REMARK SMILES IDX 9 1 8 2 6 3 7 4 5 6 78 7 81 8 79 9 80 10 4 11 2 14 1 15 3 16
REMARK SMILES IDX 82 17 83 18 84 19 85 20 86 21 90 22 87 23 89 24 88 25 10 26
REMARK SMILES IDX 11 27 12 28 13 29 14 31 15 32 16 33 77 34 17 35 76 36 18 37
REMARK SMILES IDX 19 38 20 39 70 40 21 41 75 42 69 43 71 44 22 45 74 46 68 47
REMARK SMILES IDX 67 48 23 50 55 51 35 52 54 53 36 54 39 55 53 56 72 57 37 58
REMARK SMILES IDX 38 59 52 61 73 62 40 63 24 64 25 65 33 66 26 67 27 68 31 69
REMARK SMILES IDX 34 70 28 71 29 72 32 73 30 74 56 75 57 76 65 77 58 78 59 79
REMARK SMILES IDX 63 80 66 81 60 82 61 83 64 84 62 85 41 86 42 87 50 88 43 89
REMARK SMILES IDX 44 90 48 91 51 92 45 93 46 94 49 95 47 96
REMARK H PARENT 8 5 4 12 4 13 12 30 71 49 39 60
REMARK Flexibility Score: inf
ROOT
ATOM      1  C   UNL A   1      34.029  28.126  23.371  1.00  0.00     0.118 C 
ENDROOT
BRANCH   1   2
ATOM      2  N   UNL A   1      33.326  27.179  22.526  1.00  0.00    -0.351 N 
ATOM      3  C   UNL A   1      32.514  26.112  22.731  1.00  0.00     0.281 C 
ATOM      4  O   UNL A   1      32.233  25.486  21.697  1.00  0.00    -0.268 OA
ATOM      5  H   UNL A   1      33.475  27.352  21.569  1.00  0.00     0.163 HD
BRANCH   3   6
ATOM      6  C   UNL A   1      32.005  25.599  24.110  1.00  0.00     0.178 C 
ATOM      7  C   UNL A   1      32.976  25.663  25.298  1.00  0.00     0.079 C 
ATOM      8  C   UNL A   1      30.945  26.641  24.626  1.00  0.00     0.061 C 
ATOM      9  C   UNL A   1      32.120  25.696  26.556  1.00  0.00     0.008 C 
ATOM     10  C   UNL A   1      30.845  26.423  26.149  1.00  0.00     0.011 C 
BRANCH   6  11
ATOM     11  N   UNL A   1      31.363  24.260  23.995  1.00  0.00    -0.331 N 
ATOM     12  H   UNL A   1      30.581  24.239  24.649  1.00  0.00     0.347 HD
ATOM     13  H   UNL A   1      31.112  24.177  23.010  1.00  0.00     0.347 HD
BRANCH  11  14
ATOM     14  C   UNL A   1      32.196  23.079  24.269  1.00  0.00     0.176 C 
ATOM     15  C   UNL A   1      31.459  22.250  25.327  1.00  0.00     0.075 C 
ATOM     16  C   UNL A   1      32.411  22.188  23.036  1.00  0.00     0.075 C 
ENDBRANCH  11  14
ENDBRANCH   6  11
BRANCH   8  17
ATOM     17  C   UNL A   1      29.556  26.645  23.954  1.00  0.00     0.022 C 
BRANCH  17  18
ATOM     18  C   UNL A   1      29.297  27.875  23.074  1.00  0.00     0.077 C 
BRANCH  18  19
ATOM     19  S   UNL A   1      27.568  28.491  23.135  1.00  0.00    -0.105 SA
BRANCH  19  20
ATOM     20  C   UNL A   1      27.762  30.140  22.512  1.00  0.00     0.114 A 
ATOM     21  C   UNL A   1      27.666  31.259  23.333  1.00  0.00     0.146 A 
ATOM     22  N   UNL A   1      28.049  30.270  21.197  1.00  0.00    -0.247 NA
ATOM     23  N   UNL A   1      27.899  32.524  22.897  1.00  0.00    -0.260 NA
ATOM     24  C   UNL A   1      28.268  31.527  20.753  1.00  0.00     0.132 A 
ATOM     25  C   UNL A   1      28.204  32.629  21.585  1.00  0.00     0.131 A 
ENDBRANCH  19  20
ENDBRANCH  18  19
ENDBRANCH  17  18
ENDBRANCH   8  17
ENDBRANCH   3   6
ENDBRANCH   1   2
BRANCH   1  26
ATOM     26  C   UNL A   1      33.109  29.193  23.948  1.00  0.00     0.042 C 
BRANCH  26  27
ATOM     27  C   UNL A   1      33.289  29.402  25.446  1.00  0.00     0.118 C 
BRANCH  27  28
ATOM     28  N   UNL A   1      32.939  30.758  25.854  1.00  0.00    -0.352 N 
ATOM     29  C   UNL A   1      33.356  31.499  26.924  1.00  0.00     0.251 C 
ATOM     30  H   UNL A   1      32.300  31.214  25.261  1.00  0.00     0.163 HD
ATOM     31  O   UNL A   1      32.733  32.523  27.227  1.00  0.00    -0.269 OA
BRANCH  29  32
ATOM     32  C   UNL A   1      34.537  31.105  27.720  1.00  0.00     0.039 A 
ATOM     33  C   UNL A   1      35.553  32.041  27.937  1.00  0.00     0.014 A 
ATOM     34  C   UNL A   1      34.690  29.796  28.185  1.00  0.00     0.014 A 
ATOM     35  C   UNL A   1      36.702  31.674  28.643  1.00  0.00     0.010 A 
ATOM     36  C   UNL A   1      35.790  29.456  28.966  1.00  0.00     0.010 A 
ATOM     37  C   UNL A   1      36.821  30.380  29.176  1.00  0.00    -0.014 A 
BRANCH  37  38
ATOM     38  C   UNL A   1      38.047  29.947  29.891  1.00  0.00     0.031 A 
ATOM     39  C   UNL A   1      38.305  30.439  31.291  1.00  0.00     0.074 A 
ATOM     40  C   UNL A   1      38.953  29.169  29.268  1.00  0.00     0.049 A 
ATOM     41  N   UNL A   1      39.354  30.263  32.054  1.00  0.00    -0.248 NA
ATOM     42  C   UNL A   1      37.254  31.269  31.901  1.00  0.00     0.031 C 
ATOM     43  C   UNL A   1      38.838  28.667  27.900  1.00  0.00     0.029 A 
ATOM     44  N   UNL A   1      40.156  28.677  29.705  1.00  0.00    -0.354 N 
ATOM     45  C   UNL A   1      39.101  30.984  33.213  1.00  0.00     0.074 A 
ATOM     46  C   UNL A   1      37.826  31.642  33.035  1.00  0.00     0.031 C 
ATOM     47  C   UNL A   1      39.917  27.918  27.616  1.00  0.00     0.029 A 
ATOM     48  C   UNL A   1      40.812  27.916  28.768  1.00  0.00     0.049 A 
ATOM     49  H   UNL A   1      40.516  28.852  30.604  1.00  0.00     0.167 HD
ATOM     50  C   UNL A   1      39.852  31.069  34.338  1.00  0.00     0.037 A 
ATOM     51  C   UNL A   1      42.003  27.293  28.835  1.00  0.00     0.037 A 
ATOM     52  C   UNL A   1      41.097  30.374  34.530  1.00  0.00     0.049 A 
ATOM     53  C   UNL A   1      42.803  27.374  30.108  1.00  0.00     0.074 A 
ATOM     54  C   UNL A   1      41.909  30.346  35.649  1.00  0.00     0.029 A 
ATOM     55  N   UNL A   1      41.704  29.572  33.574  1.00  0.00    -0.354 N 
ATOM     56  N   UNL A   1      42.529  28.015  31.218  1.00  0.00    -0.248 NA
ATOM     57  C   UNL A   1      44.072  26.634  30.140  1.00  0.00     0.031 C 
ATOM     58  C   UNL A   1      43.024  29.552  35.361  1.00  0.00     0.029 A 
ATOM     59  C   UNL A   1      42.883  29.049  34.076  1.00  0.00     0.049 A 
ATOM     60  H   UNL A   1      41.348  29.400  32.671  1.00  0.00     0.167 HD
ATOM     61  C   UNL A   1      43.570  27.729  32.090  1.00  0.00     0.074 A 
ATOM     62  C   UNL A   1      44.477  26.848  31.384  1.00  0.00     0.031 C 
ATOM     63  C   UNL A   1      43.758  28.156  33.363  1.00  0.00     0.037 A 
BRANCH  50  64
ATOM     64  C   UNL A   1      39.338  31.937  35.451  1.00  0.00     0.064 A 
ATOM     65  C   UNL A   1      38.502  31.428  36.455  1.00  0.00     0.173 A 
ATOM     66  C   UNL A   1      39.706  33.289  35.528  1.00  0.00     0.173 A 
ATOM     67  F   UNL A   1      38.109  30.145  36.421  1.00  0.00    -0.203 F 
ATOM     68  C   UNL A   1      38.024  32.246  37.474  1.00  0.00     0.198 A 
ATOM     69  C   UNL A   1      39.252  34.097  36.566  1.00  0.00     0.198 A 
ATOM     70  F   UNL A   1      40.508  33.826  34.597  1.00  0.00    -0.203 F 
ATOM     71  F   UNL A   1      37.180  31.750  38.391  1.00  0.00    -0.200 F 
ATOM     72  C   UNL A   1      38.404  33.578  37.533  1.00  0.00     0.200 A 
ATOM     73  F   UNL A   1      39.630  35.381  36.628  1.00  0.00    -0.200 F 
ATOM     74  F   UNL A   1      37.948  34.365  38.518  1.00  0.00    -0.200 F 
ENDBRANCH  50  64
BRANCH  51  75
ATOM     75  C   UNL A   1      42.491  26.499  27.678  1.00  0.00     0.064 A 
ATOM     76  C   UNL A   1      42.038  25.189  27.467  1.00  0.00     0.173 A 
ATOM     77  C   UNL A   1      43.413  27.027  26.765  1.00  0.00     0.173 A 
ATOM     78  F   UNL A   1      41.169  24.635  28.325  1.00  0.00    -0.203 F 
ATOM     79  C   UNL A   1      42.507  24.429  26.397  1.00  0.00     0.198 A 
ATOM     80  C   UNL A   1      43.862  26.276  25.681  1.00  0.00     0.198 A 
ATOM     81  F   UNL A   1      43.871  28.278  26.919  1.00  0.00    -0.203 F 
ATOM     82  F   UNL A   1      42.091  23.165  26.244  1.00  0.00    -0.200 F 
ATOM     83  C   UNL A   1      43.415  24.974  25.502  1.00  0.00     0.200 A 
ATOM     84  F   UNL A   1      44.728  26.810  24.809  1.00  0.00    -0.200 F 
ATOM     85  F   UNL A   1      43.863  24.245  24.472  1.00  0.00    -0.200 F 
ENDBRANCH  51  75
BRANCH  63  86
ATOM     86  C   UNL A   1      44.962  27.634  34.093  1.00  0.00     0.064 A 
ATOM     87  C   UNL A   1      46.181  28.325  34.093  1.00  0.00     0.173 A 
ATOM     88  C   UNL A   1      44.875  26.445  34.833  1.00  0.00     0.173 A 
ATOM     89  F   UNL A   1      46.315  29.458  33.388  1.00  0.00    -0.203 F 
ATOM     90  C   UNL A   1      47.280  27.830  34.790  1.00  0.00     0.198 A 
ATOM     91  C   UNL A   1      45.968  25.969  35.552  1.00  0.00     0.198 A 
ATOM     92  F   UNL A   1      43.728  25.752  34.870  1.00  0.00    -0.203 F 
ATOM     93  F   UNL A   1      48.450  28.482  34.741  1.00  0.00    -0.200 F 
ATOM     94  C   UNL A   1      47.172  26.658  35.523  1.00  0.00     0.200 A 
ATOM     95  F   UNL A   1      45.858  24.843  36.269  1.00  0.00    -0.200 F 
ATOM     96  F   UNL A   1      48.229  26.188  36.198  1.00  0.00    -0.200 F 
ENDBRANCH  63  86
ENDBRANCH  37  38
ENDBRANCH  29  32
ENDBRANCH  27  28
ENDBRANCH  26  27
ENDBRANCH   1  26
TORSDOF 16
ENDMDL
MODEL 3
REMARK VINA RESULT:     -11.7      3.312      8.795
REMARK SMILES CC(C)[NH2+][C@]1(C(=O)NCCCNC(=O)c2ccc(-c3c4nc(c(-c5c(F)c(F)c(F)c(F)c5F)c5ccc([nH]5)c(-c5c(F)c(F)c(F)c(F)c5F)c5nc(c(-c6c(F)c(F)c(F)c(F)c6F)c6ccc3[nH]6)C=C5)C=C4)cc2)CCC[C@@H]1CCSc1cnccn1
REMARK SMILES IDX 9 1 8 2 6 3 7 4 5 6 78 7 81 8 79 9 80 10 4 11 2 14 1 15 3 16
REMARK SMILES IDX 82 17 83 18 84 19 85 20 86 21 90 22 87 23 89 24 88 25 10 26
REMARK SMILES IDX 11 27 12 28 13 29 14 31 15 32 16 33 77 34 17 35 76 36 18 37
REMARK SMILES IDX 19 38 20 39 70 40 21 41 75 42 69 43 71 44 22 45 74 46 68 47
REMARK SMILES IDX 67 48 23 50 55 51 35 52 54 53 36 54 39 55 53 56 72 57 37 58
REMARK SMILES IDX 38 59 52 61 73 62 40 63 24 64 25 65 33 66 26 67 27 68 31 69
REMARK SMILES IDX 34 70 28 71 29 72 32 73 30 74 56 75 57 76 65 77 58 78 59 79
REMARK SMILES IDX 63 80 66 81 60 82 61 83 64 84 62 85 41 86 42 87 50 88 43 89
REMARK SMILES IDX 44 90 48 91 51 92 45 93 46 94 49 95 47 96
REMARK H PARENT 8 5 4 12 4 13 12 30 71 49 39 60
REMARK Flexibility Score: inf
ROOT
ATOM      1  C   UNL A   1      31.623  27.005  26.220  1.00  0.00     0.118 C 
ENDROOT
BRANCH   1   2
ATOM      2  N   UNL A   1      31.379  25.697  26.799  1.00  0.00    -0.351 N 
ATOM      3  C   UNL A   1      31.910  24.458  26.655  1.00  0.00     0.281 C 
ATOM      4  O   UNL A   1      31.294  23.571  27.265  1.00  0.00    -0.268 OA
ATOM      5  H   UNL A   1      30.648  25.713  27.458  1.00  0.00     0.163 HD
BRANCH   3   6
ATOM      6  C   UNL A   1      33.126  24.081  25.758  1.00  0.00     0.178 C 
ATOM      7  C   UNL A   1      34.260  25.107  25.625  1.00  0.00     0.079 C 
ATOM      8  C   UNL A   1      33.924  22.956  26.515  1.00  0.00     0.061 C 
ATOM      9  C   UNL A   1      35.510  24.325  25.246  1.00  0.00     0.008 C 
ATOM     10  C   UNL A   1      35.342  22.964  25.909  1.00  0.00     0.011 C 
BRANCH   6  11
ATOM     11  N   UNL A   1      32.690  23.567  24.430  1.00  0.00    -0.331 N 
ATOM     12  H   UNL A   1      33.477  23.062  24.024  1.00  0.00     0.347 HD
ATOM     13  H   UNL A   1      31.864  23.002  24.630  1.00  0.00     0.347 HD
BRANCH  11  14
ATOM     14  C   UNL A   1      32.238  24.550  23.434  1.00  0.00     0.176 C 
ATOM     15  C   UNL A   1      32.932  24.197  22.113  1.00  0.00     0.075 C 
ATOM     16  C   UNL A   1      30.721  24.519  23.194  1.00  0.00     0.075 C 
ENDBRANCH  11  14
ENDBRANCH   6  11
BRANCH   8  17
ATOM     17  C   UNL A   1      33.318  21.536  26.537  1.00  0.00     0.022 C 
BRANCH  17  18
ATOM     18  C   UNL A   1      33.868  20.611  25.444  1.00  0.00     0.077 C 
BRANCH  18  19
ATOM     19  S   UNL A   1      32.580  19.903  24.342  1.00  0.00    -0.105 SA
BRANCH  19  20
ATOM     20  C   UNL A   1      32.866  18.165  24.544  1.00  0.00     0.114 A 
ATOM     21  C   UNL A   1      33.616  17.427  23.634  1.00  0.00     0.146 A 
ATOM     22  N   UNL A   1      32.352  17.582  25.651  1.00  0.00    -0.247 NA
ATOM     23  N   UNL A   1      33.923  16.115  23.813  1.00  0.00    -0.260 NA
ATOM     24  C   UNL A   1      32.642  16.274  25.828  1.00  0.00     0.132 A 
ATOM     25  C   UNL A   1      33.417  15.558  24.935  1.00  0.00     0.131 A 
ENDBRANCH  19  20
ENDBRANCH  18  19
ENDBRANCH  17  18
ENDBRANCH   8  17
ENDBRANCH   3   6
ENDBRANCH   1   2
BRANCH   1  26
ATOM     26  C   UNL A   1      32.254  27.976  27.208  1.00  0.00     0.042 C 
BRANCH  26  27
ATOM     27  C   UNL A   1      33.538  28.615  26.693  1.00  0.00     0.118 C 
BRANCH  27  28
ATOM     28  N   UNL A   1      33.569  30.053  26.939  1.00  0.00    -0.352 N 
ATOM     29  C   UNL A   1      34.438  30.809  27.674  1.00  0.00     0.251 C 
ATOM     30  H   UNL A   1      32.846  30.561  26.504  1.00  0.00     0.163 HD
ATOM     31  O   UNL A   1      34.127  31.970  27.968  1.00  0.00    -0.269 OA
BRANCH  29  32
ATOM     32  C   UNL A   1      35.741  30.272  28.117  1.00  0.00     0.039 A 
ATOM     33  C   UNL A   1      35.856  29.745  29.407  1.00  0.00     0.014 A 
ATOM     34  C   UNL A   1      36.872  30.358  27.301  1.00  0.00     0.014 A 
ATOM     35  C   UNL A   1      37.091  29.279  29.864  1.00  0.00     0.010 A 
ATOM     36  C   UNL A   1      38.079  29.811  27.720  1.00  0.00     0.010 A 
ATOM     37  C   UNL A   1      38.210  29.295  29.016  1.00  0.00    -0.014 A 
BRANCH  37  38
ATOM     38  C   UNL A   1      39.545  28.849  29.486  1.00  0.00     0.031 A 
ATOM     39  C   UNL A   1      40.309  29.697  30.469  1.00  0.00     0.074 A 
ATOM     40  C   UNL A   1      40.096  27.725  28.990  1.00  0.00     0.049 A 
ATOM     41  N   UNL A   1      41.525  29.543  30.930  1.00  0.00    -0.248 NA
ATOM     42  C   UNL A   1      39.626  30.899  30.973  1.00  0.00     0.031 C 
ATOM     43  C   UNL A   1      39.474  26.845  28.001  1.00  0.00     0.029 A 
ATOM     44  N   UNL A   1      41.310  27.140  29.241  1.00  0.00    -0.354 N 
ATOM     45  C   UNL A   1      41.757  30.641  31.749  1.00  0.00     0.074 A 
ATOM     46  C   UNL A   1      40.582  31.479  31.682  1.00  0.00     0.031 C 
ATOM     47  C   UNL A   1      40.303  25.818  27.746  1.00  0.00     0.029 A 
ATOM     48  C   UNL A   1      41.524  25.987  28.527  1.00  0.00     0.049 A 
ATOM     49  H   UNL A   1      41.966  27.511  29.874  1.00  0.00     0.167 HD
ATOM     50  C   UNL A   1      42.844  30.913  32.511  1.00  0.00     0.037 A 
ATOM     51  C   UNL A   1      42.588  25.163  28.505  1.00  0.00     0.037 A 
ATOM     52  C   UNL A   1      43.993  30.052  32.613  1.00  0.00     0.049 A 
ATOM     53  C   UNL A   1      43.770  25.469  29.386  1.00  0.00     0.074 A 
ATOM     54  C   UNL A   1      45.122  30.204  33.396  1.00  0.00     0.029 A 
ATOM     55  N   UNL A   1      44.150  28.866  31.910  1.00  0.00    -0.354 N 
ATOM     56  N   UNL A   1      43.958  26.481  30.197  1.00  0.00    -0.248 NA
ATOM     57  C   UNL A   1      44.882  24.510  29.357  1.00  0.00     0.031 C 
ATOM     58  C   UNL A   1      45.977  29.126  33.145  1.00  0.00     0.029 A 
ATOM     59  C   UNL A   1      45.360  28.279  32.238  1.00  0.00     0.049 A 
ATOM     60  H   UNL A   1      43.497  28.496  31.272  1.00  0.00     0.167 HD
ATOM     61  C   UNL A   1      45.189  26.264  30.800  1.00  0.00     0.074 A 
ATOM     62  C   UNL A   1      45.701  25.018  30.268  1.00  0.00     0.031 C 
ATOM     63  C   UNL A   1      45.838  27.027  31.713  1.00  0.00     0.037 A 
BRANCH  50  64
ATOM     64  C   UNL A   1      42.835  32.189  33.302  1.00  0.00     0.064 A 
ATOM     65  C   UNL A   1      42.312  32.245  34.603  1.00  0.00     0.173 A 
ATOM     66  C   UNL A   1      43.377  33.366  32.764  1.00  0.00     0.173 A 
ATOM     67  F   UNL A   1      41.769  31.151  35.160  1.00  0.00    -0.203 F 
ATOM     68  C   UNL A   1      42.299  33.437  35.321  1.00  0.00     0.198 A 
ATOM     69  C   UNL A   1      43.392  34.549  33.496  1.00  0.00     0.198 A 
ATOM     70  F   UNL A   1      43.896  33.367  31.527  1.00  0.00    -0.203 F 
ATOM     71  F   UNL A   1      41.742  33.478  36.540  1.00  0.00    -0.200 F 
ATOM     72  C   UNL A   1      42.844  34.587  34.770  1.00  0.00     0.200 A 
ATOM     73  F   UNL A   1      43.930  35.657  32.967  1.00  0.00    -0.200 F 
ATOM     74  F   UNL A   1      42.836  35.733  35.464  1.00  0.00    -0.200 F 
ENDBRANCH  50  64
BRANCH  51  75
ATOM     75  C   UNL A   1      42.568  23.946  27.654  1.00  0.00     0.064 A 
ATOM     76  C   UNL A   1      42.195  22.705  28.187  1.00  0.00     0.173 A 
ATOM     77  C   UNL A   1      42.917  23.996  26.297  1.00  0.00     0.173 A 
ATOM     78  F   UNL A   1      41.870  22.605  29.485  1.00  0.00    -0.203 F 
ATOM     79  C   UNL A   1      42.194  21.554  27.402  1.00  0.00     0.198 A 
ATOM     80  C   UNL A   1      42.891  22.850  25.506  1.00  0.00     0.198 A 
ATOM     81  F   UNL A   1      43.274  25.161  25.737  1.00  0.00    -0.203 F 
ATOM     82  F   UNL A   1      41.877  20.373  27.948  1.00  0.00    -0.200 F 
ATOM     83  C   UNL A   1      42.537  21.628  26.060  1.00  0.00     0.200 A 
ATOM     84  F   UNL A   1      43.209  22.927  24.206  1.00  0.00    -0.200 F 
ATOM     85  F   UNL A   1      42.534  20.522  25.304  1.00  0.00    -0.200 F 
ENDBRANCH  51  75
BRANCH  63  86
ATOM     86  C   UNL A   1      47.147  26.509  32.236  1.00  0.00     0.064 A 
ATOM     87  C   UNL A   1      48.368  26.862  31.645  1.00  0.00     0.173 A 
ATOM     88  C   UNL A   1      47.175  25.682  33.369  1.00  0.00     0.173 A 
ATOM     89  F   UNL A   1      48.390  27.638  30.551  1.00  0.00    -0.203 F 
ATOM     90  C   UNL A   1      49.571  26.383  32.156  1.00  0.00     0.198 A 
ATOM     91  C   UNL A   1      48.382  25.229  33.894  1.00  0.00     0.198 A 
ATOM     92  F   UNL A   1      46.033  25.324  33.974  1.00  0.00    -0.203 F 
ATOM     93  F   UNL A   1      50.725  26.694  31.549  1.00  0.00    -0.200 F 
ATOM     94  C   UNL A   1      49.578  25.573  33.282  1.00  0.00     0.200 A 
ATOM     95  F   UNL A   1      48.388  24.458  34.989  1.00  0.00    -0.200 F 
ATOM     96  F   UNL A   1      50.738  25.119  33.775  1.00  0.00    -0.200 F 
ENDBRANCH  63  86
ENDBRANCH  37  38
ENDBRANCH  29  32
ENDBRANCH  27  28
ENDBRANCH  26  27
ENDBRANCH   1  26
TORSDOF 16
ENDMDL
