MODEL 1
REMARK VINA RESULT:     -12.9      0.000      0.000
REMARK SMILES O=C(CC1(CC(=O)N[C@H]2CO[C@H]3[C@@H]2OC[C@@H]3n2nnnc2-c2ccccc2)CCCC1)NCCCNC(=O)c1ccc(-c2c3nc(c(-c4c(F)c(F)c(F)c(F)c4F)c4ccc([nH]4)c(-c4c(F)c(F)c(F)c(F)c4F)c4nc(c(-c5c(F)c(F)c(F)c(F)c5F)c5ccc2[nH]5)C=C4)C=C3)cc1
REMARK SMILES IDX 1 1 2 2 32 3 3 5 4 6 28 7 31 8 29 9 30 10 5 11 6 12 7 13
REMARK SMILES IDX 8 14 9 16 10 17 13 18 11 19 12 20 14 21 16 22 15 23 17 24
REMARK SMILES IDX 18 25 21 26 19 27 20 28 22 29 23 30 27 31 24 32 26 33 25 34
REMARK SMILES IDX 33 35 34 36 35 37 36 38 37 39 38 41 39 42 40 43 101 44 41 45
REMARK SMILES IDX 100 46 42 47 43 48 44 49 94 50 45 51 99 52 93 53 95 54 46 55
REMARK SMILES IDX 98 56 92 57 91 58 47 60 79 61 59 62 78 63 60 64 63 65 77 66
REMARK SMILES IDX 96 67 61 68 62 69 76 71 97 72 64 73 48 74 49 75 57 76 50 77
REMARK SMILES IDX 51 78 55 79 58 80 52 81 53 82 56 83 54 84 80 85 81 86 89 87
REMARK SMILES IDX 82 88 83 89 87 90 90 91 84 92 85 93 88 94 86 95 65 96 66 97
REMARK SMILES IDX 74 98 67 99 68 100 72 101 75 102 69 103 70 104 73 105 71 106
REMARK H PARENT 32 4 8 15 36 40 95 59 63 70
REMARK Flexibility Score: inf
ROOT
ATOM      1  O   UNL A   1      43.037  30.051  26.119  1.00  0.00    -0.275 OA
ATOM      2  C   UNL A   1      44.116  29.995  26.704  1.00  0.00     0.220 C 
ATOM      3  N   UNL A   1      44.728  31.099  27.248  1.00  0.00    -0.356 N 
ATOM      4  H   UNL A   1      45.448  30.961  27.906  1.00  0.00     0.163 HD
ENDROOT
BRANCH   2   5
ATOM      5  C   UNL A   1      44.907  28.683  26.796  1.00  0.00     0.107 C 
BRANCH   5   6
ATOM      6  C   UNL A   1      44.083  27.457  27.309  1.00  0.00    -0.012 C 
ATOM      7  C   UNL A   1      44.887  26.639  28.364  1.00  0.00     0.008 C 
ATOM      8  C   UNL A   1      42.864  27.904  28.155  1.00  0.00     0.008 C 
ATOM      9  C   UNL A   1      43.816  25.911  29.173  1.00  0.00     0.001 C 
ATOM     10  C   UNL A   1      42.736  26.958  29.354  1.00  0.00     0.001 C 
BRANCH   6  11
ATOM     11  C   UNL A   1      43.783  26.451  26.155  1.00  0.00     0.107 C 
BRANCH  11  12
ATOM     12  C   UNL A   1      42.421  26.447  25.525  1.00  0.00     0.220 C 
ATOM     13  O   UNL A   1      42.197  27.293  24.653  1.00  0.00    -0.275 OA
ATOM     14  N   UNL A   1      41.442  25.554  25.798  1.00  0.00    -0.348 N 
ATOM     15  H   UNL A   1      40.741  25.548  25.107  1.00  0.00     0.163 HD
BRANCH  14  16
ATOM     16  C   UNL A   1      41.167  24.590  26.878  1.00  0.00     0.139 C 
ATOM     17  C   UNL A   1      39.799  23.915  26.689  1.00  0.00     0.188 C 
ATOM     18  C   UNL A   1      42.034  23.366  26.971  1.00  0.00     0.174 C 
ATOM     19  O   UNL A   1      40.015  22.659  26.003  1.00  0.00    -0.371 OA
ATOM     20  C   UNL A   1      41.434  22.378  26.003  1.00  0.00     0.176 C 
ATOM     21  O   UNL A   1      41.928  22.755  28.260  1.00  0.00    -0.371 OA
ATOM     22  C   UNL A   1      41.741  21.013  26.611  1.00  0.00     0.169 C 
ATOM     23  C   UNL A   1      42.232  21.373  28.031  1.00  0.00     0.191 C 
BRANCH  22  24
ATOM     24  N   UNL A   1      42.698  20.133  25.969  1.00  0.00    -0.217 N 
ATOM     25  N   UNL A   1      42.307  18.848  25.794  1.00  0.00    -0.044 NA
ATOM     26  C   UNL A   1      43.966  20.277  25.450  1.00  0.00     0.182 A 
ATOM     27  N   UNL A   1      43.339  18.219  25.266  1.00  0.00    -0.023 NA
ATOM     28  N   UNL A   1      44.370  19.082  25.055  1.00  0.00    -0.108 NA
BRANCH  26  29
ATOM     29  C   UNL A   1      44.793  21.464  25.313  1.00  0.00     0.021 A 
ATOM     30  C   UNL A   1      45.324  22.098  26.440  1.00  0.00     0.012 A 
ATOM     31  C   UNL A   1      44.924  22.082  24.062  1.00  0.00     0.012 A 
ATOM     32  C   UNL A   1      45.982  23.323  26.312  1.00  0.00     0.001 A 
ATOM     33  C   UNL A   1      45.613  23.285  23.925  1.00  0.00     0.001 A 
ATOM     34  C   UNL A   1      46.121  23.914  25.057  1.00  0.00     0.000 A 
ENDBRANCH  26  29
ENDBRANCH  22  24
ENDBRANCH  14  16
ENDBRANCH  11  12
ENDBRANCH   6  11
ENDBRANCH   5   6
ENDBRANCH   2   5
BRANCH   3  35
ATOM     35  C   UNL A   1      44.362  32.464  26.896  1.00  0.00     0.117 C 
BRANCH  35  36
ATOM     36  C   UNL A   1      45.430  33.240  26.122  1.00  0.00     0.042 C 
BRANCH  36  37
ATOM     37  C   UNL A   1      44.950  34.547  25.504  1.00  0.00     0.118 C 
BRANCH  37  38
ATOM     38  N   UNL A   1      45.572  35.766  26.057  1.00  0.00    -0.352 N 
ATOM     39  C   UNL A   1      45.060  36.641  27.017  1.00  0.00     0.251 C 
ATOM     40  H   UNL A   1      46.463  35.990  25.702  1.00  0.00     0.163 HD
ATOM     41  O   UNL A   1      45.496  37.773  27.140  1.00  0.00    -0.269 OA
BRANCH  39  42
ATOM     42  C   UNL A   1      44.004  36.150  27.926  1.00  0.00     0.039 A 
ATOM     43  C   UNL A   1      42.649  36.469  27.837  1.00  0.00     0.014 A 
ATOM     44  C   UNL A   1      44.444  35.317  28.937  1.00  0.00     0.014 A 
ATOM     45  C   UNL A   1      41.759  35.869  28.738  1.00  0.00     0.010 A 
ATOM     46  C   UNL A   1      43.575  34.543  29.636  1.00  0.00     0.010 A 
ATOM     47  C   UNL A   1      42.242  34.899  29.630  1.00  0.00    -0.014 A 
BRANCH  47  48
ATOM     48  C   UNL A   1      41.416  34.202  30.597  1.00  0.00     0.031 A 
ATOM     49  C   UNL A   1      42.018  33.993  31.927  1.00  0.00     0.074 A 
ATOM     50  C   UNL A   1      40.094  34.012  30.394  1.00  0.00     0.049 A 
ATOM     51  N   UNL A   1      42.325  32.860  32.457  1.00  0.00    -0.248 NA
ATOM     52  C   UNL A   1      42.416  35.159  32.726  1.00  0.00     0.031 C 
ATOM     53  C   UNL A   1      39.271  34.458  29.264  1.00  0.00     0.029 A 
ATOM     54  N   UNL A   1      39.175  33.469  31.235  1.00  0.00    -0.354 N 
ATOM     55  C   UNL A   1      42.806  33.141  33.728  1.00  0.00     0.074 A 
ATOM     56  C   UNL A   1      42.995  34.569  33.776  1.00  0.00     0.031 C 
ATOM     57  C   UNL A   1      37.967  34.361  29.594  1.00  0.00     0.029 A 
ATOM     58  C   UNL A   1      37.855  33.699  30.876  1.00  0.00     0.049 A 
ATOM     59  H   UNL A   1      39.426  32.954  32.036  1.00  0.00     0.167 HD
ATOM     60  C   UNL A   1      42.806  32.182  34.695  1.00  0.00     0.037 A 
ATOM     61  C   UNL A   1      36.750  33.378  31.593  1.00  0.00     0.037 A 
ATOM     62  C   UNL A   1      42.547  30.879  34.125  1.00  0.00     0.049 A 
ATOM     63  C   UNL A   1      37.151  32.294  32.529  1.00  0.00     0.074 A 
ATOM     64  C   UNL A   1      43.185  30.098  33.180  1.00  0.00     0.029 A 
ATOM     65  N   UNL A   1      41.271  30.373  34.222  1.00  0.00    -0.354 N 
ATOM     66  N   UNL A   1      37.492  31.097  32.136  1.00  0.00    -0.248 NA
ATOM     67  C   UNL A   1      37.640  32.684  33.843  1.00  0.00     0.031 C 
ATOM     68  C   UNL A   1      42.133  29.511  32.414  1.00  0.00     0.029 A 
ATOM     69  C   UNL A   1      40.920  29.906  32.979  1.00  0.00     0.049 A 
ATOM     70  H   UNL A   1      40.714  30.349  35.032  1.00  0.00     0.167 HD
ATOM     71  C   UNL A   1      38.589  30.773  32.922  1.00  0.00     0.074 A 
ATOM     72  C   UNL A   1      38.574  31.742  34.017  1.00  0.00     0.031 C 
ATOM     73  C   UNL A   1      39.573  29.947  32.457  1.00  0.00     0.037 A 
BRANCH  60  74
ATOM     74  C   UNL A   1      42.707  32.431  36.176  1.00  0.00     0.064 A 
ATOM     75  C   UNL A   1      43.690  31.878  37.025  1.00  0.00     0.173 A 
ATOM     76  C   UNL A   1      41.561  32.936  36.822  1.00  0.00     0.173 A 
ATOM     77  F   UNL A   1      44.821  31.365  36.519  1.00  0.00    -0.203 F 
ATOM     78  C   UNL A   1      43.493  31.758  38.402  1.00  0.00     0.198 A 
ATOM     79  C   UNL A   1      41.393  32.865  38.205  1.00  0.00     0.198 A 
ATOM     80  F   UNL A   1      40.510  33.411  36.144  1.00  0.00    -0.203 F 
ATOM     81  F   UNL A   1      44.395  31.104  39.147  1.00  0.00    -0.200 F 
ATOM     82  C   UNL A   1      42.341  32.244  38.990  1.00  0.00     0.200 A 
ATOM     83  F   UNL A   1      40.264  33.331  38.756  1.00  0.00    -0.200 F 
ATOM     84  F   UNL A   1      42.120  32.073  40.300  1.00  0.00    -0.200 F 
ENDBRANCH  60  74
BRANCH  61  85
ATOM     85  C   UNL A   1      35.472  34.124  31.711  1.00  0.00     0.064 A 
ATOM     86  C   UNL A   1      35.285  35.093  32.712  1.00  0.00     0.173 A 
ATOM     87  C   UNL A   1      34.512  34.106  30.680  1.00  0.00     0.173 A 
ATOM     88  F   UNL A   1      36.165  35.201  33.718  1.00  0.00    -0.203 F 
ATOM     89  C   UNL A   1      34.230  36.012  32.660  1.00  0.00     0.198 A 
ATOM     90  C   UNL A   1      33.459  35.021  30.630  1.00  0.00     0.198 A 
ATOM     91  F   UNL A   1      34.623  33.259  29.646  1.00  0.00    -0.203 F 
ATOM     92  F   UNL A   1      34.124  36.963  33.599  1.00  0.00    -0.200 F 
ATOM     93  C   UNL A   1      33.327  35.985  31.611  1.00  0.00     0.200 A 
ATOM     94  F   UNL A   1      32.608  34.997  29.594  1.00  0.00    -0.200 F 
ATOM     95  F   UNL A   1      32.358  36.907  31.523  1.00  0.00    -0.200 F 
ENDBRANCH  61  85
BRANCH  73  96
ATOM     96  C   UNL A   1      39.325  29.209  31.167  1.00  0.00     0.064 A 
ATOM     97  C   UNL A   1      39.605  29.733  29.892  1.00  0.00     0.173 A 
ATOM     98  C   UNL A   1      38.939  27.864  31.231  1.00  0.00     0.173 A 
ATOM     99  F   UNL A   1      40.073  30.975  29.743  1.00  0.00    -0.203 F 
ATOM    100  C   UNL A   1      39.466  28.963  28.739  1.00  0.00     0.198 A 
ATOM    101  C   UNL A   1      38.836  27.084  30.081  1.00  0.00     0.198 A 
ATOM    102  F   UNL A   1      38.712  27.288  32.422  1.00  0.00    -0.203 F 
ATOM    103  F   UNL A   1      39.733  29.497  27.538  1.00  0.00    -0.200 F 
ATOM    104  C   UNL A   1      39.091  27.636  28.836  1.00  0.00     0.200 A 
ATOM    105  F   UNL A   1      38.519  25.786  30.184  1.00  0.00    -0.200 F 
ATOM    106  F   UNL A   1      38.999  26.880  27.732  1.00  0.00    -0.200 F 
ENDBRANCH  73  96
ENDBRANCH  47  48
ENDBRANCH  39  42
ENDBRANCH  37  38
ENDBRANCH  36  37
ENDBRANCH  35  36
ENDBRANCH   3  35
TORSDOF 16
ENDMDL
MODEL 2
REMARK VINA RESULT:     -12.4      5.313      9.738
REMARK SMILES O=C(CC1(CC(=O)N[C@H]2CO[C@H]3[C@@H]2OC[C@@H]3n2nnnc2-c2ccccc2)CCCC1)NCCCNC(=O)c1ccc(-c2c3nc(c(-c4c(F)c(F)c(F)c(F)c4F)c4ccc([nH]4)c(-c4c(F)c(F)c(F)c(F)c4F)c4nc(c(-c5c(F)c(F)c(F)c(F)c5F)c5ccc2[nH]5)C=C4)C=C3)cc1
REMARK SMILES IDX 1 1 2 2 32 3 3 5 4 6 28 7 31 8 29 9 30 10 5 11 6 12 7 13
REMARK SMILES IDX 8 14 9 16 10 17 13 18 11 19 12 20 14 21 16 22 15 23 17 24
REMARK SMILES IDX 18 25 21 26 19 27 20 28 22 29 23 30 27 31 24 32 26 33 25 34
REMARK SMILES IDX 33 35 34 36 35 37 36 38 37 39 38 41 39 42 40 43 101 44 41 45
REMARK SMILES IDX 100 46 42 47 43 48 44 49 94 50 45 51 99 52 93 53 95 54 46 55
REMARK SMILES IDX 98 56 92 57 91 58 47 60 79 61 59 62 78 63 60 64 63 65 77 66
REMARK SMILES IDX 96 67 61 68 62 69 76 71 97 72 64 73 48 74 49 75 57 76 50 77
REMARK SMILES IDX 51 78 55 79 58 80 52 81 53 82 56 83 54 84 80 85 81 86 89 87
REMARK SMILES IDX 82 88 83 89 87 90 90 91 84 92 85 93 88 94 86 95 65 96 66 97
REMARK SMILES IDX 74 98 67 99 68 100 72 101 75 102 69 103 70 104 73 105 71 106
REMARK H PARENT 32 4 8 15 36 40 95 59 63 70
REMARK Flexibility Score: inf
ROOT
ATOM      1  O   UNL A   1      35.428  29.097  27.783  1.00  0.00    -0.275 OA
ATOM      2  C   UNL A   1      34.790  29.636  26.882  1.00  0.00     0.220 C 
ATOM      3  N   UNL A   1      34.437  30.964  26.908  1.00  0.00    -0.356 N 
ATOM      4  H   UNL A   1      34.153  31.390  26.067  1.00  0.00     0.163 HD
ENDROOT
BRANCH   2   5
ATOM      5  C   UNL A   1      34.262  28.830  25.686  1.00  0.00     0.107 C 
BRANCH   5   6
ATOM      6  C   UNL A   1      32.774  28.369  25.815  1.00  0.00    -0.012 C 
ATOM      7  C   UNL A   1      32.682  26.847  26.135  1.00  0.00     0.008 C 
ATOM      8  C   UNL A   1      32.097  28.972  27.072  1.00  0.00     0.008 C 
ATOM      9  C   UNL A   1      31.318  26.684  26.804  1.00  0.00     0.001 C 
ATOM     10  C   UNL A   1      31.225  27.888  27.717  1.00  0.00     0.001 C 
BRANCH   6  11
ATOM     11  C   UNL A   1      32.004  28.551  24.470  1.00  0.00     0.107 C 
BRANCH  11  12
ATOM     12  C   UNL A   1      32.769  28.523  23.180  1.00  0.00     0.220 C 
ATOM     13  O   UNL A   1      33.420  29.531  22.884  1.00  0.00    -0.275 OA
ATOM     14  N   UNL A   1      32.845  27.461  22.345  1.00  0.00    -0.348 N 
ATOM     15  H   UNL A   1      33.592  27.541  21.709  1.00  0.00     0.163 HD
BRANCH  14  16
ATOM     16  C   UNL A   1      32.082  26.215  22.153  1.00  0.00     0.139 C 
ATOM     17  C   UNL A   1      32.879  25.194  21.326  1.00  0.00     0.188 C 
ATOM     18  C   UNL A   1      31.787  25.374  23.363  1.00  0.00     0.174 C 
ATOM     19  O   UNL A   1      33.556  24.308  22.248  1.00  0.00    -0.371 OA
ATOM     20  C   UNL A   1      33.018  24.529  23.572  1.00  0.00     0.176 C 
ATOM     21  O   UNL A   1      30.726  24.450  23.103  1.00  0.00    -0.371 OA
ATOM     22  C   UNL A   1      32.495  23.239  24.194  1.00  0.00     0.169 C 
ATOM     23  C   UNL A   1      30.966  23.360  24.002  1.00  0.00     0.191 C 
BRANCH  22  24
ATOM     24  N   UNL A   1      32.792  22.931  25.580  1.00  0.00    -0.217 N 
ATOM     25  N   UNL A   1      31.744  22.959  26.438  1.00  0.00    -0.044 NA
ATOM     26  C   UNL A   1      33.924  22.584  26.285  1.00  0.00     0.182 A 
ATOM     27  N   UNL A   1      32.245  22.722  27.635  1.00  0.00    -0.023 NA
ATOM     28  N   UNL A   1      33.585  22.496  27.559  1.00  0.00    -0.108 NA
BRANCH  26  29
ATOM     29  C   UNL A   1      35.278  22.336  25.818  1.00  0.00     0.021 A 
ATOM     30  C   UNL A   1      35.638  21.088  25.304  1.00  0.00     0.012 A 
ATOM     31  C   UNL A   1      36.277  23.294  26.039  1.00  0.00     0.012 A 
ATOM     32  C   UNL A   1      36.974  20.810  25.006  1.00  0.00     0.001 A 
ATOM     33  C   UNL A   1      37.606  23.033  25.708  1.00  0.00     0.001 A 
ATOM     34  C   UNL A   1      37.953  21.781  25.213  1.00  0.00     0.000 A 
ENDBRANCH  26  29
ENDBRANCH  22  24
ENDBRANCH  14  16
ENDBRANCH  11  12
ENDBRANCH   6  11
ENDBRANCH   5   6
ENDBRANCH   2   5
BRANCH   3  35
ATOM     35  C   UNL A   1      34.464  31.768  28.121  1.00  0.00     0.117 C 
BRANCH  35  36
ATOM     36  C   UNL A   1      35.158  33.125  27.980  1.00  0.00     0.042 C 
BRANCH  36  37
ATOM     37  C   UNL A   1      36.262  33.388  28.998  1.00  0.00     0.118 C 
BRANCH  37  38
ATOM     38  N   UNL A   1      35.809  33.484  30.400  1.00  0.00    -0.352 N 
ATOM     39  C   UNL A   1      35.935  32.535  31.417  1.00  0.00     0.251 C 
ATOM     40  H   UNL A   1      35.361  34.324  30.649  1.00  0.00     0.163 HD
ATOM     41  O   UNL A   1      35.235  32.579  32.415  1.00  0.00    -0.269 OA
BRANCH  39  42
ATOM     42  C   UNL A   1      36.977  31.496  31.287  1.00  0.00     0.039 A 
ATOM     43  C   UNL A   1      36.760  30.184  30.863  1.00  0.00     0.014 A 
ATOM     44  C   UNL A   1      38.251  31.900  31.633  1.00  0.00     0.014 A 
ATOM     45  C   UNL A   1      37.866  29.334  30.729  1.00  0.00     0.010 A 
ATOM     46  C   UNL A   1      39.341  31.177  31.265  1.00  0.00     0.010 A 
ATOM     47  C   UNL A   1      39.154  29.852  30.929  1.00  0.00    -0.014 A 
BRANCH  47  48
ATOM     48  C   UNL A   1      40.371  29.074  30.806  1.00  0.00     0.031 A 
ATOM     49  C   UNL A   1      41.054  28.738  32.070  1.00  0.00     0.074 A 
ATOM     50  C   UNL A   1      40.704  28.457  29.651  1.00  0.00     0.049 A 
ATOM     51  N   UNL A   1      42.215  29.149  32.443  1.00  0.00    -0.248 NA
ATOM     52  C   UNL A   1      40.344  27.941  33.078  1.00  0.00     0.031 C 
ATOM     53  C   UNL A   1      39.956  28.417  28.389  1.00  0.00     0.029 A 
ATOM     54  N   UNL A   1      41.749  27.623  29.404  1.00  0.00    -0.354 N 
ATOM     55  C   UNL A   1      42.472  28.539  33.663  1.00  0.00     0.074 A 
ATOM     56  C   UNL A   1      41.226  27.945  34.081  1.00  0.00     0.031 C 
ATOM     57  C   UNL A   1      40.455  27.440  27.603  1.00  0.00     0.029 A 
ATOM     58  C   UNL A   1      41.647  26.902  28.223  1.00  0.00     0.049 A 
ATOM     59  H   UNL A   1      42.517  27.538  30.014  1.00  0.00     0.167 HD
ATOM     60  C   UNL A   1      43.749  28.406  34.115  1.00  0.00     0.037 A 
ATOM     61  C   UNL A   1      42.479  25.921  27.795  1.00  0.00     0.037 A 
ATOM     62  C   UNL A   1      44.657  29.214  33.333  1.00  0.00     0.049 A 
ATOM     63  C   UNL A   1      43.770  26.119  28.507  1.00  0.00     0.074 A 
ATOM     64  C   UNL A   1      44.760  30.569  33.075  1.00  0.00     0.029 A 
ATOM     65  N   UNL A   1      45.393  28.595  32.350  1.00  0.00    -0.354 N 
ATOM     66  N   UNL A   1      44.548  27.147  28.306  1.00  0.00    -0.248 NA
ATOM     67  C   UNL A   1      43.950  25.436  29.779  1.00  0.00     0.031 C 
ATOM     68  C   UNL A   1      45.117  30.656  31.696  1.00  0.00     0.029 A 
ATOM     69  C   UNL A   1      45.284  29.358  31.213  1.00  0.00     0.049 A 
ATOM     70  H   UNL A   1      45.903  27.759  32.444  1.00  0.00     0.167 HD
ATOM     71  C   UNL A   1      44.976  27.511  29.575  1.00  0.00     0.074 A 
ATOM     72  C   UNL A   1      44.656  26.367  30.429  1.00  0.00     0.031 C 
ATOM     73  C   UNL A   1      45.274  28.810  29.876  1.00  0.00     0.037 A 
BRANCH  60  74
ATOM     74  C   UNL A   1      44.247  27.317  35.028  1.00  0.00     0.064 A 
ATOM     75  C   UNL A   1      44.087  25.972  34.631  1.00  0.00     0.173 A 
ATOM     76  C   UNL A   1      44.608  27.514  36.376  1.00  0.00     0.173 A 
ATOM     77  F   UNL A   1      43.741  25.667  33.372  1.00  0.00    -0.203 F 
ATOM     78  C   UNL A   1      44.190  24.918  35.541  1.00  0.00     0.198 A 
ATOM     79  C   UNL A   1      44.766  26.453  37.268  1.00  0.00     0.198 A 
ATOM     80  F   UNL A   1      44.711  28.733  36.917  1.00  0.00    -0.203 F 
ATOM     81  F   UNL A   1      43.897  23.671  35.146  1.00  0.00    -0.200 F 
ATOM     82  C   UNL A   1      44.522  25.159  36.860  1.00  0.00     0.200 A 
ATOM     83  F   UNL A   1      45.076  26.709  38.546  1.00  0.00    -0.200 F 
ATOM     84  F   UNL A   1      44.558  24.157  37.748  1.00  0.00    -0.200 F 
ENDBRANCH  60  74
BRANCH  61  85
ATOM     85  C   UNL A   1      42.147  24.687  27.039  1.00  0.00     0.064 A 
ATOM     86  C   UNL A   1      42.915  24.282  25.934  1.00  0.00     0.173 A 
ATOM     87  C   UNL A   1      41.243  23.734  27.548  1.00  0.00     0.173 A 
ATOM     88  F   UNL A   1      43.821  25.115  25.401  1.00  0.00    -0.203 F 
ATOM     89  C   UNL A   1      42.817  22.990  25.403  1.00  0.00     0.198 A 
ATOM     90  C   UNL A   1      41.143  22.447  27.016  1.00  0.00     0.198 A 
ATOM     91  F   UNL A   1      40.499  23.997  28.633  1.00  0.00    -0.203 F 
ATOM     92  F   UNL A   1      43.615  22.620  24.391  1.00  0.00    -0.200 F 
ATOM     93  C   UNL A   1      41.942  22.069  25.954  1.00  0.00     0.200 A 
ATOM     94  F   UNL A   1      40.310  21.560  27.579  1.00  0.00    -0.200 F 
ATOM     95  F   UNL A   1      41.896  20.812  25.491  1.00  0.00    -0.200 F 
ENDBRANCH  61  85
BRANCH  73  96
ATOM     96  C   UNL A   1      45.356  29.796  28.740  1.00  0.00     0.064 A 
ATOM     97  C   UNL A   1      44.285  30.608  28.321  1.00  0.00     0.173 A 
ATOM     98  C   UNL A   1      46.606  30.045  28.161  1.00  0.00     0.173 A 
ATOM     99  F   UNL A   1      43.080  30.510  28.889  1.00  0.00    -0.203 F 
ATOM    100  C   UNL A   1      44.450  31.587  27.343  1.00  0.00     0.198 A 
ATOM    101  C   UNL A   1      46.778  31.048  27.209  1.00  0.00     0.198 A 
ATOM    102  F   UNL A   1      47.680  29.344  28.558  1.00  0.00    -0.203 F 
ATOM    103  F   UNL A   1      43.406  32.336  26.960  1.00  0.00    -0.200 F 
ATOM    104  C   UNL A   1      45.699  31.812  26.795  1.00  0.00     0.200 A 
ATOM    105  F   UNL A   1      48.000  31.295  26.717  1.00  0.00    -0.200 F 
ATOM    106  F   UNL A   1      45.870  32.782  25.885  1.00  0.00    -0.200 F 
ENDBRANCH  73  96
ENDBRANCH  47  48
ENDBRANCH  39  42
ENDBRANCH  37  38
ENDBRANCH  36  37
ENDBRANCH  35  36
ENDBRANCH   3  35
TORSDOF 16
ENDMDL
MODEL 3
REMARK VINA RESULT:     -12.3      4.121      8.161
REMARK SMILES O=C(CC1(CC(=O)N[C@H]2CO[C@H]3[C@@H]2OC[C@@H]3n2nnnc2-c2ccccc2)CCCC1)NCCCNC(=O)c1ccc(-c2c3nc(c(-c4c(F)c(F)c(F)c(F)c4F)c4ccc([nH]4)c(-c4c(F)c(F)c(F)c(F)c4F)c4nc(c(-c5c(F)c(F)c(F)c(F)c5F)c5ccc2[nH]5)C=C4)C=C3)cc1
REMARK SMILES IDX 1 1 2 2 32 3 3 5 4 6 28 7 31 8 29 9 30 10 5 11 6 12 7 13
REMARK SMILES IDX 8 14 9 16 10 17 13 18 11 19 12 20 14 21 16 22 15 23 17 24
REMARK SMILES IDX 18 25 21 26 19 27 20 28 22 29 23 30 27 31 24 32 26 33 25 34
REMARK SMILES IDX 33 35 34 36 35 37 36 38 37 39 38 41 39 42 40 43 101 44 41 45
REMARK SMILES IDX 100 46 42 47 43 48 44 49 94 50 45 51 99 52 93 53 95 54 46 55
REMARK SMILES IDX 98 56 92 57 91 58 47 60 79 61 59 62 78 63 60 64 63 65 77 66
REMARK SMILES IDX 96 67 61 68 62 69 76 71 97 72 64 73 48 74 49 75 57 76 50 77
REMARK SMILES IDX 51 78 55 79 58 80 52 81 53 82 56 83 54 84 80 85 81 86 89 87
REMARK SMILES IDX 82 88 83 89 87 90 90 91 84 92 85 93 88 94 86 95 65 96 66 97
REMARK SMILES IDX 74 98 67 99 68 100 72 101 75 102 69 103 70 104 73 105 71 106
REMARK H PARENT 32 4 8 15 36 40 95 59 63 70
REMARK Flexibility Score: inf
ROOT
ATOM      1  O   UNL A   1      46.839  23.589  25.788  1.00  0.00    -0.275 OA
ATOM      2  C   UNL A   1      46.029  23.319  26.672  1.00  0.00     0.220 C 
ATOM      3  N   UNL A   1      45.208  22.219  26.621  1.00  0.00    -0.356 N 
ATOM      4  H   UNL A   1      44.769  21.922  27.451  1.00  0.00     0.163 HD
ENDROOT
BRANCH   2   5
ATOM      5  C   UNL A   1      45.816  24.254  27.871  1.00  0.00     0.107 C 
BRANCH   5   6
ATOM      6  C   UNL A   1      45.532  25.745  27.496  1.00  0.00    -0.012 C 
ATOM      7  C   UNL A   1      46.748  26.381  26.757  1.00  0.00     0.008 C 
ATOM      8  C   UNL A   1      44.437  25.859  26.405  1.00  0.00     0.008 C 
ATOM      9  C   UNL A   1      46.144  27.534  25.958  1.00  0.00     0.001 C 
ATOM     10  C   UNL A   1      44.857  26.950  25.413  1.00  0.00     0.001 C 
BRANCH   6  11
ATOM     11  C   UNL A   1      45.324  26.622  28.768  1.00  0.00     0.107 C 
BRANCH  11  12
ATOM     12  C   UNL A   1      46.255  26.454  29.933  1.00  0.00     0.220 C 
ATOM     13  O   UNL A   1      47.460  26.635  29.728  1.00  0.00    -0.275 OA
ATOM     14  N   UNL A   1      45.871  26.173  31.200  1.00  0.00    -0.348 N 
ATOM     15  H   UNL A   1      46.580  26.367  31.855  1.00  0.00     0.163 HD
BRANCH  14  16
ATOM     16  C   UNL A   1      44.651  25.647  31.839  1.00  0.00     0.139 C 
ATOM     17  C   UNL A   1      44.257  24.283  31.251  1.00  0.00     0.188 C 
ATOM     18  C   UNL A   1      44.720  25.277  33.293  1.00  0.00     0.174 C 
ATOM     19  O   UNL A   1      44.812  23.254  32.105  1.00  0.00    -0.371 OA
ATOM     20  C   UNL A   1      45.280  23.877  33.323  1.00  0.00     0.176 C 
ATOM     21  O   UNL A   1      43.412  25.180  33.864  1.00  0.00    -0.371 OA
ATOM     22  C   UNL A   1      44.654  23.242  34.561  1.00  0.00     0.169 C 
ATOM     23  C   UNL A   1      43.557  24.258  34.951  1.00  0.00     0.191 C 
BRANCH  22  24
ATOM     24  N   UNL A   1      45.479  22.942  35.715  1.00  0.00    -0.217 N 
ATOM     25  N   UNL A   1      45.023  23.391  36.910  1.00  0.00    -0.044 NA
ATOM     26  C   UNL A   1      46.662  22.269  35.926  1.00  0.00     0.182 A 
ATOM     27  N   UNL A   1      45.947  23.074  37.797  1.00  0.00    -0.023 NA
ATOM     28  N   UNL A   1      46.964  22.390  37.207  1.00  0.00    -0.108 NA
BRANCH  26  29
ATOM     29  C   UNL A   1      47.499  21.533  34.993  1.00  0.00     0.021 A 
ATOM     30  C   UNL A   1      47.038  20.355  34.396  1.00  0.00     0.012 A 
ATOM     31  C   UNL A   1      48.838  21.906  34.814  1.00  0.00     0.012 A 
ATOM     32  C   UNL A   1      47.903  19.574  33.627  1.00  0.00     0.001 A 
ATOM     33  C   UNL A   1      49.693  21.148  34.016  1.00  0.00     0.001 A 
ATOM     34  C   UNL A   1      49.227  19.970  33.443  1.00  0.00     0.000 A 
ENDBRANCH  26  29
ENDBRANCH  22  24
ENDBRANCH  14  16
ENDBRANCH  11  12
ENDBRANCH   6  11
ENDBRANCH   5   6
ENDBRANCH   2   5
BRANCH   3  35
ATOM     35  C   UNL A   1      44.957  21.471  25.397  1.00  0.00     0.117 C 
BRANCH  35  36
ATOM     36  C   UNL A   1      44.097  22.200  24.361  1.00  0.00     0.042 C 
BRANCH  36  37
ATOM     37  C   UNL A   1      43.009  23.092  24.946  1.00  0.00     0.118 C 
BRANCH  37  38
ATOM     38  N   UNL A   1      41.898  22.374  25.602  1.00  0.00    -0.352 N 
ATOM     39  C   UNL A   1      41.152  22.766  26.715  1.00  0.00     0.251 C 
ATOM     40  H   UNL A   1      41.653  21.508  25.203  1.00  0.00     0.163 HD
ATOM     41  O   UNL A   1      40.509  21.959  27.364  1.00  0.00    -0.269 OA
BRANCH  39  42
ATOM     42  C   UNL A   1      41.112  24.200  27.068  1.00  0.00     0.039 A 
ATOM     43  C   UNL A   1      40.390  25.180  26.385  1.00  0.00     0.014 A 
ATOM     44  C   UNL A   1      41.874  24.553  28.164  1.00  0.00     0.014 A 
ATOM     45  C   UNL A   1      40.402  26.489  26.884  1.00  0.00     0.010 A 
ATOM     46  C   UNL A   1      41.688  25.742  28.795  1.00  0.00     0.010 A 
ATOM     47  C   UNL A   1      41.054  26.751  28.099  1.00  0.00    -0.014 A 
BRANCH  47  48
ATOM     48  C   UNL A   1      41.122  28.060  28.719  1.00  0.00     0.031 A 
ATOM     49  C   UNL A   1      42.212  28.939  28.253  1.00  0.00     0.074 A 
ATOM     50  C   UNL A   1      40.101  28.549  29.456  1.00  0.00     0.049 A 
ATOM     51  N   UNL A   1      43.208  29.356  28.953  1.00  0.00    -0.248 NA
ATOM     52  C   UNL A   1      42.266  29.325  26.838  1.00  0.00     0.031 C 
ATOM     53  C   UNL A   1      38.801  27.929  29.738  1.00  0.00     0.029 A 
ATOM     54  N   UNL A   1      39.972  29.780  30.017  1.00  0.00    -0.354 N 
ATOM     55  C   UNL A   1      43.942  30.196  28.127  1.00  0.00     0.074 A 
ATOM     56  C   UNL A   1      43.413  30.008  26.799  1.00  0.00     0.031 C 
ATOM     57  C   UNL A   1      37.955  28.863  30.221  1.00  0.00     0.029 A 
ATOM     58  C   UNL A   1      38.687  30.092  30.438  1.00  0.00     0.049 A 
ATOM     59  H   UNL A   1      40.730  30.400  30.118  1.00  0.00     0.167 HD
ATOM     60  C   UNL A   1      44.784  31.126  28.657  1.00  0.00     0.037 A 
ATOM     61  C   UNL A   1      38.257  31.285  30.917  1.00  0.00     0.037 A 
ATOM     62  C   UNL A   1      44.993  30.883  30.066  1.00  0.00     0.049 A 
ATOM     63  C   UNL A   1      39.461  32.004  31.412  1.00  0.00     0.074 A 
ATOM     64  C   UNL A   1      45.505  29.827  30.796  1.00  0.00     0.029 A 
ATOM     65  N   UNL A   1      44.278  31.639  30.967  1.00  0.00    -0.354 N 
ATOM     66  N   UNL A   1      40.158  31.611  32.443  1.00  0.00    -0.248 NA
ATOM     67  C   UNL A   1      40.164  32.866  30.474  1.00  0.00     0.031 C 
ATOM     68  C   UNL A   1      44.670  29.733  31.949  1.00  0.00     0.029 A 
ATOM     69  C   UNL A   1      43.748  30.779  31.896  1.00  0.00     0.049 A 
ATOM     70  H   UNL A   1      44.168  32.617  30.948  1.00  0.00     0.167 HD
ATOM     71  C   UNL A   1      41.479  31.787  32.057  1.00  0.00     0.074 A 
ATOM     72  C   UNL A   1      41.421  32.651  30.879  1.00  0.00     0.031 C 
ATOM     73  C   UNL A   1      42.471  30.981  32.541  1.00  0.00     0.037 A 
BRANCH  60  74
ATOM     74  C   UNL A   1      45.160  32.434  28.015  1.00  0.00     0.064 A 
ATOM     75  C   UNL A   1      44.156  33.405  27.812  1.00  0.00     0.173 A 
ATOM     76  C   UNL A   1      46.376  32.668  27.342  1.00  0.00     0.173 A 
ATOM     77  F   UNL A   1      42.956  33.282  28.400  1.00  0.00    -0.203 F 
ATOM     78  C   UNL A   1      44.329  34.473  26.929  1.00  0.00     0.198 A 
ATOM     79  C   UNL A   1      46.564  33.769  26.506  1.00  0.00     0.198 A 
ATOM     80  F   UNL A   1      47.388  31.794  27.371  1.00  0.00    -0.203 F 
ATOM     81  F   UNL A   1      43.300  35.291  26.668  1.00  0.00    -0.200 F 
ATOM     82  C   UNL A   1      45.531  34.650  26.271  1.00  0.00     0.200 A 
ATOM     83  F   UNL A   1      47.733  33.916  25.867  1.00  0.00    -0.200 F 
ATOM     84  F   UNL A   1      45.678  35.635  25.376  1.00  0.00    -0.200 F 
ENDBRANCH  60  74
BRANCH  61  85
ATOM     85  C   UNL A   1      36.939  31.941  30.724  1.00  0.00     0.064 A 
ATOM     86  C   UNL A   1      35.986  31.978  31.755  1.00  0.00     0.173 A 
ATOM     87  C   UNL A   1      36.694  32.786  29.623  1.00  0.00     0.173 A 
ATOM     88  F   UNL A   1      36.152  31.227  32.854  1.00  0.00    -0.203 F 
ATOM     89  C   UNL A   1      34.881  32.838  31.708  1.00  0.00     0.198 A 
ATOM     90  C   UNL A   1      35.591  33.641  29.575  1.00  0.00     0.198 A 
ATOM     91  F   UNL A   1      37.566  32.871  28.608  1.00  0.00    -0.203 F 
ATOM     92  F   UNL A   1      34.031  32.891  32.742  1.00  0.00    -0.200 F 
ATOM     93  C   UNL A   1      34.694  33.680  30.625  1.00  0.00     0.200 A 
ATOM     94  F   UNL A   1      35.438  34.469  28.531  1.00  0.00    -0.200 F 
ATOM     95  F   UNL A   1      33.676  34.552  30.610  1.00  0.00    -0.200 F 
ENDBRANCH  61  85
BRANCH  73  96
ATOM     96  C   UNL A   1      42.134  30.055  33.681  1.00  0.00     0.064 A 
ATOM     97  C   UNL A   1      41.642  28.748  33.516  1.00  0.00     0.173 A 
ATOM     98  C   UNL A   1      42.474  30.448  34.982  1.00  0.00     0.173 A 
ATOM     99  F   UNL A   1      41.386  28.253  32.302  1.00  0.00    -0.203 F 
ATOM    100  C   UNL A   1      41.460  27.894  34.602  1.00  0.00     0.198 A 
ATOM    101  C   UNL A   1      42.326  29.580  36.063  1.00  0.00     0.198 A 
ATOM    102  F   UNL A   1      43.002  31.662  35.200  1.00  0.00    -0.203 F 
ATOM    103  F   UNL A   1      40.980  26.656  34.410  1.00  0.00    -0.200 F 
ATOM    104  C   UNL A   1      41.811  28.308  35.874  1.00  0.00     0.200 A 
ATOM    105  F   UNL A   1      42.713  29.969  37.285  1.00  0.00    -0.200 F 
ATOM    106  F   UNL A   1      41.678  27.473  36.914  1.00  0.00    -0.200 F 
ENDBRANCH  73  96
ENDBRANCH  47  48
ENDBRANCH  39  42
ENDBRANCH  37  38
ENDBRANCH  36  37
ENDBRANCH  35  36
ENDBRANCH   3  35
TORSDOF 16
ENDMDL
