MODEL 1
REMARK VINA RESULT:     -12.7      0.000      0.000
REMARK SMILES CC[C@H](C(=O)NCCCNC(=O)c1ccc(-c2c3nc(c(-c4c(F)c(F)c(F)c(F)c4F)c4ccc([nH]4)c(-c4c(F)c(F)c(F)c(F)c4F)c4nc(c(-c5c(F)c(F)c(F)c(F)c5F)c5ccc2[nH]5)C=C4)C=C3)cc1)/C(=N\N=c1\[nH]c2ccccc2s1)C(F)(F)F
REMARK SMILES IDX 8 1 7 2 6 3 4 4 5 5 3 7 2 8 1 9 76 10 77 11 88 12 89 13
REMARK SMILES IDX 90 14 91 15 78 16 79 17 80 18 87 19 81 20 86 22 82 23 85 24
REMARK SMILES IDX 83 25 84 26 9 27 10 28 11 29 12 31 13 32 14 33 75 34 15 35
REMARK SMILES IDX 74 36 16 37 17 38 18 39 68 40 19 41 73 42 67 43 69 44 20 45
REMARK SMILES IDX 72 46 66 47 65 48 21 50 53 51 33 52 52 53 34 54 37 55 51 56
REMARK SMILES IDX 70 57 35 58 36 59 50 61 71 62 38 63 22 64 23 65 31 66 24 67
REMARK SMILES IDX 25 68 29 69 32 70 26 71 27 72 30 73 28 74 54 75 55 76 63 77
REMARK SMILES IDX 56 78 57 79 61 80 64 81 58 82 59 83 62 84 60 85 39 86 40 87
REMARK SMILES IDX 48 88 41 89 42 90 46 91 49 92 43 93 44 94 47 95 45 96
REMARK H PARENT 6 6 80 21 10 30 69 49 37 60
REMARK Flexibility Score: inf
ROOT
ATOM      1  C   UNL A   1      31.542  32.094  26.619  1.00  0.00     0.042 C 
ENDROOT
BRANCH   1   2
ATOM      2  C   UNL A   1      31.995  30.717  26.360  1.00  0.00     0.117 C 
BRANCH   2   3
ATOM      3  N   UNL A   1      31.675  29.650  27.264  1.00  0.00    -0.355 N 
ATOM      4  C   UNL A   1      31.778  28.317  26.972  1.00  0.00     0.229 C 
ATOM      5  O   UNL A   1      31.504  27.519  27.871  1.00  0.00    -0.274 OA
ATOM      6  H   UNL A   1      31.355  29.897  28.162  1.00  0.00     0.163 HD
BRANCH   4   7
ATOM      7  C   UNL A   1      32.155  27.861  25.552  1.00  0.00     0.134 C 
BRANCH   7   8
ATOM      8  C   UNL A   1      33.653  28.023  25.061  1.00  0.00     0.016 C 
ATOM      9  C   UNL A   1      33.900  28.482  23.624  1.00  0.00     0.005 C 
ENDBRANCH   7   8
BRANCH   7  10
ATOM     10  C   UNL A   1      31.791  26.393  25.321  1.00  0.00     0.156 C 
ATOM     11  N   UNL A   1      30.764  25.950  24.645  1.00  0.00    -0.147 NA
BRANCH  10  12
ATOM     12  C   UNL A   1      32.747  25.357  25.917  1.00  0.00     0.432 C 
ATOM     13  F   UNL A   1      33.855  25.896  26.501  1.00  0.00    -0.165 F 
ATOM     14  F   UNL A   1      32.167  24.608  26.891  1.00  0.00    -0.165 F 
ATOM     15  F   UNL A   1      33.224  24.480  24.991  1.00  0.00    -0.165 F 
ENDBRANCH  10  12
BRANCH  11  16
ATOM     16  N   UNL A   1      29.615  26.727  24.608  1.00  0.00    -0.121 NA
ATOM     17  C   UNL A   1      29.219  27.123  23.433  1.00  0.00     0.208 A 
ATOM     18  N   UNL A   1      27.975  27.666  23.130  1.00  0.00    -0.329 N 
ATOM     19  S   UNL A   1      30.393  27.944  22.356  1.00  0.00    -0.095 S 
ATOM     20  C   UNL A   1      28.171  29.070  23.126  1.00  0.00     0.058 A 
ATOM     21  H   UNL A   1      27.137  27.178  22.956  1.00  0.00     0.169 HD
ATOM     22  C   UNL A   1      29.513  29.428  22.882  1.00  0.00     0.054 A 
ATOM     23  C   UNL A   1      27.205  29.992  23.453  1.00  0.00     0.027 A 
ATOM     24  C   UNL A   1      29.964  30.648  23.334  1.00  0.00     0.021 A 
ATOM     25  C   UNL A   1      27.630  31.283  23.734  1.00  0.00     0.002 A 
ATOM     26  C   UNL A   1      29.005  31.575  23.773  1.00  0.00     0.002 A 
ENDBRANCH  11  16
ENDBRANCH   7  10
ENDBRANCH   4   7
ENDBRANCH   2   3
ENDBRANCH   1   2
BRANCH   1  27
ATOM     27  C   UNL A   1      32.656  32.810  27.293  1.00  0.00     0.118 C 
BRANCH  27  28
ATOM     28  N   UNL A   1      32.350  34.203  27.610  1.00  0.00    -0.352 N 
ATOM     29  C   UNL A   1      32.922  34.961  28.587  1.00  0.00     0.251 C 
ATOM     30  H   UNL A   1      31.658  34.640  27.062  1.00  0.00     0.163 HD
ATOM     31  O   UNL A   1      32.528  36.115  28.822  1.00  0.00    -0.269 OA
BRANCH  29  32
ATOM     32  C   UNL A   1      34.028  34.381  29.359  1.00  0.00     0.039 A 
ATOM     33  C   UNL A   1      33.771  33.673  30.527  1.00  0.00     0.014 A 
ATOM     34  C   UNL A   1      35.341  34.532  28.893  1.00  0.00     0.014 A 
ATOM     35  C   UNL A   1      34.845  33.138  31.231  1.00  0.00     0.010 A 
ATOM     36  C   UNL A   1      36.372  33.828  29.481  1.00  0.00     0.010 A 
ATOM     37  C   UNL A   1      36.137  33.143  30.674  1.00  0.00    -0.014 A 
BRANCH  37  38
ATOM     38  C   UNL A   1      37.252  32.423  31.319  1.00  0.00     0.031 A 
ATOM     39  C   UNL A   1      37.740  32.850  32.660  1.00  0.00     0.074 A 
ATOM     40  C   UNL A   1      37.860  31.407  30.675  1.00  0.00     0.049 A 
ATOM     41  N   UNL A   1      38.727  32.344  33.348  1.00  0.00    -0.248 NA
ATOM     42  C   UNL A   1      37.052  33.974  33.316  1.00  0.00     0.031 C 
ATOM     43  C   UNL A   1      37.470  30.913  29.358  1.00  0.00     0.029 A 
ATOM     44  N   UNL A   1      38.923  30.610  31.027  1.00  0.00    -0.354 N 
ATOM     45  C   UNL A   1      38.770  33.070  34.522  1.00  0.00     0.074 A 
ATOM     46  C   UNL A   1      37.749  34.092  34.436  1.00  0.00     0.031 C 
ATOM     47  C   UNL A   1      38.255  29.882  29.025  1.00  0.00     0.029 A 
ATOM     48  C   UNL A   1      39.241  29.670  30.076  1.00  0.00     0.049 A 
ATOM     49  H   UNL A   1      39.409  30.704  31.878  1.00  0.00     0.167 HD
ATOM     50  C   UNL A   1      39.591  32.876  35.573  1.00  0.00     0.037 A 
ATOM     51  C   UNL A   1      40.220  28.745  30.025  1.00  0.00     0.037 A 
ATOM     52  C   UNL A   1      40.617  31.885  35.627  1.00  0.00     0.049 A 
ATOM     53  C   UNL A   1      41.189  28.630  31.162  1.00  0.00     0.074 A 
ATOM     54  C   UNL A   1      41.483  31.644  36.674  1.00  0.00     0.029 A 
ATOM     55  N   UNL A   1      40.942  31.004  34.611  1.00  0.00    -0.354 N 
ATOM     56  N   UNL A   1      41.197  29.315  32.275  1.00  0.00    -0.248 NA
ATOM     57  C   UNL A   1      42.278  27.644  31.053  1.00  0.00     0.031 C 
ATOM     58  C   UNL A   1      42.384  30.674  36.273  1.00  0.00     0.029 A 
ATOM     59  C   UNL A   1      42.030  30.248  35.007  1.00  0.00     0.049 A 
ATOM     60  H   UNL A   1      40.475  30.927  33.748  1.00  0.00     0.167 HD
ATOM     61  C   UNL A   1      42.258  28.823  33.012  1.00  0.00     0.074 A 
ATOM     62  C   UNL A   1      42.877  27.777  32.228  1.00  0.00     0.031 C 
ATOM     63  C   UNL A   1      42.654  29.213  34.241  1.00  0.00     0.037 A 
BRANCH  50  64
ATOM     64  C   UNL A   1      39.450  33.790  36.743  1.00  0.00     0.064 A 
ATOM     65  C   UNL A   1      40.060  35.047  36.761  1.00  0.00     0.173 A 
ATOM     66  C   UNL A   1      38.674  33.408  37.849  1.00  0.00     0.173 A 
ATOM     67  F   UNL A   1      40.734  35.492  35.688  1.00  0.00    -0.203 F 
ATOM     68  C   UNL A   1      40.018  35.830  37.905  1.00  0.00     0.198 A 
ATOM     69  C   UNL A   1      38.545  34.242  38.947  1.00  0.00     0.198 A 
ATOM     70  F   UNL A   1      38.009  32.242  37.847  1.00  0.00    -0.203 F 
ATOM     71  F   UNL A   1      40.782  36.926  37.986  1.00  0.00    -0.200 F 
ATOM     72  C   UNL A   1      39.232  35.446  38.981  1.00  0.00     0.200 A 
ATOM     73  F   UNL A   1      37.781  33.867  39.981  1.00  0.00    -0.200 F 
ATOM     74  F   UNL A   1      39.133  36.240  40.055  1.00  0.00    -0.200 F 
ENDBRANCH  50  64
BRANCH  51  75
ATOM     75  C   UNL A   1      40.368  27.877  28.833  1.00  0.00     0.064 A 
ATOM     76  C   UNL A   1      41.140  28.277  27.736  1.00  0.00     0.173 A 
ATOM     77  C   UNL A   1      39.671  26.662  28.741  1.00  0.00     0.173 A 
ATOM     78  F   UNL A   1      41.856  29.409  27.794  1.00  0.00    -0.203 F 
ATOM     79  C   UNL A   1      41.129  27.542  26.556  1.00  0.00     0.198 A 
ATOM     80  C   UNL A   1      39.745  25.879  27.596  1.00  0.00     0.198 A 
ATOM     81  F   UNL A   1      38.937  26.223  29.774  1.00  0.00    -0.203 F 
ATOM     82  F   UNL A   1      41.711  28.041  25.457  1.00  0.00    -0.200 F 
ATOM     83  C   UNL A   1      40.468  26.325  26.501  1.00  0.00     0.200 A 
ATOM     84  F   UNL A   1      39.094  24.710  27.549  1.00  0.00    -0.200 F 
ATOM     85  F   UNL A   1      40.528  25.578  25.391  1.00  0.00    -0.200 F 
ENDBRANCH  51  75
BRANCH  63  86
ATOM     86  C   UNL A   1      43.778  28.474  34.888  1.00  0.00     0.064 A 
ATOM     87  C   UNL A   1      45.102  28.913  34.797  1.00  0.00     0.173 A 
ATOM     88  C   UNL A   1      43.505  27.330  35.656  1.00  0.00     0.173 A 
ATOM     89  F   UNL A   1      45.399  30.048  34.148  1.00  0.00    -0.203 F 
ATOM     90  C   UNL A   1      46.128  28.157  35.348  1.00  0.00     0.198 A 
ATOM     91  C   UNL A   1      44.523  26.642  36.296  1.00  0.00     0.198 A 
ATOM     92  F   UNL A   1      42.242  26.910  35.831  1.00  0.00    -0.203 F 
ATOM     93  F   UNL A   1      47.401  28.476  35.082  1.00  0.00    -0.200 F 
ATOM     94  C   UNL A   1      45.837  27.048  36.129  1.00  0.00     0.200 A 
ATOM     95  F   UNL A   1      44.232  25.576  37.054  1.00  0.00    -0.200 F 
ATOM     96  F   UNL A   1      46.825  26.372  36.727  1.00  0.00    -0.200 F 
ENDBRANCH  63  86
ENDBRANCH  37  38
ENDBRANCH  29  32
ENDBRANCH  27  28
ENDBRANCH   1  27
TORSDOF 14
ENDMDL
MODEL 2
REMARK VINA RESULT:     -12.7      0.296      7.100
REMARK SMILES CC[C@H](C(=O)NCCCNC(=O)c1ccc(-c2c3nc(c(-c4c(F)c(F)c(F)c(F)c4F)c4ccc([nH]4)c(-c4c(F)c(F)c(F)c(F)c4F)c4nc(c(-c5c(F)c(F)c(F)c(F)c5F)c5ccc2[nH]5)C=C4)C=C3)cc1)/C(=N\N=c1\[nH]c2ccccc2s1)C(F)(F)F
REMARK SMILES IDX 8 1 7 2 6 3 4 4 5 5 3 7 2 8 1 9 76 10 77 11 88 12 89 13
REMARK SMILES IDX 90 14 91 15 78 16 79 17 80 18 87 19 81 20 86 22 82 23 85 24
REMARK SMILES IDX 83 25 84 26 9 27 10 28 11 29 12 31 13 32 14 33 75 34 15 35
REMARK SMILES IDX 74 36 16 37 17 38 18 39 68 40 19 41 73 42 67 43 69 44 20 45
REMARK SMILES IDX 72 46 66 47 65 48 21 50 53 51 33 52 52 53 34 54 37 55 51 56
REMARK SMILES IDX 70 57 35 58 36 59 50 61 71 62 38 63 22 64 23 65 31 66 24 67
REMARK SMILES IDX 25 68 29 69 32 70 26 71 27 72 30 73 28 74 54 75 55 76 63 77
REMARK SMILES IDX 56 78 57 79 61 80 64 81 58 82 59 83 62 84 60 85 39 86 40 87
REMARK SMILES IDX 48 88 41 89 42 90 46 91 49 92 43 93 44 94 47 95 45 96
REMARK H PARENT 6 6 80 21 10 30 69 49 37 60
REMARK Flexibility Score: inf
ROOT
ATOM      1  C   UNL A   1      31.583  32.060  26.744  1.00  0.00     0.042 C 
ENDROOT
BRANCH   1   2
ATOM      2  C   UNL A   1      32.077  30.690  26.520  1.00  0.00     0.117 C 
BRANCH   2   3
ATOM      3  N   UNL A   1      31.668  29.609  27.370  1.00  0.00    -0.355 N 
ATOM      4  C   UNL A   1      31.722  28.283  27.033  1.00  0.00     0.229 C 
ATOM      5  O   UNL A   1      31.372  27.468  27.889  1.00  0.00    -0.274 OA
ATOM      6  H   UNL A   1      31.321  29.838  28.262  1.00  0.00     0.163 HD
BRANCH   4   7
ATOM      7  C   UNL A   1      32.140  27.861  25.614  1.00  0.00     0.134 C 
BRANCH   7   8
ATOM      8  C   UNL A   1      33.649  28.042  25.167  1.00  0.00     0.016 C 
ATOM      9  C   UNL A   1      33.942  28.305  23.690  1.00  0.00     0.005 C 
ENDBRANCH   7   8
BRANCH   7  10
ATOM     10  C   UNL A   1      31.793  26.396  25.342  1.00  0.00     0.156 C 
ATOM     11  N   UNL A   1      30.778  25.960  24.643  1.00  0.00    -0.147 NA
BRANCH  10  12
ATOM     12  C   UNL A   1      32.751  25.353  25.924  1.00  0.00     0.432 C 
ATOM     13  F   UNL A   1      33.855  25.887  26.520  1.00  0.00    -0.165 F 
ATOM     14  F   UNL A   1      32.170  24.587  26.885  1.00  0.00    -0.165 F 
ATOM     15  F   UNL A   1      33.233  24.493  24.986  1.00  0.00    -0.165 F 
ENDBRANCH  10  12
BRANCH  11  16
ATOM     16  N   UNL A   1      29.622  26.728  24.611  1.00  0.00    -0.121 NA
ATOM     17  C   UNL A   1      29.209  27.107  23.436  1.00  0.00     0.208 A 
ATOM     18  N   UNL A   1      27.957  27.636  23.142  1.00  0.00    -0.329 N 
ATOM     19  S   UNL A   1      30.364  27.924  22.335  1.00  0.00    -0.095 S 
ATOM     20  C   UNL A   1      28.142  29.041  23.119  1.00  0.00     0.058 A 
ATOM     21  H   UNL A   1      27.122  27.140  22.984  1.00  0.00     0.169 HD
ATOM     22  C   UNL A   1      29.478  29.408  22.855  1.00  0.00     0.054 A 
ATOM     23  C   UNL A   1      27.173  29.960  23.447  1.00  0.00     0.027 A 
ATOM     24  C   UNL A   1      29.924  30.636  23.287  1.00  0.00     0.021 A 
ATOM     25  C   UNL A   1      27.591  31.258  23.708  1.00  0.00     0.002 A 
ATOM     26  C   UNL A   1      28.964  31.561  23.727  1.00  0.00     0.002 A 
ENDBRANCH  11  16
ENDBRANCH   7  10
ENDBRANCH   4   7
ENDBRANCH   2   3
ENDBRANCH   1   2
BRANCH   1  27
ATOM     27  C   UNL A   1      32.697  32.843  27.340  1.00  0.00     0.118 C 
BRANCH  27  28
ATOM     28  N   UNL A   1      32.350  34.235  27.618  1.00  0.00    -0.352 N 
ATOM     29  C   UNL A   1      32.919  35.044  28.556  1.00  0.00     0.251 C 
ATOM     30  H   UNL A   1      31.632  34.629  27.073  1.00  0.00     0.163 HD
ATOM     31  O   UNL A   1      32.491  36.191  28.762  1.00  0.00    -0.269 OA
BRANCH  29  32
ATOM     32  C   UNL A   1      34.061  34.527  29.320  1.00  0.00     0.039 A 
ATOM     33  C   UNL A   1      33.862  33.932  30.560  1.00  0.00     0.014 A 
ATOM     34  C   UNL A   1      35.349  34.624  28.775  1.00  0.00     0.014 A 
ATOM     35  C   UNL A   1      34.970  33.454  31.254  1.00  0.00     0.010 A 
ATOM     36  C   UNL A   1      36.406  33.968  29.371  1.00  0.00     0.010 A 
ATOM     37  C   UNL A   1      36.230  33.397  30.633  1.00  0.00    -0.014 A 
BRANCH  37  38
ATOM     38  C   UNL A   1      37.375  32.730  31.283  1.00  0.00     0.031 A 
ATOM     39  C   UNL A   1      38.028  31.560  30.630  1.00  0.00     0.074 A 
ATOM     40  C   UNL A   1      37.803  33.150  32.490  1.00  0.00     0.049 A 
ATOM     41  N   UNL A   1      39.022  30.846  31.082  1.00  0.00    -0.248 NA
ATOM     42  C   UNL A   1      37.514  31.132  29.318  1.00  0.00     0.031 C 
ATOM     43  C   UNL A   1      37.233  34.277  33.222  1.00  0.00     0.029 A 
ATOM     44  N   UNL A   1      38.803  32.691  33.314  1.00  0.00    -0.354 N 
ATOM     45  C   UNL A   1      39.267  29.897  30.110  1.00  0.00     0.074 A 
ATOM     46  C   UNL A   1      38.284  30.085  29.064  1.00  0.00     0.031 C 
ATOM     47  C   UNL A   1      37.906  34.444  34.366  1.00  0.00     0.029 A 
ATOM     48  C   UNL A   1      38.923  33.407  34.481  1.00  0.00     0.049 A 
ATOM     49  H   UNL A   1      39.378  31.923  33.089  1.00  0.00     0.167 HD
ATOM     50  C   UNL A   1      40.242  28.966  30.103  1.00  0.00     0.037 A 
ATOM     51  C   UNL A   1      39.737  33.255  35.543  1.00  0.00     0.037 A 
ATOM     52  C   UNL A   1      41.183  28.772  31.160  1.00  0.00     0.049 A 
ATOM     53  C   UNL A   1      40.737  32.138  35.556  1.00  0.00     0.074 A 
ATOM     54  C   UNL A   1      42.197  27.838  31.206  1.00  0.00     0.029 A 
ATOM     55  N   UNL A   1      41.218  29.479  32.349  1.00  0.00    -0.354 N 
ATOM     56  N   UNL A   1      40.967  31.264  34.613  1.00  0.00    -0.248 NA
ATOM     57  C   UNL A   1      41.577  31.968  36.754  1.00  0.00     0.031 C 
ATOM     58  C   UNL A   1      42.802  27.919  32.447  1.00  0.00     0.029 A 
ATOM     59  C   UNL A   1      42.220  28.960  33.147  1.00  0.00     0.049 A 
ATOM     60  H   UNL A   1      40.626  30.229  32.587  1.00  0.00     0.167 HD
ATOM     61  C   UNL A   1      41.996  30.468  35.080  1.00  0.00     0.074 A 
ATOM     62  C   UNL A   1      42.355  30.957  36.393  1.00  0.00     0.031 C 
ATOM     63  C   UNL A   1      42.585  29.432  34.447  1.00  0.00     0.037 A 
BRANCH  50  64
ATOM     64  C   UNL A   1      40.315  28.044  28.933  1.00  0.00     0.064 A 
ATOM     65  C   UNL A   1      41.086  28.356  27.810  1.00  0.00     0.173 A 
ATOM     66  C   UNL A   1      39.620  26.825  28.950  1.00  0.00     0.173 A 
ATOM     67  F   UNL A   1      41.841  29.466  27.789  1.00  0.00    -0.203 F 
ATOM     68  C   UNL A   1      41.044  27.545  26.685  1.00  0.00     0.198 A 
ATOM     69  C   UNL A   1      39.669  25.965  27.865  1.00  0.00     0.198 A 
ATOM     70  F   UNL A   1      38.926  26.449  30.036  1.00  0.00    -0.203 F 
ATOM     71  F   UNL A   1      41.610  27.963  25.546  1.00  0.00    -0.200 F 
ATOM     72  C   UNL A   1      40.368  26.335  26.726  1.00  0.00     0.200 A 
ATOM     73  F   UNL A   1      39.018  24.796  27.912  1.00  0.00    -0.200 F 
ATOM     74  F   UNL A   1      40.392  25.519  25.664  1.00  0.00    -0.200 F 
ENDBRANCH  50  64
BRANCH  51  75
ATOM     75  C   UNL A   1      39.618  34.157  36.713  1.00  0.00     0.064 A 
ATOM     76  C   UNL A   1      40.312  35.371  36.766  1.00  0.00     0.173 A 
ATOM     77  C   UNL A   1      38.866  33.779  37.836  1.00  0.00     0.173 A 
ATOM     78  F   UNL A   1      41.011  35.794  35.702  1.00  0.00    -0.203 F 
ATOM     79  C   UNL A   1      40.338  36.123  37.935  1.00  0.00     0.198 A 
ATOM     80  C   UNL A   1      38.812  34.584  38.966  1.00  0.00     0.198 A 
ATOM     81  F   UNL A   1      38.163  32.636  37.826  1.00  0.00    -0.203 F 
ATOM     82  F   UNL A   1      41.164  37.174  38.031  1.00  0.00    -0.200 F 
ATOM     83  C   UNL A   1      39.555  35.752  39.017  1.00  0.00     0.200 A 
ATOM     84  F   UNL A   1      38.061  34.212  40.010  1.00  0.00    -0.200 F 
ATOM     85  F   UNL A   1      39.515  36.523  40.112  1.00  0.00    -0.200 F 
ENDBRANCH  51  75
BRANCH  63  86
ATOM     86  C   UNL A   1      43.746  28.770  35.109  1.00  0.00     0.064 A 
ATOM     87  C   UNL A   1      45.060  29.203  34.908  1.00  0.00     0.173 A 
ATOM     88  C   UNL A   1      43.523  27.709  36.003  1.00  0.00     0.173 A 
ATOM     89  F   UNL A   1      45.314  30.268  34.132  1.00  0.00    -0.203 F 
ATOM     90  C   UNL A   1      46.120  28.514  35.482  1.00  0.00     0.198 A 
ATOM     91  C   UNL A   1      44.579  27.095  36.659  1.00  0.00     0.198 A 
ATOM     92  F   UNL A   1      42.275  27.302  36.282  1.00  0.00    -0.203 F 
ATOM     93  F   UNL A   1      47.375  28.811  35.122  1.00  0.00    -0.200 F 
ATOM     94  C   UNL A   1      45.878  27.489  36.385  1.00  0.00     0.200 A 
ATOM     95  F   UNL A   1      44.336  26.112  37.535  1.00  0.00    -0.200 F 
ATOM     96  F   UNL A   1      46.902  26.883  37.000  1.00  0.00    -0.200 F 
ENDBRANCH  63  86
ENDBRANCH  37  38
ENDBRANCH  29  32
ENDBRANCH  27  28
ENDBRANCH   1  27
TORSDOF 14
ENDMDL
MODEL 3
REMARK VINA RESULT:     -12.7      0.168      7.269
REMARK SMILES CC[C@H](C(=O)NCCCNC(=O)c1ccc(-c2c3nc(c(-c4c(F)c(F)c(F)c(F)c4F)c4ccc([nH]4)c(-c4c(F)c(F)c(F)c(F)c4F)c4nc(c(-c5c(F)c(F)c(F)c(F)c5F)c5ccc2[nH]5)C=C4)C=C3)cc1)/C(=N\N=c1\[nH]c2ccccc2s1)C(F)(F)F
REMARK SMILES IDX 8 1 7 2 6 3 4 4 5 5 3 7 2 8 1 9 76 10 77 11 88 12 89 13
REMARK SMILES IDX 90 14 91 15 78 16 79 17 80 18 87 19 81 20 86 22 82 23 85 24
REMARK SMILES IDX 83 25 84 26 9 27 10 28 11 29 12 31 13 32 14 33 75 34 15 35
REMARK SMILES IDX 74 36 16 37 17 38 18 39 68 40 19 41 73 42 67 43 69 44 20 45
REMARK SMILES IDX 72 46 66 47 65 48 21 50 53 51 33 52 52 53 34 54 37 55 51 56
REMARK SMILES IDX 70 57 35 58 36 59 50 61 71 62 38 63 22 64 23 65 31 66 24 67
REMARK SMILES IDX 25 68 29 69 32 70 26 71 27 72 30 73 28 74 54 75 55 76 63 77
REMARK SMILES IDX 56 78 57 79 61 80 64 81 58 82 59 83 62 84 60 85 39 86 40 87
REMARK SMILES IDX 48 88 41 89 42 90 46 91 49 92 43 93 44 94 47 95 45 96
REMARK H PARENT 6 6 80 21 10 30 69 49 37 60
REMARK Flexibility Score: inf
ROOT
ATOM      1  C   UNL A   1      31.672  32.024  26.679  1.00  0.00     0.042 C 
ENDROOT
BRANCH   1   2
ATOM      2  C   UNL A   1      32.157  30.648  26.472  1.00  0.00     0.117 C 
BRANCH   2   3
ATOM      3  N   UNL A   1      31.734  29.579  27.330  1.00  0.00    -0.355 N 
ATOM      4  C   UNL A   1      31.756  28.251  26.997  1.00  0.00     0.229 C 
ATOM      5  O   UNL A   1      31.398  27.446  27.860  1.00  0.00    -0.274 OA
ATOM      6  H   UNL A   1      31.403  29.818  28.226  1.00  0.00     0.163 HD
BRANCH   4   7
ATOM      7  C   UNL A   1      32.146  27.815  25.575  1.00  0.00     0.134 C 
BRANCH   7   8
ATOM      8  C   UNL A   1      33.651  27.974  25.105  1.00  0.00     0.016 C 
ATOM      9  C   UNL A   1      33.926  28.211  23.620  1.00  0.00     0.005 C 
ENDBRANCH   7   8
BRANCH   7  10
ATOM     10  C   UNL A   1      31.776  26.353  25.316  1.00  0.00     0.156 C 
ATOM     11  N   UNL A   1      30.750  25.927  24.628  1.00  0.00    -0.147 NA
BRANCH  10  12
ATOM     12  C   UNL A   1      32.724  25.302  25.899  1.00  0.00     0.432 C 
ATOM     13  F   UNL A   1      33.829  25.825  26.503  1.00  0.00    -0.165 F 
ATOM     14  F   UNL A   1      32.133  24.536  26.853  1.00  0.00    -0.165 F 
ATOM     15  F   UNL A   1      33.205  24.442  24.960  1.00  0.00    -0.165 F 
ENDBRANCH  10  12
BRANCH  11  16
ATOM     16  N   UNL A   1      29.605  26.711  24.599  1.00  0.00    -0.121 NA
ATOM     17  C   UNL A   1      29.219  27.131  23.429  1.00  0.00     0.208 A 
ATOM     18  N   UNL A   1      27.979  27.686  23.129  1.00  0.00    -0.329 N 
ATOM     19  S   UNL A   1      30.404  27.967  22.376  1.00  0.00    -0.095 S 
ATOM     20  C   UNL A   1      28.183  29.089  23.154  1.00  0.00     0.058 A 
ATOM     21  H   UNL A   1      27.141  27.206  22.941  1.00  0.00     0.169 HD
ATOM     22  C   UNL A   1      29.528  29.445  22.925  1.00  0.00     0.054 A 
ATOM     23  C   UNL A   1      27.220  30.010  23.492  1.00  0.00     0.027 A 
ATOM     24  C   UNL A   1      29.982  30.654  23.403  1.00  0.00     0.021 A 
ATOM     25  C   UNL A   1      27.649  31.293  23.800  1.00  0.00     0.002 A 
ATOM     26  C   UNL A   1      29.026  31.577  23.854  1.00  0.00     0.002 A 
ENDBRANCH  11  16
ENDBRANCH   7  10
ENDBRANCH   4   7
ENDBRANCH   2   3
ENDBRANCH   1   2
BRANCH   1  27
ATOM     27  C   UNL A   1      32.786  32.802  27.281  1.00  0.00     0.118 C 
BRANCH  27  28
ATOM     28  N   UNL A   1      32.421  34.174  27.625  1.00  0.00    -0.352 N 
ATOM     29  C   UNL A   1      32.974  34.942  28.606  1.00  0.00     0.251 C 
ATOM     30  H   UNL A   1      31.702  34.588  27.094  1.00  0.00     0.163 HD
ATOM     31  O   UNL A   1      32.531  36.073  28.865  1.00  0.00    -0.269 OA
BRANCH  29  32
ATOM     32  C   UNL A   1      34.117  34.401  29.352  1.00  0.00     0.039 A 
ATOM     33  C   UNL A   1      33.916  33.745  30.561  1.00  0.00     0.014 A 
ATOM     34  C   UNL A   1      35.406  34.537  28.821  1.00  0.00     0.014 A 
ATOM     35  C   UNL A   1      35.024  33.245  31.238  1.00  0.00     0.010 A 
ATOM     36  C   UNL A   1      36.467  33.863  29.393  1.00  0.00     0.010 A 
ATOM     37  C   UNL A   1      36.289  33.231  30.624  1.00  0.00    -0.014 A 
BRANCH  37  38
ATOM     38  C   UNL A   1      37.436  32.544  31.249  1.00  0.00     0.031 A 
ATOM     39  C   UNL A   1      38.104  31.414  30.545  1.00  0.00     0.074 A 
ATOM     40  C   UNL A   1      37.853  32.911  32.478  1.00  0.00     0.049 A 
ATOM     41  N   UNL A   1      39.103  30.688  30.970  1.00  0.00    -0.248 NA
ATOM     42  C   UNL A   1      37.603  31.043  29.212  1.00  0.00     0.031 C 
ATOM     43  C   UNL A   1      37.268  33.997  33.258  1.00  0.00     0.029 A 
ATOM     44  N   UNL A   1      38.852  32.423  33.285  1.00  0.00    -0.354 N 
ATOM     45  C   UNL A   1      39.363  29.789  29.955  1.00  0.00     0.074 A 
ATOM     46  C   UNL A   1      38.385  30.016  28.913  1.00  0.00     0.031 C 
ATOM     47  C   UNL A   1      37.932  34.116  34.413  1.00  0.00     0.029 A 
ATOM     48  C   UNL A   1      38.959  33.084  34.486  1.00  0.00     0.049 A 
ATOM     49  H   UNL A   1      39.436  31.673  33.028  1.00  0.00     0.167 HD
ATOM     50  C   UNL A   1      40.348  28.869  29.911  1.00  0.00     0.037 A 
ATOM     51  C   UNL A   1      39.768  32.890  35.545  1.00  0.00     0.037 A 
ATOM     52  C   UNL A   1      41.283  28.634  30.963  1.00  0.00     0.049 A 
ATOM     53  C   UNL A   1      40.779  31.784  35.511  1.00  0.00     0.074 A 
ATOM     54  C   UNL A   1      42.307  27.708  30.972  1.00  0.00     0.029 A 
ATOM     55  N   UNL A   1      41.305  29.284  32.185  1.00  0.00    -0.354 N 
ATOM     56  N   UNL A   1      41.023  30.957  34.529  1.00  0.00    -0.248 NA
ATOM     57  C   UNL A   1      41.613  31.565  36.705  1.00  0.00     0.031 C 
ATOM     58  C   UNL A   1      42.903  27.737  32.219  1.00  0.00     0.029 A 
ATOM     59  C   UNL A   1      42.308  28.738  32.963  1.00  0.00     0.049 A 
ATOM     60  H   UNL A   1      40.705  30.016  32.454  1.00  0.00     0.167 HD
ATOM     61  C   UNL A   1      42.057  30.150  34.965  1.00  0.00     0.074 A 
ATOM     62  C   UNL A   1      42.403  30.580  36.301  1.00  0.00     0.031 C 
ATOM     63  C   UNL A   1      42.660  29.151  34.287  1.00  0.00     0.037 A 
BRANCH  50  64
ATOM     64  C   UNL A   1      40.437  28.004  28.700  1.00  0.00     0.064 A 
ATOM     65  C   UNL A   1      39.763  26.781  28.628  1.00  0.00     0.173 A 
ATOM     66  C   UNL A   1      41.190  28.418  27.590  1.00  0.00     0.173 A 
ATOM     67  F   UNL A   1      38.957  26.389  29.628  1.00  0.00    -0.203 F 
ATOM     68  C   UNL A   1      39.957  25.937  27.545  1.00  0.00     0.198 A 
ATOM     69  C   UNL A   1      41.291  27.618  26.463  1.00  0.00     0.198 A 
ATOM     70  F   UNL A   1      41.794  29.617  27.583  1.00  0.00    -0.203 F 
ATOM     71  F   UNL A   1      39.483  24.686  27.587  1.00  0.00    -0.200 F 
ATOM     72  C   UNL A   1      40.688  26.371  26.449  1.00  0.00     0.200 A 
ATOM     73  F   UNL A   1      41.995  28.044  25.407  1.00  0.00    -0.200 F 
ATOM     74  F   UNL A   1      40.810  25.583  25.373  1.00  0.00    -0.200 F 
ENDBRANCH  50  64
BRANCH  51  75
ATOM     75  C   UNL A   1      39.633  33.734  36.755  1.00  0.00     0.064 A 
ATOM     76  C   UNL A   1      38.848  33.325  37.840  1.00  0.00     0.173 A 
ATOM     77  C   UNL A   1      40.226  35.005  36.814  1.00  0.00     0.173 A 
ATOM     78  F   UNL A   1      38.295  32.103  37.848  1.00  0.00    -0.203 F 
ATOM     79  C   UNL A   1      38.582  34.196  38.891  1.00  0.00     0.198 A 
ATOM     80  C   UNL A   1      40.040  35.832  37.913  1.00  0.00     0.198 A 
ATOM     81  F   UNL A   1      41.006  35.434  35.810  1.00  0.00    -0.203 F 
ATOM     82  F   UNL A   1      37.673  33.860  39.817  1.00  0.00    -0.200 F 
ATOM     83  C   UNL A   1      39.211  35.430  38.948  1.00  0.00     0.200 A 
ATOM     84  F   UNL A   1      40.643  37.027  37.954  1.00  0.00    -0.200 F 
ATOM     85  F   UNL A   1      39.019  36.232  40.002  1.00  0.00    -0.200 F 
ENDBRANCH  51  75
BRANCH  63  86
ATOM     86  C   UNL A   1      43.824  28.469  34.924  1.00  0.00     0.064 A 
ATOM     87  C   UNL A   1      45.126  28.964  34.809  1.00  0.00     0.173 A 
ATOM     88  C   UNL A   1      43.612  27.323  35.709  1.00  0.00     0.173 A 
ATOM     89  F   UNL A   1      45.365  30.104  34.143  1.00  0.00    -0.203 F 
ATOM     90  C   UNL A   1      46.192  28.260  35.353  1.00  0.00     0.198 A 
ATOM     91  C   UNL A   1      44.669  26.687  36.341  1.00  0.00     0.198 A 
ATOM     92  F   UNL A   1      42.372  26.850  35.907  1.00  0.00    -0.203 F 
ATOM     93  F   UNL A   1      47.447  28.631  35.064  1.00  0.00    -0.200 F 
ATOM     94  C   UNL A   1      45.961  27.148  36.149  1.00  0.00     0.200 A 
ATOM     95  F   UNL A   1      44.435  25.618  37.114  1.00  0.00    -0.200 F 
ATOM     96  F   UNL A   1      46.986  26.522  36.740  1.00  0.00    -0.200 F 
ENDBRANCH  63  86
ENDBRANCH  37  38
ENDBRANCH  29  32
ENDBRANCH  27  28
ENDBRANCH   1  27
TORSDOF 14
ENDMDL
