MODEL 1
REMARK VINA RESULT:     -11.9      0.000      0.000
REMARK SMILES CN(CC(N)=O)S(=O)(=O)c1ccc(C(=O)NCCCNC(=O)c2ccc(-c3c4nc(c(-c5c(F)c(F)c(F)c(F)c5F)c5ccc([nH]5)c(-c5c(F)c(F)c(F)c(F)c5F)c5nc(c(-c6c(F)c(F)c(F)c(F)c6F)c6ccc3[nH]6)C=C5)C=C4)cc2)cc1Br
REMARK SMILES IDX 17 1 16 2 14 3 15 4 13 6 10 7 11 8 87 9 12 10 86 11 88 12
REMARK SMILES IDX 7 13 8 14 9 15 2 16 1 17 3 18 4 19 5 20 6 21 18 24 19 25
REMARK SMILES IDX 20 26 21 27 22 29 23 30 24 31 85 32 25 33 84 34 26 35 27 36
REMARK SMILES IDX 28 37 78 38 29 39 83 40 77 41 79 42 30 43 82 44 76 45 75 46
REMARK SMILES IDX 31 48 63 49 43 50 62 51 44 52 47 53 61 54 80 55 45 56 46 57
REMARK SMILES IDX 60 59 81 60 48 61 32 62 33 63 41 64 34 65 35 66 39 67 42 68
REMARK SMILES IDX 36 69 37 70 40 71 38 72 64 73 65 74 73 75 66 76 67 77 71 78
REMARK SMILES IDX 74 79 68 80 69 81 72 82 70 83 49 84 50 85 58 86 51 87 52 88
REMARK SMILES IDX 56 89 59 90 53 91 54 92 57 93 55 94
REMARK H PARENT 16 5 5 22 5 23 20 28 79 47 47 58
REMARK Flexibility Score: inf
ROOT
ATOM      1  C   UNL A   1      31.495  30.760  26.234  1.00  0.00     0.118 C 
ENDROOT
BRANCH   1   2
ATOM      2  N   UNL A   1      30.993  30.457  24.906  1.00  0.00    -0.352 N 
ATOM      3  C   UNL A   1      31.006  29.329  24.128  1.00  0.00     0.251 C 
ATOM      4  O   UNL A   1      30.408  29.386  23.052  1.00  0.00    -0.269 OA
ATOM      5  H   UNL A   1      30.551  31.223  24.473  1.00  0.00     0.163 HD
BRANCH   3   6
ATOM      6  C   UNL A   1      31.664  28.043  24.510  1.00  0.00     0.041 A 
ATOM      7  C   UNL A   1      33.081  25.682  25.165  1.00  0.00     0.096 A 
ATOM      8  C   UNL A   1      33.766  26.814  24.716  1.00  0.00     0.024 A 
ATOM      9  C   UNL A   1      31.698  25.755  25.362  1.00  0.00     0.038 A 
ATOM     10  C   UNL A   1      33.059  27.971  24.369  1.00  0.00     0.015 A 
ATOM     11  C   UNL A   1      31.007  26.938  25.053  1.00  0.00     0.031 A 
ATOM     12  Br  UNL A   1      30.639  24.355  26.096  1.00  0.00    -0.049 Br
BRANCH   7  13
ATOM     13  S   UNL A   1      33.948  24.174  25.514  1.00  0.00     0.244 S 
ATOM     14  O   UNL A   1      33.528  23.731  26.825  1.00  0.00    -0.207 OA
ATOM     15  O   UNL A   1      35.337  24.437  25.203  1.00  0.00    -0.207 OA
BRANCH  13  16
ATOM     16  N   UNL A   1      33.386  23.008  24.390  1.00  0.00    -0.192 NA
ATOM     17  C   UNL A   1      33.648  23.431  22.985  1.00  0.00     0.125 C 
BRANCH  16  18
ATOM     18  C   UNL A   1      33.796  21.591  24.608  1.00  0.00     0.201 C 
BRANCH  18  19
ATOM     19  C   UNL A   1      32.874  20.719  25.439  1.00  0.00     0.232 C 
ATOM     20  N   UNL A   1      33.282  20.477  26.720  1.00  0.00    -0.369 N 
ATOM     21  O   UNL A   1      31.811  20.272  25.019  1.00  0.00    -0.274 OA
ATOM     22  H   UNL A   1      34.137  20.843  27.042  1.00  0.00     0.159 HD
ATOM     23  H   UNL A   1      32.720  19.937  27.322  1.00  0.00     0.159 HD
ENDBRANCH  18  19
ENDBRANCH  16  18
ENDBRANCH  13  16
ENDBRANCH   7  13
ENDBRANCH   3   6
ENDBRANCH   1   2
BRANCH   1  24
ATOM     24  C   UNL A   1      31.401  32.255  26.547  1.00  0.00     0.042 C 
BRANCH  24  25
ATOM     25  C   UNL A   1      32.697  32.852  27.091  1.00  0.00     0.118 C 
BRANCH  25  26
ATOM     26  N   UNL A   1      32.498  34.192  27.622  1.00  0.00    -0.352 N 
ATOM     27  C   UNL A   1      33.049  34.802  28.720  1.00  0.00     0.251 C 
ATOM     28  H   UNL A   1      31.867  34.750  27.112  1.00  0.00     0.163 HD
ATOM     29  O   UNL A   1      32.580  35.867  29.113  1.00  0.00    -0.269 OA
BRANCH  27  30
ATOM     30  C   UNL A   1      34.194  34.201  29.442  1.00  0.00     0.039 A 
ATOM     31  C   UNL A   1      35.481  34.377  28.919  1.00  0.00     0.014 A 
ATOM     32  C   UNL A   1      34.011  33.408  30.578  1.00  0.00     0.014 A 
ATOM     33  C   UNL A   1      36.582  33.798  29.555  1.00  0.00     0.010 A 
ATOM     34  C   UNL A   1      35.116  32.877  31.245  1.00  0.00     0.010 A 
ATOM     35  C   UNL A   1      36.410  33.061  30.738  1.00  0.00    -0.014 A 
BRANCH  35  36
ATOM     36  C   UNL A   1      37.571  32.461  31.446  1.00  0.00     0.031 A 
ATOM     37  C   UNL A   1      38.314  31.308  30.832  1.00  0.00     0.074 A 
ATOM     38  C   UNL A   1      37.918  32.916  32.665  1.00  0.00     0.049 A 
ATOM     39  N   UNL A   1      39.283  30.583  31.335  1.00  0.00    -0.248 NA
ATOM     40  C   UNL A   1      37.904  30.901  29.478  1.00  0.00     0.031 C 
ATOM     41  C   UNL A   1      37.258  34.010  33.378  1.00  0.00     0.029 A 
ATOM     42  N   UNL A   1      38.905  32.505  33.527  1.00  0.00    -0.354 N 
ATOM     43  C   UNL A   1      39.583  29.630  30.370  1.00  0.00     0.074 A 
ATOM     44  C   UNL A   1      38.670  29.841  29.268  1.00  0.00     0.031 C 
ATOM     45  C   UNL A   1      37.863  34.189  34.564  1.00  0.00     0.029 A 
ATOM     46  C   UNL A   1      38.929  33.202  34.708  1.00  0.00     0.049 A 
ATOM     47  H   UNL A   1      39.535  31.778  33.315  1.00  0.00     0.167 HD
ATOM     48  C   UNL A   1      40.547  28.678  30.394  1.00  0.00     0.037 A 
ATOM     49  C   UNL A   1      39.715  33.054  35.792  1.00  0.00     0.037 A 
ATOM     50  C   UNL A   1      41.473  28.485  31.480  1.00  0.00     0.049 A 
ATOM     51  C   UNL A   1      40.774  31.986  35.792  1.00  0.00     0.074 A 
ATOM     52  C   UNL A   1      42.502  27.566  31.585  1.00  0.00     0.029 A 
ATOM     53  N   UNL A   1      41.486  29.235  32.646  1.00  0.00    -0.354 N 
ATOM     54  N   UNL A   1      41.071  31.114  34.858  1.00  0.00    -0.248 NA
ATOM     55  C   UNL A   1      41.613  31.885  36.995  1.00  0.00     0.031 C 
ATOM     56  C   UNL A   1      43.122  27.742  32.826  1.00  0.00     0.029 A 
ATOM     57  C   UNL A   1      42.502  28.794  33.479  1.00  0.00     0.049 A 
ATOM     58  H   UNL A   1      40.864  29.971  32.852  1.00  0.00     0.167 HD
ATOM     59  C   UNL A   1      42.146  30.385  35.347  1.00  0.00     0.074 A 
ATOM     60  C   UNL A   1      42.459  30.923  36.654  1.00  0.00     0.031 C 
ATOM     61  C   UNL A   1      42.812  29.358  34.766  1.00  0.00     0.037 A 
BRANCH  48  62
ATOM     62  C   UNL A   1      40.662  27.772  29.204  1.00  0.00     0.064 A 
ATOM     63  C   UNL A   1      39.824  26.657  29.054  1.00  0.00     0.173 A 
ATOM     64  C   UNL A   1      41.576  28.052  28.177  1.00  0.00     0.173 A 
ATOM     65  F   UNL A   1      38.942  26.340  30.014  1.00  0.00    -0.203 F 
ATOM     66  C   UNL A   1      39.911  25.844  27.927  1.00  0.00     0.198 A 
ATOM     67  C   UNL A   1      41.641  27.251  27.039  1.00  0.00     0.198 A 
ATOM     68  F   UNL A   1      42.395  29.110  28.270  1.00  0.00    -0.203 F 
ATOM     69  F   UNL A   1      39.124  24.763  27.820  1.00  0.00    -0.200 F 
ATOM     70  C   UNL A   1      40.812  26.146  26.918  1.00  0.00     0.200 A 
ATOM     71  F   UNL A   1      42.505  27.551  26.059  1.00  0.00    -0.200 F 
ATOM     72  F   UNL A   1      40.886  25.369  25.828  1.00  0.00    -0.200 F 
ENDBRANCH  48  62
BRANCH  49  73
ATOM     73  C   UNL A   1      39.543  33.946  36.967  1.00  0.00     0.064 A 
ATOM     74  C   UNL A   1      40.153  35.207  37.007  1.00  0.00     0.173 A 
ATOM     75  C   UNL A   1      38.788  33.550  38.081  1.00  0.00     0.173 A 
ATOM     76  F   UNL A   1      40.903  35.620  35.975  1.00  0.00    -0.203 F 
ATOM     77  C   UNL A   1      40.037  36.028  38.127  1.00  0.00     0.198 A 
ATOM     78  C   UNL A   1      38.650  34.383  39.189  1.00  0.00     0.198 A 
ATOM     79  F   UNL A   1      38.181  32.354  38.091  1.00  0.00    -0.203 F 
ATOM     80  F   UNL A   1      40.673  37.207  38.159  1.00  0.00    -0.200 F 
ATOM     81  C   UNL A   1      39.283  35.617  39.216  1.00  0.00     0.200 A 
ATOM     82  F   UNL A   1      37.912  33.987  40.235  1.00  0.00    -0.200 F 
ATOM     83  F   UNL A   1      39.174  36.405  40.293  1.00  0.00    -0.200 F 
ENDBRANCH  49  73
BRANCH  61  84
ATOM     84  C   UNL A   1      43.973  28.781  35.518  1.00  0.00     0.064 A 
ATOM     85  C   UNL A   1      43.807  27.731  36.433  1.00  0.00     0.173 A 
ATOM     86  C   UNL A   1      45.272  29.260  35.291  1.00  0.00     0.173 A 
ATOM     87  F   UNL A   1      42.582  27.251  36.694  1.00  0.00    -0.203 F 
ATOM     88  C   UNL A   1      44.899  27.196  37.111  1.00  0.00     0.198 A 
ATOM     89  C   UNL A   1      46.364  28.705  35.952  1.00  0.00     0.198 A 
ATOM     90  F   UNL A   1      45.482  30.259  34.422  1.00  0.00    -0.203 F 
ATOM     91  F   UNL A   1      44.714  26.220  38.011  1.00  0.00    -0.200 F 
ATOM     92  C   UNL A   1      46.177  27.678  36.865  1.00  0.00     0.200 A 
ATOM     93  F   UNL A   1      47.599  29.165  35.707  1.00  0.00    -0.200 F 
ATOM     94  F   UNL A   1      47.227  27.157  37.514  1.00  0.00    -0.200 F 
ENDBRANCH  61  84
ENDBRANCH  35  36
ENDBRANCH  27  30
ENDBRANCH  25  26
ENDBRANCH  24  25
ENDBRANCH   1  24
TORSDOF 14
ENDMDL
MODEL 2
REMARK VINA RESULT:     -11.9      5.648     11.367
REMARK SMILES CN(CC(N)=O)S(=O)(=O)c1ccc(C(=O)NCCCNC(=O)c2ccc(-c3c4nc(c(-c5c(F)c(F)c(F)c(F)c5F)c5ccc([nH]5)c(-c5c(F)c(F)c(F)c(F)c5F)c5nc(c(-c6c(F)c(F)c(F)c(F)c6F)c6ccc3[nH]6)C=C5)C=C4)cc2)cc1Br
REMARK SMILES IDX 17 1 16 2 14 3 15 4 13 6 10 7 11 8 87 9 12 10 86 11 88 12
REMARK SMILES IDX 7 13 8 14 9 15 2 16 1 17 3 18 4 19 5 20 6 21 18 24 19 25
REMARK SMILES IDX 20 26 21 27 22 29 23 30 24 31 85 32 25 33 84 34 26 35 27 36
REMARK SMILES IDX 28 37 78 38 29 39 83 40 77 41 79 42 30 43 82 44 76 45 75 46
REMARK SMILES IDX 31 48 63 49 43 50 62 51 44 52 47 53 61 54 80 55 45 56 46 57
REMARK SMILES IDX 60 59 81 60 48 61 32 62 33 63 41 64 34 65 35 66 39 67 42 68
REMARK SMILES IDX 36 69 37 70 40 71 38 72 64 73 65 74 73 75 66 76 67 77 71 78
REMARK SMILES IDX 74 79 68 80 69 81 72 82 70 83 49 84 50 85 58 86 51 87 52 88
REMARK SMILES IDX 56 89 59 90 53 91 54 92 57 93 55 94
REMARK H PARENT 16 5 5 22 5 23 20 28 79 47 47 58
REMARK Flexibility Score: inf
ROOT
ATOM      1  C   UNL A   1      37.552  20.776  24.633  1.00  0.00     0.118 C 
ENDROOT
BRANCH   1   2
ATOM      2  N   UNL A   1      37.950  21.944  25.398  1.00  0.00    -0.352 N 
ATOM      3  C   UNL A   1      37.404  23.190  25.568  1.00  0.00     0.251 C 
ATOM      4  O   UNL A   1      37.965  23.940  26.369  1.00  0.00    -0.269 OA
ATOM      5  H   UNL A   1      38.786  21.814  25.902  1.00  0.00     0.163 HD
BRANCH   3   6
ATOM      6  C   UNL A   1      36.174  23.679  24.876  1.00  0.00     0.041 A 
ATOM      7  C   UNL A   1      33.914  24.527  23.397  1.00  0.00     0.096 A 
ATOM      8  C   UNL A   1      34.877  23.706  22.805  1.00  0.00     0.024 A 
ATOM      9  C   UNL A   1      34.040  24.859  24.749  1.00  0.00     0.038 A 
ATOM     10  C   UNL A   1      36.005  23.309  23.532  1.00  0.00     0.015 A 
ATOM     11  C   UNL A   1      35.155  24.416  25.480  1.00  0.00     0.031 A 
ATOM     12  Br  UNL A   1      32.751  25.848  25.740  1.00  0.00    -0.049 Br
BRANCH   7  13
ATOM     13  S   UNL A   1      32.529  25.122  22.462  1.00  0.00     0.244 S 
ATOM     14  O   UNL A   1      31.344  24.492  23.003  1.00  0.00    -0.207 OA
ATOM     15  O   UNL A   1      32.903  24.983  21.071  1.00  0.00    -0.207 OA
BRANCH  13  16
ATOM     16  N   UNL A   1      32.394  26.799  22.790  1.00  0.00    -0.192 NA
ATOM     17  C   UNL A   1      33.590  27.548  22.309  1.00  0.00     0.125 C 
BRANCH  16  18
ATOM     18  C   UNL A   1      31.134  27.480  22.376  1.00  0.00     0.201 C 
BRANCH  18  19
ATOM     19  C   UNL A   1      30.974  28.939  22.756  1.00  0.00     0.232 C 
ATOM     20  N   UNL A   1      30.906  29.820  21.712  1.00  0.00    -0.369 N 
ATOM     21  O   UNL A   1      30.879  29.327  23.916  1.00  0.00    -0.274 OA
ATOM     22  H   UNL A   1      30.984  29.493  20.787  1.00  0.00     0.159 HD
ATOM     23  H   UNL A   1      30.780  30.781  21.886  1.00  0.00     0.159 HD
ENDBRANCH  18  19
ENDBRANCH  16  18
ENDBRANCH  13  16
ENDBRANCH   7  13
ENDBRANCH   3   6
ENDBRANCH   1   2
BRANCH   1  24
ATOM     24  C   UNL A   1      38.387  19.549  25.001  1.00  0.00     0.042 C 
BRANCH  24  25
ATOM     25  C   UNL A   1      39.347  19.784  26.165  1.00  0.00     0.118 C 
BRANCH  25  26
ATOM     26  N   UNL A   1      40.520  18.927  26.086  1.00  0.00    -0.352 N 
ATOM     27  C   UNL A   1      41.852  19.249  26.032  1.00  0.00     0.251 C 
ATOM     28  H   UNL A   1      40.326  17.961  26.069  1.00  0.00     0.163 HD
ATOM     29  O   UNL A   1      42.669  18.375  25.751  1.00  0.00    -0.269 OA
BRANCH  27  30
ATOM     30  C   UNL A   1      42.324  20.626  26.302  1.00  0.00     0.039 A 
ATOM     31  C   UNL A   1      42.484  21.030  27.632  1.00  0.00     0.014 A 
ATOM     32  C   UNL A   1      42.536  21.544  25.269  1.00  0.00     0.014 A 
ATOM     33  C   UNL A   1      42.896  22.332  27.926  1.00  0.00     0.010 A 
ATOM     34  C   UNL A   1      43.004  22.826  25.560  1.00  0.00     0.010 A 
ATOM     35  C   UNL A   1      43.181  23.236  26.890  1.00  0.00    -0.014 A 
BRANCH  35  36
ATOM     36  C   UNL A   1      43.648  24.616  27.179  1.00  0.00     0.031 A 
ATOM     37  C   UNL A   1      42.686  25.642  27.711  1.00  0.00     0.074 A 
ATOM     38  C   UNL A   1      44.922  24.960  26.910  1.00  0.00     0.049 A 
ATOM     39  N   UNL A   1      42.873  26.920  27.928  1.00  0.00    -0.248 NA
ATOM     40  C   UNL A   1      41.327  25.174  28.023  1.00  0.00     0.031 C 
ATOM     41  C   UNL A   1      45.943  24.064  26.366  1.00  0.00     0.029 A 
ATOM     42  N   UNL A   1      45.572  26.163  27.043  1.00  0.00    -0.354 N 
ATOM     43  C   UNL A   1      41.655  27.409  28.384  1.00  0.00     0.074 A 
ATOM     44  C   UNL A   1      40.726  26.301  28.377  1.00  0.00     0.031 C 
ATOM     45  C   UNL A   1      47.093  24.744  26.222  1.00  0.00     0.029 A 
ATOM     46  C   UNL A   1      46.880  26.130  26.628  1.00  0.00     0.049 A 
ATOM     47  H   UNL A   1      45.139  26.972  27.403  1.00  0.00     0.167 HD
ATOM     48  C   UNL A   1      41.348  28.663  28.792  1.00  0.00     0.037 A 
ATOM     49  C   UNL A   1      47.800  27.112  26.570  1.00  0.00     0.037 A 
ATOM     50  C   UNL A   1      42.281  29.760  28.825  1.00  0.00     0.049 A 
ATOM     51  C   UNL A   1      47.430  28.496  27.026  1.00  0.00     0.074 A 
ATOM     52  C   UNL A   1      42.072  31.061  29.248  1.00  0.00     0.029 A 
ATOM     53  N   UNL A   1      43.607  29.677  28.428  1.00  0.00    -0.354 N 
ATOM     54  N   UNL A   1      46.284  28.937  27.489  1.00  0.00    -0.248 NA
ATOM     55  C   UNL A   1      48.482  29.521  26.958  1.00  0.00     0.031 C 
ATOM     56  C   UNL A   1      43.263  31.773  29.082  1.00  0.00     0.029 A 
ATOM     57  C   UNL A   1      44.225  30.907  28.590  1.00  0.00     0.049 A 
ATOM     58  H   UNL A   1      44.044  28.866  28.081  1.00  0.00     0.167 HD
ATOM     59  C   UNL A   1      46.487  30.276  27.794  1.00  0.00     0.074 A 
ATOM     60  C   UNL A   1      47.867  30.574  27.477  1.00  0.00     0.031 C 
ATOM     61  C   UNL A   1      45.606  31.178  28.289  1.00  0.00     0.037 A 
BRANCH  48  62
ATOM     62  C   UNL A   1      39.943  28.923  29.249  1.00  0.00     0.064 A 
ATOM     63  C   UNL A   1      38.948  29.332  28.349  1.00  0.00     0.173 A 
ATOM     64  C   UNL A   1      39.573  28.707  30.585  1.00  0.00     0.173 A 
ATOM     65  F   UNL A   1      39.254  29.563  27.063  1.00  0.00    -0.203 F 
ATOM     66  C   UNL A   1      37.637  29.532  28.774  1.00  0.00     0.198 A 
ATOM     67  C   UNL A   1      38.256  28.884  31.000  1.00  0.00     0.198 A 
ATOM     68  F   UNL A   1      40.487  28.310  31.484  1.00  0.00    -0.203 F 
ATOM     69  F   UNL A   1      36.710  29.957  27.904  1.00  0.00    -0.200 F 
ATOM     70  C   UNL A   1      37.291  29.300  30.096  1.00  0.00     0.200 A 
ATOM     71  F   UNL A   1      37.920  28.648  32.277  1.00  0.00    -0.200 F 
ATOM     72  F   UNL A   1      36.026  29.483  30.501  1.00  0.00    -0.200 F 
ENDBRANCH  48  62
BRANCH  49  73
ATOM     73  C   UNL A   1      49.170  26.823  26.074  1.00  0.00     0.064 A 
ATOM     74  C   UNL A   1      49.502  27.019  24.726  1.00  0.00     0.173 A 
ATOM     75  C   UNL A   1      50.166  26.324  26.926  1.00  0.00     0.173 A 
ATOM     76  F   UNL A   1      48.575  27.472  23.868  1.00  0.00    -0.203 F 
ATOM     77  C   UNL A   1      50.770  26.702  24.243  1.00  0.00     0.198 A 
ATOM     78  C   UNL A   1      51.442  26.034  26.448  1.00  0.00     0.198 A 
ATOM     79  F   UNL A   1      49.901  26.123  28.225  1.00  0.00    -0.203 F 
ATOM     80  F   UNL A   1      51.044  26.850  22.940  1.00  0.00    -0.200 F 
ATOM     81  C   UNL A   1      51.740  26.214  25.105  1.00  0.00     0.200 A 
ATOM     82  F   UNL A   1      52.381  25.572  27.286  1.00  0.00    -0.200 F 
ATOM     83  F   UNL A   1      52.959  25.907  24.640  1.00  0.00    -0.200 F 
ENDBRANCH  49  73
BRANCH  61  84
ATOM     84  C   UNL A   1      46.120  32.560  28.562  1.00  0.00     0.064 A 
ATOM     85  C   UNL A   1      46.053  33.573  27.596  1.00  0.00     0.173 A 
ATOM     86  C   UNL A   1      46.652  32.881  29.820  1.00  0.00     0.173 A 
ATOM     87  F   UNL A   1      45.566  33.308  26.374  1.00  0.00    -0.203 F 
ATOM     88  C   UNL A   1      46.520  34.855  27.872  1.00  0.00     0.198 A 
ATOM     89  C   UNL A   1      47.095  34.171  30.100  1.00  0.00     0.198 A 
ATOM     90  F   UNL A   1      46.733  31.948  30.779  1.00  0.00    -0.203 F 
ATOM     91  F   UNL A   1      46.483  35.798  26.920  1.00  0.00    -0.200 F 
ATOM     92  C   UNL A   1      47.034  35.155  29.125  1.00  0.00     0.200 A 
ATOM     93  F   UNL A   1      47.582  34.462  31.314  1.00  0.00    -0.200 F 
ATOM     94  F   UNL A   1      47.478  36.391  29.390  1.00  0.00    -0.200 F 
ENDBRANCH  61  84
ENDBRANCH  35  36
ENDBRANCH  27  30
ENDBRANCH  25  26
ENDBRANCH  24  25
ENDBRANCH   1  24
TORSDOF 14
ENDMDL
MODEL 3
REMARK VINA RESULT:     -11.8      1.325      2.016
REMARK SMILES CN(CC(N)=O)S(=O)(=O)c1ccc(C(=O)NCCCNC(=O)c2ccc(-c3c4nc(c(-c5c(F)c(F)c(F)c(F)c5F)c5ccc([nH]5)c(-c5c(F)c(F)c(F)c(F)c5F)c5nc(c(-c6c(F)c(F)c(F)c(F)c6F)c6ccc3[nH]6)C=C5)C=C4)cc2)cc1Br
REMARK SMILES IDX 17 1 16 2 14 3 15 4 13 6 10 7 11 8 87 9 12 10 86 11 88 12
REMARK SMILES IDX 7 13 8 14 9 15 2 16 1 17 3 18 4 19 5 20 6 21 18 24 19 25
REMARK SMILES IDX 20 26 21 27 22 29 23 30 24 31 85 32 25 33 84 34 26 35 27 36
REMARK SMILES IDX 28 37 78 38 29 39 83 40 77 41 79 42 30 43 82 44 76 45 75 46
REMARK SMILES IDX 31 48 63 49 43 50 62 51 44 52 47 53 61 54 80 55 45 56 46 57
REMARK SMILES IDX 60 59 81 60 48 61 32 62 33 63 41 64 34 65 35 66 39 67 42 68
REMARK SMILES IDX 36 69 37 70 40 71 38 72 64 73 65 74 73 75 66 76 67 77 71 78
REMARK SMILES IDX 74 79 68 80 69 81 72 82 70 83 49 84 50 85 58 86 51 87 52 88
REMARK SMILES IDX 56 89 59 90 53 91 54 92 57 93 55 94
REMARK H PARENT 16 5 5 22 5 23 20 28 79 47 47 58
REMARK Flexibility Score: inf
ROOT
ATOM      1  C   UNL A   1      31.743  30.684  26.787  1.00  0.00     0.118 C 
ENDROOT
BRANCH   1   2
ATOM      2  N   UNL A   1      33.026  30.326  27.365  1.00  0.00    -0.352 N 
ATOM      3  C   UNL A   1      33.927  29.324  27.113  1.00  0.00     0.251 C 
ATOM      4  O   UNL A   1      34.983  29.352  27.747  1.00  0.00    -0.269 OA
ATOM      5  H   UNL A   1      33.308  30.930  28.090  1.00  0.00     0.163 HD
BRANCH   3   6
ATOM      6  C   UNL A   1      33.726  28.235  26.111  1.00  0.00     0.041 A 
ATOM      7  C   UNL A   1      33.330  26.043  24.365  1.00  0.00     0.096 A 
ATOM      8  C   UNL A   1      33.198  25.877  25.746  1.00  0.00     0.024 A 
ATOM      9  C   UNL A   1      33.581  27.319  23.852  1.00  0.00     0.038 A 
ATOM     10  C   UNL A   1      33.419  26.958  26.607  1.00  0.00     0.015 A 
ATOM     11  C   UNL A   1      33.756  28.405  24.726  1.00  0.00     0.031 A 
ATOM     12  Br  UNL A   1      33.650  27.741  21.998  1.00  0.00    -0.049 Br
BRANCH   7  13
ATOM     13  S   UNL A   1      33.152  24.663  23.263  1.00  0.00     0.244 S 
ATOM     14  O   UNL A   1      34.315  24.649  22.403  1.00  0.00    -0.207 OA
ATOM     15  O   UNL A   1      31.809  24.754  22.732  1.00  0.00    -0.207 OA
BRANCH  13  16
ATOM     16  N   UNL A   1      33.228  23.248  24.225  1.00  0.00    -0.192 NA
ATOM     17  C   UNL A   1      32.148  22.284  23.867  1.00  0.00     0.125 C 
BRANCH  16  18
ATOM     18  C   UNL A   1      34.546  22.559  24.332  1.00  0.00     0.201 C 
BRANCH  18  19
ATOM     19  C   UNL A   1      35.384  22.845  25.562  1.00  0.00     0.232 C 
ATOM     20  N   UNL A   1      35.420  21.851  26.499  1.00  0.00    -0.369 N 
ATOM     21  O   UNL A   1      36.021  23.883  25.718  1.00  0.00    -0.274 OA
ATOM     22  H   UNL A   1      34.904  21.025  26.360  1.00  0.00     0.159 HD
ATOM     23  H   UNL A   1      35.964  21.961  27.313  1.00  0.00     0.159 HD
ENDBRANCH  18  19
ENDBRANCH  16  18
ENDBRANCH  13  16
ENDBRANCH   7  13
ENDBRANCH   3   6
ENDBRANCH   1   2
BRANCH   1  24
ATOM     24  C   UNL A   1      31.505  32.194  26.831  1.00  0.00     0.042 C 
BRANCH  24  25
ATOM     25  C   UNL A   1      32.783  33.013  26.993  1.00  0.00     0.118 C 
BRANCH  25  26
ATOM     26  N   UNL A   1      32.529  34.299  27.626  1.00  0.00    -0.352 N 
ATOM     27  C   UNL A   1      33.037  34.835  28.782  1.00  0.00     0.251 C 
ATOM     28  H   UNL A   1      31.890  34.876  27.147  1.00  0.00     0.163 HD
ATOM     29  O   UNL A   1      32.524  35.850  29.248  1.00  0.00    -0.269 OA
BRANCH  27  30
ATOM     30  C   UNL A   1      34.186  34.215  29.479  1.00  0.00     0.039 A 
ATOM     31  C   UNL A   1      35.478  34.491  29.016  1.00  0.00     0.014 A 
ATOM     32  C   UNL A   1      34.005  33.310  30.529  1.00  0.00     0.014 A 
ATOM     33  C   UNL A   1      36.585  33.897  29.629  1.00  0.00     0.010 A 
ATOM     34  C   UNL A   1      35.113  32.763  31.178  1.00  0.00     0.010 A 
ATOM     35  C   UNL A   1      36.412  33.044  30.731  1.00  0.00    -0.014 A 
BRANCH  35  36
ATOM     36  C   UNL A   1      37.577  32.426  31.416  1.00  0.00     0.031 A 
ATOM     37  C   UNL A   1      38.308  31.281  30.772  1.00  0.00     0.074 A 
ATOM     38  C   UNL A   1      37.940  32.858  32.638  1.00  0.00     0.049 A 
ATOM     39  N   UNL A   1      39.278  30.542  31.252  1.00  0.00    -0.248 NA
ATOM     40  C   UNL A   1      37.881  30.901  29.417  1.00  0.00     0.031 C 
ATOM     41  C   UNL A   1      37.293  33.942  33.378  1.00  0.00     0.029 A 
ATOM     42  N   UNL A   1      38.934  32.426  33.482  1.00  0.00    -0.354 N 
ATOM     43  C   UNL A   1      39.563  29.605  30.267  1.00  0.00     0.074 A 
ATOM     44  C   UNL A   1      38.640  29.841  29.179  1.00  0.00     0.031 C 
ATOM     45  C   UNL A   1      37.912  34.097  34.560  1.00  0.00     0.029 A 
ATOM     46  C   UNL A   1      38.974  33.102  34.676  1.00  0.00     0.049 A 
ATOM     47  H   UNL A   1      39.558  31.700  33.251  1.00  0.00     0.167 HD
ATOM     48  C   UNL A   1      40.522  28.649  30.263  1.00  0.00     0.037 A 
ATOM     49  C   UNL A   1      39.771  32.931  35.748  1.00  0.00     0.037 A 
ATOM     50  C   UNL A   1      41.459  28.432  31.336  1.00  0.00     0.049 A 
ATOM     51  C   UNL A   1      40.825  31.858  35.717  1.00  0.00     0.074 A 
ATOM     52  C   UNL A   1      42.485  27.506  31.413  1.00  0.00     0.029 A 
ATOM     53  N   UNL A   1      41.488  29.160  32.514  1.00  0.00    -0.354 N 
ATOM     54  N   UNL A   1      41.107  31.001  34.765  1.00  0.00    -0.248 NA
ATOM     55  C   UNL A   1      41.677  31.731  36.909  1.00  0.00     0.031 C 
ATOM     56  C   UNL A   1      43.119  27.656  32.650  1.00  0.00     0.029 A 
ATOM     57  C   UNL A   1      42.512  28.700  33.328  1.00  0.00     0.049 A 
ATOM     58  H   UNL A   1      40.873  29.895  32.741  1.00  0.00     0.167 HD
ATOM     59  C   UNL A   1      42.184  30.258  35.229  1.00  0.00     0.074 A 
ATOM     60  C   UNL A   1      42.513  30.771  36.541  1.00  0.00     0.031 C 
ATOM     61  C   UNL A   1      42.838  29.238  34.622  1.00  0.00     0.037 A 
BRANCH  48  62
ATOM     62  C   UNL A   1      40.620  27.764  29.056  1.00  0.00     0.064 A 
ATOM     63  C   UNL A   1      39.797  26.637  28.910  1.00  0.00     0.173 A 
ATOM     64  C   UNL A   1      41.501  28.075  28.009  1.00  0.00     0.173 A 
ATOM     65  F   UNL A   1      38.946  26.291  29.888  1.00  0.00    -0.203 F 
ATOM     66  C   UNL A   1      39.866  25.844  27.768  1.00  0.00     0.198 A 
ATOM     67  C   UNL A   1      41.548  27.293  26.858  1.00  0.00     0.198 A 
ATOM     68  F   UNL A   1      42.305  29.145  28.098  1.00  0.00    -0.203 F 
ATOM     69  F   UNL A   1      39.095  24.751  27.665  1.00  0.00    -0.200 F 
ATOM     70  C   UNL A   1      40.735  26.177  26.740  1.00  0.00     0.200 A 
ATOM     71  F   UNL A   1      42.381  27.623  25.860  1.00  0.00    -0.200 F 
ATOM     72  F   UNL A   1      40.792  25.418  25.636  1.00  0.00    -0.200 F 
ENDBRANCH  48  62
BRANCH  49  73
ATOM     73  C   UNL A   1      39.616  33.802  36.941  1.00  0.00     0.064 A 
ATOM     74  C   UNL A   1      38.835  33.395  38.031  1.00  0.00     0.173 A 
ATOM     75  C   UNL A   1      40.224  35.064  37.007  1.00  0.00     0.173 A 
ATOM     76  F   UNL A   1      38.215  32.206  38.003  1.00  0.00    -0.203 F 
ATOM     77  C   UNL A   1      38.645  34.228  39.131  1.00  0.00     0.198 A 
ATOM     78  C   UNL A   1      40.056  35.885  38.120  1.00  0.00     0.198 A 
ATOM     79  F   UNL A   1      40.985  35.499  35.992  1.00  0.00    -0.203 F 
ATOM     80  F   UNL A   1      37.850  33.836  40.136  1.00  0.00    -0.200 F 
ATOM     81  C   UNL A   1      39.258  35.471  39.176  1.00  0.00     0.200 A 
ATOM     82  F   UNL A   1      40.658  37.082  38.165  1.00  0.00    -0.200 F 
ATOM     83  F   UNL A   1      39.073  36.274  40.233  1.00  0.00    -0.200 F 
ENDBRANCH  49  73
BRANCH  61  84
ATOM     84  C   UNL A   1      44.005  28.642  35.351  1.00  0.00     0.064 A 
ATOM     85  C   UNL A   1      43.837  27.611  36.286  1.00  0.00     0.173 A 
ATOM     86  C   UNL A   1      45.309  29.084  35.081  1.00  0.00     0.173 A 
ATOM     87  F   UNL A   1      42.608  27.166  36.587  1.00  0.00    -0.203 F 
ATOM     88  C   UNL A   1      44.933  27.057  36.942  1.00  0.00     0.198 A 
ATOM     89  C   UNL A   1      46.404  28.510  35.720  1.00  0.00     0.198 A 
ATOM     90  F   UNL A   1      45.520  30.064  34.191  1.00  0.00    -0.203 F 
ATOM     91  F   UNL A   1      44.748  26.100  37.861  1.00  0.00    -0.200 F 
ATOM     92  C   UNL A   1      46.215  27.502  36.654  1.00  0.00     0.200 A 
ATOM     93  F   UNL A   1      47.643  28.934  35.435  1.00  0.00    -0.200 F 
ATOM     94  F   UNL A   1      47.269  26.964  37.282  1.00  0.00    -0.200 F 
ENDBRANCH  61  84
ENDBRANCH  35  36
ENDBRANCH  27  30
ENDBRANCH  25  26
ENDBRANCH  24  25
ENDBRANCH   1  24
TORSDOF 14
ENDMDL
