MODEL 1
REMARK VINA RESULT:     -14.2      0.000      0.000
REMARK SMILES Cc1ccccc1CNC(=O)N1CCC(CC(=O)NCCCNC(=O)c2ccc(-c3c4nc(c(-c5c(F)c(F)c(F)c(F)c5F)c5ccc([nH]5)c(-c5c(F)c(F)c(F)c(F)c5F)c5nc(c(-c6c(F)c(F)c(F)c(F)c6F)c6ccc3[nH]6)C=C5)C=C4)cc2)CC1
REMARK SMILES IDX 20 1 19 2 17 3 18 4 16 6 15 7 9 8 10 9 11 11 12 12 13 13
REMARK SMILES IDX 90 14 14 15 89 16 8 17 7 18 1 19 2 20 3 21 4 22 6 23 5 24
REMARK SMILES IDX 21 25 22 26 23 27 24 28 25 30 26 31 27 32 88 33 28 34 87 35
REMARK SMILES IDX 29 36 30 37 31 38 81 39 32 40 86 41 80 42 82 43 33 44 85 45
REMARK SMILES IDX 79 46 78 47 34 49 66 50 46 51 65 52 47 53 50 54 64 55 83 56
REMARK SMILES IDX 48 57 49 58 63 60 84 61 51 62 35 63 36 64 44 65 37 66 38 67
REMARK SMILES IDX 42 68 45 69 39 70 40 71 43 72 41 73 67 74 68 75 76 76 69 77
REMARK SMILES IDX 70 78 74 79 77 80 71 81 72 82 75 83 73 84 52 85 53 86 61 87
REMARK SMILES IDX 54 88 55 89 59 90 62 91 56 92 57 93 60 94 58 95
REMARK H PARENT 19 5 9 10 23 29 82 48 50 59
REMARK Flexibility Score: inf
ROOT
ATOM      1  C   UNL A   1      32.035  29.627  26.393  1.00  0.00     0.117 C 
ENDROOT
BRANCH   1   2
ATOM      2  N   UNL A   1      32.223  29.740  24.953  1.00  0.00    -0.356 N 
ATOM      3  C   UNL A   1      32.983  28.984  24.101  1.00  0.00     0.220 C 
ATOM      4  O   UNL A   1      32.879  29.192  22.891  1.00  0.00    -0.275 OA
ATOM      5  H   UNL A   1      31.727  30.475  24.527  1.00  0.00     0.163 HD
BRANCH   3   6
ATOM      6  C   UNL A   1      33.983  27.966  24.630  1.00  0.00     0.103 C 
BRANCH   6   7
ATOM      7  C   UNL A   1      33.426  26.528  24.604  1.00  0.00     0.002 C 
ATOM      8  N   UNL A   1      35.261  21.792  24.377  1.00  0.00    -0.334 N 
ATOM      9  C   UNL A   1      35.018  22.968  23.749  1.00  0.00     0.317 C 
ATOM     10  H   UNL A   1      36.169  21.426  24.276  1.00  0.00     0.165 HD
ATOM     11  O   UNL A   1      35.715  23.288  22.787  1.00  0.00    -0.249 OA
ATOM     12  N   UNL A   1      33.931  23.696  24.160  1.00  0.00    -0.325 N 
ATOM     13  C   UNL A   1      33.197  24.449  23.168  1.00  0.00     0.121 C 
ATOM     14  C   UNL A   1      33.765  24.159  25.536  1.00  0.00     0.121 C 
ATOM     15  C   UNL A   1      33.609  25.903  23.219  1.00  0.00     0.026 C 
ATOM     16  C   UNL A   1      34.122  25.649  25.666  1.00  0.00     0.026 C 
BRANCH   8  17
ATOM     17  C   UNL A   1      34.342  21.011  25.180  1.00  0.00     0.153 C 
BRANCH  17  18
ATOM     18  C   UNL A   1      33.863  19.752  24.482  1.00  0.00    -0.026 A 
ATOM     19  C   UNL A   1      31.900  20.947  23.311  1.00  0.00     0.044 C 
ATOM     20  C   UNL A   1      32.763  19.747  23.599  1.00  0.00    -0.046 A 
ATOM     21  C   UNL A   1      32.424  18.555  22.927  1.00  0.00     0.004 A 
ATOM     22  C   UNL A   1      33.167  17.390  23.100  1.00  0.00     0.000 A 
ATOM     23  C   UNL A   1      34.609  18.561  24.629  1.00  0.00     0.006 A 
ATOM     24  C   UNL A   1      34.262  17.393  23.951  1.00  0.00     0.000 A 
ENDBRANCH  17  18
ENDBRANCH   8  17
ENDBRANCH   6   7
ENDBRANCH   3   6
ENDBRANCH   1   2
BRANCH   1  25
ATOM     25  C   UNL A   1      32.780  30.667  27.235  1.00  0.00     0.042 C 
BRANCH  25  26
ATOM     26  C   UNL A   1      34.263  30.398  27.449  1.00  0.00     0.118 C 
BRANCH  26  27
ATOM     27  N   UNL A   1      34.758  31.172  28.597  1.00  0.00    -0.352 N 
ATOM     28  C   UNL A   1      35.877  30.994  29.385  1.00  0.00     0.251 C 
ATOM     29  H   UNL A   1      34.200  31.945  28.842  1.00  0.00     0.163 HD
ATOM     30  O   UNL A   1      36.231  31.826  30.199  1.00  0.00    -0.269 OA
BRANCH  28  31
ATOM     31  C   UNL A   1      36.695  29.802  29.125  1.00  0.00     0.039 A 
ATOM     32  C   UNL A   1      37.097  29.049  30.232  1.00  0.00     0.014 A 
ATOM     33  C   UNL A   1      37.289  29.655  27.874  1.00  0.00     0.014 A 
ATOM     34  C   UNL A   1      38.276  28.324  30.144  1.00  0.00     0.010 A 
ATOM     35  C   UNL A   1      38.488  28.973  27.804  1.00  0.00     0.010 A 
ATOM     36  C   UNL A   1      39.021  28.396  28.966  1.00  0.00    -0.014 A 
BRANCH  36  37
ATOM     37  C   UNL A   1      40.430  28.031  28.924  1.00  0.00     0.031 A 
ATOM     38  C   UNL A   1      40.839  26.682  28.495  1.00  0.00     0.074 A 
ATOM     39  C   UNL A   1      41.369  28.934  29.291  1.00  0.00     0.049 A 
ATOM     40  N   UNL A   1      41.990  26.169  28.774  1.00  0.00    -0.248 NA
ATOM     41  C   UNL A   1      39.951  25.758  27.797  1.00  0.00     0.031 C 
ATOM     42  C   UNL A   1      42.816  28.831  29.108  1.00  0.00     0.029 A 
ATOM     43  N   UNL A   1      41.208  30.040  30.146  1.00  0.00    -0.354 N 
ATOM     44  C   UNL A   1      42.109  25.007  28.059  1.00  0.00     0.074 A 
ATOM     45  C   UNL A   1      40.773  24.720  27.599  1.00  0.00     0.031 C 
ATOM     46  C   UNL A   1      43.422  29.575  30.045  1.00  0.00     0.029 A 
ATOM     47  C   UNL A   1      42.389  30.079  30.930  1.00  0.00     0.049 A 
ATOM     48  H   UNL A   1      40.440  30.656  30.190  1.00  0.00     0.167 HD
ATOM     49  C   UNL A   1      43.355  24.506  27.837  1.00  0.00     0.037 A 
ATOM     50  C   UNL A   1      42.353  29.912  32.283  1.00  0.00     0.037 A 
ATOM     51  C   UNL A   1      44.341  25.105  28.739  1.00  0.00     0.049 A 
ATOM     52  C   UNL A   1      43.158  28.739  32.805  1.00  0.00     0.074 A 
ATOM     53  C   UNL A   1      45.414  25.969  28.609  1.00  0.00     0.029 A 
ATOM     54  N   UNL A   1      44.135  24.961  30.102  1.00  0.00    -0.354 N 
ATOM     55  N   UNL A   1      43.806  27.897  32.051  1.00  0.00    -0.248 NA
ATOM     56  C   UNL A   1      43.193  28.359  34.220  1.00  0.00     0.031 C 
ATOM     57  C   UNL A   1      45.818  26.371  29.920  1.00  0.00     0.029 A 
ATOM     58  C   UNL A   1      45.008  25.730  30.840  1.00  0.00     0.049 A 
ATOM     59  H   UNL A   1      43.447  24.377  30.495  1.00  0.00     0.167 HD
ATOM     60  C   UNL A   1      44.251  26.854  32.819  1.00  0.00     0.074 A 
ATOM     61  C   UNL A   1      43.857  27.192  34.173  1.00  0.00     0.031 C 
ATOM     62  C   UNL A   1      44.858  25.756  32.285  1.00  0.00     0.037 A 
BRANCH  49  63
ATOM     63  C   UNL A   1      43.726  23.552  26.722  1.00  0.00     0.064 A 
ATOM     64  C   UNL A   1      43.303  22.206  26.772  1.00  0.00     0.173 A 
ATOM     65  C   UNL A   1      44.595  23.854  25.650  1.00  0.00     0.173 A 
ATOM     66  F   UNL A   1      42.485  21.770  27.742  1.00  0.00    -0.203 F 
ATOM     67  C   UNL A   1      43.725  21.250  25.842  1.00  0.00     0.198 A 
ATOM     68  C   UNL A   1      44.966  22.912  24.688  1.00  0.00     0.198 A 
ATOM     69  F   UNL A   1      45.181  25.047  25.515  1.00  0.00    -0.203 F 
ATOM     70  F   UNL A   1      43.343  19.973  25.980  1.00  0.00    -0.200 F 
ATOM     71  C   UNL A   1      44.546  21.607  24.791  1.00  0.00     0.200 A 
ATOM     72  F   UNL A   1      45.767  23.282  23.676  1.00  0.00    -0.200 F 
ATOM     73  F   UNL A   1      44.949  20.694  23.897  1.00  0.00    -0.200 F 
ENDBRANCH  49  63
BRANCH  50  74
ATOM     74  C   UNL A   1      41.100  30.424  32.896  1.00  0.00     0.064 A 
ATOM     75  C   UNL A   1      40.892  31.817  32.931  1.00  0.00     0.173 A 
ATOM     76  C   UNL A   1      39.992  29.597  33.105  1.00  0.00     0.173 A 
ATOM     77  F   UNL A   1      41.922  32.655  32.732  1.00  0.00    -0.203 F 
ATOM     78  C   UNL A   1      39.612  32.353  33.046  1.00  0.00     0.198 A 
ATOM     79  C   UNL A   1      38.715  30.138  33.241  1.00  0.00     0.198 A 
ATOM     80  F   UNL A   1      40.122  28.262  33.061  1.00  0.00    -0.203 F 
ATOM     81  F   UNL A   1      39.433  33.678  32.948  1.00  0.00    -0.200 F 
ATOM     82  C   UNL A   1      38.521  31.511  33.175  1.00  0.00     0.200 A 
ATOM     83  F   UNL A   1      37.656  29.323  33.343  1.00  0.00    -0.200 F 
ATOM     84  F   UNL A   1      37.282  32.019  33.193  1.00  0.00    -0.200 F 
ENDBRANCH  50  74
BRANCH  62  85
ATOM     85  C   UNL A   1      45.326  24.595  33.112  1.00  0.00     0.064 A 
ATOM     86  C   UNL A   1      44.499  23.498  33.398  1.00  0.00     0.173 A 
ATOM     87  C   UNL A   1      46.589  24.605  33.739  1.00  0.00     0.173 A 
ATOM     88  F   UNL A   1      43.266  23.417  32.875  1.00  0.00    -0.203 F 
ATOM     89  C   UNL A   1      44.918  22.465  34.240  1.00  0.00     0.198 A 
ATOM     90  C   UNL A   1      46.986  23.599  34.618  1.00  0.00     0.198 A 
ATOM     91  F   UNL A   1      47.482  25.576  33.491  1.00  0.00    -0.203 F 
ATOM     92  F   UNL A   1      44.116  21.413  34.452  1.00  0.00    -0.200 F 
ATOM     93  C   UNL A   1      46.154  22.524  34.862  1.00  0.00     0.200 A 
ATOM     94  F   UNL A   1      48.182  23.674  35.220  1.00  0.00    -0.200 F 
ATOM     95  F   UNL A   1      46.544  21.544  35.689  1.00  0.00    -0.200 F 
ENDBRANCH  62  85
ENDBRANCH  36  37
ENDBRANCH  28  31
ENDBRANCH  26  27
ENDBRANCH  25  26
ENDBRANCH   1  25
TORSDOF 13
ENDMDL
MODEL 2
REMARK VINA RESULT:     -14.2      1.446      1.929
REMARK SMILES Cc1ccccc1CNC(=O)N1CCC(CC(=O)NCCCNC(=O)c2ccc(-c3c4nc(c(-c5c(F)c(F)c(F)c(F)c5F)c5ccc([nH]5)c(-c5c(F)c(F)c(F)c(F)c5F)c5nc(c(-c6c(F)c(F)c(F)c(F)c6F)c6ccc3[nH]6)C=C5)C=C4)cc2)CC1
REMARK SMILES IDX 20 1 19 2 17 3 18 4 16 6 15 7 9 8 10 9 11 11 12 12 13 13
REMARK SMILES IDX 90 14 14 15 89 16 8 17 7 18 1 19 2 20 3 21 4 22 6 23 5 24
REMARK SMILES IDX 21 25 22 26 23 27 24 28 25 30 26 31 27 32 88 33 28 34 87 35
REMARK SMILES IDX 29 36 30 37 31 38 81 39 32 40 86 41 80 42 82 43 33 44 85 45
REMARK SMILES IDX 79 46 78 47 34 49 66 50 46 51 65 52 47 53 50 54 64 55 83 56
REMARK SMILES IDX 48 57 49 58 63 60 84 61 51 62 35 63 36 64 44 65 37 66 38 67
REMARK SMILES IDX 42 68 45 69 39 70 40 71 43 72 41 73 67 74 68 75 76 76 69 77
REMARK SMILES IDX 70 78 74 79 77 80 71 81 72 82 75 83 73 84 52 85 53 86 61 87
REMARK SMILES IDX 54 88 55 89 59 90 62 91 56 92 57 93 60 94 58 95
REMARK H PARENT 19 5 9 10 23 29 82 48 50 59
REMARK Flexibility Score: inf
ROOT
ATOM      1  C   UNL A   1      31.436  30.187  26.022  1.00  0.00     0.117 C 
ENDROOT
BRANCH   1   2
ATOM      2  N   UNL A   1      31.534  30.069  24.574  1.00  0.00    -0.356 N 
ATOM      3  C   UNL A   1      31.002  29.132  23.728  1.00  0.00     0.220 C 
ATOM      4  O   UNL A   1      31.112  29.317  22.514  1.00  0.00    -0.275 OA
ATOM      5  H   UNL A   1      32.065  30.771  24.135  1.00  0.00     0.163 HD
BRANCH   3   6
ATOM      6  C   UNL A   1      30.356  27.863  24.263  1.00  0.00     0.103 C 
BRANCH   6   7
ATOM      7  C   UNL A   1      31.397  26.817  24.712  1.00  0.00     0.002 C 
ATOM      8  N   UNL A   1      31.453  21.924  26.090  1.00  0.00    -0.334 N 
ATOM      9  C   UNL A   1      31.131  23.205  26.391  1.00  0.00     0.317 C 
ATOM     10  H   UNL A   1      30.745  21.254  26.226  1.00  0.00     0.165 HD
ATOM     11  O   UNL A   1      30.215  23.421  27.183  1.00  0.00    -0.249 OA
ATOM     12  N   UNL A   1      31.919  24.199  25.870  1.00  0.00    -0.325 N 
ATOM     13  C   UNL A   1      32.143  25.384  26.668  1.00  0.00     0.121 C 
ATOM     14  C   UNL A   1      32.127  24.371  24.434  1.00  0.00     0.121 C 
ATOM     15  C   UNL A   1      31.232  26.497  26.199  1.00  0.00     0.026 C 
ATOM     16  C   UNL A   1      31.266  25.520  23.884  1.00  0.00     0.026 C 
BRANCH   8  17
ATOM     17  C   UNL A   1      32.717  21.424  25.589  1.00  0.00     0.153 C 
BRANCH  17  18
ATOM     18  C   UNL A   1      32.587  20.104  24.853  1.00  0.00    -0.026 A 
ATOM     19  C   UNL A   1      32.143  21.227  22.574  1.00  0.00     0.044 C 
ATOM     20  C   UNL A   1      32.360  20.031  23.462  1.00  0.00    -0.046 A 
ATOM     21  C   UNL A   1      32.328  18.769  22.834  1.00  0.00     0.004 A 
ATOM     22  C   UNL A   1      32.538  17.596  23.555  1.00  0.00     0.000 A 
ATOM     23  C   UNL A   1      32.811  18.901  25.558  1.00  0.00     0.006 A 
ATOM     24  C   UNL A   1      32.782  17.661  24.918  1.00  0.00     0.000 A 
ENDBRANCH  17  18
ENDBRANCH   8  17
ENDBRANCH   6   7
ENDBRANCH   3   6
ENDBRANCH   1   2
BRANCH   1  25
ATOM     25  C   UNL A   1      32.473  31.104  26.677  1.00  0.00     0.042 C 
BRANCH  25  26
ATOM     26  C   UNL A   1      33.464  30.416  27.605  1.00  0.00     0.118 C 
BRANCH  26  27
ATOM     27  N   UNL A   1      34.117  31.407  28.474  1.00  0.00    -0.352 N 
ATOM     28  C   UNL A   1      35.374  31.413  29.042  1.00  0.00     0.251 C 
ATOM     29  H   UNL A   1      33.566  32.196  28.683  1.00  0.00     0.163 HD
ATOM     30  O   UNL A   1      35.821  32.393  29.608  1.00  0.00    -0.269 OA
BRANCH  28  31
ATOM     31  C   UNL A   1      36.204  30.218  28.843  1.00  0.00     0.039 A 
ATOM     32  C   UNL A   1      36.599  29.516  29.986  1.00  0.00     0.014 A 
ATOM     33  C   UNL A   1      36.814  30.022  27.606  1.00  0.00     0.014 A 
ATOM     34  C   UNL A   1      37.785  28.797  29.942  1.00  0.00     0.010 A 
ATOM     35  C   UNL A   1      38.018  29.347  27.579  1.00  0.00     0.010 A 
ATOM     36  C   UNL A   1      38.542  28.825  28.770  1.00  0.00    -0.014 A 
BRANCH  36  37
ATOM     37  C   UNL A   1      39.954  28.470  28.760  1.00  0.00     0.031 A 
ATOM     38  C   UNL A   1      40.375  27.090  28.458  1.00  0.00     0.074 A 
ATOM     39  C   UNL A   1      40.886  29.411  29.039  1.00  0.00     0.049 A 
ATOM     40  N   UNL A   1      41.531  26.615  28.781  1.00  0.00    -0.248 NA
ATOM     41  C   UNL A   1      39.494  26.097  27.850  1.00  0.00     0.031 C 
ATOM     42  C   UNL A   1      42.333  29.304  28.863  1.00  0.00     0.029 A 
ATOM     43  N   UNL A   1      40.716  30.591  29.788  1.00  0.00    -0.354 N 
ATOM     44  C   UNL A   1      41.659  25.393  28.177  1.00  0.00     0.074 A 
ATOM     45  C   UNL A   1      40.325  25.053  27.749  1.00  0.00     0.031 C 
ATOM     46  C   UNL A   1      42.934  30.138  29.726  1.00  0.00     0.029 A 
ATOM     47  C   UNL A   1      41.898  30.712  30.563  1.00  0.00     0.049 A 
ATOM     48  H   UNL A   1      39.943  31.201  29.776  1.00  0.00     0.167 HD
ATOM     49  C   UNL A   1      42.909  24.884  28.000  1.00  0.00     0.037 A 
ATOM     50  C   UNL A   1      41.865  30.672  31.925  1.00  0.00     0.037 A 
ATOM     51  C   UNL A   1      43.891  25.574  28.841  1.00  0.00     0.049 A 
ATOM     52  C   UNL A   1      42.680  29.560  32.553  1.00  0.00     0.074 A 
ATOM     53  C   UNL A   1      44.956  26.431  28.628  1.00  0.00     0.029 A 
ATOM     54  N   UNL A   1      43.688  25.555  30.211  1.00  0.00    -0.354 N 
ATOM     55  N   UNL A   1      43.335  28.657  31.879  1.00  0.00    -0.248 NA
ATOM     56  C   UNL A   1      42.721  29.314  33.997  1.00  0.00     0.031 C 
ATOM     57  C   UNL A   1      45.358  26.957  29.896  1.00  0.00     0.029 A 
ATOM     58  C   UNL A   1      44.555  26.397  30.873  1.00  0.00     0.049 A 
ATOM     59  H   UNL A   1      43.005  25.005  30.659  1.00  0.00     0.167 HD
ATOM     60  C   UNL A   1      43.790  27.694  32.740  1.00  0.00     0.074 A 
ATOM     61  C   UNL A   1      43.394  28.153  34.057  1.00  0.00     0.031 C 
ATOM     62  C   UNL A   1      44.406  26.557  32.310  1.00  0.00     0.037 A 
BRANCH  49  63
ATOM     63  C   UNL A   1      43.287  23.834  26.978  1.00  0.00     0.064 A 
ATOM     64  C   UNL A   1      42.882  22.494  27.158  1.00  0.00     0.173 A 
ATOM     65  C   UNL A   1      44.147  24.044  25.878  1.00  0.00     0.173 A 
ATOM     66  F   UNL A   1      42.074  22.141  28.169  1.00  0.00    -0.203 F 
ATOM     67  C   UNL A   1      43.311  21.459  26.319  1.00  0.00     0.198 A 
ATOM     68  C   UNL A   1      44.526  23.020  25.007  1.00  0.00     0.198 A 
ATOM     69  F   UNL A   1      44.718  25.226  25.628  1.00  0.00    -0.203 F 
ATOM     70  F   UNL A   1      42.946  20.196  26.580  1.00  0.00    -0.200 F 
ATOM     71  C   UNL A   1      44.123  21.724  25.236  1.00  0.00     0.200 A 
ATOM     72  F   UNL A   1      45.318  23.302  23.961  1.00  0.00    -0.200 F 
ATOM     73  F   UNL A   1      44.534  20.736  24.429  1.00  0.00    -0.200 F 
ENDBRANCH  49  63
BRANCH  50  74
ATOM     74  C   UNL A   1      40.608  31.228  32.490  1.00  0.00     0.064 A 
ATOM     75  C   UNL A   1      40.400  32.620  32.419  1.00  0.00     0.173 A 
ATOM     76  C   UNL A   1      39.499  30.419  32.754  1.00  0.00     0.173 A 
ATOM     77  F   UNL A   1      41.431  33.441  32.164  1.00  0.00    -0.203 F 
ATOM     78  C   UNL A   1      39.119  33.162  32.485  1.00  0.00     0.198 A 
ATOM     79  C   UNL A   1      38.221  30.968  32.841  1.00  0.00     0.198 A 
ATOM     80  F   UNL A   1      39.629  29.085  32.811  1.00  0.00    -0.203 F 
ATOM     81  F   UNL A   1      38.940  34.476  32.286  1.00  0.00    -0.200 F 
ATOM     82  C   UNL A   1      38.027  32.332  32.671  1.00  0.00     0.200 A 
ATOM     83  F   UNL A   1      37.161  30.163  32.998  1.00  0.00    -0.200 F 
ATOM     84  F   UNL A   1      36.788  32.839  32.643  1.00  0.00    -0.200 F 
ENDBRANCH  50  74
BRANCH  62  85
ATOM     85  C   UNL A   1      44.885  25.482  33.241  1.00  0.00     0.064 A 
ATOM     86  C   UNL A   1      46.240  25.133  33.349  1.00  0.00     0.173 A 
ATOM     87  C   UNL A   1      43.976  24.689  33.973  1.00  0.00     0.173 A 
ATOM     88  F   UNL A   1      47.176  25.808  32.664  1.00  0.00    -0.203 F 
ATOM     89  C   UNL A   1      46.661  24.073  34.155  1.00  0.00     0.198 A 
ATOM     90  C   UNL A   1      44.393  23.601  34.736  1.00  0.00     0.198 A 
ATOM     91  F   UNL A   1      42.664  24.969  33.988  1.00  0.00    -0.203 F 
ATOM     92  F   UNL A   1      47.968  23.801  34.266  1.00  0.00    -0.200 F 
ATOM     93  C   UNL A   1      45.737  23.298  34.835  1.00  0.00     0.200 A 
ATOM     94  F   UNL A   1      43.486  22.853  35.382  1.00  0.00    -0.200 F 
ATOM     95  F   UNL A   1      46.141  22.266  35.588  1.00  0.00    -0.200 F 
ENDBRANCH  62  85
ENDBRANCH  36  37
ENDBRANCH  28  31
ENDBRANCH  26  27
ENDBRANCH  25  26
ENDBRANCH   1  25
TORSDOF 13
ENDMDL
MODEL 3
REMARK VINA RESULT:     -14.1      3.599     10.103
REMARK SMILES Cc1ccccc1CNC(=O)N1CCC(CC(=O)NCCCNC(=O)c2ccc(-c3c4nc(c(-c5c(F)c(F)c(F)c(F)c5F)c5ccc([nH]5)c(-c5c(F)c(F)c(F)c(F)c5F)c5nc(c(-c6c(F)c(F)c(F)c(F)c6F)c6ccc3[nH]6)C=C5)C=C4)cc2)CC1
REMARK SMILES IDX 20 1 19 2 17 3 18 4 16 6 15 7 9 8 10 9 11 11 12 12 13 13
REMARK SMILES IDX 90 14 14 15 89 16 8 17 7 18 1 19 2 20 3 21 4 22 6 23 5 24
REMARK SMILES IDX 21 25 22 26 23 27 24 28 25 30 26 31 27 32 88 33 28 34 87 35
REMARK SMILES IDX 29 36 30 37 31 38 81 39 32 40 86 41 80 42 82 43 33 44 85 45
REMARK SMILES IDX 79 46 78 47 34 49 66 50 46 51 65 52 47 53 50 54 64 55 83 56
REMARK SMILES IDX 48 57 49 58 63 60 84 61 51 62 35 63 36 64 44 65 37 66 38 67
REMARK SMILES IDX 42 68 45 69 39 70 40 71 43 72 41 73 67 74 68 75 76 76 69 77
REMARK SMILES IDX 70 78 74 79 77 80 71 81 72 82 75 83 73 84 52 85 53 86 61 87
REMARK SMILES IDX 54 88 55 89 59 90 62 91 56 92 57 93 60 94 58 95
REMARK H PARENT 19 5 9 10 23 29 82 48 50 59
REMARK Flexibility Score: inf
ROOT
ATOM      1  C   UNL A   1      36.540  21.038  24.673  1.00  0.00     0.117 C 
ENDROOT
BRANCH   1   2
ATOM      2  N   UNL A   1      35.421  20.658  25.523  1.00  0.00    -0.356 N 
ATOM      3  C   UNL A   1      34.073  20.720  25.287  1.00  0.00     0.220 C 
ATOM      4  O   UNL A   1      33.315  20.212  26.115  1.00  0.00    -0.275 OA
ATOM      5  H   UNL A   1      35.672  20.302  26.405  1.00  0.00     0.163 HD
BRANCH   3   6
ATOM      6  C   UNL A   1      33.518  21.454  24.075  1.00  0.00     0.103 C 
BRANCH   6   7
ATOM      7  C   UNL A   1      33.528  22.986  24.261  1.00  0.00     0.002 C 
ATOM      8  N   UNL A   1      31.818  27.081  21.780  1.00  0.00    -0.334 N 
ATOM      9  C   UNL A   1      32.707  26.061  21.851  1.00  0.00     0.317 C 
ATOM     10  H   UNL A   1      31.366  27.204  20.915  1.00  0.00     0.165 HD
ATOM     11  O   UNL A   1      33.223  25.644  20.814  1.00  0.00    -0.249 OA
ATOM     12  N   UNL A   1      33.064  25.612  23.096  1.00  0.00    -0.325 N 
ATOM     13  C   UNL A   1      34.421  25.156  23.296  1.00  0.00     0.121 C 
ATOM     14  C   UNL A   1      32.092  25.105  24.062  1.00  0.00     0.121 C 
ATOM     15  C   UNL A   1      34.466  23.645  23.247  1.00  0.00     0.026 C 
ATOM     16  C   UNL A   1      32.106  23.568  24.107  1.00  0.00     0.026 C 
BRANCH   8  17
ATOM     17  C   UNL A   1      31.453  28.011  22.830  1.00  0.00     0.153 C 
BRANCH  17  18
ATOM     18  C   UNL A   1      30.080  28.623  22.633  1.00  0.00    -0.026 A 
ATOM     19  C   UNL A   1      28.866  26.713  23.870  1.00  0.00     0.044 C 
ATOM     20  C   UNL A   1      28.906  28.034  23.149  1.00  0.00    -0.046 A 
ATOM     21  C   UNL A   1      27.674  28.702  22.993  1.00  0.00     0.004 A 
ATOM     22  C   UNL A   1      27.596  29.940  22.361  1.00  0.00     0.000 A 
ATOM     23  C   UNL A   1      29.976  29.887  22.009  1.00  0.00     0.006 A 
ATOM     24  C   UNL A   1      28.749  30.535  21.870  1.00  0.00     0.000 A 
ENDBRANCH  17  18
ENDBRANCH   8  17
ENDBRANCH   6   7
ENDBRANCH   3   6
ENDBRANCH   1   2
BRANCH   1  25
ATOM     25  C   UNL A   1      37.897  21.130  25.377  1.00  0.00     0.042 C 
BRANCH  25  26
ATOM     26  C   UNL A   1      38.379  22.539  25.691  1.00  0.00     0.118 C 
BRANCH  26  27
ATOM     27  N   UNL A   1      39.824  22.533  25.960  1.00  0.00    -0.352 N 
ATOM     28  C   UNL A   1      40.638  23.495  26.523  1.00  0.00     0.251 C 
ATOM     29  H   UNL A   1      40.287  21.705  25.696  1.00  0.00     0.163 HD
ATOM     30  O   UNL A   1      41.794  23.266  26.825  1.00  0.00    -0.269 OA
BRANCH  28  31
ATOM     31  C   UNL A   1      40.019  24.787  26.848  1.00  0.00     0.039 A 
ATOM     32  C   UNL A   1      40.569  25.926  26.253  1.00  0.00     0.014 A 
ATOM     33  C   UNL A   1      39.158  24.863  27.940  1.00  0.00     0.014 A 
ATOM     34  C   UNL A   1      40.455  27.138  26.920  1.00  0.00     0.010 A 
ATOM     35  C   UNL A   1      39.088  26.059  28.626  1.00  0.00     0.010 A 
ATOM     36  C   UNL A   1      39.819  27.162  28.162  1.00  0.00    -0.014 A 
BRANCH  36  37
ATOM     37  C   UNL A   1      40.015  28.256  29.103  1.00  0.00     0.031 A 
ATOM     38  C   UNL A   1      39.112  29.422  29.090  1.00  0.00     0.074 A 
ATOM     39  C   UNL A   1      41.036  28.207  29.989  1.00  0.00     0.049 A 
ATOM     40  N   UNL A   1      39.421  30.562  29.611  1.00  0.00    -0.248 NA
ATOM     41  C   UNL A   1      37.824  29.432  28.405  1.00  0.00     0.031 C 
ATOM     42  C   UNL A   1      41.257  29.084  31.137  1.00  0.00     0.029 A 
ATOM     43  N   UNL A   1      42.238  27.483  29.873  1.00  0.00    -0.354 N 
ATOM     44  C   UNL A   1      38.294  31.339  29.602  1.00  0.00     0.074 A 
ATOM     45  C   UNL A   1      37.386  30.659  28.711  1.00  0.00     0.031 C 
ATOM     46  C   UNL A   1      42.569  29.109  31.413  1.00  0.00     0.029 A 
ATOM     47  C   UNL A   1      43.243  28.348  30.379  1.00  0.00     0.049 A 
ATOM     48  H   UNL A   1      42.356  26.572  29.517  1.00  0.00     0.167 HD
ATOM     49  C   UNL A   1      38.226  32.395  30.457  1.00  0.00     0.037 A 
ATOM     50  C   UNL A   1      44.255  28.805  29.588  1.00  0.00     0.037 A 
ATOM     51  C   UNL A   1      39.549  32.745  30.981  1.00  0.00     0.049 A 
ATOM     52  C   UNL A   1      44.333  30.312  29.456  1.00  0.00     0.074 A 
ATOM     53  C   UNL A   1      40.184  32.675  32.208  1.00  0.00     0.029 A 
ATOM     54  N   UNL A   1      40.530  33.088  30.066  1.00  0.00    -0.354 N 
ATOM     55  N   UNL A   1      43.487  31.144  29.996  1.00  0.00    -0.248 NA
ATOM     56  C   UNL A   1      45.312  30.991  28.602  1.00  0.00     0.031 C 
ATOM     57  C   UNL A   1      41.573  32.941  32.001  1.00  0.00     0.029 A 
ATOM     58  C   UNL A   1      41.771  33.199  30.656  1.00  0.00     0.049 A 
ATOM     59  H   UNL A   1      40.362  33.236  29.107  1.00  0.00     0.167 HD
ATOM     60  C   UNL A   1      43.727  32.404  29.518  1.00  0.00     0.074 A 
ATOM     61  C   UNL A   1      44.886  32.264  28.659  1.00  0.00     0.031 C 
ATOM     62  C   UNL A   1      42.921  33.465  29.809  1.00  0.00     0.037 A 
BRANCH  49  63
ATOM     63  C   UNL A   1      36.948  33.056  30.928  1.00  0.00     0.064 A 
ATOM     64  C   UNL A   1      36.490  32.851  32.247  1.00  0.00     0.173 A 
ATOM     65  C   UNL A   1      36.063  33.790  30.107  1.00  0.00     0.173 A 
ATOM     66  F   UNL A   1      37.219  32.161  33.137  1.00  0.00    -0.203 F 
ATOM     67  C   UNL A   1      35.253  33.327  32.696  1.00  0.00     0.198 A 
ATOM     68  C   UNL A   1      34.856  34.315  30.575  1.00  0.00     0.198 A 
ATOM     69  F   UNL A   1      36.283  33.978  28.803  1.00  0.00    -0.203 F 
ATOM     70  F   UNL A   1      34.843  33.043  33.941  1.00  0.00    -0.200 F 
ATOM     71  C   UNL A   1      34.442  34.070  31.864  1.00  0.00     0.200 A 
ATOM     72  F   UNL A   1      34.083  35.033  29.746  1.00  0.00    -0.200 F 
ATOM     73  F   UNL A   1      33.258  34.529  32.292  1.00  0.00    -0.200 F 
ENDBRANCH  49  63
BRANCH  50  74
ATOM     74  C   UNL A   1      44.646  27.837  28.531  1.00  0.00     0.064 A 
ATOM     75  C   UNL A   1      45.340  26.672  28.912  1.00  0.00     0.173 A 
ATOM     76  C   UNL A   1      44.055  27.855  27.263  1.00  0.00     0.173 A 
ATOM     77  F   UNL A   1      45.921  26.602  30.120  1.00  0.00    -0.203 F 
ATOM     78  C   UNL A   1      45.336  25.534  28.110  1.00  0.00     0.198 A 
ATOM     79  C   UNL A   1      44.073  26.721  26.453  1.00  0.00     0.198 A 
ATOM     80  F   UNL A   1      43.361  28.927  26.852  1.00  0.00    -0.203 F 
ATOM     81  F   UNL A   1      45.897  24.401  28.556  1.00  0.00    -0.200 F 
ATOM     82  C   UNL A   1      44.681  25.552  26.891  1.00  0.00     0.200 A 
ATOM     83  F   UNL A   1      43.418  26.730  25.284  1.00  0.00    -0.200 F 
ATOM     84  F   UNL A   1      44.596  24.433  26.159  1.00  0.00    -0.200 F 
ENDBRANCH  50  74
BRANCH  62  85
ATOM     85  C   UNL A   1      43.157  34.845  29.270  1.00  0.00     0.064 A 
ATOM     86  C   UNL A   1      43.476  35.930  30.102  1.00  0.00     0.173 A 
ATOM     87  C   UNL A   1      42.956  35.142  27.906  1.00  0.00     0.173 A 
ATOM     88  F   UNL A   1      43.652  35.752  31.420  1.00  0.00    -0.203 F 
ATOM     89  C   UNL A   1      43.607  37.225  29.596  1.00  0.00     0.198 A 
ATOM     90  C   UNL A   1      43.039  36.442  27.413  1.00  0.00     0.198 A 
ATOM     91  F   UNL A   1      42.704  34.173  27.013  1.00  0.00    -0.203 F 
ATOM     92  F   UNL A   1      43.957  38.226  30.416  1.00  0.00    -0.200 F 
ATOM     93  C   UNL A   1      43.373  37.484  28.257  1.00  0.00     0.200 A 
ATOM     94  F   UNL A   1      42.800  36.679  26.115  1.00  0.00    -0.200 F 
ATOM     95  F   UNL A   1      43.475  38.731  27.778  1.00  0.00    -0.200 F 
ENDBRANCH  62  85
ENDBRANCH  36  37
ENDBRANCH  28  31
ENDBRANCH  26  27
ENDBRANCH  25  26
ENDBRANCH   1  25
TORSDOF 13
ENDMDL
