MODEL 1
REMARK VINA RESULT:     -13.1      0.000      0.000
REMARK SMILES C/C(=N/[NH+]=C1\NC(=O)[C@H](CC(=O)NCCCNC(=O)c2ccc(-c3c4nc(c(-c5c(F)c(F)c(F)c(F)c5F)c5ccc([nH]5)c(-c5c(F)c(F)c(F)c(F)c5F)c5nc(c(-c6c(F)c(F)c(F)c(F)c6F)c6ccc3[nH]6)C=C5)C=C4)cc2)S1)c1ccc(OC(C)C)cc1
REMARK SMILES IDX 11 1 12 2 13 3 10 5 9 6 4 7 5 8 6 10 83 11 7 12 8 14 3 15
REMARK SMILES IDX 1 16 2 17 84 18 85 19 93 20 86 21 92 22 87 23 88 24 89 25
REMARK SMILES IDX 90 26 91 27 14 28 15 29 16 30 17 31 18 32 19 34 20 35 21 36
REMARK SMILES IDX 82 37 22 38 81 39 23 40 24 41 25 42 75 43 26 44 80 45 74 46
REMARK SMILES IDX 76 47 27 48 79 49 73 50 72 51 28 53 60 54 40 55 59 56 41 57
REMARK SMILES IDX 44 58 58 59 77 60 42 61 43 62 57 64 78 65 45 66 29 67 30 68
REMARK SMILES IDX 38 69 31 70 32 71 36 72 39 73 33 74 34 75 37 76 35 77 61 78
REMARK SMILES IDX 62 79 70 80 63 81 64 82 68 83 71 84 65 85 66 86 69 87 67 88
REMARK SMILES IDX 46 89 47 90 55 91 48 92 49 93 53 94 56 95 50 96 51 97 54 98
REMARK SMILES IDX 52 99
REMARK H PARENT 13 4 4 9 6 13 17 33 76 52 44 63
REMARK Flexibility Score: inf
ROOT
ATOM      1  C   UNL A   1      30.710  29.217  24.406  1.00  0.00     0.221 C 
ATOM      2  O   UNL A   1      30.025  29.119  23.388  1.00  0.00    -0.275 OA
ATOM      3  N   UNL A   1      31.027  30.456  24.872  1.00  0.00    -0.356 N 
ATOM      4  H   UNL A   1      30.737  31.209  24.309  1.00  0.00     0.163 HD
ENDROOT
BRANCH   1   5
ATOM      5  C   UNL A   1      31.200  27.995  25.143  1.00  0.00     0.127 C 
BRANCH   5   6
ATOM      6  C   UNL A   1      30.875  26.702  24.401  1.00  0.00     0.183 C 
ATOM      7  N   UNL A   1      33.331  24.095  25.712  1.00  0.00    -0.142 N 
ATOM      8  C   UNL A   1      32.546  24.849  25.025  1.00  0.00     0.337 C 
ATOM      9  H   UNL A   1      33.052  23.724  26.580  1.00  0.00     0.343 HD
ATOM     10  N   UNL A   1      32.805  25.406  23.825  1.00  0.00    -0.202 N 
ATOM     11  S   UNL A   1      30.978  25.326  25.611  1.00  0.00    -0.020 SA
ATOM     12  C   UNL A   1      31.898  26.308  23.344  1.00  0.00     0.322 C 
ATOM     13  H   UNL A   1      33.616  25.173  23.316  1.00  0.00     0.316 HD
ATOM     14  O   UNL A   1      31.943  26.763  22.212  1.00  0.00    -0.246 OA
BRANCH   7  15
ATOM     15  N   UNL A   1      34.593  23.822  25.180  1.00  0.00    -0.090 NA
ATOM     16  C   UNL A   1      36.042  22.483  23.807  1.00  0.00     0.071 C 
ATOM     17  C   UNL A   1      34.756  22.669  24.586  1.00  0.00     0.088 C 
BRANCH  17  18
ATOM     18  C   UNL A   1      33.839  21.486  24.671  1.00  0.00    -0.000 A 
ATOM     19  C   UNL A   1      33.911  20.583  25.728  1.00  0.00     0.014 A 
ATOM     20  C   UNL A   1      33.007  21.187  23.582  1.00  0.00     0.014 A 
ATOM     21  C   UNL A   1      33.283  19.339  25.624  1.00  0.00     0.047 A 
ATOM     22  C   UNL A   1      32.347  19.949  23.502  1.00  0.00     0.047 A 
ATOM     23  C   UNL A   1      32.529  18.995  24.498  1.00  0.00     0.119 A 
BRANCH  23  24
ATOM     24  O   UNL A   1      32.132  17.695  24.488  1.00  0.00    -0.491 OA
BRANCH  24  25
ATOM     25  C   UNL A   1      32.948  16.573  24.141  1.00  0.00     0.167 C 
ATOM     26  C   UNL A   1      34.063  16.886  23.156  1.00  0.00     0.052 C 
ATOM     27  C   UNL A   1      33.413  15.742  25.329  1.00  0.00     0.052 C 
ENDBRANCH  24  25
ENDBRANCH  23  24
ENDBRANCH  17  18
ENDBRANCH   7  15
ENDBRANCH   5   6
ENDBRANCH   1   5
BRANCH   3  28
ATOM     28  C   UNL A   1      31.733  30.817  26.085  1.00  0.00     0.117 C 
BRANCH  28  29
ATOM     29  C   UNL A   1      31.456  32.227  26.569  1.00  0.00     0.042 C 
BRANCH  29  30
ATOM     30  C   UNL A   1      32.624  32.839  27.323  1.00  0.00     0.118 C 
BRANCH  30  31
ATOM     31  N   UNL A   1      32.421  34.251  27.628  1.00  0.00    -0.352 N 
ATOM     32  C   UNL A   1      32.988  35.044  28.596  1.00  0.00     0.251 C 
ATOM     33  H   UNL A   1      31.773  34.710  27.047  1.00  0.00     0.163 HD
ATOM     34  O   UNL A   1      32.520  36.155  28.825  1.00  0.00    -0.269 OA
BRANCH  32  35
ATOM     35  C   UNL A   1      34.139  34.547  29.382  1.00  0.00     0.039 A 
ATOM     36  C   UNL A   1      33.914  33.927  30.614  1.00  0.00     0.014 A 
ATOM     37  C   UNL A   1      35.441  34.678  28.898  1.00  0.00     0.014 A 
ATOM     38  C   UNL A   1      34.985  33.359  31.307  1.00  0.00     0.010 A 
ATOM     39  C   UNL A   1      36.482  34.001  29.519  1.00  0.00     0.010 A 
ATOM     40  C   UNL A   1      36.270  33.344  30.738  1.00  0.00    -0.014 A 
BRANCH  40  41
ATOM     41  C   UNL A   1      37.413  32.670  31.404  1.00  0.00     0.031 A 
ATOM     42  C   UNL A   1      38.104  31.519  30.722  1.00  0.00     0.074 A 
ATOM     43  C   UNL A   1      37.780  33.044  32.646  1.00  0.00     0.049 A 
ATOM     44  N   UNL A   1      39.054  30.738  31.172  1.00  0.00    -0.248 NA
ATOM     45  C   UNL A   1      37.646  31.177  29.364  1.00  0.00     0.031 C 
ATOM     46  C   UNL A   1      37.151  34.106  33.434  1.00  0.00     0.029 A 
ATOM     47  N   UNL A   1      38.767  32.563  33.472  1.00  0.00    -0.354 N 
ATOM     48  C   UNL A   1      39.292  29.814  30.162  1.00  0.00     0.074 A 
ATOM     49  C   UNL A   1      38.343  30.081  29.106  1.00  0.00     0.031 C 
ATOM     50  C   UNL A   1      37.784  34.216  34.614  1.00  0.00     0.029 A 
ATOM     51  C   UNL A   1      38.830  33.203  34.687  1.00  0.00     0.049 A 
ATOM     52  H   UNL A   1      39.371  31.829  33.218  1.00  0.00     0.167 HD
ATOM     53  C   UNL A   1      40.242  28.851  30.104  1.00  0.00     0.037 A 
ATOM     54  C   UNL A   1      39.636  32.985  35.745  1.00  0.00     0.037 A 
ATOM     55  C   UNL A   1      41.202  28.606  31.145  1.00  0.00     0.049 A 
ATOM     56  C   UNL A   1      40.671  31.894  35.658  1.00  0.00     0.074 A 
ATOM     57  C   UNL A   1      42.233  27.683  31.168  1.00  0.00     0.029 A 
ATOM     58  N   UNL A   1      41.251  29.292  32.350  1.00  0.00    -0.354 N 
ATOM     59  N   UNL A   1      40.930  31.074  34.669  1.00  0.00    -0.248 NA
ATOM     60  C   UNL A   1      41.532  31.704  36.833  1.00  0.00     0.031 C 
ATOM     61  C   UNL A   1      42.876  27.778  32.405  1.00  0.00     0.029 A 
ATOM     62  C   UNL A   1      42.285  28.801  33.129  1.00  0.00     0.049 A 
ATOM     63  H   UNL A   1      40.640  30.019  32.612  1.00  0.00     0.167 HD
ATOM     64  C   UNL A   1      42.004  30.299  35.087  1.00  0.00     0.074 A 
ATOM     65  C   UNL A   1      42.361  30.761  36.411  1.00  0.00     0.031 C 
ATOM     66  C   UNL A   1      42.637  29.292  34.437  1.00  0.00     0.037 A 
BRANCH  53  67
ATOM     67  C   UNL A   1      40.307  28.005  28.865  1.00  0.00     0.064 A 
ATOM     68  C   UNL A   1      41.071  28.392  27.753  1.00  0.00     0.173 A 
ATOM     69  C   UNL A   1      39.649  26.767  28.810  1.00  0.00     0.173 A 
ATOM     70  F   UNL A   1      41.708  29.573  27.750  1.00  0.00    -0.203 F 
ATOM     71  C   UNL A   1      41.158  27.581  26.625  1.00  0.00     0.198 A 
ATOM     72  C   UNL A   1      39.765  25.943  27.692  1.00  0.00     0.198 A 
ATOM     73  F   UNL A   1      38.908  26.346  29.845  1.00  0.00    -0.203 F 
ATOM     74  F   UNL A   1      41.859  27.992  25.560  1.00  0.00    -0.200 F 
ATOM     75  C   UNL A   1      40.514  26.353  26.600  1.00  0.00     0.200 A 
ATOM     76  F   UNL A   1      39.155  24.751  27.675  1.00  0.00    -0.200 F 
ATOM     77  F   UNL A   1      40.613  25.566  25.520  1.00  0.00    -0.200 F 
ENDBRANCH  53  67
BRANCH  54  78
ATOM     78  C   UNL A   1      39.511  33.816  36.975  1.00  0.00     0.064 A 
ATOM     79  C   UNL A   1      38.677  33.421  38.031  1.00  0.00     0.173 A 
ATOM     80  C   UNL A   1      40.183  35.040  37.101  1.00  0.00     0.173 A 
ATOM     81  F   UNL A   1      37.998  32.267  37.953  1.00  0.00    -0.203 F 
ATOM     82  C   UNL A   1      38.488  34.237  39.145  1.00  0.00     0.198 A 
ATOM     83  C   UNL A   1      40.022  35.838  38.232  1.00  0.00     0.198 A 
ATOM     84  F   UNL A   1      41.001  35.463  36.125  1.00  0.00    -0.203 F 
ATOM     85  F   UNL A   1      37.631  33.866  40.105  1.00  0.00    -0.200 F 
ATOM     86  C   UNL A   1      39.164  35.444  39.246  1.00  0.00     0.200 A 
ATOM     87  F   UNL A   1      40.692  36.995  38.334  1.00  0.00    -0.200 F 
ATOM     88  F   UNL A   1      38.976  36.231  40.314  1.00  0.00    -0.200 F 
ENDBRANCH  54  78
BRANCH  66  89
ATOM     89  C   UNL A   1      43.814  28.659  35.124  1.00  0.00     0.064 A 
ATOM     90  C   UNL A   1      43.671  27.538  35.953  1.00  0.00     0.173 A 
ATOM     91  C   UNL A   1      45.108  29.161  34.912  1.00  0.00     0.173 A 
ATOM     92  F   UNL A   1      42.454  27.029  36.198  1.00  0.00    -0.203 F 
ATOM     93  C   UNL A   1      44.777  26.962  36.573  1.00  0.00     0.198 A 
ATOM     94  C   UNL A   1      46.215  28.560  35.503  1.00  0.00     0.198 A 
ATOM     95  F   UNL A   1      45.300  30.226  34.119  1.00  0.00    -0.203 F 
ATOM     96  F   UNL A   1      44.611  25.926  37.407  1.00  0.00    -0.200 F 
ATOM     97  C   UNL A   1      46.047  27.468  36.340  1.00  0.00     0.200 A 
ATOM     98  F   UNL A   1      47.442  29.038  35.262  1.00  0.00    -0.200 F 
ATOM     99  F   UNL A   1      47.111  26.906  36.930  1.00  0.00    -0.200 F 
ENDBRANCH  66  89
ENDBRANCH  40  41
ENDBRANCH  32  35
ENDBRANCH  30  31
ENDBRANCH  29  30
ENDBRANCH  28  29
ENDBRANCH   3  28
TORSDOF 15
ENDMDL
MODEL 2
REMARK VINA RESULT:     -12.8      0.808      7.206
REMARK SMILES C/C(=N/[NH+]=C1\NC(=O)[C@H](CC(=O)NCCCNC(=O)c2ccc(-c3c4nc(c(-c5c(F)c(F)c(F)c(F)c5F)c5ccc([nH]5)c(-c5c(F)c(F)c(F)c(F)c5F)c5nc(c(-c6c(F)c(F)c(F)c(F)c6F)c6ccc3[nH]6)C=C5)C=C4)cc2)S1)c1ccc(OC(C)C)cc1
REMARK SMILES IDX 11 1 12 2 13 3 10 5 9 6 4 7 5 8 6 10 83 11 7 12 8 14 3 15
REMARK SMILES IDX 1 16 2 17 84 18 85 19 93 20 86 21 92 22 87 23 88 24 89 25
REMARK SMILES IDX 90 26 91 27 14 28 15 29 16 30 17 31 18 32 19 34 20 35 21 36
REMARK SMILES IDX 82 37 22 38 81 39 23 40 24 41 25 42 75 43 26 44 80 45 74 46
REMARK SMILES IDX 76 47 27 48 79 49 73 50 72 51 28 53 60 54 40 55 59 56 41 57
REMARK SMILES IDX 44 58 58 59 77 60 42 61 43 62 57 64 78 65 45 66 29 67 30 68
REMARK SMILES IDX 38 69 31 70 32 71 36 72 39 73 33 74 34 75 37 76 35 77 61 78
REMARK SMILES IDX 62 79 70 80 63 81 64 82 68 83 71 84 65 85 66 86 69 87 67 88
REMARK SMILES IDX 46 89 47 90 55 91 48 92 49 93 53 94 56 95 50 96 51 97 54 98
REMARK SMILES IDX 52 99
REMARK H PARENT 13 4 4 9 6 13 17 33 76 52 44 63
REMARK Flexibility Score: inf
ROOT
ATOM      1  C   UNL A   1      30.261  29.691  23.937  1.00  0.00     0.221 C 
ATOM      2  O   UNL A   1      29.478  29.855  23.002  1.00  0.00    -0.275 OA
ATOM      3  N   UNL A   1      30.691  30.776  24.637  1.00  0.00    -0.356 N 
ATOM      4  H   UNL A   1      30.393  31.649  24.293  1.00  0.00     0.163 HD
ENDROOT
BRANCH   1   5
ATOM      5  C   UNL A   1      30.746  28.315  24.322  1.00  0.00     0.127 C 
BRANCH   5   6
ATOM      6  C   UNL A   1      31.146  27.482  23.108  1.00  0.00     0.183 C 
ATOM      7  N   UNL A   1      32.652  24.264  24.496  1.00  0.00    -0.142 N 
ATOM      8  C   UNL A   1      32.347  25.327  23.838  1.00  0.00     0.337 C 
ATOM      9  H   UNL A   1      31.962  23.619  24.773  1.00  0.00     0.343 HD
ATOM     10  N   UNL A   1      33.196  26.276  23.395  1.00  0.00    -0.202 N 
ATOM     11  S   UNL A   1      30.698  25.738  23.461  1.00  0.00    -0.020 SA
ATOM     12  C   UNL A   1      32.647  27.408  22.860  1.00  0.00     0.322 C 
ATOM     13  H   UNL A   1      34.172  26.159  23.455  1.00  0.00     0.316 HD
ATOM     14  O   UNL A   1      33.304  28.266  22.292  1.00  0.00    -0.246 OA
BRANCH   7  15
ATOM     15  N   UNL A   1      34.000  24.059  24.802  1.00  0.00    -0.090 NA
ATOM     16  C   UNL A   1      35.932  22.633  24.900  1.00  0.00     0.071 C 
ATOM     17  C   UNL A   1      34.432  22.826  24.807  1.00  0.00     0.088 C 
BRANCH  17  18
ATOM     18  C   UNL A   1      33.588  21.587  24.819  1.00  0.00    -0.000 A 
ATOM     19  C   UNL A   1      33.536  20.750  25.930  1.00  0.00     0.014 A 
ATOM     20  C   UNL A   1      32.970  21.170  23.630  1.00  0.00     0.014 A 
ATOM     21  C   UNL A   1      33.012  19.461  25.807  1.00  0.00     0.047 A 
ATOM     22  C   UNL A   1      32.410  19.885  23.525  1.00  0.00     0.047 A 
ATOM     23  C   UNL A   1      32.480  19.003  24.597  1.00  0.00     0.119 A 
BRANCH  23  24
ATOM     24  O   UNL A   1      32.171  17.679  24.608  1.00  0.00    -0.491 OA
BRANCH  24  25
ATOM     25  C   UNL A   1      33.058  16.609  24.274  1.00  0.00     0.167 C 
ATOM     26  C   UNL A   1      34.011  16.917  23.129  1.00  0.00     0.052 C 
ATOM     27  C   UNL A   1      33.745  15.963  25.470  1.00  0.00     0.052 C 
ENDBRANCH  24  25
ENDBRANCH  23  24
ENDBRANCH  17  18
ENDBRANCH   7  15
ENDBRANCH   5   6
ENDBRANCH   1   5
BRANCH   3  28
ATOM     28  C   UNL A   1      31.529  30.822  25.818  1.00  0.00     0.117 C 
BRANCH  28  29
ATOM     29  C   UNL A   1      31.308  32.044  26.690  1.00  0.00     0.042 C 
BRANCH  29  30
ATOM     30  C   UNL A   1      32.602  32.655  27.199  1.00  0.00     0.118 C 
BRANCH  30  31
ATOM     31  N   UNL A   1      32.451  34.053  27.588  1.00  0.00    -0.352 N 
ATOM     32  C   UNL A   1      33.071  34.774  28.579  1.00  0.00     0.251 C 
ATOM     33  H   UNL A   1      31.799  34.562  27.054  1.00  0.00     0.163 HD
ATOM     34  O   UNL A   1      32.644  35.883  28.884  1.00  0.00    -0.269 OA
BRANCH  32  35
ATOM     35  C   UNL A   1      34.230  34.202  29.298  1.00  0.00     0.039 A 
ATOM     36  C   UNL A   1      34.015  33.408  30.427  1.00  0.00     0.014 A 
ATOM     37  C   UNL A   1      35.531  34.435  28.851  1.00  0.00     0.014 A 
ATOM     38  C   UNL A   1      35.097  32.776  31.043  1.00  0.00     0.010 A 
ATOM     39  C   UNL A   1      36.587  33.706  29.381  1.00  0.00     0.010 A 
ATOM     40  C   UNL A   1      36.386  32.877  30.492  1.00  0.00    -0.014 A 
BRANCH  40  41
ATOM     41  C   UNL A   1      37.543  32.146  31.068  1.00  0.00     0.031 A 
ATOM     42  C   UNL A   1      38.056  32.515  32.435  1.00  0.00     0.074 A 
ATOM     43  C   UNL A   1      38.173  31.205  30.336  1.00  0.00     0.049 A 
ATOM     44  N   UNL A   1      39.108  32.068  33.074  1.00  0.00    -0.248 NA
ATOM     45  C   UNL A   1      37.308  33.550  33.170  1.00  0.00     0.031 C 
ATOM     46  C   UNL A   1      37.806  30.799  28.978  1.00  0.00     0.029 A 
ATOM     47  N   UNL A   1      39.265  30.425  30.628  1.00  0.00    -0.354 N 
ATOM     48  C   UNL A   1      39.149  32.772  34.271  1.00  0.00     0.074 A 
ATOM     49  C   UNL A   1      38.065  33.727  34.242  1.00  0.00     0.031 C 
ATOM     50  C   UNL A   1      38.637  29.828  28.566  1.00  0.00     0.029 A 
ATOM     51  C   UNL A   1      39.625  29.576  29.610  1.00  0.00     0.049 A 
ATOM     52  H   UNL A   1      39.746  30.471  31.486  1.00  0.00     0.167 HD
ATOM     53  C   UNL A   1      39.994  32.614  35.316  1.00  0.00     0.037 A 
ATOM     54  C   UNL A   1      40.646  28.700  29.525  1.00  0.00     0.037 A 
ATOM     55  C   UNL A   1      41.055  31.644  35.352  1.00  0.00     0.049 A 
ATOM     56  C   UNL A   1      41.581  28.558  30.698  1.00  0.00     0.074 A 
ATOM     57  C   UNL A   1      41.940  31.372  36.380  1.00  0.00     0.029 A 
ATOM     58  N   UNL A   1      41.372  30.783  34.311  1.00  0.00    -0.354 N 
ATOM     59  N   UNL A   1      41.566  29.183  31.850  1.00  0.00    -0.248 NA
ATOM     60  C   UNL A   1      42.671  27.584  30.560  1.00  0.00     0.031 C 
ATOM     61  C   UNL A   1      42.823  30.380  35.944  1.00  0.00     0.029 A 
ATOM     62  C   UNL A   1      42.450  29.991  34.668  1.00  0.00     0.049 A 
ATOM     63  H   UNL A   1      40.900  30.743  33.447  1.00  0.00     0.167 HD
ATOM     64  C   UNL A   1      42.616  28.651  32.586  1.00  0.00     0.074 A 
ATOM     65  C   UNL A   1      43.236  27.639  31.757  1.00  0.00     0.031 C 
ATOM     66  C   UNL A   1      43.036  28.972  33.835  1.00  0.00     0.037 A 
BRANCH  53  67
ATOM     67  C   UNL A   1      39.792  33.490  36.519  1.00  0.00     0.064 A 
ATOM     68  C   UNL A   1      40.456  34.720  36.649  1.00  0.00     0.173 A 
ATOM     69  C   UNL A   1      38.882  33.127  37.523  1.00  0.00     0.173 A 
ATOM     70  F   UNL A   1      41.347  35.107  35.724  1.00  0.00    -0.203 F 
ATOM     71  C   UNL A   1      40.230  35.544  37.748  1.00  0.00     0.198 A 
ATOM     72  C   UNL A   1      38.634  33.969  38.604  1.00  0.00     0.198 A 
ATOM     73  F   UNL A   1      38.218  31.964  37.447  1.00  0.00    -0.203 F 
ATOM     74  F   UNL A   1      40.907  36.694  37.871  1.00  0.00    -0.200 F 
ATOM     75  C   UNL A   1      39.311  35.173  38.719  1.00  0.00     0.200 A 
ATOM     76  F   UNL A   1      37.736  33.617  39.534  1.00  0.00    -0.200 F 
ATOM     77  F   UNL A   1      39.083  35.976  39.767  1.00  0.00    -0.200 F 
ENDBRANCH  53  67
BRANCH  54  78
ATOM     78  C   UNL A   1      40.841  27.881  28.297  1.00  0.00     0.064 A 
ATOM     79  C   UNL A   1      40.283  26.598  28.190  1.00  0.00     0.173 A 
ATOM     80  C   UNL A   1      41.624  28.339  27.228  1.00  0.00     0.173 A 
ATOM     81  F   UNL A   1      39.539  26.105  29.192  1.00  0.00    -0.203 F 
ATOM     82  C   UNL A   1      40.535  25.791  27.081  1.00  0.00     0.198 A 
ATOM     83  C   UNL A   1      41.845  27.546  26.103  1.00  0.00     0.198 A 
ATOM     84  F   UNL A   1      42.174  29.562  27.273  1.00  0.00    -0.203 F 
ATOM     85  F   UNL A   1      40.047  24.545  27.039  1.00  0.00    -0.200 F 
ATOM     86  C   UNL A   1      41.313  26.268  26.038  1.00  0.00     0.200 A 
ATOM     87  F   UNL A   1      42.582  28.018  25.088  1.00  0.00    -0.200 F 
ATOM     88  F   UNL A   1      41.562  25.490  24.975  1.00  0.00    -0.200 F 
ENDBRANCH  54  78
BRANCH  66  89
ATOM     89  C   UNL A   1      44.183  28.186  34.401  1.00  0.00     0.064 A 
ATOM     90  C   UNL A   1      45.510  28.622  34.280  1.00  0.00     0.173 A 
ATOM     91  C   UNL A   1      43.943  27.000  35.112  1.00  0.00     0.173 A 
ATOM     92  F   UNL A   1      45.794  29.742  33.599  1.00  0.00    -0.203 F 
ATOM     93  C   UNL A   1      46.558  27.881  34.821  1.00  0.00     0.198 A 
ATOM     94  C   UNL A   1      44.989  26.282  35.683  1.00  0.00     0.198 A 
ATOM     95  F   UNL A   1      42.690  26.544  35.265  1.00  0.00    -0.203 F 
ATOM     96  F   UNL A   1      47.823  28.286  34.644  1.00  0.00    -0.200 F 
ATOM     97  C   UNL A   1      46.296  26.718  35.529  1.00  0.00     0.200 A 
ATOM     98  F   UNL A   1      44.731  25.168  36.382  1.00  0.00    -0.200 F 
ATOM     99  F   UNL A   1      47.305  26.012  36.056  1.00  0.00    -0.200 F 
ENDBRANCH  66  89
ENDBRANCH  40  41
ENDBRANCH  32  35
ENDBRANCH  30  31
ENDBRANCH  29  30
ENDBRANCH  28  29
ENDBRANCH   3  28
TORSDOF 15
ENDMDL
MODEL 3
REMARK VINA RESULT:     -12.5      5.581     11.659
REMARK SMILES C/C(=N/[NH+]=C1\NC(=O)[C@H](CC(=O)NCCCNC(=O)c2ccc(-c3c4nc(c(-c5c(F)c(F)c(F)c(F)c5F)c5ccc([nH]5)c(-c5c(F)c(F)c(F)c(F)c5F)c5nc(c(-c6c(F)c(F)c(F)c(F)c6F)c6ccc3[nH]6)C=C5)C=C4)cc2)S1)c1ccc(OC(C)C)cc1
REMARK SMILES IDX 11 1 12 2 13 3 10 5 9 6 4 7 5 8 6 10 83 11 7 12 8 14 3 15
REMARK SMILES IDX 1 16 2 17 84 18 85 19 93 20 86 21 92 22 87 23 88 24 89 25
REMARK SMILES IDX 90 26 91 27 14 28 15 29 16 30 17 31 18 32 19 34 20 35 21 36
REMARK SMILES IDX 82 37 22 38 81 39 23 40 24 41 25 42 75 43 26 44 80 45 74 46
REMARK SMILES IDX 76 47 27 48 79 49 73 50 72 51 28 53 60 54 40 55 59 56 41 57
REMARK SMILES IDX 44 58 58 59 77 60 42 61 43 62 57 64 78 65 45 66 29 67 30 68
REMARK SMILES IDX 38 69 31 70 32 71 36 72 39 73 33 74 34 75 37 76 35 77 61 78
REMARK SMILES IDX 62 79 70 80 63 81 64 82 68 83 71 84 65 85 66 86 69 87 67 88
REMARK SMILES IDX 46 89 47 90 55 91 48 92 49 93 53 94 56 95 50 96 51 97 54 98
REMARK SMILES IDX 52 99
REMARK H PARENT 13 4 4 9 6 13 17 33 76 52 44 63
REMARK Flexibility Score: inf
ROOT
ATOM      1  C   UNL A   1      37.445  23.052  25.808  1.00  0.00     0.221 C 
ATOM      2  O   UNL A   1      38.079  24.029  26.205  1.00  0.00    -0.275 OA
ATOM      3  N   UNL A   1      38.089  22.098  25.081  1.00  0.00    -0.356 N 
ATOM      4  H   UNL A   1      39.027  22.295  24.858  1.00  0.00     0.163 HD
ENDROOT
BRANCH   1   5
ATOM      5  C   UNL A   1      35.976  22.892  26.112  1.00  0.00     0.127 C 
BRANCH   5   6
ATOM      6  C   UNL A   1      35.101  23.135  24.887  1.00  0.00     0.183 C 
ATOM      7  N   UNL A   1      32.567  25.793  25.918  1.00  0.00    -0.142 N 
ATOM      8  C   UNL A   1      33.205  24.785  25.434  1.00  0.00     0.337 C 
ATOM      9  H   UNL A   1      32.946  26.701  25.888  1.00  0.00     0.343 HD
ATOM     10  N   UNL A   1      32.791  23.503  25.406  1.00  0.00    -0.202 N 
ATOM     11  S   UNL A   1      34.805  24.942  24.765  1.00  0.00    -0.020 SA
ATOM     12  C   UNL A   1      33.693  22.562  24.995  1.00  0.00     0.322 C 
ATOM     13  H   UNL A   1      31.876  23.254  25.672  1.00  0.00     0.316 HD
ATOM     14  O   UNL A   1      33.396  21.397  24.784  1.00  0.00    -0.246 OA
BRANCH   7  15
ATOM     15  N   UNL A   1      31.315  25.550  26.489  1.00  0.00    -0.090 NA
ATOM     16  C   UNL A   1      28.915  25.571  26.361  1.00  0.00     0.071 C 
ATOM     17  C   UNL A   1      30.271  26.040  25.874  1.00  0.00     0.088 C 
BRANCH  17  18
ATOM     18  C   UNL A   1      30.280  27.083  24.797  1.00  0.00    -0.000 A 
ATOM     19  C   UNL A   1      30.961  28.287  24.954  1.00  0.00     0.014 A 
ATOM     20  C   UNL A   1      29.449  26.917  23.679  1.00  0.00     0.014 A 
ATOM     21  C   UNL A   1      30.695  29.354  24.092  1.00  0.00     0.047 A 
ATOM     22  C   UNL A   1      29.216  27.984  22.794  1.00  0.00     0.047 A 
ATOM     23  C   UNL A   1      29.794  29.226  23.030  1.00  0.00     0.119 A 
BRANCH  23  24
ATOM     24  O   UNL A   1      29.529  30.402  22.401  1.00  0.00    -0.491 OA
BRANCH  24  25
ATOM     25  C   UNL A   1      28.263  31.065  22.364  1.00  0.00     0.167 C 
ATOM     26  C   UNL A   1      27.558  31.150  23.709  1.00  0.00     0.052 C 
ATOM     27  C   UNL A   1      28.264  32.383  21.603  1.00  0.00     0.052 C 
ENDBRANCH  24  25
ENDBRANCH  23  24
ENDBRANCH  17  18
ENDBRANCH   7  15
ENDBRANCH   5   6
ENDBRANCH   1   5
BRANCH   3  28
ATOM     28  C   UNL A   1      37.582  20.833  24.591  1.00  0.00     0.117 C 
BRANCH  28  29
ATOM     29  C   UNL A   1      38.390  19.626  25.031  1.00  0.00     0.042 C 
BRANCH  29  30
ATOM     30  C   UNL A   1      39.526  19.981  25.972  1.00  0.00     0.118 C 
BRANCH  30  31
ATOM     31  N   UNL A   1      40.563  18.956  26.017  1.00  0.00    -0.352 N 
ATOM     32  C   UNL A   1      41.930  19.073  26.104  1.00  0.00     0.251 C 
ATOM     33  H   UNL A   1      40.230  18.031  25.978  1.00  0.00     0.163 HD
ATOM     34  O   UNL A   1      42.639  18.091  25.908  1.00  0.00    -0.269 OA
BRANCH  32  35
ATOM     35  C   UNL A   1      42.544  20.386  26.400  1.00  0.00     0.039 A 
ATOM     36  C   UNL A   1      43.083  21.144  25.357  1.00  0.00     0.014 A 
ATOM     37  C   UNL A   1      42.576  20.879  27.705  1.00  0.00     0.014 A 
ATOM     38  C   UNL A   1      43.565  22.429  25.615  1.00  0.00     0.010 A 
ATOM     39  C   UNL A   1      42.932  22.200  27.938  1.00  0.00     0.010 A 
ATOM     40  C   UNL A   1      43.442  22.988  26.899  1.00  0.00    -0.014 A 
BRANCH  40  41
ATOM     41  C   UNL A   1      43.860  24.384  27.187  1.00  0.00     0.031 A 
ATOM     42  C   UNL A   1      42.843  25.385  27.670  1.00  0.00     0.074 A 
ATOM     43  C   UNL A   1      45.130  24.766  26.948  1.00  0.00     0.049 A 
ATOM     44  N   UNL A   1      42.982  26.669  27.885  1.00  0.00    -0.248 NA
ATOM     45  C   UNL A   1      41.479  24.884  27.911  1.00  0.00     0.031 C 
ATOM     46  C   UNL A   1      46.193  23.904  26.426  1.00  0.00     0.029 A 
ATOM     47  N   UNL A   1      45.743  25.986  27.101  1.00  0.00    -0.354 N 
ATOM     48  C   UNL A   1      41.728  27.123  28.272  1.00  0.00     0.074 A 
ATOM     49  C   UNL A   1      40.823  25.999  28.194  1.00  0.00     0.031 C 
ATOM     50  C   UNL A   1      47.331  24.611  26.331  1.00  0.00     0.029 A 
ATOM     51  C   UNL A   1      47.068  25.987  26.737  1.00  0.00     0.049 A 
ATOM     52  H   UNL A   1      45.277  26.783  27.439  1.00  0.00     0.167 HD
ATOM     53  C   UNL A   1      41.369  28.360  28.691  1.00  0.00     0.037 A 
ATOM     54  C   UNL A   1      47.967  26.992  26.722  1.00  0.00     0.037 A 
ATOM     55  C   UNL A   1      42.278  29.468  28.795  1.00  0.00     0.049 A 
ATOM     56  C   UNL A   1      47.533  28.361  27.176  1.00  0.00     0.074 A 
ATOM     57  C   UNL A   1      42.026  30.751  29.248  1.00  0.00     0.029 A 
ATOM     58  N   UNL A   1      43.619  29.424  28.441  1.00  0.00    -0.354 N 
ATOM     59  N   UNL A   1      46.360  28.760  27.606  1.00  0.00    -0.248 NA
ATOM     60  C   UNL A   1      48.552  29.419  27.151  1.00  0.00     0.031 C 
ATOM     61  C   UNL A   1      43.202  31.496  29.124  1.00  0.00     0.029 A 
ATOM     62  C   UNL A   1      44.202  30.662  28.652  1.00  0.00     0.049 A 
ATOM     63  H   UNL A   1      44.086  28.630  28.092  1.00  0.00     0.167 HD
ATOM     64  C   UNL A   1      46.510  30.100  27.936  1.00  0.00     0.074 A 
ATOM     65  C   UNL A   1      47.892  30.441  27.676  1.00  0.00     0.031 C 
ATOM     66  C   UNL A   1      45.587  30.974  28.408  1.00  0.00     0.037 A 
BRANCH  53  67
ATOM     67  C   UNL A   1      39.938  28.575  29.094  1.00  0.00     0.064 A 
ATOM     68  C   UNL A   1      39.501  28.331  30.405  1.00  0.00     0.173 A 
ATOM     69  C   UNL A   1      39.007  29.088  28.177  1.00  0.00     0.173 A 
ATOM     70  F   UNL A   1      40.348  27.827  31.316  1.00  0.00    -0.203 F 
ATOM     71  C   UNL A   1      38.182  28.572  30.778  1.00  0.00     0.198 A 
ATOM     72  C   UNL A   1      37.697  29.359  28.563  1.00  0.00     0.198 A 
ATOM     73  F   UNL A   1      39.372  29.343  26.912  1.00  0.00    -0.203 F 
ATOM     74  F   UNL A   1      37.779  28.291  32.025  1.00  0.00    -0.200 F 
ATOM     75  C   UNL A   1      37.284  29.097  29.861  1.00  0.00     0.200 A 
ATOM     76  F   UNL A   1      36.834  29.880  27.680  1.00  0.00    -0.200 F 
ATOM     77  F   UNL A   1      36.019  29.346  30.227  1.00  0.00    -0.200 F 
ENDBRANCH  53  67
BRANCH  54  78
ATOM     78  C   UNL A   1      49.366  26.750  26.273  1.00  0.00     0.064 A 
ATOM     79  C   UNL A   1      49.741  26.955  24.937  1.00  0.00     0.173 A 
ATOM     80  C   UNL A   1      50.342  26.265  27.155  1.00  0.00     0.173 A 
ATOM     81  F   UNL A   1      48.840  27.402  24.049  1.00  0.00    -0.203 F 
ATOM     82  C   UNL A   1      51.025  26.646  24.492  1.00  0.00     0.198 A 
ATOM     83  C   UNL A   1      51.637  25.990  26.717  1.00  0.00     0.198 A 
ATOM     84  F   UNL A   1      50.041  26.058  28.446  1.00  0.00    -0.203 F 
ATOM     85  F   UNL A   1      51.334  26.786  23.197  1.00  0.00    -0.200 F 
ATOM     86  C   UNL A   1      51.973  26.167  25.384  1.00  0.00     0.200 A 
ATOM     87  F   UNL A   1      52.555  25.546  27.586  1.00  0.00    -0.200 F 
ATOM     88  F   UNL A   1      53.206  25.863  24.955  1.00  0.00    -0.200 F 
ENDBRANCH  54  78
BRANCH  66  89
ATOM     89  C   UNL A   1      46.053  32.365  28.727  1.00  0.00     0.064 A 
ATOM     90  C   UNL A   1      45.915  33.419  27.812  1.00  0.00     0.173 A 
ATOM     91  C   UNL A   1      46.608  32.653  29.984  1.00  0.00     0.173 A 
ATOM     92  F   UNL A   1      45.403  33.193  26.593  1.00  0.00    -0.203 F 
ATOM     93  C   UNL A   1      46.346  34.703  28.132  1.00  0.00     0.198 A 
ATOM     94  C   UNL A   1      47.003  33.946  30.314  1.00  0.00     0.198 A 
ATOM     95  F   UNL A   1      46.753  31.682  30.898  1.00  0.00    -0.203 F 
ATOM     96  F   UNL A   1      46.257  35.684  27.223  1.00  0.00    -0.200 F 
ATOM     97  C   UNL A   1      46.881  34.967  29.384  1.00  0.00     0.200 A 
ATOM     98  F   UNL A   1      47.502  34.201  31.530  1.00  0.00    -0.200 F 
ATOM     99  F   UNL A   1      47.287  36.206  29.693  1.00  0.00    -0.200 F 
ENDBRANCH  66  89
ENDBRANCH  40  41
ENDBRANCH  32  35
ENDBRANCH  30  31
ENDBRANCH  29  30
ENDBRANCH  28  29
ENDBRANCH   3  28
TORSDOF 15
ENDMDL
