MODEL 1
REMARK VINA RESULT:     -12.0      0.000      0.000
REMARK SMILES C[C@@H](NC(=O)[C@@H](C)NC(=O)C(C)(C)C)C(=O)NCCCNC(=O)c1ccc(-c2c3nc(c(-c4c(F)c(F)c(F)c(F)c4F)c4ccc([nH]4)c(-c4c(F)c(F)c(F)c(F)c4F)c4nc(c(-c5c(F)c(F)c(F)c(F)c5F)c5ccc2[nH]5)C=C4)C=C3)cc1
REMARK SMILES IDX 18 1 17 2 15 3 16 4 2 6 1 7 3 8 4 9 5 11 6 12 7 13 8 14 9 15
REMARK SMILES IDX 10 17 11 18 12 19 13 20 14 21 19 22 20 23 21 24 22 25 23 27
REMARK SMILES IDX 24 28 25 29 86 30 26 31 85 32 27 33 28 34 29 35 79 36 30 37
REMARK SMILES IDX 84 38 78 39 80 40 31 41 83 42 77 43 76 44 32 46 64 47 44 48
REMARK SMILES IDX 63 49 45 50 48 51 62 52 81 53 46 54 47 55 61 57 82 58 49 59
REMARK SMILES IDX 33 60 34 61 42 62 35 63 36 64 40 65 43 66 37 67 38 68 41 69
REMARK SMILES IDX 39 70 65 71 66 72 74 73 67 74 68 75 72 76 75 77 69 78 70 79
REMARK SMILES IDX 73 80 71 81 50 82 51 83 59 84 52 85 53 86 57 87 60 88 54 89
REMARK SMILES IDX 55 90 58 91 56 92
REMARK H PARENT 17 5 3 10 8 16 21 26 80 45 48 56
REMARK Flexibility Score: inf
ROOT
ATOM      1  C   UNL A   1      32.474  27.466  26.559  1.00  0.00     0.117 C 
ENDROOT
BRANCH   1   2
ATOM      2  N   UNL A   1      31.516  26.417  26.874  1.00  0.00    -0.354 N 
ATOM      3  C   UNL A   1      30.738  25.656  26.056  1.00  0.00     0.242 C 
ATOM      4  O   UNL A   1      30.081  24.754  26.582  1.00  0.00    -0.273 OA
ATOM      5  H   UNL A   1      31.414  26.226  27.835  1.00  0.00     0.163 HD
BRANCH   3   6
ATOM      6  C   UNL A   1      30.505  26.025  24.582  1.00  0.00     0.168 C 
ATOM      7  C   UNL A   1      30.598  24.710  23.793  1.00  0.00     0.041 C 
BRANCH   6   8
ATOM      8  N   UNL A   1      29.269  26.716  24.224  1.00  0.00    -0.343 N 
ATOM      9  C   UNL A   1      28.996  27.744  23.376  1.00  0.00     0.242 C 
ATOM     10  H   UNL A   1      28.474  26.367  24.688  1.00  0.00     0.164 HD
ATOM     11  O   UNL A   1      27.799  27.890  23.098  1.00  0.00    -0.273 OA
BRANCH   9  12
ATOM     12  C   UNL A   1      30.011  28.831  22.940  1.00  0.00     0.168 C 
ATOM     13  C   UNL A   1      31.355  28.185  22.646  1.00  0.00     0.041 C 
BRANCH  12  14
ATOM     14  N   UNL A   1      29.615  29.730  21.870  1.00  0.00    -0.344 N 
ATOM     15  C   UNL A   1      29.081  30.985  21.926  1.00  0.00     0.226 C 
ATOM     16  H   UNL A   1      29.755  29.379  20.961  1.00  0.00     0.164 HD
ATOM     17  O   UNL A   1      28.872  31.514  20.828  1.00  0.00    -0.275 OA
BRANCH  15  18
ATOM     18  C   UNL A   1      28.725  31.730  23.250  1.00  0.00     0.041 C 
ATOM     19  C   UNL A   1      27.360  31.302  23.808  1.00  0.00     0.021 C 
ATOM     20  C   UNL A   1      29.809  31.600  24.329  1.00  0.00     0.021 C 
ATOM     21  C   UNL A   1      28.621  33.243  22.926  1.00  0.00     0.021 C 
ENDBRANCH  15  18
ENDBRANCH  12  14
ENDBRANCH   9  12
ENDBRANCH   6   8
ENDBRANCH   3   6
ENDBRANCH   1   2
BRANCH   1  22
ATOM     22  C   UNL A   1      31.790  28.813  26.334  1.00  0.00     0.042 C 
BRANCH  22  23
ATOM     23  C   UNL A   1      32.714  29.938  25.868  1.00  0.00     0.118 C 
BRANCH  23  24
ATOM     24  N   UNL A   1      32.515  31.211  26.543  1.00  0.00    -0.352 N 
ATOM     25  C   UNL A   1      33.352  31.931  27.367  1.00  0.00     0.251 C 
ATOM     26  H   UNL A   1      31.637  31.628  26.386  1.00  0.00     0.163 HD
ATOM     27  O   UNL A   1      32.982  32.995  27.843  1.00  0.00    -0.269 OA
BRANCH  25  28
ATOM     28  C   UNL A   1      34.669  31.375  27.745  1.00  0.00     0.039 A 
ATOM     29  C   UNL A   1      35.727  32.262  27.954  1.00  0.00     0.014 A 
ATOM     30  C   UNL A   1      34.845  30.009  27.970  1.00  0.00     0.014 A 
ATOM     31  C   UNL A   1      36.917  31.797  28.516  1.00  0.00     0.010 A 
ATOM     32  C   UNL A   1      35.987  29.567  28.631  1.00  0.00     0.010 A 
ATOM     33  C   UNL A   1      37.028  30.459  28.930  1.00  0.00    -0.014 A 
BRANCH  33  34
ATOM     34  C   UNL A   1      38.205  29.989  29.707  1.00  0.00     0.031 A 
ATOM     35  C   UNL A   1      38.426  30.467  31.116  1.00  0.00     0.074 A 
ATOM     36  C   UNL A   1      39.123  29.199  29.114  1.00  0.00     0.049 A 
ATOM     37  N   UNL A   1      39.435  30.239  31.919  1.00  0.00    -0.248 NA
ATOM     38  C   UNL A   1      37.396  31.350  31.685  1.00  0.00     0.031 C 
ATOM     39  C   UNL A   1      39.066  28.725  27.729  1.00  0.00     0.029 A 
ATOM     40  N   UNL A   1      40.291  28.661  29.597  1.00  0.00    -0.354 N 
ATOM     41  C   UNL A   1      39.172  30.969  33.070  1.00  0.00     0.074 A 
ATOM     42  C   UNL A   1      37.940  31.691  32.842  1.00  0.00     0.031 C 
ATOM     43  C   UNL A   1      40.128  27.940  27.486  1.00  0.00     0.029 A 
ATOM     44  C   UNL A   1      40.962  27.886  28.682  1.00  0.00     0.049 A 
ATOM     45  H   UNL A   1      40.616  28.816  30.513  1.00  0.00     0.167 HD
ATOM     46  C   UNL A   1      39.880  31.011  34.224  1.00  0.00     0.037 A 
ATOM     47  C   UNL A   1      42.121  27.209  28.794  1.00  0.00     0.037 A 
ATOM     48  C   UNL A   1      41.079  30.254  34.467  1.00  0.00     0.049 A 
ATOM     49  C   UNL A   1      42.867  27.242  30.099  1.00  0.00     0.074 A 
ATOM     50  C   UNL A   1      41.826  30.169  35.630  1.00  0.00     0.029 A 
ATOM     51  N   UNL A   1      41.705  29.446  33.530  1.00  0.00    -0.354 N 
ATOM     52  N   UNL A   1      42.569  27.878  31.206  1.00  0.00    -0.248 NA
ATOM     53  C   UNL A   1      44.109  26.459  30.172  1.00  0.00     0.031 C 
ATOM     54  C   UNL A   1      42.922  29.336  35.385  1.00  0.00     0.029 A 
ATOM     55  C   UNL A   1      42.837  28.870  34.083  1.00  0.00     0.049 A 
ATOM     56  H   UNL A   1      41.392  29.304  32.607  1.00  0.00     0.167 HD
ATOM     57  C   UNL A   1      43.567  27.552  32.113  1.00  0.00     0.074 A 
ATOM     58  C   UNL A   1      44.473  26.651  31.433  1.00  0.00     0.031 C 
ATOM     59  C   UNL A   1      43.721  27.966  33.394  1.00  0.00     0.037 A 
BRANCH  46  60
ATOM     60  C   UNL A   1      39.361  31.895  35.321  1.00  0.00     0.064 A 
ATOM     61  C   UNL A   1      38.549  31.390  36.348  1.00  0.00     0.173 A 
ATOM     62  C   UNL A   1      39.701  33.255  35.361  1.00  0.00     0.173 A 
ATOM     63  F   UNL A   1      38.186  30.098  36.349  1.00  0.00    -0.203 F 
ATOM     64  C   UNL A   1      38.070  32.222  37.357  1.00  0.00     0.198 A 
ATOM     65  C   UNL A   1      39.244  34.077  36.388  1.00  0.00     0.198 A 
ATOM     66  F   UNL A   1      40.478  33.787  34.406  1.00  0.00    -0.203 F 
ATOM     67  F   UNL A   1      37.253  31.728  38.298  1.00  0.00    -0.200 F 
ATOM     68  C   UNL A   1      38.424  33.562  37.380  1.00  0.00     0.200 A 
ATOM     69  F   UNL A   1      39.596  35.370  36.416  1.00  0.00    -0.200 F 
ATOM     70  F   UNL A   1      37.965  34.361  38.354  1.00  0.00    -0.200 F 
ENDBRANCH  46  60
BRANCH  47  71
ATOM     71  C   UNL A   1      42.628  26.409  27.649  1.00  0.00     0.064 A 
ATOM     72  C   UNL A   1      42.186  25.095  27.441  1.00  0.00     0.173 A 
ATOM     73  C   UNL A   1      43.561  26.935  26.744  1.00  0.00     0.173 A 
ATOM     74  F   UNL A   1      41.309  24.542  28.292  1.00  0.00    -0.203 F 
ATOM     75  C   UNL A   1      42.673  24.329  26.385  1.00  0.00     0.198 A 
ATOM     76  C   UNL A   1      44.028  26.177  25.672  1.00  0.00     0.198 A 
ATOM     77  F   UNL A   1      44.010  28.190  26.894  1.00  0.00    -0.203 F 
ATOM     78  F   UNL A   1      42.267  23.062  26.234  1.00  0.00    -0.200 F 
ATOM     79  C   UNL A   1      43.591  24.873  25.498  1.00  0.00     0.200 A 
ATOM     80  F   UNL A   1      44.903  26.710  24.808  1.00  0.00    -0.200 F 
ATOM     81  F   UNL A   1      44.057  24.137  24.478  1.00  0.00    -0.200 F 
ENDBRANCH  47  71
BRANCH  59  82
ATOM     82  C   UNL A   1      44.892  27.420  34.155  1.00  0.00     0.064 A 
ATOM     83  C   UNL A   1      46.118  28.101  34.205  1.00  0.00     0.173 A 
ATOM     84  C   UNL A   1      44.773  26.222  34.877  1.00  0.00     0.173 A 
ATOM     85  F   UNL A   1      46.284  29.241  33.519  1.00  0.00    -0.203 F 
ATOM     86  C   UNL A   1      47.189  27.589  34.932  1.00  0.00     0.198 A 
ATOM     87  C   UNL A   1      45.839  25.729  35.625  1.00  0.00     0.198 A 
ATOM     88  F   UNL A   1      43.620  25.537  34.864  1.00  0.00    -0.203 F 
ATOM     89  F   UNL A   1      48.364  28.234  34.931  1.00  0.00    -0.200 F 
ATOM     90  C   UNL A   1      47.047  26.409  35.646  1.00  0.00     0.200 A 
ATOM     91  F   UNL A   1      45.696  24.594  36.322  1.00  0.00    -0.200 F 
ATOM     92  F   UNL A   1      48.078  25.921  36.350  1.00  0.00    -0.200 F 
ENDBRANCH  59  82
ENDBRANCH  33  34
ENDBRANCH  25  28
ENDBRANCH  23  24
ENDBRANCH  22  23
ENDBRANCH   1  22
TORSDOF 14
ENDMDL
MODEL 2
REMARK VINA RESULT:     -12.0      1.872      3.215
REMARK SMILES C[C@@H](NC(=O)[C@@H](C)NC(=O)C(C)(C)C)C(=O)NCCCNC(=O)c1ccc(-c2c3nc(c(-c4c(F)c(F)c(F)c(F)c4F)c4ccc([nH]4)c(-c4c(F)c(F)c(F)c(F)c4F)c4nc(c(-c5c(F)c(F)c(F)c(F)c5F)c5ccc2[nH]5)C=C4)C=C3)cc1
REMARK SMILES IDX 18 1 17 2 15 3 16 4 2 6 1 7 3 8 4 9 5 11 6 12 7 13 8 14 9 15
REMARK SMILES IDX 10 17 11 18 12 19 13 20 14 21 19 22 20 23 21 24 22 25 23 27
REMARK SMILES IDX 24 28 25 29 86 30 26 31 85 32 27 33 28 34 29 35 79 36 30 37
REMARK SMILES IDX 84 38 78 39 80 40 31 41 83 42 77 43 76 44 32 46 64 47 44 48
REMARK SMILES IDX 63 49 45 50 48 51 62 52 81 53 46 54 47 55 61 57 82 58 49 59
REMARK SMILES IDX 33 60 34 61 42 62 35 63 36 64 40 65 43 66 37 67 38 68 41 69
REMARK SMILES IDX 39 70 65 71 66 72 74 73 67 74 68 75 72 76 75 77 69 78 70 79
REMARK SMILES IDX 73 80 71 81 50 82 51 83 59 84 52 85 53 86 57 87 60 88 54 89
REMARK SMILES IDX 55 90 58 91 56 92
REMARK H PARENT 17 5 3 10 8 16 21 26 80 45 48 56
REMARK Flexibility Score: inf
ROOT
ATOM      1  C   UNL A   1      32.224  30.548  26.322  1.00  0.00     0.117 C 
ENDROOT
BRANCH   1   2
ATOM      2  N   UNL A   1      31.774  29.536  27.266  1.00  0.00    -0.354 N 
ATOM      3  C   UNL A   1      31.877  28.178  27.223  1.00  0.00     0.242 C 
ATOM      4  O   UNL A   1      31.499  27.554  28.217  1.00  0.00    -0.273 OA
ATOM      5  H   UNL A   1      31.322  29.890  28.066  1.00  0.00     0.163 HD
BRANCH   3   6
ATOM      6  C   UNL A   1      32.237  27.432  25.929  1.00  0.00     0.168 C 
ATOM      7  C   UNL A   1      33.603  26.775  26.180  1.00  0.00     0.041 C 
BRANCH   6   8
ATOM      8  N   UNL A   1      31.306  26.427  25.422  1.00  0.00    -0.343 N 
ATOM      9  C   UNL A   1      30.541  26.358  24.299  1.00  0.00     0.242 C 
ATOM     10  H   UNL A   1      31.213  25.644  26.010  1.00  0.00     0.164 HD
ATOM     11  O   UNL A   1      30.087  25.235  24.044  1.00  0.00    -0.273 OA
BRANCH   9  12
ATOM     12  C   UNL A   1      30.040  27.578  23.486  1.00  0.00     0.168 C 
ATOM     13  C   UNL A   1      30.674  27.566  22.105  1.00  0.00     0.041 C 
BRANCH  12  14
ATOM     14  N   UNL A   1      28.605  27.787  23.403  1.00  0.00    -0.344 N 
ATOM     15  C   UNL A   1      27.893  28.925  23.153  1.00  0.00     0.226 C 
ATOM     16  H   UNL A   1      28.060  26.981  23.549  1.00  0.00     0.164 HD
ATOM     17  O   UNL A   1      26.667  28.778  23.120  1.00  0.00    -0.275 OA
BRANCH  15  18
ATOM     18  C   UNL A   1      28.533  30.332  22.939  1.00  0.00     0.041 C 
ATOM     19  C   UNL A   1      29.793  30.533  23.794  1.00  0.00     0.021 C 
ATOM     20  C   UNL A   1      28.830  30.645  21.466  1.00  0.00     0.021 C 
ATOM     21  C   UNL A   1      27.503  31.394  23.404  1.00  0.00     0.021 C 
ENDBRANCH  15  18
ENDBRANCH  12  14
ENDBRANCH   9  12
ENDBRANCH   6   8
ENDBRANCH   3   6
ENDBRANCH   1   2
BRANCH   1  22
ATOM     22  C   UNL A   1      31.793  31.951  26.743  1.00  0.00     0.042 C 
BRANCH  22  23
ATOM     23  C   UNL A   1      32.901  32.815  27.344  1.00  0.00     0.118 C 
BRANCH  23  24
ATOM     24  N   UNL A   1      32.484  34.148  27.751  1.00  0.00    -0.352 N 
ATOM     25  C   UNL A   1      33.043  35.027  28.652  1.00  0.00     0.251 C 
ATOM     26  H   UNL A   1      31.668  34.477  27.310  1.00  0.00     0.163 HD
ATOM     27  O   UNL A   1      32.522  36.115  28.855  1.00  0.00    -0.269 OA
BRANCH  25  28
ATOM     28  C   UNL A   1      34.227  34.621  29.439  1.00  0.00     0.039 A 
ATOM     29  C   UNL A   1      34.022  34.021  30.683  1.00  0.00     0.014 A 
ATOM     30  C   UNL A   1      35.519  34.754  28.930  1.00  0.00     0.014 A 
ATOM     31  C   UNL A   1      35.097  33.434  31.352  1.00  0.00     0.010 A 
ATOM     32  C   UNL A   1      36.568  34.073  29.542  1.00  0.00     0.010 A 
ATOM     33  C   UNL A   1      36.365  33.389  30.749  1.00  0.00    -0.014 A 
BRANCH  33  34
ATOM     34  C   UNL A   1      37.475  32.601  31.348  1.00  0.00     0.031 A 
ATOM     35  C   UNL A   1      37.994  32.937  32.718  1.00  0.00     0.074 A 
ATOM     36  C   UNL A   1      38.075  31.638  30.619  1.00  0.00     0.049 A 
ATOM     37  N   UNL A   1      39.008  32.424  33.368  1.00  0.00    -0.248 NA
ATOM     38  C   UNL A   1      37.306  34.020  33.439  1.00  0.00     0.031 C 
ATOM     39  C   UNL A   1      37.718  31.263  29.249  1.00  0.00     0.029 A 
ATOM     40  N   UNL A   1      39.120  30.800  30.926  1.00  0.00    -0.354 N 
ATOM     41  C   UNL A   1      39.094  33.137  34.557  1.00  0.00     0.074 A 
ATOM     42  C   UNL A   1      38.067  34.155  34.514  1.00  0.00     0.031 C 
ATOM     43  C   UNL A   1      38.503  30.250  28.848  1.00  0.00     0.029 A 
ATOM     44  C   UNL A   1      39.445  29.929  29.914  1.00  0.00     0.049 A 
ATOM     45  H   UNL A   1      39.591  30.823  31.790  1.00  0.00     0.167 HD
ATOM     46  C   UNL A   1      39.934  32.942  35.601  1.00  0.00     0.037 A 
ATOM     47  C   UNL A   1      40.398  28.979  29.853  1.00  0.00     0.037 A 
ATOM     48  C   UNL A   1      40.922  31.898  35.662  1.00  0.00     0.049 A 
ATOM     49  C   UNL A   1      41.293  28.759  31.040  1.00  0.00     0.074 A 
ATOM     50  C   UNL A   1      41.769  31.571  36.707  1.00  0.00     0.029 A 
ATOM     51  N   UNL A   1      41.192  31.008  34.634  1.00  0.00    -0.354 N 
ATOM     52  N   UNL A   1      41.315  29.392  32.188  1.00  0.00    -0.248 NA
ATOM     53  C   UNL A   1      42.292  27.687  30.927  1.00  0.00     0.031 C 
ATOM     54  C   UNL A   1      42.574  30.504  36.298  1.00  0.00     0.029 A 
ATOM     55  C   UNL A   1      42.203  30.140  35.014  1.00  0.00     0.049 A 
ATOM     56  H   UNL A   1      40.735  30.995  33.762  1.00  0.00     0.167 HD
ATOM     57  C   UNL A   1      42.307  28.782  32.941  1.00  0.00     0.074 A 
ATOM     58  C   UNL A   1      42.856  27.717  32.127  1.00  0.00     0.031 C 
ATOM     59  C   UNL A   1      42.729  29.079  34.194  1.00  0.00     0.037 A 
BRANCH  46  60
ATOM     60  C   UNL A   1      39.807  33.872  36.773  1.00  0.00     0.064 A 
ATOM     61  C   UNL A   1      40.484  35.100  36.812  1.00  0.00     0.173 A 
ATOM     62  C   UNL A   1      38.980  33.543  37.856  1.00  0.00     0.173 A 
ATOM     63  F   UNL A   1      41.298  35.455  35.805  1.00  0.00    -0.203 F 
ATOM     64  C   UNL A   1      40.363  35.951  37.907  1.00  0.00     0.198 A 
ATOM     65  C   UNL A   1      38.837  34.411  38.936  1.00  0.00     0.198 A 
ATOM     66  F   UNL A   1      38.306  32.384  37.867  1.00  0.00    -0.203 F 
ATOM     67  F   UNL A   1      41.061  37.095  37.944  1.00  0.00    -0.200 F 
ATOM     68  C   UNL A   1      39.534  35.609  38.965  1.00  0.00     0.200 A 
ATOM     69  F   UNL A   1      38.027  34.085  39.954  1.00  0.00    -0.200 F 
ATOM     70  F   UNL A   1      39.415  36.431  40.017  1.00  0.00    -0.200 F 
ENDBRANCH  46  60
BRANCH  47  71
ATOM     71  C   UNL A   1      40.529  28.136  28.636  1.00  0.00     0.064 A 
ATOM     72  C   UNL A   1      39.860  26.908  28.539  1.00  0.00     0.173 A 
ATOM     73  C   UNL A   1      41.323  28.535  27.551  1.00  0.00     0.173 A 
ATOM     74  F   UNL A   1      39.105  26.475  29.560  1.00  0.00    -0.203 F 
ATOM     75  C   UNL A   1      39.996  26.100  27.413  1.00  0.00     0.198 A 
ATOM     76  C   UNL A   1      41.437  27.738  26.413  1.00  0.00     0.198 A 
ATOM     77  F   UNL A   1      41.978  29.704  27.590  1.00  0.00    -0.203 F 
ATOM     78  F   UNL A   1      39.381  24.911  27.364  1.00  0.00    -0.200 F 
ATOM     79  C   UNL A   1      40.781  26.518  26.348  1.00  0.00     0.200 A 
ATOM     80  F   UNL A   1      42.184  28.151  25.380  1.00  0.00    -0.200 F 
ATOM     81  F   UNL A   1      40.908  25.743  25.262  1.00  0.00    -0.200 F 
ENDBRANCH  47  71
BRANCH  59  82
ATOM     82  C   UNL A   1      43.812  28.219  34.776  1.00  0.00     0.064 A 
ATOM     83  C   UNL A   1      43.518  27.033  35.464  1.00  0.00     0.173 A 
ATOM     84  C   UNL A   1      45.160  28.566  34.605  1.00  0.00     0.173 A 
ATOM     85  F   UNL A   1      42.243  26.668  35.666  1.00  0.00    -0.203 F 
ATOM     86  C   UNL A   1      44.536  26.237  35.981  1.00  0.00     0.198 A 
ATOM     87  C   UNL A   1      46.176  27.753  35.101  1.00  0.00     0.198 A 
ATOM     88  F   UNL A   1      45.492  29.689  33.951  1.00  0.00    -0.203 F 
ATOM     89  F   UNL A   1      44.232  25.130  36.673  1.00  0.00    -0.200 F 
ATOM     90  C   UNL A   1      45.863  26.594  35.794  1.00  0.00     0.200 A 
ATOM     91  F   UNL A   1      47.458  28.094  34.909  1.00  0.00    -0.200 F 
ATOM     92  F   UNL A   1      46.842  25.822  36.286  1.00  0.00    -0.200 F 
ENDBRANCH  59  82
ENDBRANCH  33  34
ENDBRANCH  25  28
ENDBRANCH  23  24
ENDBRANCH  22  23
ENDBRANCH   1  22
TORSDOF 14
ENDMDL
MODEL 3
REMARK VINA RESULT:     -11.9      5.024      8.405
REMARK SMILES C[C@@H](NC(=O)[C@@H](C)NC(=O)C(C)(C)C)C(=O)NCCCNC(=O)c1ccc(-c2c3nc(c(-c4c(F)c(F)c(F)c(F)c4F)c4ccc([nH]4)c(-c4c(F)c(F)c(F)c(F)c4F)c4nc(c(-c5c(F)c(F)c(F)c(F)c5F)c5ccc2[nH]5)C=C4)C=C3)cc1
REMARK SMILES IDX 18 1 17 2 15 3 16 4 2 6 1 7 3 8 4 9 5 11 6 12 7 13 8 14 9 15
REMARK SMILES IDX 10 17 11 18 12 19 13 20 14 21 19 22 20 23 21 24 22 25 23 27
REMARK SMILES IDX 24 28 25 29 86 30 26 31 85 32 27 33 28 34 29 35 79 36 30 37
REMARK SMILES IDX 84 38 78 39 80 40 31 41 83 42 77 43 76 44 32 46 64 47 44 48
REMARK SMILES IDX 63 49 45 50 48 51 62 52 81 53 46 54 47 55 61 57 82 58 49 59
REMARK SMILES IDX 33 60 34 61 42 62 35 63 36 64 40 65 43 66 37 67 38 68 41 69
REMARK SMILES IDX 39 70 65 71 66 72 74 73 67 74 68 75 72 76 75 77 69 78 70 79
REMARK SMILES IDX 73 80 71 81 50 82 51 83 59 84 52 85 53 86 57 87 60 88 54 89
REMARK SMILES IDX 55 90 58 91 56 92
REMARK H PARENT 17 5 3 10 8 16 21 26 80 45 48 56
REMARK Flexibility Score: inf
ROOT
ATOM      1  C   UNL A   1      36.857  21.916  25.027  1.00  0.00     0.117 C 
ENDROOT
BRANCH   1   2
ATOM      2  N   UNL A   1      36.144  21.991  26.293  1.00  0.00    -0.354 N 
ATOM      3  C   UNL A   1      34.864  21.648  26.608  1.00  0.00     0.242 C 
ATOM      4  O   UNL A   1      34.540  21.716  27.796  1.00  0.00    -0.273 OA
ATOM      5  H   UNL A   1      36.672  22.347  27.044  1.00  0.00     0.163 HD
BRANCH   3   6
ATOM      6  C   UNL A   1      33.800  21.399  25.528  1.00  0.00     0.168 C 
ATOM      7  C   UNL A   1      34.097  20.007  24.949  1.00  0.00     0.041 C 
BRANCH   6   8
ATOM      8  N   UNL A   1      32.391  21.474  25.906  1.00  0.00    -0.343 N 
ATOM      9  C   UNL A   1      31.381  22.311  25.549  1.00  0.00     0.242 C 
ATOM     10  H   UNL A   1      32.119  20.779  26.548  1.00  0.00     0.164 HD
ATOM     11  O   UNL A   1      30.245  21.913  25.839  1.00  0.00    -0.273 OA
BRANCH   9  12
ATOM     12  C   UNL A   1      31.565  23.761  25.035  1.00  0.00     0.168 C 
ATOM     13  C   UNL A   1      30.815  23.937  23.724  1.00  0.00     0.041 C 
BRANCH  12  14
ATOM     14  N   UNL A   1      31.271  24.844  25.957  1.00  0.00    -0.344 N 
ATOM     15  C   UNL A   1      31.948  26.006  26.196  1.00  0.00     0.226 C 
ATOM     16  H   UNL A   1      30.455  24.721  26.494  1.00  0.00     0.164 HD
ATOM     17  O   UNL A   1      31.427  26.751  27.033  1.00  0.00    -0.275 OA
BRANCH  15  18
ATOM     18  C   UNL A   1      33.290  26.399  25.505  1.00  0.00     0.041 C 
ATOM     19  C   UNL A   1      34.348  25.290  25.619  1.00  0.00     0.021 C 
ATOM     20  C   UNL A   1      33.117  26.824  24.041  1.00  0.00     0.021 C 
ATOM     21  C   UNL A   1      33.858  27.635  26.248  1.00  0.00     0.021 C 
ENDBRANCH  15  18
ENDBRANCH  12  14
ENDBRANCH   9  12
ENDBRANCH   6   8
ENDBRANCH   3   6
ENDBRANCH   1   2
BRANCH   1  22
ATOM     22  C   UNL A   1      37.769  20.693  24.960  1.00  0.00     0.042 C 
BRANCH  22  23
ATOM     23  C   UNL A   1      39.015  20.767  25.843  1.00  0.00     0.118 C 
BRANCH  23  24
ATOM     24  N   UNL A   1      39.866  19.587  25.799  1.00  0.00    -0.352 N 
ATOM     25  C   UNL A   1      41.207  19.437  26.074  1.00  0.00     0.251 C 
ATOM     26  H   UNL A   1      39.407  18.759  25.529  1.00  0.00     0.163 HD
ATOM     27  O   UNL A   1      41.738  18.341  25.969  1.00  0.00    -0.269 OA
BRANCH  25  28
ATOM     28  C   UNL A   1      42.025  20.621  26.415  1.00  0.00     0.039 A 
ATOM     29  C   UNL A   1      42.533  21.397  25.371  1.00  0.00     0.014 A 
ATOM     30  C   UNL A   1      42.225  21.011  27.739  1.00  0.00     0.014 A 
ATOM     31  C   UNL A   1      43.123  22.630  25.652  1.00  0.00     0.010 A 
ATOM     32  C   UNL A   1      42.710  22.286  28.010  1.00  0.00     0.010 A 
ATOM     33  C   UNL A   1      43.146  23.119  26.969  1.00  0.00    -0.014 A 
BRANCH  33  34
ATOM     34  C   UNL A   1      43.586  24.508  27.267  1.00  0.00     0.031 A 
ATOM     35  C   UNL A   1      42.603  25.522  27.784  1.00  0.00     0.074 A 
ATOM     36  C   UNL A   1      44.852  24.880  26.989  1.00  0.00     0.049 A 
ATOM     37  N   UNL A   1      42.777  26.798  28.017  1.00  0.00    -0.248 NA
ATOM     38  C   UNL A   1      41.233  25.048  28.035  1.00  0.00     0.031 C 
ATOM     39  C   UNL A   1      45.884  24.013  26.415  1.00  0.00     0.029 A 
ATOM     40  N   UNL A   1      45.486  26.088  27.143  1.00  0.00    -0.354 N 
ATOM     41  C   UNL A   1      41.537  27.281  28.416  1.00  0.00     0.074 A 
ATOM     42  C   UNL A   1      40.607  26.175  28.338  1.00  0.00     0.031 C 
ATOM     43  C   UNL A   1      47.029  24.706  26.299  1.00  0.00     0.029 A 
ATOM     44  C   UNL A   1      46.804  26.074  26.752  1.00  0.00     0.049 A 
ATOM     45  H   UNL A   1      45.039  26.889  27.500  1.00  0.00     0.167 HD
ATOM     46  C   UNL A   1      41.209  28.526  28.835  1.00  0.00     0.037 A 
ATOM     47  C   UNL A   1      47.727  27.055  26.757  1.00  0.00     0.037 A 
ATOM     48  C   UNL A   1      42.144  29.612  28.957  1.00  0.00     0.049 A 
ATOM     49  C   UNL A   1      47.346  28.418  27.263  1.00  0.00     0.074 A 
ATOM     50  C   UNL A   1      41.926  30.889  29.445  1.00  0.00     0.029 A 
ATOM     51  N   UNL A   1      43.481  29.546  28.592  1.00  0.00    -0.354 N 
ATOM     52  N   UNL A   1      46.187  28.842  27.707  1.00  0.00    -0.248 NA
ATOM     53  C   UNL A   1      48.402  29.440  27.275  1.00  0.00     0.031 C 
ATOM     54  C   UNL A   1      43.122  31.606  29.344  1.00  0.00     0.029 A 
ATOM     55  C   UNL A   1      44.096  30.764  28.831  1.00  0.00     0.049 A 
ATOM     56  H   UNL A   1      43.926  28.753  28.217  1.00  0.00     0.167 HD
ATOM     57  C   UNL A   1      46.380  30.166  28.074  1.00  0.00     0.074 A 
ATOM     58  C   UNL A   1      47.772  30.474  27.815  1.00  0.00     0.031 C 
ATOM     59  C   UNL A   1      45.485  31.049  28.578  1.00  0.00     0.037 A 
BRANCH  46  60
ATOM     60  C   UNL A   1      39.776  28.774  29.209  1.00  0.00     0.064 A 
ATOM     61  C   UNL A   1      39.308  28.545  30.512  1.00  0.00     0.173 A 
ATOM     62  C   UNL A   1      38.868  29.271  28.263  1.00  0.00     0.173 A 
ATOM     63  F   UNL A   1      40.135  28.058  31.451  1.00  0.00    -0.203 F 
ATOM     64  C   UNL A   1      37.976  28.774  30.845  1.00  0.00     0.198 A 
ATOM     65  C   UNL A   1      37.544  29.527  28.608  1.00  0.00     0.198 A 
ATOM     66  F   UNL A   1      39.265  29.512  27.005  1.00  0.00    -0.203 F 
ATOM     67  F   UNL A   1      37.540  28.498  32.083  1.00  0.00    -0.200 F 
ATOM     68  C   UNL A   1      37.097  29.271  29.895  1.00  0.00     0.200 A 
ATOM     69  F   UNL A   1      36.697  30.019  27.692  1.00  0.00    -0.200 F 
ATOM     70  F   UNL A   1      35.815  29.495  30.219  1.00  0.00    -0.200 F 
ENDBRANCH  46  60
BRANCH  47  71
ATOM     71  C   UNL A   1      49.114  26.773  26.303  1.00  0.00     0.064 A 
ATOM     72  C   UNL A   1      49.492  26.998  24.972  1.00  0.00     0.173 A 
ATOM     73  C   UNL A   1      50.085  26.274  27.183  1.00  0.00     0.173 A 
ATOM     74  F   UNL A   1      48.591  27.456  24.089  1.00  0.00    -0.203 F 
ATOM     75  C   UNL A   1      50.782  26.714  24.532  1.00  0.00     0.198 A 
ATOM     76  C   UNL A   1      51.384  26.016  26.747  1.00  0.00     0.198 A 
ATOM     77  F   UNL A   1      49.776  26.049  28.468  1.00  0.00    -0.203 F 
ATOM     78  F   UNL A   1      51.105  26.897  23.245  1.00  0.00    -0.200 F 
ATOM     79  C   UNL A   1      51.729  26.228  25.422  1.00  0.00     0.200 A 
ATOM     80  F   UNL A   1      52.299  25.560  27.613  1.00  0.00    -0.200 F 
ATOM     81  F   UNL A   1      52.973  25.960  24.999  1.00  0.00    -0.200 F 
ENDBRANCH  47  71
BRANCH  59  82
ATOM     82  C   UNL A   1      45.989  32.421  28.915  1.00  0.00     0.064 A 
ATOM     83  C   UNL A   1      46.535  32.713  30.174  1.00  0.00     0.173 A 
ATOM     84  C   UNL A   1      45.963  33.442  27.954  1.00  0.00     0.173 A 
ATOM     85  F   UNL A   1      46.567  31.774  31.130  1.00  0.00    -0.203 F 
ATOM     86  C   UNL A   1      47.016  33.986  30.464  1.00  0.00     0.198 A 
ATOM     87  C   UNL A   1      46.470  34.707  28.240  1.00  0.00     0.198 A 
ATOM     88  F   UNL A   1      45.455  33.211  26.735  1.00  0.00    -0.203 F 
ATOM     89  F   UNL A   1      47.494  34.256  31.687  1.00  0.00    -0.200 F 
ATOM     90  C   UNL A   1      46.989  34.980  29.497  1.00  0.00     0.200 A 
ATOM     91  F   UNL A   1      46.453  35.662  27.301  1.00  0.00    -0.200 F 
ATOM     92  F   UNL A   1      47.459  36.203  29.777  1.00  0.00    -0.200 F 
ENDBRANCH  59  82
ENDBRANCH  33  34
ENDBRANCH  25  28
ENDBRANCH  23  24
ENDBRANCH  22  23
ENDBRANCH   1  22
TORSDOF 14
ENDMDL
