MODEL 1
REMARK VINA RESULT:     -12.0      0.000      0.000
REMARK SMILES CCc1ccc(O[C@H](C)C(=O)Oc2cccc(C(=O)NCCCNC(=O)c3ccc(-c4c5nc(c(-c6c(F)c(F)c(F)c(F)c6F)c6ccc([nH]6)c(-c6c(F)c(F)c(F)c(F)c6F)c6nc(c(-c7c(F)c(F)c(F)c(F)c7F)c7ccc4[nH]7)C=C6)C=C5)cc3)c2)cc1
REMARK SMILES IDX 18 1 19 2 20 3 17 5 13 6 14 7 90 8 15 9 16 10 12 11 10 12
REMARK SMILES IDX 11 13 8 14 9 15 7 16 6 17 3 18 4 19 92 20 5 21 91 22 2 23
REMARK SMILES IDX 1 24 21 25 22 26 23 27 24 28 25 29 26 31 27 32 28 33 89 34
REMARK SMILES IDX 29 35 88 36 30 37 31 38 32 39 82 40 33 41 87 42 81 43 83 44
REMARK SMILES IDX 34 45 86 46 80 47 79 48 35 50 67 51 47 52 66 53 48 54 51 55
REMARK SMILES IDX 65 56 84 57 49 58 50 59 64 61 85 62 52 63 36 64 37 65 45 66
REMARK SMILES IDX 38 67 39 68 43 69 46 70 40 71 41 72 44 73 42 74 68 75 69 76
REMARK SMILES IDX 77 77 70 78 71 79 75 80 78 81 72 82 73 83 76 84 74 85 53 86
REMARK SMILES IDX 54 87 62 88 55 89 56 90 60 91 63 92 57 93 58 94 61 95 59 96
REMARK H PARENT 20 4 24 30 83 49 51 60
REMARK Flexibility Score: inf
ROOT
ATOM      1  C   UNL A   1      37.088  23.064  25.262  1.00  0.00     0.251 C 
ATOM      2  O   UNL A   1      37.675  24.055  25.696  1.00  0.00    -0.269 OA
ATOM      3  N   UNL A   1      37.783  21.876  25.180  1.00  0.00    -0.352 N 
ATOM      4  H   UNL A   1      38.707  21.930  25.517  1.00  0.00     0.163 HD
ENDROOT
BRANCH   1   5
ATOM      5  C   UNL A   1      35.689  23.203  24.776  1.00  0.00     0.043 A 
ATOM      6  C   UNL A   1      33.334  22.822  25.098  1.00  0.00     0.131 A 
ATOM      7  C   UNL A   1      33.101  23.008  23.735  1.00  0.00     0.047 A 
ATOM      8  C   UNL A   1      34.596  23.061  25.626  1.00  0.00     0.061 A 
ATOM      9  C   UNL A   1      34.162  23.364  22.899  1.00  0.00     0.005 A 
ATOM     10  C   UNL A   1      35.463  23.419  23.411  1.00  0.00     0.014 A 
BRANCH   6  11
ATOM     11  O   UNL A   1      32.298  22.182  25.833  1.00  0.00    -0.424 OA
BRANCH  11  12
ATOM     12  C   UNL A   1      31.715  22.729  26.979  1.00  0.00     0.352 C 
ATOM     13  O   UNL A   1      32.198  22.690  28.108  1.00  0.00    -0.247 OA
BRANCH  12  14
ATOM     14  C   UNL A   1      30.367  23.403  26.681  1.00  0.00     0.279 C 
ATOM     15  C   UNL A   1      29.196  22.781  27.432  1.00  0.00     0.066 C 
BRANCH  14  16
ATOM     16  O   UNL A   1      30.344  24.821  26.559  1.00  0.00    -0.479 OA
BRANCH  16  17
ATOM     17  C   UNL A   1      31.098  25.525  25.676  1.00  0.00     0.120 A 
ATOM     18  C   UNL A   1      32.475  26.897  23.614  1.00  0.00    -0.048 A 
ATOM     19  C   UNL A   1      32.958  26.883  24.927  1.00  0.00     0.007 A 
ATOM     20  C   UNL A   1      31.281  26.217  23.348  1.00  0.00     0.007 A 
ATOM     21  C   UNL A   1      32.277  26.203  25.943  1.00  0.00     0.047 A 
ATOM     22  C   UNL A   1      30.606  25.536  24.367  1.00  0.00     0.047 A 
BRANCH  18  23
ATOM     23  C   UNL A   1      33.172  27.623  22.487  1.00  0.00     0.032 C 
ATOM     24  C   UNL A   1      34.142  28.728  22.894  1.00  0.00     0.009 C 
ENDBRANCH  18  23
ENDBRANCH  16  17
ENDBRANCH  14  16
ENDBRANCH  12  14
ENDBRANCH  11  12
ENDBRANCH   6  11
ENDBRANCH   1   5
BRANCH   3  25
ATOM     25  C   UNL A   1      37.411  20.553  24.688  1.00  0.00     0.118 C 
BRANCH  25  26
ATOM     26  C   UNL A   1      38.368  19.444  25.086  1.00  0.00     0.042 C 
BRANCH  26  27
ATOM     27  C   UNL A   1      39.506  19.884  25.986  1.00  0.00     0.118 C 
BRANCH  27  28
ATOM     28  N   UNL A   1      40.608  18.930  26.018  1.00  0.00    -0.352 N 
ATOM     29  C   UNL A   1      41.967  19.120  26.117  1.00  0.00     0.251 C 
ATOM     30  H   UNL A   1      40.332  17.987  25.961  1.00  0.00     0.163 HD
ATOM     31  O   UNL A   1      42.726  18.171  25.942  1.00  0.00    -0.269 OA
BRANCH  29  32
ATOM     32  C   UNL A   1      42.529  20.458  26.407  1.00  0.00     0.039 A 
ATOM     33  C   UNL A   1      42.995  21.243  25.348  1.00  0.00     0.014 A 
ATOM     34  C   UNL A   1      42.625  20.935  27.715  1.00  0.00     0.014 A 
ATOM     35  C   UNL A   1      43.477  22.531  25.597  1.00  0.00     0.010 A 
ATOM     36  C   UNL A   1      42.993  22.254  27.949  1.00  0.00     0.010 A 
ATOM     37  C   UNL A   1      43.436  23.064  26.895  1.00  0.00    -0.014 A 
BRANCH  37  38
ATOM     38  C   UNL A   1      43.864  24.457  27.182  1.00  0.00     0.031 A 
ATOM     39  C   UNL A   1      42.865  25.462  27.689  1.00  0.00     0.074 A 
ATOM     40  C   UNL A   1      45.129  24.836  26.916  1.00  0.00     0.049 A 
ATOM     41  N   UNL A   1      43.016  26.745  27.906  1.00  0.00    -0.248 NA
ATOM     42  C   UNL A   1      41.506  24.967  27.957  1.00  0.00     0.031 C 
ATOM     43  C   UNL A   1      46.177  23.968  26.378  1.00  0.00     0.029 A 
ATOM     44  N   UNL A   1      45.747  26.054  27.055  1.00  0.00    -0.354 N 
ATOM     45  C   UNL A   1      41.773  27.206  28.320  1.00  0.00     0.074 A 
ATOM     46  C   UNL A   1      40.862  26.084  28.256  1.00  0.00     0.031 C 
ATOM     47  C   UNL A   1      47.314  24.670  26.262  1.00  0.00     0.029 A 
ATOM     48  C   UNL A   1      47.067  26.048  26.673  1.00  0.00     0.049 A 
ATOM     49  H   UNL A   1      45.289  26.856  27.395  1.00  0.00     0.167 HD
ATOM     50  C   UNL A   1      41.427  28.445  28.744  1.00  0.00     0.037 A 
ATOM     51  C   UNL A   1      47.972  27.045  26.650  1.00  0.00     0.037 A 
ATOM     52  C   UNL A   1      42.343  29.552  28.825  1.00  0.00     0.049 A 
ATOM     53  C   UNL A   1      47.561  28.417  27.109  1.00  0.00     0.074 A 
ATOM     54  C   UNL A   1      42.105  30.837  29.280  1.00  0.00     0.029 A 
ATOM     55  N   UNL A   1      43.676  29.504  28.441  1.00  0.00    -0.354 N 
ATOM     56  N   UNL A   1      46.395  28.829  27.548  1.00  0.00    -0.248 NA
ATOM     57  C   UNL A   1      48.592  29.463  27.077  1.00  0.00     0.031 C 
ATOM     58  C   UNL A   1      43.281  31.579  29.125  1.00  0.00     0.029 A 
ATOM     59  C   UNL A   1      44.269  30.742  28.631  1.00  0.00     0.049 A 
ATOM     60  H   UNL A   1      44.132  28.707  28.085  1.00  0.00     0.167 HD
ATOM     61  C   UNL A   1      46.560  30.169  27.871  1.00  0.00     0.074 A 
ATOM     62  C   UNL A   1      47.943  30.497  27.593  1.00  0.00     0.031 C 
ATOM     63  C   UNL A   1      45.649  31.049  28.355  1.00  0.00     0.037 A 
BRANCH  50  64
ATOM     64  C   UNL A   1      40.002  28.662  29.165  1.00  0.00     0.064 A 
ATOM     65  C   UNL A   1      39.578  28.416  30.481  1.00  0.00     0.173 A 
ATOM     66  C   UNL A   1      39.054  29.152  28.254  1.00  0.00     0.173 A 
ATOM     67  F   UNL A   1      40.440  27.934  31.389  1.00  0.00    -0.203 F 
ATOM     68  C   UNL A   1      38.253  28.620  30.859  1.00  0.00     0.198 A 
ATOM     69  C   UNL A   1      37.738  29.388  28.645  1.00  0.00     0.198 A 
ATOM     70  F   UNL A   1      39.404  29.411  26.985  1.00  0.00    -0.203 F 
ATOM     71  F   UNL A   1      37.862  28.324  32.106  1.00  0.00    -0.200 F 
ATOM     72  C   UNL A   1      37.337  29.113  29.944  1.00  0.00     0.200 A 
ATOM     73  F   UNL A   1      36.856  29.880  27.763  1.00  0.00    -0.200 F 
ATOM     74  F   UNL A   1      36.065  29.318  30.311  1.00  0.00    -0.200 F 
ENDBRANCH  50  64
BRANCH  51  75
ATOM     75  C   UNL A   1      49.364  26.771  26.207  1.00  0.00     0.064 A 
ATOM     76  C   UNL A   1      49.749  26.982  24.874  1.00  0.00     0.173 A 
ATOM     77  C   UNL A   1      50.341  26.305  27.100  1.00  0.00     0.173 A 
ATOM     78  F   UNL A   1      48.846  27.409  23.978  1.00  0.00    -0.203 F 
ATOM     79  C   UNL A   1      51.049  26.720  24.449  1.00  0.00     0.198 A 
ATOM     80  C   UNL A   1      51.648  26.072  26.680  1.00  0.00     0.198 A 
ATOM     81  F   UNL A   1      50.028  26.093  28.387  1.00  0.00    -0.203 F 
ATOM     82  F   UNL A   1      51.376  26.888  23.161  1.00  0.00    -0.200 F 
ATOM     83  C   UNL A   1      51.999  26.271  25.354  1.00  0.00     0.200 A 
ATOM     84  F   UNL A   1      52.568  25.654  27.560  1.00  0.00    -0.200 F 
ATOM     85  F   UNL A   1      53.252  26.026  24.946  1.00  0.00    -0.200 F 
ENDBRANCH  51  75
BRANCH  63  86
ATOM     86  C   UNL A   1      46.126  32.441  28.654  1.00  0.00     0.064 A 
ATOM     87  C   UNL A   1      46.646  32.790  29.909  1.00  0.00     0.173 A 
ATOM     88  C   UNL A   1      46.102  33.427  27.656  1.00  0.00     0.173 A 
ATOM     89  F   UNL A   1      46.678  31.888  30.902  1.00  0.00    -0.203 F 
ATOM     90  C   UNL A   1      47.098  34.083  30.162  1.00  0.00     0.198 A 
ATOM     91  C   UNL A   1      46.586  34.708  27.901  1.00  0.00     0.198 A 
ATOM     92  F   UNL A   1      45.622  33.142  26.436  1.00  0.00    -0.203 F 
ATOM     93  F   UNL A   1      47.543  34.408  31.383  1.00  0.00    -0.200 F 
ATOM     94  C   UNL A   1      47.075  35.038  29.156  1.00  0.00     0.200 A 
ATOM     95  F   UNL A   1      46.579  35.624  26.923  1.00  0.00    -0.200 F 
ATOM     96  F   UNL A   1      47.520  36.278  29.398  1.00  0.00    -0.200 F 
ENDBRANCH  63  86
ENDBRANCH  37  38
ENDBRANCH  29  32
ENDBRANCH  27  28
ENDBRANCH  26  27
ENDBRANCH  25  26
ENDBRANCH   3  25
TORSDOF 16
ENDMDL
MODEL 2
REMARK VINA RESULT:     -12.0      0.897      7.310
REMARK SMILES CCc1ccc(O[C@H](C)C(=O)Oc2cccc(C(=O)NCCCNC(=O)c3ccc(-c4c5nc(c(-c6c(F)c(F)c(F)c(F)c6F)c6ccc([nH]6)c(-c6c(F)c(F)c(F)c(F)c6F)c6nc(c(-c7c(F)c(F)c(F)c(F)c7F)c7ccc4[nH]7)C=C6)C=C5)cc3)c2)cc1
REMARK SMILES IDX 18 1 19 2 20 3 17 5 13 6 14 7 90 8 15 9 16 10 12 11 10 12
REMARK SMILES IDX 11 13 8 14 9 15 7 16 6 17 3 18 4 19 92 20 5 21 91 22 2 23
REMARK SMILES IDX 1 24 21 25 22 26 23 27 24 28 25 29 26 31 27 32 28 33 89 34
REMARK SMILES IDX 29 35 88 36 30 37 31 38 32 39 82 40 33 41 87 42 81 43 83 44
REMARK SMILES IDX 34 45 86 46 80 47 79 48 35 50 67 51 47 52 66 53 48 54 51 55
REMARK SMILES IDX 65 56 84 57 49 58 50 59 64 61 85 62 52 63 36 64 37 65 45 66
REMARK SMILES IDX 38 67 39 68 43 69 46 70 40 71 41 72 44 73 42 74 68 75 69 76
REMARK SMILES IDX 77 77 70 78 71 79 75 80 78 81 72 82 73 83 76 84 74 85 53 86
REMARK SMILES IDX 54 87 62 88 55 89 56 90 60 91 63 92 57 93 58 94 61 95 59 96
REMARK H PARENT 20 4 24 30 83 49 51 60
REMARK Flexibility Score: inf
ROOT
ATOM      1  C   UNL A   1      37.192  23.090  25.447  1.00  0.00     0.251 C 
ATOM      2  O   UNL A   1      37.796  24.038  25.951  1.00  0.00    -0.269 OA
ATOM      3  N   UNL A   1      37.856  21.888  25.314  1.00  0.00    -0.352 N 
ATOM      4  H   UNL A   1      38.772  21.896  25.675  1.00  0.00     0.163 HD
ENDROOT
BRANCH   1   5
ATOM      5  C   UNL A   1      35.810  23.298  24.938  1.00  0.00     0.043 A 
ATOM      6  C   UNL A   1      33.441  22.947  25.169  1.00  0.00     0.131 A 
ATOM      7  C   UNL A   1      33.249  23.242  23.819  1.00  0.00     0.047 A 
ATOM      8  C   UNL A   1      34.692  23.115  25.746  1.00  0.00     0.061 A 
ATOM      9  C   UNL A   1      34.340  23.637  23.040  1.00  0.00     0.005 A 
ATOM     10  C   UNL A   1      35.627  23.623  23.588  1.00  0.00     0.014 A 
BRANCH   6  11
ATOM     11  O   UNL A   1      32.372  22.275  25.825  1.00  0.00    -0.424 OA
BRANCH  11  12
ATOM     12  C   UNL A   1      31.758  22.754  26.985  1.00  0.00     0.352 C 
ATOM     13  O   UNL A   1      32.221  22.670  28.119  1.00  0.00    -0.247 OA
BRANCH  12  14
ATOM     14  C   UNL A   1      30.402  23.416  26.695  1.00  0.00     0.279 C 
ATOM     15  C   UNL A   1      29.229  22.734  27.389  1.00  0.00     0.066 C 
BRANCH  14  16
ATOM     16  O   UNL A   1      30.351  24.838  26.644  1.00  0.00    -0.479 OA
BRANCH  16  17
ATOM     17  C   UNL A   1      31.136  25.603  25.842  1.00  0.00     0.120 A 
ATOM     18  C   UNL A   1      32.949  27.250  24.416  1.00  0.00    -0.048 A 
ATOM     19  C   UNL A   1      31.804  26.730  23.804  1.00  0.00     0.007 A 
ATOM     20  C   UNL A   1      33.180  26.926  25.758  1.00  0.00     0.007 A 
ATOM     21  C   UNL A   1      30.909  25.918  24.511  1.00  0.00     0.047 A 
ATOM     22  C   UNL A   1      32.280  26.116  26.461  1.00  0.00     0.047 A 
BRANCH  18  23
ATOM     23  C   UNL A   1      33.946  28.124  23.691  1.00  0.00     0.032 C 
ATOM     24  C   UNL A   1      33.864  28.121  22.168  1.00  0.00     0.009 C 
ENDBRANCH  18  23
ENDBRANCH  16  17
ENDBRANCH  14  16
ENDBRANCH  12  14
ENDBRANCH  11  12
ENDBRANCH   6  11
ENDBRANCH   1   5
BRANCH   3  25
ATOM     25  C   UNL A   1      37.459  20.607  24.738  1.00  0.00     0.118 C 
BRANCH  25  26
ATOM     26  C   UNL A   1      38.434  19.474  24.999  1.00  0.00     0.042 C 
BRANCH  26  27
ATOM     27  C   UNL A   1      39.471  19.765  26.067  1.00  0.00     0.118 C 
BRANCH  27  28
ATOM     28  N   UNL A   1      40.651  18.915  25.963  1.00  0.00    -0.352 N 
ATOM     29  C   UNL A   1      41.991  19.217  26.009  1.00  0.00     0.251 C 
ATOM     30  H   UNL A   1      40.453  17.958  25.840  1.00  0.00     0.163 HD
ATOM     31  O   UNL A   1      42.817  18.357  25.716  1.00  0.00    -0.269 OA
BRANCH  29  32
ATOM     32  C   UNL A   1      42.452  20.573  26.384  1.00  0.00     0.039 A 
ATOM     33  C   UNL A   1      42.969  21.412  25.393  1.00  0.00     0.014 A 
ATOM     34  C   UNL A   1      42.405  21.013  27.708  1.00  0.00     0.014 A 
ATOM     35  C   UNL A   1      43.357  22.715  25.718  1.00  0.00     0.010 A 
ATOM     36  C   UNL A   1      42.680  22.341  28.008  1.00  0.00     0.010 A 
ATOM     37  C   UNL A   1      43.171  23.205  27.021  1.00  0.00    -0.014 A 
BRANCH  37  38
ATOM     38  C   UNL A   1      43.497  24.609  27.381  1.00  0.00     0.031 A 
ATOM     39  C   UNL A   1      44.933  25.054  27.447  1.00  0.00     0.074 A 
ATOM     40  C   UNL A   1      42.510  25.459  27.721  1.00  0.00     0.049 A 
ATOM     41  N   UNL A   1      45.428  26.204  27.834  1.00  0.00    -0.248 NA
ATOM     42  C   UNL A   1      45.952  24.066  27.057  1.00  0.00     0.031 C 
ATOM     43  C   UNL A   1      41.083  25.133  27.743  1.00  0.00     0.029 A 
ATOM     44  N   UNL A   1      42.555  26.771  28.122  1.00  0.00    -0.354 N 
ATOM     45  C   UNL A   1      46.807  26.069  27.746  1.00  0.00     0.074 A 
ATOM     46  C   UNL A   1      47.076  24.707  27.338  1.00  0.00     0.031 C 
ATOM     47  C   UNL A   1      40.387  26.221  28.105  1.00  0.00     0.029 A 
ATOM     48  C   UNL A   1      41.319  27.309  28.386  1.00  0.00     0.049 A 
ATOM     49  H   UNL A   1      43.394  27.278  28.212  1.00  0.00     0.167 HD
ATOM     50  C   UNL A   1      47.765  27.003  27.956  1.00  0.00     0.037 A 
ATOM     51  C   UNL A   1      40.977  28.539  28.813  1.00  0.00     0.037 A 
ATOM     52  C   UNL A   1      47.492  28.363  28.341  1.00  0.00     0.049 A 
ATOM     53  C   UNL A   1      42.059  29.556  29.057  1.00  0.00     0.074 A 
ATOM     54  C   UNL A   1      48.387  29.399  28.539  1.00  0.00     0.029 A 
ATOM     55  N   UNL A   1      46.226  28.874  28.587  1.00  0.00    -0.354 N 
ATOM     56  N   UNL A   1      43.358  29.432  28.920  1.00  0.00    -0.248 NA
ATOM     57  C   UNL A   1      41.628  30.886  29.508  1.00  0.00     0.031 C 
ATOM     58  C   UNL A   1      47.665  30.525  28.952  1.00  0.00     0.029 A 
ATOM     59  C   UNL A   1      46.316  30.207  28.953  1.00  0.00     0.049 A 
ATOM     60  H   UNL A   1      45.387  28.364  28.513  1.00  0.00     0.167 HD
ATOM     61  C   UNL A   1      43.896  30.672  29.239  1.00  0.00     0.074 A 
ATOM     62  C   UNL A   1      42.781  31.539  29.559  1.00  0.00     0.031 C 
ATOM     63  C   UNL A   1      45.195  31.058  29.262  1.00  0.00     0.037 A 
BRANCH  50  64
ATOM     64  C   UNL A   1      49.196  26.588  27.761  1.00  0.00     0.064 A 
ATOM     65  C   UNL A   1      49.763  26.485  26.480  1.00  0.00     0.173 A 
ATOM     66  C   UNL A   1      50.019  26.320  28.863  1.00  0.00     0.173 A 
ATOM     67  F   UNL A   1      49.016  26.717  25.390  1.00  0.00    -0.203 F 
ATOM     68  C   UNL A   1      51.090  26.097  26.311  1.00  0.00     0.198 A 
ATOM     69  C   UNL A   1      51.356  25.967  28.692  1.00  0.00     0.198 A 
ATOM     70  F   UNL A   1      49.533  26.408  30.110  1.00  0.00    -0.203 F 
ATOM     71  F   UNL A   1      51.592  25.952  25.077  1.00  0.00    -0.200 F 
ATOM     72  C   UNL A   1      51.887  25.847  27.417  1.00  0.00     0.200 A 
ATOM     73  F   UNL A   1      52.131  25.740  29.763  1.00  0.00    -0.200 F 
ATOM     74  F   UNL A   1      53.166  25.483  27.254  1.00  0.00    -0.200 F 
ENDBRANCH  50  64
BRANCH  51  75
ATOM     75  C   UNL A   1      39.544  28.886  29.004  1.00  0.00     0.064 A 
ATOM     76  C   UNL A   1      38.933  28.748  30.259  1.00  0.00     0.173 A 
ATOM     77  C   UNL A   1      38.758  29.370  27.947  1.00  0.00     0.173 A 
ATOM     78  F   UNL A   1      39.637  28.272  31.296  1.00  0.00    -0.203 F 
ATOM     79  C   UNL A   1      37.589  29.062  30.445  1.00  0.00     0.198 A 
ATOM     80  C   UNL A   1      37.422  29.712  28.142  1.00  0.00     0.198 A 
ATOM     81  F   UNL A   1      39.295  29.527  26.728  1.00  0.00    -0.203 F 
ATOM     82  F   UNL A   1      37.020  28.878  31.643  1.00  0.00    -0.200 F 
ATOM     83  C   UNL A   1      36.836  29.550  29.387  1.00  0.00     0.200 A 
ATOM     84  F   UNL A   1      36.702  30.199  27.121  1.00  0.00    -0.200 F 
ATOM     85  F   UNL A   1      35.545  29.859  29.568  1.00  0.00    -0.200 F 
ENDBRANCH  51  75
BRANCH  63  86
ATOM     86  C   UNL A   1      45.483  32.490  29.608  1.00  0.00     0.064 A 
ATOM     87  C   UNL A   1      45.760  32.891  30.923  1.00  0.00     0.173 A 
ATOM     88  C   UNL A   1      45.524  33.467  28.601  1.00  0.00     0.173 A 
ATOM     89  F   UNL A   1      45.720  31.999  31.924  1.00  0.00    -0.203 F 
ATOM     90  C   UNL A   1      46.041  34.222  31.221  1.00  0.00     0.198 A 
ATOM     91  C   UNL A   1      45.839  34.790  28.897  1.00  0.00     0.198 A 
ATOM     92  F   UNL A   1      45.275  33.135  27.326  1.00  0.00    -0.203 F 
ATOM     93  F   UNL A   1      46.253  34.592  32.492  1.00  0.00    -0.200 F 
ATOM     94  C   UNL A   1      46.089  35.168  30.208  1.00  0.00     0.200 A 
ATOM     95  F   UNL A   1      45.901  35.698  27.915  1.00  0.00    -0.200 F 
ATOM     96  F   UNL A   1      46.368  36.446  30.496  1.00  0.00    -0.200 F 
ENDBRANCH  63  86
ENDBRANCH  37  38
ENDBRANCH  29  32
ENDBRANCH  27  28
ENDBRANCH  26  27
ENDBRANCH  25  26
ENDBRANCH   3  25
TORSDOF 16
ENDMDL
MODEL 3
REMARK VINA RESULT:     -11.8      0.453      7.296
REMARK SMILES CCc1ccc(O[C@H](C)C(=O)Oc2cccc(C(=O)NCCCNC(=O)c3ccc(-c4c5nc(c(-c6c(F)c(F)c(F)c(F)c6F)c6ccc([nH]6)c(-c6c(F)c(F)c(F)c(F)c6F)c6nc(c(-c7c(F)c(F)c(F)c(F)c7F)c7ccc4[nH]7)C=C6)C=C5)cc3)c2)cc1
REMARK SMILES IDX 18 1 19 2 20 3 17 5 13 6 14 7 90 8 15 9 16 10 12 11 10 12
REMARK SMILES IDX 11 13 8 14 9 15 7 16 6 17 3 18 4 19 92 20 5 21 91 22 2 23
REMARK SMILES IDX 1 24 21 25 22 26 23 27 24 28 25 29 26 31 27 32 28 33 89 34
REMARK SMILES IDX 29 35 88 36 30 37 31 38 32 39 82 40 33 41 87 42 81 43 83 44
REMARK SMILES IDX 34 45 86 46 80 47 79 48 35 50 67 51 47 52 66 53 48 54 51 55
REMARK SMILES IDX 65 56 84 57 49 58 50 59 64 61 85 62 52 63 36 64 37 65 45 66
REMARK SMILES IDX 38 67 39 68 43 69 46 70 40 71 41 72 44 73 42 74 68 75 69 76
REMARK SMILES IDX 77 77 70 78 71 79 75 80 78 81 72 82 73 83 76 84 74 85 53 86
REMARK SMILES IDX 54 87 62 88 55 89 56 90 60 91 63 92 57 93 58 94 61 95 59 96
REMARK H PARENT 20 4 24 30 83 49 51 60
REMARK Flexibility Score: inf
ROOT
ATOM      1  C   UNL A   1      37.204  22.970  25.280  1.00  0.00     0.251 C 
ATOM      2  O   UNL A   1      37.776  23.952  25.753  1.00  0.00    -0.269 OA
ATOM      3  N   UNL A   1      37.915  21.795  25.155  1.00  0.00    -0.352 N 
ATOM      4  H   UNL A   1      38.838  21.849  25.496  1.00  0.00     0.163 HD
ENDROOT
BRANCH   1   5
ATOM      5  C   UNL A   1      35.803  23.108  24.797  1.00  0.00     0.043 A 
ATOM      6  C   UNL A   1      33.450  22.727  25.125  1.00  0.00     0.131 A 
ATOM      7  C   UNL A   1      33.214  22.911  23.762  1.00  0.00     0.047 A 
ATOM      8  C   UNL A   1      34.712  22.966  25.649  1.00  0.00     0.061 A 
ATOM      9  C   UNL A   1      34.273  23.266  22.923  1.00  0.00     0.005 A 
ATOM     10  C   UNL A   1      35.575  23.322  23.432  1.00  0.00     0.014 A 
BRANCH   6  11
ATOM     11  O   UNL A   1      32.415  22.087  25.862  1.00  0.00    -0.424 OA
BRANCH  11  12
ATOM     12  C   UNL A   1      31.837  22.634  27.011  1.00  0.00     0.352 C 
ATOM     13  O   UNL A   1      32.298  22.548  28.146  1.00  0.00    -0.247 OA
BRANCH  12  14
ATOM     14  C   UNL A   1      30.526  23.374  26.706  1.00  0.00     0.279 C 
ATOM     15  C   UNL A   1      29.318  22.802  27.439  1.00  0.00     0.066 C 
BRANCH  14  16
ATOM     16  O   UNL A   1      30.571  24.793  26.598  1.00  0.00    -0.479 OA
BRANCH  16  17
ATOM     17  C   UNL A   1      31.357  25.467  25.719  1.00  0.00     0.120 A 
ATOM     18  C   UNL A   1      32.793  26.797  23.670  1.00  0.00    -0.048 A 
ATOM     19  C   UNL A   1      33.290  26.721  24.974  1.00  0.00     0.007 A 
ATOM     20  C   UNL A   1      31.554  26.201  23.405  1.00  0.00     0.007 A 
ATOM     21  C   UNL A   1      32.581  26.062  25.985  1.00  0.00     0.047 A 
ATOM     22  C   UNL A   1      30.850  25.540  24.419  1.00  0.00     0.047 A 
BRANCH  18  23
ATOM     23  C   UNL A   1      33.520  27.504  22.549  1.00  0.00     0.032 C 
ATOM     24  C   UNL A   1      34.011  28.916  22.849  1.00  0.00     0.009 C 
ENDBRANCH  18  23
ENDBRANCH  16  17
ENDBRANCH  14  16
ENDBRANCH  12  14
ENDBRANCH  11  12
ENDBRANCH   6  11
ENDBRANCH   1   5
BRANCH   3  25
ATOM     25  C   UNL A   1      37.562  20.487  24.612  1.00  0.00     0.118 C 
BRANCH  25  26
ATOM     26  C   UNL A   1      38.448  19.350  25.090  1.00  0.00     0.042 C 
BRANCH  26  27
ATOM     27  C   UNL A   1      39.525  19.760  26.075  1.00  0.00     0.118 C 
BRANCH  27  28
ATOM     28  N   UNL A   1      40.704  18.903  26.020  1.00  0.00    -0.352 N 
ATOM     29  C   UNL A   1      42.045  19.205  26.045  1.00  0.00     0.251 C 
ATOM     30  H   UNL A   1      40.504  17.941  25.954  1.00  0.00     0.163 HD
ATOM     31  O   UNL A   1      42.869  18.328  25.803  1.00  0.00    -0.269 OA
BRANCH  29  32
ATOM     32  C   UNL A   1      42.509  20.580  26.338  1.00  0.00     0.039 A 
ATOM     33  C   UNL A   1      42.877  21.412  25.276  1.00  0.00     0.014 A 
ATOM     34  C   UNL A   1      42.611  21.046  27.649  1.00  0.00     0.014 A 
ATOM     35  C   UNL A   1      43.264  22.731  25.528  1.00  0.00     0.010 A 
ATOM     36  C   UNL A   1      42.882  22.387  27.891  1.00  0.00     0.010 A 
ATOM     37  C   UNL A   1      43.224  23.243  26.836  1.00  0.00    -0.014 A 
BRANCH  37  38
ATOM     38  C   UNL A   1      43.551  24.662  27.129  1.00  0.00     0.031 A 
ATOM     39  C   UNL A   1      44.952  25.170  26.919  1.00  0.00     0.074 A 
ATOM     40  C   UNL A   1      42.611  25.470  27.654  1.00  0.00     0.049 A 
ATOM     41  N   UNL A   1      45.462  26.342  27.205  1.00  0.00    -0.248 NA
ATOM     42  C   UNL A   1      45.919  24.224  26.339  1.00  0.00     0.031 C 
ATOM     43  C   UNL A   1      41.231  25.083  27.949  1.00  0.00     0.029 A 
ATOM     44  N   UNL A   1      42.675  26.786  28.041  1.00  0.00    -0.354 N 
ATOM     45  C   UNL A   1      46.803  26.267  26.854  1.00  0.00     0.074 A 
ATOM     46  C   UNL A   1      47.047  24.915  26.400  1.00  0.00     0.031 C 
ATOM     47  C   UNL A   1      40.571  26.142  28.440  1.00  0.00     0.029 A 
ATOM     48  C   UNL A   1      41.490  27.271  28.538  1.00  0.00     0.049 A 
ATOM     49  H   UNL A   1      43.492  27.330  27.969  1.00  0.00     0.167 HD
ATOM     50  C   UNL A   1      47.741  27.243  26.878  1.00  0.00     0.037 A 
ATOM     51  C   UNL A   1      41.182  28.489  29.025  1.00  0.00     0.037 A 
ATOM     52  C   UNL A   1      47.487  28.592  27.310  1.00  0.00     0.049 A 
ATOM     53  C   UNL A   1      42.245  29.553  29.058  1.00  0.00     0.074 A 
ATOM     54  C   UNL A   1      48.356  29.668  27.335  1.00  0.00     0.029 A 
ATOM     55  N   UNL A   1      46.270  29.050  27.795  1.00  0.00    -0.354 N 
ATOM     56  N   UNL A   1      43.498  29.485  28.675  1.00  0.00    -0.248 NA
ATOM     57  C   UNL A   1      41.851  30.866  29.586  1.00  0.00     0.031 C 
ATOM     58  C   UNL A   1      47.679  30.764  27.881  1.00  0.00     0.029 A 
ATOM     59  C   UNL A   1      46.370  30.388  28.139  1.00  0.00     0.049 A 
ATOM     60  H   UNL A   1      45.456  28.503  27.883  1.00  0.00     0.167 HD
ATOM     61  C   UNL A   1      44.032  30.749  28.886  1.00  0.00     0.074 A 
ATOM     62  C   UNL A   1      42.962  31.569  29.416  1.00  0.00     0.031 C 
ATOM     63  C   UNL A   1      45.293  31.191  28.660  1.00  0.00     0.037 A 
BRANCH  50  64
ATOM     64  C   UNL A   1      49.124  26.889  26.411  1.00  0.00     0.064 A 
ATOM     65  C   UNL A   1      50.082  26.356  27.288  1.00  0.00     0.173 A 
ATOM     66  C   UNL A   1      49.490  27.054  25.067  1.00  0.00     0.173 A 
ATOM     67  F   UNL A   1      49.790  26.190  28.587  1.00  0.00    -0.203 F 
ATOM     68  C   UNL A   1      51.362  26.034  26.845  1.00  0.00     0.198 A 
ATOM     69  C   UNL A   1      50.760  26.697  24.619  1.00  0.00     0.198 A 
ATOM     70  F   UNL A   1      48.613  27.553  24.182  1.00  0.00    -0.203 F 
ATOM     71  F   UNL A   1      52.275  25.579  27.714  1.00  0.00    -0.200 F 
ATOM     72  C   UNL A   1      51.697  26.197  25.510  1.00  0.00     0.200 A 
ATOM     73  F   UNL A   1      51.078  26.841  23.325  1.00  0.00    -0.200 F 
ATOM     74  F   UNL A   1      52.926  25.877  25.082  1.00  0.00    -0.200 F 
ENDBRANCH  50  64
BRANCH  51  75
ATOM     75  C   UNL A   1      39.799  28.774  29.489  1.00  0.00     0.064 A 
ATOM     76  C   UNL A   1      39.425  28.542  30.820  1.00  0.00     0.173 A 
ATOM     77  C   UNL A   1      38.826  29.291  28.620  1.00  0.00     0.173 A 
ATOM     78  F   UNL A   1      40.315  28.029  31.684  1.00  0.00    -0.203 F 
ATOM     79  C   UNL A   1      38.129  28.797  31.260  1.00  0.00     0.198 A 
ATOM     80  C   UNL A   1      37.539  29.575  29.069  1.00  0.00     0.198 A 
ATOM     81  F   UNL A   1      39.132  29.538  27.338  1.00  0.00    -0.203 F 
ATOM     82  F   UNL A   1      37.788  28.524  32.527  1.00  0.00    -0.200 F 
ATOM     83  C   UNL A   1      37.188  29.320  30.386  1.00  0.00     0.200 A 
ATOM     84  F   UNL A   1      36.636  30.096  28.226  1.00  0.00    -0.200 F 
ATOM     85  F   UNL A   1      35.943  29.574  30.812  1.00  0.00    -0.200 F 
ENDBRANCH  51  75
BRANCH  63  86
ATOM     86  C   UNL A   1      45.579  32.637  28.947  1.00  0.00     0.064 A 
ATOM     87  C   UNL A   1      45.413  33.631  27.970  1.00  0.00     0.173 A 
ATOM     88  C   UNL A   1      45.981  33.038  30.230  1.00  0.00     0.173 A 
ATOM     89  F   UNL A   1      45.043  33.299  26.724  1.00  0.00    -0.203 F 
ATOM     90  C   UNL A   1      45.668  34.968  28.261  1.00  0.00     0.198 A 
ATOM     91  C   UNL A   1      46.202  34.379  30.527  1.00  0.00     0.198 A 
ATOM     92  F   UNL A   1      46.146  32.128  31.202  1.00  0.00    -0.203 F 
ATOM     93  F   UNL A   1      45.553  35.895  27.299  1.00  0.00    -0.200 F 
ATOM     94  C   UNL A   1      46.053  35.343  29.540  1.00  0.00     0.200 A 
ATOM     95  F   UNL A   1      46.557  34.740  31.767  1.00  0.00    -0.200 F 
ATOM     96  F   UNL A   1      46.289  36.631  29.820  1.00  0.00    -0.200 F 
ENDBRANCH  63  86
ENDBRANCH  37  38
ENDBRANCH  29  32
ENDBRANCH  27  28
ENDBRANCH  26  27
ENDBRANCH  25  26
ENDBRANCH   3  25
TORSDOF 16
ENDMDL
