MODEL 1
REMARK VINA RESULT:     -12.3      0.000      0.000
REMARK SMILES Cc1ccccc1[C@@H](C)NS(=O)(=O)CC(=O)NCCCNC(=O)c1ccc(-c2c3nc(c(-c4c(F)c(F)c(F)c(F)c4F)c4ccc([nH]4)c(-c4c(F)c(F)c(F)c(F)c4F)c4nc(c(-c5c(F)c(F)c(F)c(F)c5F)c5ccc2[nH]5)C=C4)C=C3)cc1
REMARK SMILES IDX 18 1 17 2 15 3 16 4 14 6 11 7 12 8 13 9 10 10 8 12 9 13 7 14
REMARK SMILES IDX 1 15 2 16 3 17 4 18 6 19 5 20 19 21 20 22 21 23 22 24 23 26
REMARK SMILES IDX 24 27 25 28 86 29 26 30 85 31 27 32 28 33 29 34 79 35 30 36
REMARK SMILES IDX 84 37 78 38 80 39 31 40 83 41 77 42 76 43 32 45 64 46 44 47
REMARK SMILES IDX 63 48 45 49 48 50 62 51 81 52 46 53 47 54 61 56 82 57 49 58
REMARK SMILES IDX 33 59 34 60 42 61 35 62 36 63 40 64 43 65 37 66 38 67 41 68
REMARK SMILES IDX 39 69 65 70 66 71 74 72 67 73 68 74 72 75 75 76 69 77 70 78
REMARK SMILES IDX 73 79 71 80 50 81 51 82 59 83 52 84 53 85 57 86 60 87 54 88
REMARK SMILES IDX 55 89 58 90 56 91
REMARK H PARENT 17 5 10 11 21 25 80 44 48 55
REMARK Flexibility Score: inf
ROOT
ATOM      1  C   UNL A   1      31.664  30.256  25.772  1.00  0.00     0.117 C 
ENDROOT
BRANCH   1   2
ATOM      2  N   UNL A   1      32.649  29.599  24.924  1.00  0.00    -0.355 N 
ATOM      3  C   UNL A   1      32.681  28.296  24.509  1.00  0.00     0.236 C 
ATOM      4  O   UNL A   1      33.716  27.889  23.977  1.00  0.00    -0.274 OA
ATOM      5  H   UNL A   1      33.389  30.167  24.608  1.00  0.00     0.163 HD
BRANCH   3   6
ATOM      6  C   UNL A   1      31.457  27.440  24.574  1.00  0.00     0.253 C 
BRANCH   6   7
ATOM      7  S   UNL A   1      31.413  26.317  25.947  1.00  0.00     0.221 S 
ATOM      8  O   UNL A   1      30.386  25.348  25.683  1.00  0.00    -0.212 OA
ATOM      9  O   UNL A   1      31.346  27.077  27.185  1.00  0.00    -0.212 OA
BRANCH   7  10
ATOM     10  N   UNL A   1      32.888  25.557  25.972  1.00  0.00    -0.208 NA
ATOM     11  H   UNL A   1      33.510  26.121  25.393  1.00  0.00     0.141 HD
BRANCH  10  12
ATOM     12  C   UNL A   1      33.055  24.167  25.523  1.00  0.00     0.096 C 
ATOM     13  C   UNL A   1      32.827  23.172  26.667  1.00  0.00     0.031 C 
BRANCH  12  14
ATOM     14  C   UNL A   1      34.449  23.922  24.941  1.00  0.00    -0.027 A 
ATOM     15  C   UNL A   1      33.571  23.094  22.659  1.00  0.00     0.044 C 
ATOM     16  C   UNL A   1      34.663  23.369  23.659  1.00  0.00    -0.046 A 
ATOM     17  C   UNL A   1      35.966  22.979  23.287  1.00  0.00     0.004 A 
ATOM     18  C   UNL A   1      37.053  23.175  24.135  1.00  0.00     0.000 A 
ATOM     19  C   UNL A   1      35.577  24.154  25.764  1.00  0.00     0.005 A 
ATOM     20  C   UNL A   1      36.862  23.783  25.367  1.00  0.00     0.000 A 
ENDBRANCH  12  14
ENDBRANCH  10  12
ENDBRANCH   7  10
ENDBRANCH   6   7
ENDBRANCH   3   6
ENDBRANCH   1   2
BRANCH   1  21
ATOM     21  C   UNL A   1      32.339  31.263  26.688  1.00  0.00     0.042 C 
BRANCH  21  22
ATOM     22  C   UNL A   1      33.342  30.661  27.646  1.00  0.00     0.118 C 
BRANCH  22  23
ATOM     23  N   UNL A   1      34.150  31.643  28.353  1.00  0.00    -0.352 N 
ATOM     24  C   UNL A   1      35.326  31.469  29.061  1.00  0.00     0.251 C 
ATOM     25  H   UNL A   1      33.810  32.567  28.323  1.00  0.00     0.163 HD
ATOM     26  O   UNL A   1      35.789  32.393  29.719  1.00  0.00    -0.269 OA
BRANCH  24  27
ATOM     27  C   UNL A   1      36.128  30.240  28.847  1.00  0.00     0.039 A 
ATOM     28  C   UNL A   1      36.446  29.510  30.000  1.00  0.00     0.014 A 
ATOM     29  C   UNL A   1      36.870  30.071  27.686  1.00  0.00     0.014 A 
ATOM     30  C   UNL A   1      37.684  28.897  30.086  1.00  0.00     0.010 A 
ATOM     31  C   UNL A   1      38.159  29.633  27.818  1.00  0.00     0.010 A 
ATOM     32  C   UNL A   1      38.574  29.103  29.040  1.00  0.00    -0.014 A 
BRANCH  32  33
ATOM     33  C   UNL A   1      39.965  28.723  29.070  1.00  0.00     0.031 A 
ATOM     34  C   UNL A   1      40.271  27.330  28.729  1.00  0.00     0.074 A 
ATOM     35  C   UNL A   1      40.893  29.688  29.228  1.00  0.00     0.049 A 
ATOM     36  N   UNL A   1      41.331  26.709  29.091  1.00  0.00    -0.248 NA
ATOM     37  C   UNL A   1      39.343  26.491  27.975  1.00  0.00     0.031 C 
ATOM     38  C   UNL A   1      42.331  29.607  29.007  1.00  0.00     0.029 A 
ATOM     39  N   UNL A   1      40.706  30.953  29.813  1.00  0.00    -0.354 N 
ATOM     40  C   UNL A   1      41.387  25.538  28.364  1.00  0.00     0.074 A 
ATOM     41  C   UNL A   1      40.075  25.391  27.791  1.00  0.00     0.031 C 
ATOM     42  C   UNL A   1      42.932  30.580  29.717  1.00  0.00     0.029 A 
ATOM     43  C   UNL A   1      41.901  31.218  30.520  1.00  0.00     0.049 A 
ATOM     44  H   UNL A   1      39.912  31.532  29.743  1.00  0.00     0.167 HD
ATOM     45  C   UNL A   1      42.605  24.947  28.208  1.00  0.00     0.037 A 
ATOM     46  C   UNL A   1      41.889  31.261  31.886  1.00  0.00     0.037 A 
ATOM     47  C   UNL A   1      43.605  25.684  28.983  1.00  0.00     0.049 A 
ATOM     48  C   UNL A   1      42.718  30.159  32.502  1.00  0.00     0.074 A 
ATOM     49  C   UNL A   1      44.503  26.677  28.627  1.00  0.00     0.029 A 
ATOM     50  N   UNL A   1      43.489  25.735  30.369  1.00  0.00    -0.354 N 
ATOM     51  N   UNL A   1      42.979  29.026  31.907  1.00  0.00    -0.248 NA
ATOM     52  C   UNL A   1      43.349  30.263  33.813  1.00  0.00     0.031 C 
ATOM     53  C   UNL A   1      44.875  27.372  29.807  1.00  0.00     0.029 A 
ATOM     54  C   UNL A   1      44.223  26.788  30.881  1.00  0.00     0.049 A 
ATOM     55  H   UNL A   1      42.956  25.109  30.910  1.00  0.00     0.167 HD
ATOM     56  C   UNL A   1      43.806  28.272  32.699  1.00  0.00     0.074 A 
ATOM     57  C   UNL A   1      44.009  29.093  33.879  1.00  0.00     0.031 C 
ATOM     58  C   UNL A   1      44.267  27.044  32.314  1.00  0.00     0.037 A 
BRANCH  45  59
ATOM     59  C   UNL A   1      42.963  23.934  27.139  1.00  0.00     0.064 A 
ATOM     60  C   UNL A   1      42.681  22.563  27.342  1.00  0.00     0.173 A 
ATOM     61  C   UNL A   1      43.623  24.213  25.925  1.00  0.00     0.173 A 
ATOM     62  F   UNL A   1      41.984  22.143  28.407  1.00  0.00    -0.203 F 
ATOM     63  C   UNL A   1      43.102  21.563  26.462  1.00  0.00     0.198 A 
ATOM     64  C   UNL A   1      44.074  23.210  25.059  1.00  0.00     0.198 A 
ATOM     65  F   UNL A   1      43.809  25.462  25.492  1.00  0.00    -0.203 F 
ATOM     66  F   UNL A   1      42.811  20.282  26.726  1.00  0.00    -0.200 F 
ATOM     67  C   UNL A   1      43.820  21.884  25.331  1.00  0.00     0.200 A 
ATOM     68  F   UNL A   1      44.753  23.546  23.952  1.00  0.00    -0.200 F 
ATOM     69  F   UNL A   1      44.242  20.925  24.496  1.00  0.00    -0.200 F 
ENDBRANCH  45  59
BRANCH  46  70
ATOM     70  C   UNL A   1      40.599  31.802  32.412  1.00  0.00     0.064 A 
ATOM     71  C   UNL A   1      39.704  30.875  32.988  1.00  0.00     0.173 A 
ATOM     72  C   UNL A   1      40.458  33.145  32.782  1.00  0.00     0.173 A 
ATOM     73  F   UNL A   1      39.780  29.576  32.652  1.00  0.00    -0.203 F 
ATOM     74  C   UNL A   1      38.848  31.241  34.024  1.00  0.00     0.198 A 
ATOM     75  C   UNL A   1      39.564  33.514  33.793  1.00  0.00     0.198 A 
ATOM     76  F   UNL A   1      41.268  34.080  32.267  1.00  0.00    -0.203 F 
ATOM     77  F   UNL A   1      38.140  30.301  34.668  1.00  0.00    -0.200 F 
ATOM     78  C   UNL A   1      38.806  32.555  34.451  1.00  0.00     0.200 A 
ATOM     79  F   UNL A   1      39.512  34.791  34.202  1.00  0.00    -0.200 F 
ATOM     80  F   UNL A   1      38.069  32.887  35.520  1.00  0.00    -0.200 F 
ENDBRANCH  46  70
BRANCH  58  81
ATOM     81  C   UNL A   1      44.904  26.002  33.211  1.00  0.00     0.064 A 
ATOM     82  C   UNL A   1      44.188  25.186  34.101  1.00  0.00     0.173 A 
ATOM     83  C   UNL A   1      46.283  25.686  33.085  1.00  0.00     0.173 A 
ATOM     84  F   UNL A   1      42.857  25.269  34.215  1.00  0.00    -0.203 F 
ATOM     85  C   UNL A   1      44.812  24.195  34.865  1.00  0.00     0.198 A 
ATOM     86  C   UNL A   1      46.883  24.643  33.787  1.00  0.00     0.198 A 
ATOM     87  F   UNL A   1      47.092  26.354  32.251  1.00  0.00    -0.203 F 
ATOM     88  F   UNL A   1      44.090  23.490  35.747  1.00  0.00    -0.200 F 
ATOM     89  C   UNL A   1      46.154  23.914  34.699  1.00  0.00     0.200 A 
ATOM     90  F   UNL A   1      48.169  24.340  33.556  1.00  0.00    -0.200 F 
ATOM     91  F   UNL A   1      46.735  22.930  35.396  1.00  0.00    -0.200 F 
ENDBRANCH  58  81
ENDBRANCH  32  33
ENDBRANCH  24  27
ENDBRANCH  22  23
ENDBRANCH  21  22
ENDBRANCH   1  21
TORSDOF 14
ENDMDL
MODEL 2
REMARK VINA RESULT:     -12.3      1.230      2.245
REMARK SMILES Cc1ccccc1[C@@H](C)NS(=O)(=O)CC(=O)NCCCNC(=O)c1ccc(-c2c3nc(c(-c4c(F)c(F)c(F)c(F)c4F)c4ccc([nH]4)c(-c4c(F)c(F)c(F)c(F)c4F)c4nc(c(-c5c(F)c(F)c(F)c(F)c5F)c5ccc2[nH]5)C=C4)C=C3)cc1
REMARK SMILES IDX 18 1 17 2 15 3 16 4 14 6 11 7 12 8 13 9 10 10 8 12 9 13 7 14
REMARK SMILES IDX 1 15 2 16 3 17 4 18 6 19 5 20 19 21 20 22 21 23 22 24 23 26
REMARK SMILES IDX 24 27 25 28 86 29 26 30 85 31 27 32 28 33 29 34 79 35 30 36
REMARK SMILES IDX 84 37 78 38 80 39 31 40 83 41 77 42 76 43 32 45 64 46 44 47
REMARK SMILES IDX 63 48 45 49 48 50 62 51 81 52 46 53 47 54 61 56 82 57 49 58
REMARK SMILES IDX 33 59 34 60 42 61 35 62 36 63 40 64 43 65 37 66 38 67 41 68
REMARK SMILES IDX 39 69 65 70 66 71 74 72 67 73 68 74 72 75 75 76 69 77 70 78
REMARK SMILES IDX 73 79 71 80 50 81 51 82 59 83 52 84 53 85 57 86 60 87 54 88
REMARK SMILES IDX 55 89 58 90 56 91
REMARK H PARENT 17 5 10 11 21 25 80 44 48 55
REMARK Flexibility Score: inf
ROOT
ATOM      1  C   UNL A   1      31.770  30.175  25.527  1.00  0.00     0.117 C 
ENDROOT
BRANCH   1   2
ATOM      2  N   UNL A   1      32.995  29.753  24.861  1.00  0.00    -0.355 N 
ATOM      3  C   UNL A   1      33.135  28.909  23.794  1.00  0.00     0.236 C 
ATOM      4  O   UNL A   1      34.270  28.511  23.523  1.00  0.00    -0.274 OA
ATOM      5  H   UNL A   1      33.831  30.123  25.227  1.00  0.00     0.163 HD
BRANCH   3   6
ATOM      6  C   UNL A   1      31.973  28.594  22.908  1.00  0.00     0.253 C 
BRANCH   6   7
ATOM      7  S   UNL A   1      31.367  26.932  23.047  1.00  0.00     0.221 S 
ATOM      8  O   UNL A   1      31.549  26.294  21.772  1.00  0.00    -0.212 OA
ATOM      9  O   UNL A   1      30.032  26.958  23.624  1.00  0.00    -0.212 OA
BRANCH   7  10
ATOM     10  N   UNL A   1      32.324  26.182  24.175  1.00  0.00    -0.208 NA
ATOM     11  H   UNL A   1      32.770  25.399  23.697  1.00  0.00     0.141 HD
BRANCH  10  12
ATOM     12  C   UNL A   1      31.774  25.641  25.427  1.00  0.00     0.096 C 
ATOM     13  C   UNL A   1      31.738  26.701  26.533  1.00  0.00     0.031 C 
BRANCH  12  14
ATOM     14  C   UNL A   1      32.583  24.444  25.931  1.00  0.00    -0.027 A 
ATOM     15  C   UNL A   1      30.523  23.180  26.841  1.00  0.00     0.044 C 
ATOM     16  C   UNL A   1      32.004  23.363  26.634  1.00  0.00    -0.046 A 
ATOM     17  C   UNL A   1      32.844  22.412  27.246  1.00  0.00     0.004 A 
ATOM     18  C   UNL A   1      34.230  22.486  27.132  1.00  0.00     0.000 A 
ATOM     19  C   UNL A   1      33.991  24.469  25.789  1.00  0.00     0.005 A 
ATOM     20  C   UNL A   1      34.804  23.504  26.384  1.00  0.00     0.000 A 
ENDBRANCH  12  14
ENDBRANCH  10  12
ENDBRANCH   7  10
ENDBRANCH   6   7
ENDBRANCH   3   6
ENDBRANCH   1   2
BRANCH   1  21
ATOM     21  C   UNL A   1      32.094  30.929  26.806  1.00  0.00     0.042 C 
BRANCH  21  22
ATOM     22  C   UNL A   1      33.320  30.426  27.533  1.00  0.00     0.118 C 
BRANCH  22  23
ATOM     23  N   UNL A   1      34.131  31.478  28.127  1.00  0.00    -0.352 N 
ATOM     24  C   UNL A   1      35.314  31.380  28.837  1.00  0.00     0.251 C 
ATOM     25  H   UNL A   1      33.787  32.393  28.006  1.00  0.00     0.163 HD
ATOM     26  O   UNL A   1      35.780  32.369  29.393  1.00  0.00    -0.269 OA
BRANCH  24  27
ATOM     27  C   UNL A   1      36.120  30.139  28.743  1.00  0.00     0.039 A 
ATOM     28  C   UNL A   1      36.449  29.531  29.961  1.00  0.00     0.014 A 
ATOM     29  C   UNL A   1      36.853  29.856  27.599  1.00  0.00     0.014 A 
ATOM     30  C   UNL A   1      37.690  28.933  30.100  1.00  0.00     0.010 A 
ATOM     31  C   UNL A   1      38.145  29.437  27.765  1.00  0.00     0.010 A 
ATOM     32  C   UNL A   1      38.571  29.035  29.031  1.00  0.00    -0.014 A 
BRANCH  32  33
ATOM     33  C   UNL A   1      39.964  28.664  29.089  1.00  0.00     0.031 A 
ATOM     34  C   UNL A   1      40.291  27.286  28.709  1.00  0.00     0.074 A 
ATOM     35  C   UNL A   1      40.879  29.631  29.306  1.00  0.00     0.049 A 
ATOM     36  N   UNL A   1      41.345  26.661  29.081  1.00  0.00    -0.248 NA
ATOM     37  C   UNL A   1      39.393  26.467  27.901  1.00  0.00     0.031 C 
ATOM     38  C   UNL A   1      42.324  29.568  29.124  1.00  0.00     0.029 A 
ATOM     39  N   UNL A   1      40.665  30.873  29.928  1.00  0.00    -0.354 N 
ATOM     40  C   UNL A   1      41.432  25.516  28.316  1.00  0.00     0.074 A 
ATOM     41  C   UNL A   1      40.138  25.379  27.701  1.00  0.00     0.031 C 
ATOM     42  C   UNL A   1      42.895  30.520  29.885  1.00  0.00     0.029 A 
ATOM     43  C   UNL A   1      41.837  31.122  30.678  1.00  0.00     0.049 A 
ATOM     44  H   UNL A   1      39.868  31.448  29.855  1.00  0.00     0.167 HD
ATOM     45  C   UNL A   1      42.659  24.939  28.176  1.00  0.00     0.037 A 
ATOM     46  C   UNL A   1      41.785  31.119  32.044  1.00  0.00     0.037 A 
ATOM     47  C   UNL A   1      43.631  25.657  29.004  1.00  0.00     0.049 A 
ATOM     48  C   UNL A   1      42.605  30.002  32.646  1.00  0.00     0.074 A 
ATOM     49  C   UNL A   1      44.530  26.668  28.708  1.00  0.00     0.029 A 
ATOM     50  N   UNL A   1      43.474  25.660  30.387  1.00  0.00    -0.354 N 
ATOM     51  N   UNL A   1      42.892  28.892  32.020  1.00  0.00    -0.248 NA
ATOM     52  C   UNL A   1      43.197  30.066  33.977  1.00  0.00     0.031 C 
ATOM     53  C   UNL A   1      44.862  27.326  29.922  1.00  0.00     0.029 A 
ATOM     54  C   UNL A   1      44.185  26.700  30.955  1.00  0.00     0.049 A 
ATOM     55  H   UNL A   1      42.931  25.011  30.891  1.00  0.00     0.167 HD
ATOM     56  C   UNL A   1      43.702  28.118  32.810  1.00  0.00     0.074 A 
ATOM     57  C   UNL A   1      43.865  28.899  34.023  1.00  0.00     0.031 C 
ATOM     58  C   UNL A   1      44.185  26.907  32.397  1.00  0.00     0.037 A 
BRANCH  45  59
ATOM     59  C   UNL A   1      43.056  23.967  27.083  1.00  0.00     0.064 A 
ATOM     60  C   UNL A   1      42.735  22.595  27.209  1.00  0.00     0.173 A 
ATOM     61  C   UNL A   1      43.789  24.283  25.922  1.00  0.00     0.173 A 
ATOM     62  F   UNL A   1      41.971  22.145  28.213  1.00  0.00    -0.203 F 
ATOM     63  C   UNL A   1      43.185  21.625  26.309  1.00  0.00     0.198 A 
ATOM     64  C   UNL A   1      44.268  23.309  25.038  1.00  0.00     0.198 A 
ATOM     65  F   UNL A   1      44.024  25.545  25.556  1.00  0.00    -0.203 F 
ATOM     66  F   UNL A   1      42.853  20.340  26.499  1.00  0.00    -0.200 F 
ATOM     67  C   UNL A   1      43.972  21.978  25.236  1.00  0.00     0.200 A 
ATOM     68  F   UNL A   1      45.015  23.678  23.987  1.00  0.00    -0.200 F 
ATOM     69  F   UNL A   1      44.420  21.048  24.383  1.00  0.00    -0.200 F 
ENDBRANCH  45  59
BRANCH  46  70
ATOM     70  C   UNL A   1      40.476  31.632  32.550  1.00  0.00     0.064 A 
ATOM     71  C   UNL A   1      40.144  32.965  32.226  1.00  0.00     0.173 A 
ATOM     72  C   UNL A   1      39.424  30.771  32.882  1.00  0.00     0.173 A 
ATOM     73  F   UNL A   1      41.115  33.842  31.922  1.00  0.00    -0.203 F 
ATOM     74  C   UNL A   1      38.819  33.360  32.051  1.00  0.00     0.198 A 
ATOM     75  C   UNL A   1      38.095  31.185  32.746  1.00  0.00     0.198 A 
ATOM     76  F   UNL A   1      39.669  29.494  33.208  1.00  0.00    -0.203 F 
ATOM     77  F   UNL A   1      38.545  34.582  31.571  1.00  0.00    -0.200 F 
ATOM     78  C   UNL A   1      37.796  32.457  32.275  1.00  0.00     0.200 A 
ATOM     79  F   UNL A   1      37.099  30.317  32.975  1.00  0.00    -0.200 F 
ATOM     80  F   UNL A   1      36.530  32.800  31.999  1.00  0.00    -0.200 F 
ENDBRANCH  46  70
BRANCH  58  81
ATOM     81  C   UNL A   1      44.805  25.840  33.276  1.00  0.00     0.064 A 
ATOM     82  C   UNL A   1      46.166  25.495  33.254  1.00  0.00     0.173 A 
ATOM     83  C   UNL A   1      44.047  25.221  34.305  1.00  0.00     0.173 A 
ATOM     84  F   UNL A   1      47.032  26.106  32.437  1.00  0.00    -0.203 F 
ATOM     85  C   UNL A   1      46.705  24.546  34.128  1.00  0.00     0.198 A 
ATOM     86  C   UNL A   1      44.606  24.338  35.226  1.00  0.00     0.198 A 
ATOM     87  F   UNL A   1      42.741  25.473  34.476  1.00  0.00    -0.203 F 
ATOM     88  F   UNL A   1      47.997  24.207  34.017  1.00  0.00    -0.200 F 
ATOM     89  C   UNL A   1      45.931  23.979  35.121  1.00  0.00     0.200 A 
ATOM     90  F   UNL A   1      43.855  23.857  36.227  1.00  0.00    -0.200 F 
ATOM     91  F   UNL A   1      46.466  23.110  35.988  1.00  0.00    -0.200 F 
ENDBRANCH  58  81
ENDBRANCH  32  33
ENDBRANCH  24  27
ENDBRANCH  22  23
ENDBRANCH  21  22
ENDBRANCH   1  21
TORSDOF 14
ENDMDL
MODEL 3
REMARK VINA RESULT:     -12.2      3.335      9.335
REMARK SMILES Cc1ccccc1[C@@H](C)NS(=O)(=O)CC(=O)NCCCNC(=O)c1ccc(-c2c3nc(c(-c4c(F)c(F)c(F)c(F)c4F)c4ccc([nH]4)c(-c4c(F)c(F)c(F)c(F)c4F)c4nc(c(-c5c(F)c(F)c(F)c(F)c5F)c5ccc2[nH]5)C=C4)C=C3)cc1
REMARK SMILES IDX 18 1 17 2 15 3 16 4 14 6 11 7 12 8 13 9 10 10 8 12 9 13 7 14
REMARK SMILES IDX 1 15 2 16 3 17 4 18 6 19 5 20 19 21 20 22 21 23 22 24 23 26
REMARK SMILES IDX 24 27 25 28 86 29 26 30 85 31 27 32 28 33 29 34 79 35 30 36
REMARK SMILES IDX 84 37 78 38 80 39 31 40 83 41 77 42 76 43 32 45 64 46 44 47
REMARK SMILES IDX 63 48 45 49 48 50 62 51 81 52 46 53 47 54 61 56 82 57 49 58
REMARK SMILES IDX 33 59 34 60 42 61 35 62 36 63 40 64 43 65 37 66 38 67 41 68
REMARK SMILES IDX 39 69 65 70 66 71 74 72 67 73 68 74 72 75 75 76 69 77 70 78
REMARK SMILES IDX 73 79 71 80 50 81 51 82 59 83 52 84 53 85 57 86 60 87 54 88
REMARK SMILES IDX 55 89 58 90 56 91
REMARK H PARENT 17 5 10 11 21 25 80 44 48 55
REMARK Flexibility Score: inf
ROOT
ATOM      1  C   UNL A   1      36.248  20.697  25.105  1.00  0.00     0.117 C 
ENDROOT
BRANCH   1   2
ATOM      2  N   UNL A   1      35.633  21.668  25.999  1.00  0.00    -0.355 N 
ATOM      3  C   UNL A   1      34.705  22.628  25.704  1.00  0.00     0.236 C 
ATOM      4  O   UNL A   1      34.479  23.489  26.557  1.00  0.00    -0.274 OA
ATOM      5  H   UNL A   1      35.925  21.630  26.939  1.00  0.00     0.163 HD
BRANCH   3   6
ATOM      6  C   UNL A   1      33.896  22.552  24.449  1.00  0.00     0.253 C 
BRANCH   6   7
ATOM      7  S   UNL A   1      34.415  23.662  23.167  1.00  0.00     0.221 S 
ATOM      8  O   UNL A   1      33.447  23.587  22.108  1.00  0.00    -0.212 OA
ATOM      9  O   UNL A   1      35.811  23.405  22.848  1.00  0.00    -0.212 OA
BRANCH   7  10
ATOM     10  N   UNL A   1      34.384  25.183  23.829  1.00  0.00    -0.208 NA
ATOM     11  H   UNL A   1      34.600  25.068  24.819  1.00  0.00     0.141 HD
BRANCH  10  12
ATOM     12  C   UNL A   1      33.187  26.036  23.765  1.00  0.00     0.096 C 
ATOM     13  C   UNL A   1      33.342  27.149  22.722  1.00  0.00     0.031 C 
BRANCH  12  14
ATOM     14  C   UNL A   1      32.876  26.680  25.117  1.00  0.00    -0.027 A 
ATOM     15  C   UNL A   1      30.420  25.888  25.156  1.00  0.00     0.044 C 
ATOM     16  C   UNL A   1      31.591  26.660  25.704  1.00  0.00    -0.046 A 
ATOM     17  C   UNL A   1      31.341  27.456  26.840  1.00  0.00     0.004 A 
ATOM     18  C   UNL A   1      32.346  28.220  27.427  1.00  0.00     0.000 A 
ATOM     19  C   UNL A   1      33.891  27.427  25.761  1.00  0.00     0.005 A 
ATOM     20  C   UNL A   1      33.629  28.190  26.899  1.00  0.00     0.000 A 
ENDBRANCH  12  14
ENDBRANCH  10  12
ENDBRANCH   7  10
ENDBRANCH   6   7
ENDBRANCH   3   6
ENDBRANCH   1   2
BRANCH   1  21
ATOM     21  C   UNL A   1      37.737  20.965  24.971  1.00  0.00     0.042 C 
BRANCH  21  22
ATOM     22  C   UNL A   1      38.200  22.252  25.615  1.00  0.00     0.118 C 
BRANCH  22  23
ATOM     23  N   UNL A   1      39.538  22.184  26.183  1.00  0.00    -0.352 N 
ATOM     24  C   UNL A   1      40.382  23.210  26.568  1.00  0.00     0.251 C 
ATOM     25  H   UNL A   1      39.895  21.275  26.310  1.00  0.00     0.163 HD
ATOM     26  O   UNL A   1      41.540  22.965  26.890  1.00  0.00    -0.269 OA
BRANCH  24  27
ATOM     27  C   UNL A   1      39.824  24.565  26.797  1.00  0.00     0.039 A 
ATOM     28  C   UNL A   1      40.506  25.619  26.175  1.00  0.00     0.014 A 
ATOM     29  C   UNL A   1      38.987  24.813  27.875  1.00  0.00     0.014 A 
ATOM     30  C   UNL A   1      40.619  26.830  26.838  1.00  0.00     0.010 A 
ATOM     31  C   UNL A   1      39.237  25.930  28.624  1.00  0.00     0.010 A 
ATOM     32  C   UNL A   1      40.100  26.905  28.124  1.00  0.00    -0.014 A 
BRANCH  32  33
ATOM     33  C   UNL A   1      40.323  28.008  29.026  1.00  0.00     0.031 A 
ATOM     34  C   UNL A   1      39.325  29.081  29.007  1.00  0.00     0.074 A 
ATOM     35  C   UNL A   1      41.311  27.904  29.939  1.00  0.00     0.049 A 
ATOM     36  N   UNL A   1      39.543  30.283  29.391  1.00  0.00    -0.248 NA
ATOM     37  C   UNL A   1      37.977  28.882  28.480  1.00  0.00     0.031 C 
ATOM     38  C   UNL A   1      41.544  28.729  31.118  1.00  0.00     0.029 A 
ATOM     39  N   UNL A   1      42.447  27.080  29.865  1.00  0.00    -0.354 N 
ATOM     40  C   UNL A   1      38.319  30.912  29.479  1.00  0.00     0.074 A 
ATOM     41  C   UNL A   1      37.403  30.048  28.782  1.00  0.00     0.031 C 
ATOM     42  C   UNL A   1      42.839  28.623  31.467  1.00  0.00     0.029 A 
ATOM     43  C   UNL A   1      43.495  27.838  30.435  1.00  0.00     0.049 A 
ATOM     44  H   UNL A   1      42.500  26.168  29.497  1.00  0.00     0.167 HD
ATOM     45  C   UNL A   1      38.223  32.003  30.291  1.00  0.00     0.037 A 
ATOM     46  C   UNL A   1      44.520  28.282  29.647  1.00  0.00     0.037 A 
ATOM     47  C   UNL A   1      39.547  32.326  30.827  1.00  0.00     0.049 A 
ATOM     48  C   UNL A   1      44.561  29.790  29.556  1.00  0.00     0.074 A 
ATOM     49  C   UNL A   1      40.164  32.003  32.024  1.00  0.00     0.029 A 
ATOM     50  N   UNL A   1      40.558  32.711  29.952  1.00  0.00    -0.354 N 
ATOM     51  N   UNL A   1      43.520  30.558  29.734  1.00  0.00    -0.248 NA
ATOM     52  C   UNL A   1      45.781  30.548  29.302  1.00  0.00     0.031 C 
ATOM     53  C   UNL A   1      41.566  32.132  31.841  1.00  0.00     0.029 A 
ATOM     54  C   UNL A   1      41.798  32.555  30.543  1.00  0.00     0.049 A 
ATOM     55  H   UNL A   1      40.412  33.046  29.039  1.00  0.00     0.167 HD
ATOM     56  C   UNL A   1      43.901  31.872  29.651  1.00  0.00     0.074 A 
ATOM     57  C   UNL A   1      45.326  31.811  29.382  1.00  0.00     0.031 C 
ATOM     58  C   UNL A   1      43.018  32.901  29.826  1.00  0.00     0.037 A 
BRANCH  45  59
ATOM     59  C   UNL A   1      36.936  32.572  30.855  1.00  0.00     0.064 A 
ATOM     60  C   UNL A   1      36.127  33.413  30.056  1.00  0.00     0.173 A 
ATOM     61  C   UNL A   1      36.457  32.389  32.167  1.00  0.00     0.173 A 
ATOM     62  F   UNL A   1      36.400  33.621  28.761  1.00  0.00    -0.203 F 
ATOM     63  C   UNL A   1      35.002  34.078  30.552  1.00  0.00     0.198 A 
ATOM     64  C   UNL A   1      35.350  33.080  32.675  1.00  0.00     0.198 A 
ATOM     65  F   UNL A   1      36.996  31.493  32.999  1.00  0.00    -0.203 F 
ATOM     66  F   UNL A   1      34.290  34.871  29.740  1.00  0.00    -0.200 F 
ATOM     67  C   UNL A   1      34.627  33.930  31.869  1.00  0.00     0.200 A 
ATOM     68  F   UNL A   1      34.989  32.904  33.955  1.00  0.00    -0.200 F 
ATOM     69  F   UNL A   1      33.560  34.581  32.351  1.00  0.00    -0.200 F 
ENDBRANCH  45  59
BRANCH  46  70
ATOM     70  C   UNL A   1      44.834  27.318  28.550  1.00  0.00     0.064 A 
ATOM     71  C   UNL A   1      45.226  26.017  28.934  1.00  0.00     0.173 A 
ATOM     72  C   UNL A   1      44.322  27.478  27.257  1.00  0.00     0.173 A 
ATOM     73  F   UNL A   1      45.745  25.809  30.156  1.00  0.00    -0.203 F 
ATOM     74  C   UNL A   1      44.935  24.909  28.142  1.00  0.00     0.198 A 
ATOM     75  C   UNL A   1      44.072  26.365  26.447  1.00  0.00     0.198 A 
ATOM     76  F   UNL A   1      43.938  28.687  26.823  1.00  0.00    -0.203 F 
ATOM     77  F   UNL A   1      45.160  23.673  28.614  1.00  0.00    -0.200 F 
ATOM     78  C   UNL A   1      44.324  25.081  26.913  1.00  0.00     0.200 A 
ATOM     79  F   UNL A   1      43.491  26.528  25.250  1.00  0.00    -0.200 F 
ATOM     80  F   UNL A   1      43.942  24.012  26.201  1.00  0.00    -0.200 F 
ENDBRANCH  46  70
BRANCH  58  81
ATOM     81  C   UNL A   1      43.243  34.352  29.449  1.00  0.00     0.064 A 
ATOM     82  C   UNL A   1      43.369  35.396  30.378  1.00  0.00     0.173 A 
ATOM     83  C   UNL A   1      43.496  34.716  28.100  1.00  0.00     0.173 A 
ATOM     84  F   UNL A   1      43.303  35.175  31.697  1.00  0.00    -0.203 F 
ATOM     85  C   UNL A   1      43.637  36.711  29.986  1.00  0.00     0.198 A 
ATOM     86  C   UNL A   1      43.844  36.011  27.723  1.00  0.00     0.198 A 
ATOM     87  F   UNL A   1      43.446  33.824  27.100  1.00  0.00    -0.203 F 
ATOM     88  F   UNL A   1      43.681  37.680  30.911  1.00  0.00    -0.200 F 
ATOM     89  C   UNL A   1      43.889  37.016  28.662  1.00  0.00     0.200 A 
ATOM     90  F   UNL A   1      44.157  36.270  26.444  1.00  0.00    -0.200 F 
ATOM     91  F   UNL A   1      44.196  38.267  28.299  1.00  0.00    -0.200 F 
ENDBRANCH  58  81
ENDBRANCH  32  33
ENDBRANCH  24  27
ENDBRANCH  22  23
ENDBRANCH  21  22
ENDBRANCH   1  21
TORSDOF 14
ENDMDL
