MODEL 1
REMARK VINA RESULT:     -12.8      0.000      0.000
REMARK SMILES CCc1cn(C[C@H](NC(=O)c2ccco2)C(=O)NCCCNC(=O)c2ccc(-c3c4nc(c(-c5c(F)c(F)c(F)c(F)c5F)c5ccc([nH]5)c(-c5c(F)c(F)c(F)c(F)c5F)c5nc(c(-c6c(F)c(F)c(F)c(F)c6F)c6ccc3[nH]6)C=C5)C=C4)cc2)c(=O)[nH]c1=O
REMARK SMILES IDX 19 1 18 2 16 3 17 4 7 6 6 7 5 8 3 9 4 10 91 11 90 12 92 13
REMARK SMILES IDX 88 14 89 16 2 17 1 18 8 19 9 20 10 22 11 23 12 24 15 25
REMARK SMILES IDX 13 26 14 27 20 28 21 29 22 30 23 31 24 33 25 34 26 35 87 36
REMARK SMILES IDX 27 37 86 38 28 39 29 40 30 41 80 42 31 43 85 44 79 45 81 46
REMARK SMILES IDX 32 47 84 48 78 49 77 50 33 52 65 53 45 54 64 55 46 56 49 57
REMARK SMILES IDX 63 58 82 59 47 60 48 61 62 63 83 64 50 65 34 66 35 67 43 68
REMARK SMILES IDX 36 69 37 70 41 71 44 72 38 73 39 74 42 75 40 76 66 77 67 78
REMARK SMILES IDX 75 79 68 80 69 81 73 82 76 83 70 84 71 85 74 86 72 87 51 88
REMARK SMILES IDX 52 89 60 90 53 91 54 92 58 93 61 94 55 95 56 96 59 97 57 98
REMARK H PARENT 18 5 90 15 8 21 22 32 81 51 49 62
REMARK Flexibility Score: inf
ROOT
ATOM      1  C   UNL A   1      32.147  30.335  26.782  1.00  0.00     0.117 C 
ENDROOT
BRANCH   1   2
ATOM      2  N   UNL A   1      33.113  29.991  25.756  1.00  0.00    -0.354 N 
ATOM      3  C   UNL A   1      33.135  28.972  24.851  1.00  0.00     0.244 C 
ATOM      4  O   UNL A   1      34.007  28.990  23.977  1.00  0.00    -0.273 OA
ATOM      5  H   UNL A   1      33.886  30.598  25.705  1.00  0.00     0.163 HD
BRANCH   3   6
ATOM      6  C   UNL A   1      32.080  27.867  24.866  1.00  0.00     0.191 C 
BRANCH   6   7
ATOM      7  C   UNL A   1      32.266  26.893  26.073  1.00  0.00     0.162 C 
BRANCH   7   8
ATOM      8  N   UNL A   1      31.980  25.459  25.873  1.00  0.00    -0.298 N 
ATOM      9  C   UNL A   1      32.831  23.230  25.932  1.00  0.00     0.033 A 
ATOM     10  C   UNL A   1      33.033  24.556  25.924  1.00  0.00     0.100 A 
ATOM     11  C   UNL A   1      31.468  22.731  25.627  1.00  0.00     0.256 A 
ATOM     12  N   UNL A   1      30.488  23.672  25.663  1.00  0.00    -0.274 N 
ATOM     13  O   UNL A   1      31.232  21.548  25.430  1.00  0.00    -0.269 OA
ATOM     14  C   UNL A   1      30.675  24.976  26.003  1.00  0.00     0.328 A 
ATOM     15  H   UNL A   1      29.575  23.390  25.426  1.00  0.00     0.175 HD
ATOM     16  O   UNL A   1      29.737  25.615  26.470  1.00  0.00    -0.248 OA
BRANCH   9  17
ATOM     17  C   UNL A   1      33.863  22.216  26.319  1.00  0.00     0.039 C 
ATOM     18  C   UNL A   1      33.907  22.086  27.841  1.00  0.00     0.009 C 
ENDBRANCH   9  17
ENDBRANCH   7   8
ENDBRANCH   6   7
BRANCH   6  19
ATOM     19  N   UNL A   1      32.081  27.130  23.581  1.00  0.00    -0.336 N 
ATOM     20  C   UNL A   1      31.096  27.075  22.614  1.00  0.00     0.287 C 
ATOM     21  H   UNL A   1      32.894  26.608  23.391  1.00  0.00     0.164 HD
ATOM     22  O   UNL A   1      31.175  26.147  21.808  1.00  0.00    -0.266 OA
BRANCH  20  23
ATOM     23  C   UNL A   1      30.077  28.097  22.542  1.00  0.00     0.191 A 
ATOM     24  C   UNL A   1      28.855  28.237  23.176  1.00  0.00     0.056 A 
ATOM     25  O   UNL A   1      30.328  29.229  21.810  1.00  0.00    -0.459 OA
ATOM     26  C   UNL A   1      28.305  29.470  22.761  1.00  0.00     0.043 A 
ATOM     27  C   UNL A   1      29.247  30.042  21.943  1.00  0.00     0.196 A 
ENDBRANCH  20  23
ENDBRANCH   6  19
ENDBRANCH   3   6
ENDBRANCH   1   2
BRANCH   1  28
ATOM     28  C   UNL A   1      31.812  31.813  26.787  1.00  0.00     0.042 C 
BRANCH  28  29
ATOM     29  C   UNL A   1      32.891  32.690  27.395  1.00  0.00     0.118 C 
BRANCH  29  30
ATOM     30  N   UNL A   1      32.454  34.042  27.709  1.00  0.00    -0.352 N 
ATOM     31  C   UNL A   1      33.000  34.937  28.600  1.00  0.00     0.251 C 
ATOM     32  H   UNL A   1      31.661  34.358  27.219  1.00  0.00     0.163 HD
ATOM     33  O   UNL A   1      32.480  36.030  28.791  1.00  0.00    -0.269 OA
BRANCH  31  34
ATOM     34  C   UNL A   1      34.188  34.530  29.379  1.00  0.00     0.039 A 
ATOM     35  C   UNL A   1      35.468  34.628  28.831  1.00  0.00     0.014 A 
ATOM     36  C   UNL A   1      33.993  33.939  30.628  1.00  0.00     0.014 A 
ATOM     37  C   UNL A   1      36.520  33.948  29.434  1.00  0.00     0.010 A 
ATOM     38  C   UNL A   1      35.073  33.343  31.280  1.00  0.00     0.010 A 
ATOM     39  C   UNL A   1      36.332  33.288  30.659  1.00  0.00    -0.014 A 
BRANCH  39  40
ATOM     40  C   UNL A   1      37.448  32.524  31.272  1.00  0.00     0.031 A 
ATOM     41  C   UNL A   1      37.927  32.848  32.662  1.00  0.00     0.074 A 
ATOM     42  C   UNL A   1      38.016  31.519  30.579  1.00  0.00     0.049 A 
ATOM     43  N   UNL A   1      38.940  32.347  33.324  1.00  0.00    -0.248 NA
ATOM     44  C   UNL A   1      37.175  33.872  33.406  1.00  0.00     0.031 C 
ATOM     45  C   UNL A   1      37.625  31.095  29.235  1.00  0.00     0.029 A 
ATOM     46  N   UNL A   1      39.038  30.667  30.914  1.00  0.00    -0.354 N 
ATOM     47  C   UNL A   1      38.966  33.014  34.542  1.00  0.00     0.074 A 
ATOM     48  C   UNL A   1      37.879  33.969  34.526  1.00  0.00     0.031 C 
ATOM     49  C   UNL A   1      38.369  30.041  28.873  1.00  0.00     0.029 A 
ATOM     50  C   UNL A   1      39.338  29.762  29.927  1.00  0.00     0.049 A 
ATOM     51  H   UNL A   1      39.509  30.701  31.778  1.00  0.00     0.167 HD
ATOM     52  C   UNL A   1      39.818  32.838  35.581  1.00  0.00     0.037 A 
ATOM     53  C   UNL A   1      40.305  28.829  29.864  1.00  0.00     0.037 A 
ATOM     54  C   UNL A   1      40.872  31.857  35.609  1.00  0.00     0.049 A 
ATOM     55  C   UNL A   1      41.257  28.678  31.015  1.00  0.00     0.074 A 
ATOM     56  C   UNL A   1      41.766  31.581  36.630  1.00  0.00     0.029 A 
ATOM     57  N   UNL A   1      41.168  30.985  34.572  1.00  0.00    -0.354 N 
ATOM     58  N   UNL A   1      41.283  29.327  32.153  1.00  0.00    -0.248 NA
ATOM     59  C   UNL A   1      42.321  27.678  30.866  1.00  0.00     0.031 C 
ATOM     60  C   UNL A   1      42.627  30.569  36.196  1.00  0.00     0.029 A 
ATOM     61  C   UNL A   1      42.243  30.183  34.923  1.00  0.00     0.049 A 
ATOM     62  H   UNL A   1      40.686  30.941  33.715  1.00  0.00     0.167 HD
ATOM     63  C   UNL A   1      42.358  28.810  32.860  1.00  0.00     0.074 A 
ATOM     64  C   UNL A   1      42.946  27.777  32.032  1.00  0.00     0.031 C 
ATOM     65  C   UNL A   1      42.819  29.164  34.084  1.00  0.00     0.037 A 
BRANCH  52  66
ATOM     66  C   UNL A   1      39.663  33.725  36.781  1.00  0.00     0.064 A 
ATOM     67  C   UNL A   1      40.244  35.000  36.834  1.00  0.00     0.173 A 
ATOM     68  C   UNL A   1      38.848  33.328  37.853  1.00  0.00     0.173 A 
ATOM     69  F   UNL A   1      41.039  35.421  35.840  1.00  0.00    -0.203 F 
ATOM     70  C   UNL A   1      40.022  35.841  37.922  1.00  0.00     0.198 A 
ATOM     71  C   UNL A   1      38.610  34.181  38.928  1.00  0.00     0.198 A 
ATOM     72  F   UNL A   1      38.263  32.121  37.848  1.00  0.00    -0.203 F 
ATOM     73  F   UNL A   1      40.609  37.046  37.965  1.00  0.00    -0.200 F 
ATOM     74  C   UNL A   1      39.199  35.436  38.962  1.00  0.00     0.200 A 
ATOM     75  F   UNL A   1      37.803  33.793  39.925  1.00  0.00    -0.200 F 
ATOM     76  F   UNL A   1      38.973  36.255  39.999  1.00  0.00    -0.200 F 
ENDBRANCH  52  66
BRANCH  53  77
ATOM     77  C   UNL A   1      40.420  27.981  28.651  1.00  0.00     0.064 A 
ATOM     78  C   UNL A   1      41.178  28.400  27.551  1.00  0.00     0.173 A 
ATOM     79  C   UNL A   1      39.806  26.721  28.583  1.00  0.00     0.173 A 
ATOM     80  F   UNL A   1      41.767  29.605  27.563  1.00  0.00    -0.203 F 
ATOM     81  C   UNL A   1      41.315  27.592  26.424  1.00  0.00     0.198 A 
ATOM     82  C   UNL A   1      39.967  25.903  27.469  1.00  0.00     0.198 A 
ATOM     83  F   UNL A   1      39.074  26.274  29.614  1.00  0.00    -0.203 F 
ATOM     84  F   UNL A   1      42.021  28.028  25.373  1.00  0.00    -0.200 F 
ATOM     85  C   UNL A   1      40.717  26.341  26.388  1.00  0.00     0.200 A 
ATOM     86  F   UNL A   1      39.403  24.688  27.445  1.00  0.00    -0.200 F 
ATOM     87  F   UNL A   1      40.863  25.559  25.310  1.00  0.00    -0.200 F 
ENDBRANCH  53  77
BRANCH  65  88
ATOM     88  C   UNL A   1      44.014  28.426  34.609  1.00  0.00     0.064 A 
ATOM     89  C   UNL A   1      45.313  28.919  34.425  1.00  0.00     0.173 A 
ATOM     90  C   UNL A   1      43.854  27.247  35.351  1.00  0.00     0.173 A 
ATOM     91  F   UNL A   1      45.516  30.035  33.709  1.00  0.00    -0.203 F 
ATOM     92  C   UNL A   1      46.413  28.250  34.954  1.00  0.00     0.198 A 
ATOM     93  C   UNL A   1      44.953  26.594  35.901  1.00  0.00     0.198 A 
ATOM     94  F   UNL A   1      42.630  26.739  35.560  1.00  0.00    -0.203 F 
ATOM     95  F   UNL A   1      47.649  28.720  34.738  1.00  0.00    -0.200 F 
ATOM     96  C   UNL A   1      46.231  27.093  35.699  1.00  0.00     0.200 A 
ATOM     97  F   UNL A   1      44.776  25.484  36.631  1.00  0.00    -0.200 F 
ATOM     98  F   UNL A   1      47.290  26.457  36.218  1.00  0.00    -0.200 F 
ENDBRANCH  65  88
ENDBRANCH  39  40
ENDBRANCH  31  34
ENDBRANCH  29  30
ENDBRANCH  28  29
ENDBRANCH   1  28
TORSDOF 15
ENDMDL
MODEL 2
REMARK VINA RESULT:     -12.7      0.348      7.278
REMARK SMILES CCc1cn(C[C@H](NC(=O)c2ccco2)C(=O)NCCCNC(=O)c2ccc(-c3c4nc(c(-c5c(F)c(F)c(F)c(F)c5F)c5ccc([nH]5)c(-c5c(F)c(F)c(F)c(F)c5F)c5nc(c(-c6c(F)c(F)c(F)c(F)c6F)c6ccc3[nH]6)C=C5)C=C4)cc2)c(=O)[nH]c1=O
REMARK SMILES IDX 19 1 18 2 16 3 17 4 7 6 6 7 5 8 3 9 4 10 91 11 90 12 92 13
REMARK SMILES IDX 88 14 89 16 2 17 1 18 8 19 9 20 10 22 11 23 12 24 15 25
REMARK SMILES IDX 13 26 14 27 20 28 21 29 22 30 23 31 24 33 25 34 26 35 87 36
REMARK SMILES IDX 27 37 86 38 28 39 29 40 30 41 80 42 31 43 85 44 79 45 81 46
REMARK SMILES IDX 32 47 84 48 78 49 77 50 33 52 65 53 45 54 64 55 46 56 49 57
REMARK SMILES IDX 63 58 82 59 47 60 48 61 62 63 83 64 50 65 34 66 35 67 43 68
REMARK SMILES IDX 36 69 37 70 41 71 44 72 38 73 39 74 42 75 40 76 66 77 67 78
REMARK SMILES IDX 75 79 68 80 69 81 73 82 76 83 70 84 71 85 74 86 72 87 51 88
REMARK SMILES IDX 52 89 60 90 53 91 54 92 58 93 61 94 55 95 56 96 59 97 57 98
REMARK H PARENT 18 5 90 15 8 21 22 32 81 51 49 62
REMARK Flexibility Score: inf
ROOT
ATOM      1  C   UNL A   1      32.299  30.180  26.680  1.00  0.00     0.117 C 
ENDROOT
BRANCH   1   2
ATOM      2  N   UNL A   1      33.125  30.024  25.499  1.00  0.00    -0.354 N 
ATOM      3  C   UNL A   1      33.120  29.075  24.519  1.00  0.00     0.244 C 
ATOM      4  O   UNL A   1      33.837  29.257  23.530  1.00  0.00    -0.273 OA
ATOM      5  H   UNL A   1      33.808  30.723  25.384  1.00  0.00     0.163 HD
BRANCH   3   6
ATOM      6  C   UNL A   1      32.211  27.850  24.598  1.00  0.00     0.191 C 
BRANCH   6   7
ATOM      7  C   UNL A   1      32.666  26.851  25.709  1.00  0.00     0.162 C 
BRANCH   7   8
ATOM      8  N   UNL A   1      32.168  25.463  25.657  1.00  0.00    -0.298 N 
ATOM      9  C   UNL A   1      32.715  23.144  25.781  1.00  0.00     0.033 A 
ATOM     10  C   UNL A   1      33.088  24.424  25.646  1.00  0.00     0.100 A 
ATOM     11  C   UNL A   1      31.270  22.825  25.687  1.00  0.00     0.256 A 
ATOM     12  N   UNL A   1      30.437  23.896  25.772  1.00  0.00    -0.274 N 
ATOM     13  O   UNL A   1      30.855  21.678  25.612  1.00  0.00    -0.269 OA
ATOM     14  C   UNL A   1      30.839  25.179  25.985  1.00  0.00     0.328 A 
ATOM     15  H   UNL A   1      29.472  23.732  25.673  1.00  0.00     0.175 HD
ATOM     16  O   UNL A   1      30.066  25.970  26.514  1.00  0.00    -0.248 OA
BRANCH   9  17
ATOM     17  C   UNL A   1      33.646  22.018  26.114  1.00  0.00     0.039 C 
ATOM     18  C   UNL A   1      33.847  21.950  27.628  1.00  0.00     0.009 C 
ENDBRANCH   9  17
ENDBRANCH   7   8
ENDBRANCH   6   7
BRANCH   6  19
ATOM     19  N   UNL A   1      32.127  27.180  23.280  1.00  0.00    -0.336 N 
ATOM     20  C   UNL A   1      31.086  27.183  22.372  1.00  0.00     0.287 C 
ATOM     21  H   UNL A   1      32.921  26.660  23.016  1.00  0.00     0.164 HD
ATOM     22  O   UNL A   1      31.105  26.296  21.517  1.00  0.00    -0.266 OA
BRANCH  20  23
ATOM     23  C   UNL A   1      30.077  28.216  22.412  1.00  0.00     0.191 A 
ATOM     24  C   UNL A   1      28.893  28.332  23.118  1.00  0.00     0.056 A 
ATOM     25  O   UNL A   1      30.302  29.385  21.731  1.00  0.00    -0.459 OA
ATOM     26  C   UNL A   1      28.337  29.591  22.803  1.00  0.00     0.043 A 
ATOM     27  C   UNL A   1      29.240  30.200  21.967  1.00  0.00     0.196 A 
ENDBRANCH  20  23
ENDBRANCH   6  19
ENDBRANCH   3   6
ENDBRANCH   1   2
BRANCH   1  28
ATOM     28  C   UNL A   1      31.824  31.606  26.868  1.00  0.00     0.042 C 
BRANCH  28  29
ATOM     29  C   UNL A   1      32.883  32.544  27.416  1.00  0.00     0.118 C 
BRANCH  29  30
ATOM     30  N   UNL A   1      32.413  33.900  27.656  1.00  0.00    -0.352 N 
ATOM     31  C   UNL A   1      32.941  34.858  28.490  1.00  0.00     0.251 C 
ATOM     32  H   UNL A   1      31.610  34.168  27.154  1.00  0.00     0.163 HD
ATOM     33  O   UNL A   1      32.394  35.946  28.623  1.00  0.00    -0.269 OA
BRANCH  31  34
ATOM     34  C   UNL A   1      34.142  34.527  29.284  1.00  0.00     0.039 A 
ATOM     35  C   UNL A   1      35.418  34.647  28.729  1.00  0.00     0.014 A 
ATOM     36  C   UNL A   1      33.969  33.980  30.556  1.00  0.00     0.014 A 
ATOM     37  C   UNL A   1      36.494  34.031  29.358  1.00  0.00     0.010 A 
ATOM     38  C   UNL A   1      35.071  33.451  31.231  1.00  0.00     0.010 A 
ATOM     39  C   UNL A   1      36.330  33.416  30.609  1.00  0.00    -0.014 A 
BRANCH  39  40
ATOM     40  C   UNL A   1      37.474  32.719  31.251  1.00  0.00     0.031 A 
ATOM     41  C   UNL A   1      38.189  31.602  30.539  1.00  0.00     0.074 A 
ATOM     42  C   UNL A   1      37.884  33.112  32.472  1.00  0.00     0.049 A 
ATOM     43  N   UNL A   1      39.148  30.825  30.975  1.00  0.00    -0.248 NA
ATOM     44  C   UNL A   1      37.768  31.313  29.157  1.00  0.00     0.031 C 
ATOM     45  C   UNL A   1      37.288  34.197  33.252  1.00  0.00     0.029 A 
ATOM     46  N   UNL A   1      38.902  32.651  33.266  1.00  0.00    -0.354 N 
ATOM     47  C   UNL A   1      39.422  29.940  29.941  1.00  0.00     0.074 A 
ATOM     48  C   UNL A   1      38.519  30.261  28.858  1.00  0.00     0.031 C 
ATOM     49  C   UNL A   1      37.972  34.344  34.394  1.00  0.00     0.029 A 
ATOM     50  C   UNL A   1      39.007  33.317  34.461  1.00  0.00     0.049 A 
ATOM     51  H   UNL A   1      39.500  31.914  33.004  1.00  0.00     0.167 HD
ATOM     52  C   UNL A   1      40.351  28.954  29.899  1.00  0.00     0.037 A 
ATOM     53  C   UNL A   1      39.825  33.108  35.508  1.00  0.00     0.037 A 
ATOM     54  C   UNL A   1      41.277  28.666  30.963  1.00  0.00     0.049 A 
ATOM     55  C   UNL A   1      40.821  31.986  35.449  1.00  0.00     0.074 A 
ATOM     56  C   UNL A   1      42.276  27.708  31.001  1.00  0.00     0.029 A 
ATOM     57  N   UNL A   1      41.325  29.340  32.174  1.00  0.00    -0.354 N 
ATOM     58  N   UNL A   1      41.058  31.145  34.472  1.00  0.00    -0.248 NA
ATOM     59  C   UNL A   1      41.652  31.776  36.641  1.00  0.00     0.031 C 
ATOM     60  C   UNL A   1      42.902  27.776  32.248  1.00  0.00     0.029 A 
ATOM     61  C   UNL A   1      42.324  28.805  32.972  1.00  0.00     0.049 A 
ATOM     62  H   UNL A   1      40.737  30.087  32.429  1.00  0.00     0.167 HD
ATOM     63  C   UNL A   1      42.069  30.311  34.927  1.00  0.00     0.074 A 
ATOM     64  C   UNL A   1      42.417  30.762  36.259  1.00  0.00     0.031 C 
ATOM     65  C   UNL A   1      42.653  29.263  34.298  1.00  0.00     0.037 A 
BRANCH  52  66
ATOM     66  C   UNL A   1      40.419  28.098  28.668  1.00  0.00     0.064 A 
ATOM     67  C   UNL A   1      41.200  28.459  27.562  1.00  0.00     0.173 A 
ATOM     68  C   UNL A   1      39.762  26.858  28.633  1.00  0.00     0.173 A 
ATOM     69  F   UNL A   1      41.839  29.638  27.543  1.00  0.00    -0.203 F 
ATOM     70  C   UNL A   1      41.314  27.614  26.461  1.00  0.00     0.198 A 
ATOM     71  C   UNL A   1      39.897  26.005  27.540  1.00  0.00     0.198 A 
ATOM     72  F   UNL A   1      39.006  26.463  29.669  1.00  0.00    -0.203 F 
ATOM     73  F   UNL A   1      42.046  27.990  25.403  1.00  0.00    -0.200 F 
ATOM     74  C   UNL A   1      40.671  26.384  26.455  1.00  0.00     0.200 A 
ATOM     75  F   UNL A   1      39.286  24.812  27.542  1.00  0.00    -0.200 F 
ATOM     76  F   UNL A   1      40.798  25.565  25.402  1.00  0.00    -0.200 F 
ENDBRANCH  52  66
BRANCH  53  77
ATOM     77  C   UNL A   1      39.714  33.979  36.705  1.00  0.00     0.064 A 
ATOM     78  C   UNL A   1      38.900  33.615  37.784  1.00  0.00     0.173 A 
ATOM     79  C   UNL A   1      40.445  35.172  36.808  1.00  0.00     0.173 A 
ATOM     80  F   UNL A   1      38.166  32.493  37.722  1.00  0.00    -0.203 F 
ATOM     81  C   UNL A   1      38.818  34.414  38.923  1.00  0.00     0.198 A 
ATOM     82  C   UNL A   1      40.385  35.954  37.957  1.00  0.00     0.198 A 
ATOM     83  F   UNL A   1      41.242  35.559  35.801  1.00  0.00    -0.203 F 
ATOM     84  F   UNL A   1      38.010  34.059  39.930  1.00  0.00    -0.200 F 
ATOM     85  C   UNL A   1      39.568  35.578  39.012  1.00  0.00     0.200 A 
ATOM     86  F   UNL A   1      41.125  37.068  38.046  1.00  0.00    -0.200 F 
ATOM     87  F   UNL A   1      39.500  36.337  40.114  1.00  0.00    -0.200 F 
ENDBRANCH  53  77
BRANCH  65  88
ATOM     88  C   UNL A   1      43.733  28.532  35.037  1.00  0.00     0.064 A 
ATOM     89  C   UNL A   1      43.444  27.412  35.829  1.00  0.00     0.173 A 
ATOM     90  C   UNL A   1      45.074  28.920  34.905  1.00  0.00     0.173 A 
ATOM     91  F   UNL A   1      42.175  27.013  35.997  1.00  0.00    -0.203 F 
ATOM     92  C   UNL A   1      44.460  26.713  36.475  1.00  0.00     0.198 A 
ATOM     93  C   UNL A   1      46.090  28.204  35.531  1.00  0.00     0.198 A 
ATOM     94  F   UNL A   1      45.401  29.981  34.152  1.00  0.00    -0.203 F 
ATOM     95  F   UNL A   1      44.160  25.666  37.255  1.00  0.00    -0.200 F 
ATOM     96  C   UNL A   1      45.782  27.105  36.319  1.00  0.00     0.200 A 
ATOM     97  F   UNL A   1      47.368  28.575  35.370  1.00  0.00    -0.200 F 
ATOM     98  F   UNL A   1      46.760  26.424  36.933  1.00  0.00    -0.200 F 
ENDBRANCH  65  88
ENDBRANCH  39  40
ENDBRANCH  31  34
ENDBRANCH  29  30
ENDBRANCH  28  29
ENDBRANCH   1  28
TORSDOF 15
ENDMDL
MODEL 3
REMARK VINA RESULT:     -12.7      5.535     11.102
REMARK SMILES CCc1cn(C[C@H](NC(=O)c2ccco2)C(=O)NCCCNC(=O)c2ccc(-c3c4nc(c(-c5c(F)c(F)c(F)c(F)c5F)c5ccc([nH]5)c(-c5c(F)c(F)c(F)c(F)c5F)c5nc(c(-c6c(F)c(F)c(F)c(F)c6F)c6ccc3[nH]6)C=C5)C=C4)cc2)c(=O)[nH]c1=O
REMARK SMILES IDX 19 1 18 2 16 3 17 4 7 6 6 7 5 8 3 9 4 10 91 11 90 12 92 13
REMARK SMILES IDX 88 14 89 16 2 17 1 18 8 19 9 20 10 22 11 23 12 24 15 25
REMARK SMILES IDX 13 26 14 27 20 28 21 29 22 30 23 31 24 33 25 34 26 35 87 36
REMARK SMILES IDX 27 37 86 38 28 39 29 40 30 41 80 42 31 43 85 44 79 45 81 46
REMARK SMILES IDX 32 47 84 48 78 49 77 50 33 52 65 53 45 54 64 55 46 56 49 57
REMARK SMILES IDX 63 58 82 59 47 60 48 61 62 63 83 64 50 65 34 66 35 67 43 68
REMARK SMILES IDX 36 69 37 70 41 71 44 72 38 73 39 74 42 75 40 76 66 77 67 78
REMARK SMILES IDX 75 79 68 80 69 81 73 82 76 83 70 84 71 85 74 86 72 87 51 88
REMARK SMILES IDX 52 89 60 90 53 91 54 92 58 93 61 94 55 95 56 96 59 97 57 98
REMARK H PARENT 18 5 90 15 8 21 22 32 81 51 49 62
REMARK Flexibility Score: inf
ROOT
ATOM      1  C   UNL A   1      37.418  21.053  24.639  1.00  0.00     0.117 C 
ENDROOT
BRANCH   1   2
ATOM      2  N   UNL A   1      37.903  22.253  25.295  1.00  0.00    -0.354 N 
ATOM      3  C   UNL A   1      37.234  23.312  25.833  1.00  0.00     0.244 C 
ATOM      4  O   UNL A   1      37.884  24.145  26.474  1.00  0.00    -0.273 OA
ATOM      5  H   UNL A   1      38.883  22.313  25.362  1.00  0.00     0.163 HD
BRANCH   3   6
ATOM      6  C   UNL A   1      35.718  23.447  25.711  1.00  0.00     0.191 C 
BRANCH   6   7
ATOM      7  C   UNL A   1      35.283  24.907  25.369  1.00  0.00     0.162 C 
BRANCH   7   8
ATOM      8  N   UNL A   1      33.865  25.164  25.046  1.00  0.00    -0.298 N 
ATOM      9  C   UNL A   1      31.852  26.285  25.667  1.00  0.00     0.033 A 
ATOM     10  C   UNL A   1      33.088  25.859  25.963  1.00  0.00     0.100 A 
ATOM     11  C   UNL A   1      31.221  25.781  24.423  1.00  0.00     0.256 A 
ATOM     12  N   UNL A   1      32.068  25.171  23.552  1.00  0.00    -0.274 N 
ATOM     13  O   UNL A   1      30.040  25.964  24.167  1.00  0.00    -0.269 OA
ATOM     14  C   UNL A   1      33.412  25.054  23.729  1.00  0.00     0.328 A 
ATOM     15  H   UNL A   1      31.681  24.786  22.733  1.00  0.00     0.175 HD
ATOM     16  O   UNL A   1      34.139  24.947  22.746  1.00  0.00    -0.248 OA
BRANCH   9  17
ATOM     17  C   UNL A   1      31.095  27.310  26.454  1.00  0.00     0.039 C 
ATOM     18  C   UNL A   1      32.048  28.030  27.408  1.00  0.00     0.009 C 
ENDBRANCH   9  17
ENDBRANCH   7   8
ENDBRANCH   6   7
BRANCH   6  19
ATOM     19  N   UNL A   1      35.052  22.967  26.944  1.00  0.00    -0.336 N 
ATOM     20  C   UNL A   1      33.888  22.234  27.071  1.00  0.00     0.287 C 
ATOM     21  H   UNL A   1      35.500  23.204  27.789  1.00  0.00     0.164 HD
ATOM     22  O   UNL A   1      33.356  22.244  28.181  1.00  0.00    -0.266 OA
BRANCH  20  23
ATOM     23  C   UNL A   1      33.379  21.462  25.960  1.00  0.00     0.191 A 
ATOM     24  C   UNL A   1      32.366  21.702  25.049  1.00  0.00     0.056 A 
ATOM     25  O   UNL A   1      34.030  20.310  25.605  1.00  0.00    -0.459 OA
ATOM     26  C   UNL A   1      32.350  20.618  24.144  1.00  0.00     0.043 A 
ATOM     27  C   UNL A   1      33.392  19.806  24.515  1.00  0.00     0.196 A 
ENDBRANCH  20  23
ENDBRANCH   6  19
ENDBRANCH   3   6
ENDBRANCH   1   2
BRANCH   1  28
ATOM     28  C   UNL A   1      38.198  19.819  25.046  1.00  0.00     0.042 C 
BRANCH  28  29
ATOM     29  C   UNL A   1      39.539  20.119  25.690  1.00  0.00     0.118 C 
BRANCH  29  30
ATOM     30  N   UNL A   1      40.431  18.973  25.771  1.00  0.00    -0.352 N 
ATOM     31  C   UNL A   1      41.764  18.942  26.113  1.00  0.00     0.251 C 
ATOM     32  H   UNL A   1      40.028  18.102  25.553  1.00  0.00     0.163 HD
ATOM     33  O   UNL A   1      42.396  17.894  26.084  1.00  0.00    -0.269 OA
BRANCH  31  34
ATOM     34  C   UNL A   1      42.442  20.213  26.444  1.00  0.00     0.039 A 
ATOM     35  C   UNL A   1      42.327  20.770  27.720  1.00  0.00     0.014 A 
ATOM     36  C   UNL A   1      43.101  20.901  25.425  1.00  0.00     0.014 A 
ATOM     37  C   UNL A   1      42.685  22.098  27.916  1.00  0.00     0.010 A 
ATOM     38  C   UNL A   1      43.551  22.202  25.656  1.00  0.00     0.010 A 
ATOM     39  C   UNL A   1      43.290  22.832  26.884  1.00  0.00    -0.014 A 
BRANCH  39  40
ATOM     40  C   UNL A   1      43.626  24.265  27.087  1.00  0.00     0.031 A 
ATOM     41  C   UNL A   1      45.001  24.784  26.763  1.00  0.00     0.074 A 
ATOM     42  C   UNL A   1      42.678  25.104  27.544  1.00  0.00     0.049 A 
ATOM     43  N   UNL A   1      45.499  25.980  26.956  1.00  0.00    -0.248 NA
ATOM     44  C   UNL A   1      45.946  23.837  26.148  1.00  0.00     0.031 C 
ATOM     45  C   UNL A   1      41.302  24.726  27.870  1.00  0.00     0.029 A 
ATOM     46  N   UNL A   1      42.724  26.450  27.804  1.00  0.00    -0.354 N 
ATOM     47  C   UNL A   1      46.816  25.920  26.519  1.00  0.00     0.074 A 
ATOM     48  C   UNL A   1      47.050  24.566  26.065  1.00  0.00     0.031 C 
ATOM     49  C   UNL A   1      40.625  25.818  28.251  1.00  0.00     0.029 A 
ATOM     50  C   UNL A   1      41.536  26.958  28.266  1.00  0.00     0.049 A 
ATOM     51  H   UNL A   1      43.531  26.999  27.672  1.00  0.00     0.167 HD
ATOM     52  C   UNL A   1      47.741  26.909  26.493  1.00  0.00     0.037 A 
ATOM     53  C   UNL A   1      41.220  28.196  28.685  1.00  0.00     0.037 A 
ATOM     54  C   UNL A   1      47.491  28.265  26.907  1.00  0.00     0.049 A 
ATOM     55  C   UNL A   1      42.274  29.265  28.678  1.00  0.00     0.074 A 
ATOM     56  C   UNL A   1      48.356  29.346  26.886  1.00  0.00     0.029 A 
ATOM     57  N   UNL A   1      46.283  28.730  27.406  1.00  0.00    -0.354 N 
ATOM     58  N   UNL A   1      43.520  29.191  28.280  1.00  0.00    -0.248 NA
ATOM     59  C   UNL A   1      41.882  30.583  29.193  1.00  0.00     0.031 C 
ATOM     60  C   UNL A   1      47.684  30.455  27.410  1.00  0.00     0.029 A 
ATOM     61  C   UNL A   1      46.388  30.077  27.715  1.00  0.00     0.049 A 
ATOM     62  H   UNL A   1      45.472  28.184  27.523  1.00  0.00     0.167 HD
ATOM     63  C   UNL A   1      44.060  30.452  28.486  1.00  0.00     0.074 A 
ATOM     64  C   UNL A   1      43.000  31.279  29.026  1.00  0.00     0.031 C 
ATOM     65  C   UNL A   1      45.323  30.883  28.255  1.00  0.00     0.037 A 
BRANCH  52  66
ATOM     66  C   UNL A   1      49.121  26.574  26.010  1.00  0.00     0.064 A 
ATOM     67  C   UNL A   1      49.542  26.882  24.708  1.00  0.00     0.173 A 
ATOM     68  C   UNL A   1      50.063  26.016  26.890  1.00  0.00     0.173 A 
ATOM     69  F   UNL A   1      48.677  27.406  23.827  1.00  0.00    -0.203 F 
ATOM     70  C   UNL A   1      50.851  26.636  24.303  1.00  0.00     0.198 A 
ATOM     71  C   UNL A   1      51.377  25.793  26.488  1.00  0.00     0.198 A 
ATOM     72  F   UNL A   1      49.713  25.708  28.148  1.00  0.00    -0.203 F 
ATOM     73  F   UNL A   1      51.225  26.915  23.046  1.00  0.00    -0.200 F 
ATOM     74  C   UNL A   1      51.770  26.102  25.195  1.00  0.00     0.200 A 
ATOM     75  F   UNL A   1      52.266  25.290  27.355  1.00  0.00    -0.200 F 
ATOM     76  F   UNL A   1      53.034  25.884  24.807  1.00  0.00    -0.200 F 
ENDBRANCH  52  66
BRANCH  53  77
ATOM     77  C   UNL A   1      39.841  28.475  29.159  1.00  0.00     0.064 A 
ATOM     78  C   UNL A   1      39.479  28.242  30.492  1.00  0.00     0.173 A 
ATOM     79  C   UNL A   1      38.870  29.013  28.301  1.00  0.00     0.173 A 
ATOM     80  F   UNL A   1      40.368  27.710  31.344  1.00  0.00    -0.203 F 
ATOM     81  C   UNL A   1      38.196  28.533  30.948  1.00  0.00     0.198 A 
ATOM     82  C   UNL A   1      37.597  29.330  28.765  1.00  0.00     0.198 A 
ATOM     83  F   UNL A   1      39.171  29.259  27.017  1.00  0.00    -0.203 F 
ATOM     84  F   UNL A   1      37.865  28.273  32.220  1.00  0.00    -0.200 F 
ATOM     85  C   UNL A   1      37.259  29.085  30.087  1.00  0.00     0.200 A 
ATOM     86  F   UNL A   1      36.701  29.880  27.935  1.00  0.00    -0.200 F 
ATOM     87  F   UNL A   1      36.030  29.379  30.532  1.00  0.00    -0.200 F 
ENDBRANCH  53  77
BRANCH  65  88
ATOM     88  C   UNL A   1      45.631  32.315  28.576  1.00  0.00     0.064 A 
ATOM     89  C   UNL A   1      45.411  33.334  27.640  1.00  0.00     0.173 A 
ATOM     90  C   UNL A   1      46.093  32.676  29.850  1.00  0.00     0.173 A 
ATOM     91  F   UNL A   1      44.983  33.036  26.405  1.00  0.00    -0.203 F 
ATOM     92  C   UNL A   1      45.657  34.666  27.963  1.00  0.00     0.198 A 
ATOM     93  C   UNL A   1      46.315  34.010  30.178  1.00  0.00     0.198 A 
ATOM     94  F   UNL A   1      46.312  31.736  30.782  1.00  0.00    -0.203 F 
ATOM     95  F   UNL A   1      45.473  35.622  27.043  1.00  0.00    -0.200 F 
ATOM     96  C   UNL A   1      46.100  35.003  29.234  1.00  0.00     0.200 A 
ATOM     97  F   UNL A   1      46.730  34.336  31.410  1.00  0.00    -0.200 F 
ATOM     98  F   UNL A   1      46.326  36.287  29.547  1.00  0.00    -0.200 F 
ENDBRANCH  65  88
ENDBRANCH  39  40
ENDBRANCH  31  34
ENDBRANCH  29  30
ENDBRANCH  28  29
ENDBRANCH   1  28
TORSDOF 15
ENDMDL
