MODEL 1
REMARK VINA RESULT:     -12.9      0.000      0.000
REMARK SMILES CC(C)Cn1ncnc1C[N@H+]1CC[C@H](C(=O)NCCCNC(=O)c2ccc(-c3c4nc(c(-c5c(F)c(F)c(F)c(F)c5F)c5ccc([nH]5)c(-c5c(F)c(F)c(F)c(F)c5F)c5nc(c(-c6c(F)c(F)c(F)c(F)c6F)c6ccc3[nH]6)C=C5)C=C4)cc2)[C@@H]1C
REMARK SMILES IDX 18 1 17 2 15 3 16 4 14 6 11 7 12 8 87 9 13 11 88 12 10 13
REMARK SMILES IDX 9 14 5 15 6 16 7 17 8 18 4 19 2 20 1 21 3 22 19 23 20 24
REMARK SMILES IDX 21 25 22 26 23 28 24 29 25 30 86 31 26 32 85 33 27 34 28 35
REMARK SMILES IDX 29 36 79 37 30 38 84 39 78 40 80 41 31 42 83 43 77 44 76 45
REMARK SMILES IDX 32 47 64 48 44 49 63 50 45 51 48 52 62 53 81 54 46 55 47 56
REMARK SMILES IDX 61 58 82 59 49 60 33 61 34 62 42 63 35 64 36 65 40 66 43 67
REMARK SMILES IDX 37 68 38 69 41 70 39 71 65 72 66 73 74 74 67 75 68 76 72 77
REMARK SMILES IDX 75 78 69 79 70 80 73 81 71 82 50 83 51 84 59 85 52 86 53 87
REMARK SMILES IDX 57 88 60 89 54 90 55 91 58 92 56 93
REMARK H PARENT 17 5 11 10 21 27 80 46 48 57
REMARK Flexibility Score: inf
ROOT
ATOM      1  C   UNL A   1      31.428  30.860  26.245  1.00  0.00     0.117 C 
ENDROOT
BRANCH   1   2
ATOM      2  N   UNL A   1      31.040  30.476  24.894  1.00  0.00    -0.356 N 
ATOM      3  C   UNL A   1      31.017  29.244  24.303  1.00  0.00     0.229 C 
ATOM      4  O   UNL A   1      30.583  29.171  23.153  1.00  0.00    -0.275 OA
ATOM      5  H   UNL A   1      30.750  31.219  24.318  1.00  0.00     0.163 HD
BRANCH   3   6
ATOM      6  C   UNL A   1      31.414  28.025  25.117  1.00  0.00     0.142 C 
ATOM      7  N   UNL A   1      32.747  26.043  24.699  1.00  0.00    -0.326 N 
ATOM      8  C   UNL A   1      31.424  25.839  24.104  1.00  0.00     0.263 C 
ATOM      9  C   UNL A   1      32.855  27.496  24.973  1.00  0.00     0.194 C 
ATOM     10  H   UNL A   1      33.475  25.746  24.049  1.00  0.00     0.348 HD
ATOM     11  C   UNL A   1      30.500  26.858  24.743  1.00  0.00     0.081 C 
ATOM     12  C   UNL A   1      33.740  28.165  23.924  1.00  0.00     0.076 C 
BRANCH   7  13
ATOM     13  C   UNL A   1      33.026  25.187  25.872  1.00  0.00     0.340 C 
BRANCH  13  14
ATOM     14  C   UNL A   1      32.039  24.089  26.140  1.00  0.00     0.182 A 
ATOM     15  N   UNL A   1      31.913  22.918  25.433  1.00  0.00    -0.245 N 
ATOM     16  N   UNL A   1      30.763  22.293  25.760  1.00  0.00    -0.159 NA
ATOM     17  C   UNL A   1      30.345  23.012  26.796  1.00  0.00     0.246 A 
ATOM     18  N   UNL A   1      31.100  24.107  27.075  1.00  0.00    -0.214 NA
BRANCH  15  19
ATOM     19  C   UNL A   1      32.783  22.314  24.442  1.00  0.00     0.149 C 
BRANCH  19  20
ATOM     20  C   UNL A   1      32.268  22.465  22.992  1.00  0.00     0.004 C 
ATOM     21  C   UNL A   1      33.225  23.261  22.097  1.00  0.00     0.009 C 
ATOM     22  C   UNL A   1      32.044  21.084  22.370  1.00  0.00     0.009 C 
ENDBRANCH  19  20
ENDBRANCH  15  19
ENDBRANCH  13  14
ENDBRANCH   7  13
ENDBRANCH   3   6
ENDBRANCH   1   2
BRANCH   1  23
ATOM     23  C   UNL A   1      31.303  32.367  26.490  1.00  0.00     0.042 C 
BRANCH  23  24
ATOM     24  C   UNL A   1      32.485  32.915  27.271  1.00  0.00     0.118 C 
BRANCH  24  25
ATOM     25  N   UNL A   1      32.298  34.303  27.729  1.00  0.00    -0.352 N 
ATOM     26  C   UNL A   1      32.955  34.985  28.750  1.00  0.00     0.251 C 
ATOM     27  H   UNL A   1      31.614  34.820  27.245  1.00  0.00     0.163 HD
ATOM     28  O   UNL A   1      32.528  36.027  29.202  1.00  0.00    -0.269 OA
BRANCH  26  29
ATOM     29  C   UNL A   1      34.210  34.403  29.257  1.00  0.00     0.039 A 
ATOM     30  C   UNL A   1      34.344  33.828  30.525  1.00  0.00     0.014 A 
ATOM     31  C   UNL A   1      35.256  34.383  28.355  1.00  0.00     0.014 A 
ATOM     32  C   UNL A   1      35.536  33.171  30.833  1.00  0.00     0.010 A 
ATOM     33  C   UNL A   1      36.249  33.476  28.533  1.00  0.00     0.010 A 
ATOM     34  C   UNL A   1      36.482  33.002  29.817  1.00  0.00    -0.014 A 
BRANCH  34  35
ATOM     35  C   UNL A   1      37.764  32.336  29.983  1.00  0.00     0.031 A 
ATOM     36  C   UNL A   1      37.878  30.991  29.359  1.00  0.00     0.074 A 
ATOM     37  C   UNL A   1      38.837  33.089  30.334  1.00  0.00     0.049 A 
ATOM     38  N   UNL A   1      38.244  29.881  29.909  1.00  0.00    -0.248 NA
ATOM     39  C   UNL A   1      37.439  30.841  27.959  1.00  0.00     0.031 C 
ATOM     40  C   UNL A   1      38.881  34.534  30.635  1.00  0.00     0.029 A 
ATOM     41  N   UNL A   1      40.154  32.763  30.324  1.00  0.00    -0.354 N 
ATOM     42  C   UNL A   1      38.265  28.934  28.885  1.00  0.00     0.074 A 
ATOM     43  C   UNL A   1      37.591  29.531  27.763  1.00  0.00     0.031 C 
ATOM     44  C   UNL A   1      40.145  34.991  30.514  1.00  0.00     0.029 A 
ATOM     45  C   UNL A   1      41.019  33.853  30.322  1.00  0.00     0.049 A 
ATOM     46  H   UNL A   1      40.471  31.831  30.320  1.00  0.00     0.167 HD
ATOM     47  C   UNL A   1      39.062  27.832  28.955  1.00  0.00     0.037 A 
ATOM     48  C   UNL A   1      42.358  33.811  30.121  1.00  0.00     0.037 A 
ATOM     49  C   UNL A   1      39.511  27.592  30.302  1.00  0.00     0.049 A 
ATOM     50  C   UNL A   1      42.778  32.405  30.354  1.00  0.00     0.074 A 
ATOM     51  C   UNL A   1      38.876  27.339  31.502  1.00  0.00     0.029 A 
ATOM     52  N   UNL A   1      40.785  27.982  30.639  1.00  0.00    -0.354 N 
ATOM     53  N   UNL A   1      42.696  31.812  31.516  1.00  0.00    -0.248 NA
ATOM     54  C   UNL A   1      42.807  31.518  29.200  1.00  0.00     0.031 C 
ATOM     55  C   UNL A   1      39.617  28.081  32.471  1.00  0.00     0.029 A 
ATOM     56  C   UNL A   1      40.694  28.679  31.818  1.00  0.00     0.049 A 
ATOM     57  H   UNL A   1      41.608  27.797  30.129  1.00  0.00     0.167 HD
ATOM     58  C   UNL A   1      42.253  30.528  31.232  1.00  0.00     0.074 A 
ATOM     59  C   UNL A   1      42.397  30.389  29.783  1.00  0.00     0.031 C 
ATOM     60  C   UNL A   1      41.530  29.810  32.143  1.00  0.00     0.037 A 
BRANCH  47  61
ATOM     61  C   UNL A   1      39.732  27.191  27.764  1.00  0.00     0.064 A 
ATOM     62  C   UNL A   1      39.726  25.787  27.644  1.00  0.00     0.173 A 
ATOM     63  C   UNL A   1      40.627  27.870  26.907  1.00  0.00     0.173 A 
ATOM     64  F   UNL A   1      38.928  25.040  28.422  1.00  0.00    -0.203 F 
ATOM     65  C   UNL A   1      40.607  25.115  26.792  1.00  0.00     0.198 A 
ATOM     66  C   UNL A   1      41.462  27.199  26.016  1.00  0.00     0.198 A 
ATOM     67  F   UNL A   1      40.815  29.193  26.976  1.00  0.00    -0.203 F 
ATOM     68  F   UNL A   1      40.656  23.776  26.808  1.00  0.00    -0.200 F 
ATOM     69  C   UNL A   1      41.479  25.822  25.983  1.00  0.00     0.200 A 
ATOM     70  F   UNL A   1      42.312  27.902  25.255  1.00  0.00    -0.200 F 
ATOM     71  F   UNL A   1      42.367  25.180  25.214  1.00  0.00    -0.200 F 
ENDBRANCH  47  61
BRANCH  48  72
ATOM     72  C   UNL A   1      43.189  34.801  29.395  1.00  0.00     0.064 A 
ATOM     73  C   UNL A   1      44.528  35.029  29.743  1.00  0.00     0.173 A 
ATOM     74  C   UNL A   1      42.758  35.358  28.172  1.00  0.00     0.173 A 
ATOM     75  F   UNL A   1      45.031  34.490  30.864  1.00  0.00    -0.203 F 
ATOM     76  C   UNL A   1      45.389  35.760  28.916  1.00  0.00     0.198 A 
ATOM     77  C   UNL A   1      43.615  36.092  27.349  1.00  0.00     0.198 A 
ATOM     78  F   UNL A   1      41.523  35.123  27.708  1.00  0.00    -0.203 F 
ATOM     79  F   UNL A   1      46.676  35.913  29.257  1.00  0.00    -0.200 F 
ATOM     80  C   UNL A   1      44.934  36.284  27.716  1.00  0.00     0.200 A 
ATOM     81  F   UNL A   1      43.173  36.557  26.173  1.00  0.00    -0.200 F 
ATOM     82  F   UNL A   1      45.772  36.935  26.897  1.00  0.00    -0.200 F 
ENDBRANCH  48  72
BRANCH  60  83
ATOM     83  C   UNL A   1      41.392  30.373  33.534  1.00  0.00     0.064 A 
ATOM     84  C   UNL A   1      42.387  30.265  34.523  1.00  0.00     0.173 A 
ATOM     85  C   UNL A   1      40.296  31.191  33.823  1.00  0.00     0.173 A 
ATOM     86  F   UNL A   1      43.517  29.594  34.291  1.00  0.00    -0.203 F 
ATOM     87  C   UNL A   1      42.271  30.910  35.753  1.00  0.00     0.198 A 
ATOM     88  C   UNL A   1      40.196  31.864  35.040  1.00  0.00     0.198 A 
ATOM     89  F   UNL A   1      39.344  31.388  32.897  1.00  0.00    -0.203 F 
ATOM     90  F   UNL A   1      43.238  30.783  36.674  1.00  0.00    -0.200 F 
ATOM     91  C   UNL A   1      41.177  31.716  36.008  1.00  0.00     0.200 A 
ATOM     92  F   UNL A   1      39.160  32.685  35.261  1.00  0.00    -0.200 F 
ATOM     93  F   UNL A   1      41.083  32.374  37.172  1.00  0.00    -0.200 F 
ENDBRANCH  60  83
ENDBRANCH  34  35
ENDBRANCH  26  29
ENDBRANCH  24  25
ENDBRANCH  23  24
ENDBRANCH   1  23
TORSDOF 14
ENDMDL
MODEL 2
REMARK VINA RESULT:     -12.7      0.695      1.789
REMARK SMILES CC(C)Cn1ncnc1C[N@H+]1CC[C@H](C(=O)NCCCNC(=O)c2ccc(-c3c4nc(c(-c5c(F)c(F)c(F)c(F)c5F)c5ccc([nH]5)c(-c5c(F)c(F)c(F)c(F)c5F)c5nc(c(-c6c(F)c(F)c(F)c(F)c6F)c6ccc3[nH]6)C=C5)C=C4)cc2)[C@@H]1C
REMARK SMILES IDX 18 1 17 2 15 3 16 4 14 6 11 7 12 8 87 9 13 11 88 12 10 13
REMARK SMILES IDX 9 14 5 15 6 16 7 17 8 18 4 19 2 20 1 21 3 22 19 23 20 24
REMARK SMILES IDX 21 25 22 26 23 28 24 29 25 30 86 31 26 32 85 33 27 34 28 35
REMARK SMILES IDX 29 36 79 37 30 38 84 39 78 40 80 41 31 42 83 43 77 44 76 45
REMARK SMILES IDX 32 47 64 48 44 49 63 50 45 51 48 52 62 53 81 54 46 55 47 56
REMARK SMILES IDX 61 58 82 59 49 60 33 61 34 62 42 63 35 64 36 65 40 66 43 67
REMARK SMILES IDX 37 68 38 69 41 70 39 71 65 72 66 73 74 74 67 75 68 76 72 77
REMARK SMILES IDX 75 78 69 79 70 80 73 81 71 82 50 83 51 84 59 85 52 86 53 87
REMARK SMILES IDX 57 88 60 89 54 90 55 91 58 92 56 93
REMARK H PARENT 17 5 11 10 21 27 80 46 48 57
REMARK Flexibility Score: inf
ROOT
ATOM      1  C   UNL A   1      31.432  30.929  26.309  1.00  0.00     0.117 C 
ENDROOT
BRANCH   1   2
ATOM      2  N   UNL A   1      31.091  30.545  24.945  1.00  0.00    -0.356 N 
ATOM      3  C   UNL A   1      31.061  29.311  24.360  1.00  0.00     0.229 C 
ATOM      4  O   UNL A   1      30.674  29.242  23.193  1.00  0.00    -0.275 OA
ATOM      5  H   UNL A   1      30.845  31.292  24.353  1.00  0.00     0.163 HD
BRANCH   3   6
ATOM      6  C   UNL A   1      31.391  28.088  25.196  1.00  0.00     0.142 C 
ATOM      7  N   UNL A   1      32.855  26.172  24.931  1.00  0.00    -0.326 N 
ATOM      8  C   UNL A   1      31.639  25.932  24.149  1.00  0.00     0.263 C 
ATOM      9  C   UNL A   1      32.859  27.621  25.249  1.00  0.00     0.194 C 
ATOM     10  H   UNL A   1      33.679  25.921  24.386  1.00  0.00     0.348 HD
ATOM     11  C   UNL A   1      30.591  26.895  24.671  1.00  0.00     0.081 C 
ATOM     12  C   UNL A   1      33.854  28.352  24.351  1.00  0.00     0.076 C 
BRANCH   7  13
ATOM     13  C   UNL A   1      33.001  25.296  26.115  1.00  0.00     0.340 C 
BRANCH  13  14
ATOM     14  C   UNL A   1      32.563  23.872  25.941  1.00  0.00     0.182 A 
ATOM     15  N   UNL A   1      33.311  22.850  25.410  1.00  0.00    -0.245 N 
ATOM     16  N   UNL A   1      32.529  21.782  25.149  1.00  0.00    -0.159 NA
ATOM     17  C   UNL A   1      31.384  22.134  25.722  1.00  0.00     0.246 A 
ATOM     18  N   UNL A   1      31.362  23.393  26.232  1.00  0.00    -0.214 NA
BRANCH  15  19
ATOM     19  C   UNL A   1      34.727  22.776  25.100  1.00  0.00     0.149 C 
BRANCH  19  20
ATOM     20  C   UNL A   1      35.025  22.654  23.588  1.00  0.00     0.004 C 
ATOM     21  C   UNL A   1      34.217  23.642  22.739  1.00  0.00     0.009 C 
ATOM     22  C   UNL A   1      36.516  22.882  23.328  1.00  0.00     0.009 C 
ENDBRANCH  19  20
ENDBRANCH  15  19
ENDBRANCH  13  14
ENDBRANCH   7  13
ENDBRANCH   3   6
ENDBRANCH   1   2
BRANCH   1  23
ATOM     23  C   UNL A   1      31.300  32.435  26.550  1.00  0.00     0.042 C 
BRANCH  23  24
ATOM     24  C   UNL A   1      32.514  33.003  27.265  1.00  0.00     0.118 C 
BRANCH  24  25
ATOM     25  N   UNL A   1      32.317  34.375  27.764  1.00  0.00    -0.352 N 
ATOM     26  C   UNL A   1      32.969  35.033  28.804  1.00  0.00     0.251 C 
ATOM     27  H   UNL A   1      31.627  34.901  27.297  1.00  0.00     0.163 HD
ATOM     28  O   UNL A   1      32.535  36.057  29.287  1.00  0.00    -0.269 OA
BRANCH  26  29
ATOM     29  C   UNL A   1      34.230  34.447  29.291  1.00  0.00     0.039 A 
ATOM     30  C   UNL A   1      34.366  33.818  30.534  1.00  0.00     0.014 A 
ATOM     31  C   UNL A   1      35.281  34.480  28.395  1.00  0.00     0.014 A 
ATOM     32  C   UNL A   1      35.566  33.164  30.820  1.00  0.00     0.010 A 
ATOM     33  C   UNL A   1      36.285  33.581  28.539  1.00  0.00     0.010 A 
ATOM     34  C   UNL A   1      36.519  33.053  29.802  1.00  0.00    -0.014 A 
BRANCH  34  35
ATOM     35  C   UNL A   1      37.810  32.399  29.946  1.00  0.00     0.031 A 
ATOM     36  C   UNL A   1      37.909  31.035  29.361  1.00  0.00     0.074 A 
ATOM     37  C   UNL A   1      38.890  33.167  30.235  1.00  0.00     0.049 A 
ATOM     38  N   UNL A   1      38.299  29.944  29.934  1.00  0.00    -0.248 NA
ATOM     39  C   UNL A   1      37.424  30.837  27.982  1.00  0.00     0.031 C 
ATOM     40  C   UNL A   1      38.936  34.621  30.488  1.00  0.00     0.029 A 
ATOM     41  N   UNL A   1      40.207  32.846  30.191  1.00  0.00    -0.354 N 
ATOM     42  C   UNL A   1      38.291  28.965  28.941  1.00  0.00     0.074 A 
ATOM     43  C   UNL A   1      37.576  29.522  27.824  1.00  0.00     0.031 C 
ATOM     44  C   UNL A   1      40.193  35.079  30.309  1.00  0.00     0.029 A 
ATOM     45  C   UNL A   1      41.066  33.939  30.124  1.00  0.00     0.049 A 
ATOM     46  H   UNL A   1      40.529  31.916  30.206  1.00  0.00     0.167 HD
ATOM     47  C   UNL A   1      39.095  27.868  29.019  1.00  0.00     0.037 A 
ATOM     48  C   UNL A   1      42.397  33.896  29.879  1.00  0.00     0.037 A 
ATOM     49  C   UNL A   1      39.590  27.674  30.357  1.00  0.00     0.049 A 
ATOM     50  C   UNL A   1      42.833  32.500  30.143  1.00  0.00     0.074 A 
ATOM     51  C   UNL A   1      38.998  27.458  31.586  1.00  0.00     0.029 A 
ATOM     52  N   UNL A   1      40.874  28.080  30.638  1.00  0.00    -0.354 N 
ATOM     53  N   UNL A   1      42.794  31.945  31.326  1.00  0.00    -0.248 NA
ATOM     54  C   UNL A   1      42.827  31.576  29.018  1.00  0.00     0.031 C 
ATOM     55  C   UNL A   1      39.767  28.234  32.505  1.00  0.00     0.029 A 
ATOM     56  C   UNL A   1      40.819  28.815  31.796  1.00  0.00     0.049 A 
ATOM     57  H   UNL A   1      41.679  27.882  30.107  1.00  0.00     0.167 HD
ATOM     58  C   UNL A   1      42.348  30.650  31.098  1.00  0.00     0.074 A 
ATOM     59  C   UNL A   1      42.443  30.465  29.651  1.00  0.00     0.031 C 
ATOM     60  C   UNL A   1      41.659  29.959  32.056  1.00  0.00     0.037 A 
BRANCH  47  61
ATOM     61  C   UNL A   1      39.727  27.192  27.827  1.00  0.00     0.064 A 
ATOM     62  C   UNL A   1      39.725  25.785  27.753  1.00  0.00     0.173 A 
ATOM     63  C   UNL A   1      40.590  27.847  26.919  1.00  0.00     0.173 A 
ATOM     64  F   UNL A   1      38.958  25.061  28.582  1.00  0.00    -0.203 F 
ATOM     65  C   UNL A   1      40.580  25.090  26.893  1.00  0.00     0.198 A 
ATOM     66  C   UNL A   1      41.397  27.151  26.022  1.00  0.00     0.198 A 
ATOM     67  F   UNL A   1      40.772  29.172  26.939  1.00  0.00    -0.203 F 
ATOM     68  F   UNL A   1      40.636  23.752  26.951  1.00  0.00    -0.200 F 
ATOM     69  C   UNL A   1      41.420  25.773  26.033  1.00  0.00     0.200 A 
ATOM     70  F   UNL A   1      42.217  27.832  25.210  1.00  0.00    -0.200 F 
ATOM     71  F   UNL A   1      42.285  25.111  25.255  1.00  0.00    -0.200 F 
ENDBRANCH  47  61
BRANCH  48  72
ATOM     72  C   UNL A   1      43.198  34.866  29.093  1.00  0.00     0.064 A 
ATOM     73  C   UNL A   1      42.679  35.484  27.947  1.00  0.00     0.173 A 
ATOM     74  C   UNL A   1      44.400  35.402  29.603  1.00  0.00     0.173 A 
ATOM     75  F   UNL A   1      41.514  35.069  27.428  1.00  0.00    -0.203 F 
ATOM     76  C   UNL A   1      43.316  36.579  27.350  1.00  0.00     0.198 A 
ATOM     77  C   UNL A   1      45.038  36.491  29.006  1.00  0.00     0.198 A 
ATOM     78  F   UNL A   1      44.928  34.938  30.745  1.00  0.00    -0.203 F 
ATOM     79  F   UNL A   1      42.763  37.177  26.285  1.00  0.00    -0.200 F 
ATOM     80  C   UNL A   1      44.490  37.087  27.885  1.00  0.00     0.200 A 
ATOM     81  F   UNL A   1      46.149  36.997  29.557  1.00  0.00    -0.200 F 
ATOM     82  F   UNL A   1      45.069  38.170  27.348  1.00  0.00    -0.200 F 
ENDBRANCH  48  72
BRANCH  60  83
ATOM     83  C   UNL A   1      41.566  30.566  33.432  1.00  0.00     0.064 A 
ATOM     84  C   UNL A   1      40.499  31.377  33.859  1.00  0.00     0.173 A 
ATOM     85  C   UNL A   1      42.496  30.178  34.402  1.00  0.00     0.173 A 
ATOM     86  F   UNL A   1      39.509  31.704  33.026  1.00  0.00    -0.203 F 
ATOM     87  C   UNL A   1      40.390  31.811  35.179  1.00  0.00     0.198 A 
ATOM     88  C   UNL A   1      42.368  30.584  35.730  1.00  0.00     0.198 A 
ATOM     89  F   UNL A   1      43.501  29.352  34.074  1.00  0.00    -0.203 F 
ATOM     90  F   UNL A   1      39.360  32.587  35.549  1.00  0.00    -0.200 F 
ATOM     91  C   UNL A   1      41.323  31.408  36.116  1.00  0.00     0.200 A 
ATOM     92  F   UNL A   1      43.245  30.148  36.644  1.00  0.00    -0.200 F 
ATOM     93  F   UNL A   1      41.197  31.786  37.396  1.00  0.00    -0.200 F 
ENDBRANCH  60  83
ENDBRANCH  34  35
ENDBRANCH  26  29
ENDBRANCH  24  25
ENDBRANCH  23  24
ENDBRANCH   1  23
TORSDOF 14
ENDMDL
MODEL 3
REMARK VINA RESULT:     -12.4      3.220      7.670
REMARK SMILES CC(C)Cn1ncnc1C[N@H+]1CC[C@H](C(=O)NCCCNC(=O)c2ccc(-c3c4nc(c(-c5c(F)c(F)c(F)c(F)c5F)c5ccc([nH]5)c(-c5c(F)c(F)c(F)c(F)c5F)c5nc(c(-c6c(F)c(F)c(F)c(F)c6F)c6ccc3[nH]6)C=C5)C=C4)cc2)[C@@H]1C
REMARK SMILES IDX 18 1 17 2 15 3 16 4 14 6 11 7 12 8 87 9 13 11 88 12 10 13
REMARK SMILES IDX 9 14 5 15 6 16 7 17 8 18 4 19 2 20 1 21 3 22 19 23 20 24
REMARK SMILES IDX 21 25 22 26 23 28 24 29 25 30 86 31 26 32 85 33 27 34 28 35
REMARK SMILES IDX 29 36 79 37 30 38 84 39 78 40 80 41 31 42 83 43 77 44 76 45
REMARK SMILES IDX 32 47 64 48 44 49 63 50 45 51 48 52 62 53 81 54 46 55 47 56
REMARK SMILES IDX 61 58 82 59 49 60 33 61 34 62 42 63 35 64 36 65 40 66 43 67
REMARK SMILES IDX 37 68 38 69 41 70 39 71 65 72 66 73 74 74 67 75 68 76 72 77
REMARK SMILES IDX 75 78 69 79 70 80 73 81 71 82 50 83 51 84 59 85 52 86 53 87
REMARK SMILES IDX 57 88 60 89 54 90 55 91 58 92 56 93
REMARK H PARENT 17 5 11 10 21 27 80 46 48 57
REMARK Flexibility Score: inf
ROOT
ATOM      1  C   UNL A   1      36.780  21.850  24.240  1.00  0.00     0.117 C 
ENDROOT
BRANCH   1   2
ATOM      2  N   UNL A   1      35.713  21.305  25.070  1.00  0.00    -0.356 N 
ATOM      3  C   UNL A   1      34.364  21.517  25.019  1.00  0.00     0.229 C 
ATOM      4  O   UNL A   1      33.657  20.881  25.801  1.00  0.00    -0.275 OA
ATOM      5  H   UNL A   1      36.011  20.689  25.777  1.00  0.00     0.163 HD
BRANCH   3   6
ATOM      6  C   UNL A   1      33.798  22.425  23.942  1.00  0.00     0.142 C 
ATOM      7  N   UNL A   1      32.210  24.258  23.905  1.00  0.00    -0.326 N 
ATOM      8  C   UNL A   1      31.458  23.001  23.947  1.00  0.00     0.263 C 
ATOM      9  C   UNL A   1      33.603  23.916  24.282  1.00  0.00     0.194 C 
ATOM     10  H   UNL A   1      31.814  24.927  24.565  1.00  0.00     0.348 HD
ATOM     11  C   UNL A   1      32.420  21.907  23.527  1.00  0.00     0.081 C 
ATOM     12  C   UNL A   1      33.877  24.344  25.721  1.00  0.00     0.076 C 
BRANCH   7  13
ATOM     13  C   UNL A   1      32.096  24.994  22.627  1.00  0.00     0.340 C 
BRANCH  13  14
ATOM     14  C   UNL A   1      32.759  26.340  22.577  1.00  0.00     0.182 A 
ATOM     15  N   UNL A   1      32.356  27.470  23.245  1.00  0.00    -0.245 N 
ATOM     16  N   UNL A   1      33.001  28.554  22.766  1.00  0.00    -0.159 NA
ATOM     17  C   UNL A   1      33.911  28.002  21.970  1.00  0.00     0.246 A 
ATOM     18  N   UNL A   1      33.812  26.654  21.837  1.00  0.00    -0.214 NA
BRANCH  15  19
ATOM     19  C   UNL A   1      31.388  27.643  24.312  1.00  0.00     0.149 C 
BRANCH  19  20
ATOM     20  C   UNL A   1      32.002  28.183  25.624  1.00  0.00     0.004 C 
ATOM     21  C   UNL A   1      31.715  29.672  25.850  1.00  0.00     0.009 C 
ATOM     22  C   UNL A   1      31.467  27.389  26.818  1.00  0.00     0.009 C 
ENDBRANCH  19  20
ENDBRANCH  15  19
ENDBRANCH  13  14
ENDBRANCH   7  13
ENDBRANCH   3   6
ENDBRANCH   1   2
BRANCH   1  23
ATOM     23  C   UNL A   1      37.336  23.170  24.783  1.00  0.00     0.042 C 
BRANCH  23  24
ATOM     24  C   UNL A   1      37.783  23.044  26.229  1.00  0.00     0.118 C 
BRANCH  24  25
ATOM     25  N   UNL A   1      39.002  22.235  26.401  1.00  0.00    -0.352 N 
ATOM     26  C   UNL A   1      40.316  22.657  26.590  1.00  0.00     0.251 C 
ATOM     27  H   UNL A   1      38.869  21.259  26.381  1.00  0.00     0.163 HD
ATOM     28  O   UNL A   1      41.257  21.904  26.450  1.00  0.00    -0.269 OA
BRANCH  26  29
ATOM     29  C   UNL A   1      40.527  24.060  26.987  1.00  0.00     0.039 A 
ATOM     30  C   UNL A   1      39.863  25.142  26.399  1.00  0.00     0.014 A 
ATOM     31  C   UNL A   1      41.380  24.248  28.058  1.00  0.00     0.014 A 
ATOM     32  C   UNL A   1      40.028  26.408  26.964  1.00  0.00     0.010 A 
ATOM     33  C   UNL A   1      41.268  25.387  28.784  1.00  0.00     0.010 A 
ATOM     34  C   UNL A   1      40.737  26.510  28.166  1.00  0.00    -0.014 A 
BRANCH  34  35
ATOM     35  C   UNL A   1      40.987  27.756  28.875  1.00  0.00     0.031 A 
ATOM     36  C   UNL A   1      42.106  28.583  28.348  1.00  0.00     0.074 A 
ATOM     37  C   UNL A   1      40.006  28.248  29.673  1.00  0.00     0.049 A 
ATOM     38  N   UNL A   1      43.122  29.058  28.990  1.00  0.00    -0.248 NA
ATOM     39  C   UNL A   1      42.149  28.841  26.897  1.00  0.00     0.031 C 
ATOM     40  C   UNL A   1      38.692  27.650  29.980  1.00  0.00     0.029 A 
ATOM     41  N   UNL A   1      39.899  29.475  30.242  1.00  0.00    -0.354 N 
ATOM     42  C   UNL A   1      43.830  29.831  28.069  1.00  0.00     0.074 A 
ATOM     43  C   UNL A   1      43.295  29.513  26.773  1.00  0.00     0.031 C 
ATOM     44  C   UNL A   1      37.849  28.602  30.436  1.00  0.00     0.029 A 
ATOM     45  C   UNL A   1      38.608  29.817  30.636  1.00  0.00     0.049 A 
ATOM     46  H   UNL A   1      40.671  30.073  30.367  1.00  0.00     0.167 HD
ATOM     47  C   UNL A   1      44.624  30.862  28.471  1.00  0.00     0.037 A 
ATOM     48  C   UNL A   1      38.197  31.040  31.048  1.00  0.00     0.037 A 
ATOM     49  C   UNL A   1      44.932  30.772  29.874  1.00  0.00     0.049 A 
ATOM     50  C   UNL A   1      39.420  31.796  31.426  1.00  0.00     0.074 A 
ATOM     51  C   UNL A   1      45.567  29.835  30.667  1.00  0.00     0.029 A 
ATOM     52  N   UNL A   1      44.226  31.567  30.745  1.00  0.00    -0.354 N 
ATOM     53  N   UNL A   1      40.193  31.460  32.424  1.00  0.00    -0.248 NA
ATOM     54  C   UNL A   1      40.047  32.606  30.392  1.00  0.00     0.031 C 
ATOM     55  C   UNL A   1      44.803  29.799  31.873  1.00  0.00     0.029 A 
ATOM     56  C   UNL A   1      43.799  30.761  31.771  1.00  0.00     0.049 A 
ATOM     57  H   UNL A   1      44.057  32.533  30.650  1.00  0.00     0.167 HD
ATOM     58  C   UNL A   1      41.485  31.658  31.958  1.00  0.00     0.074 A 
ATOM     59  C   UNL A   1      41.329  32.422  30.721  1.00  0.00     0.031 C 
ATOM     60  C   UNL A   1      42.535  30.930  32.446  1.00  0.00     0.037 A 
BRANCH  47  61
ATOM     61  C   UNL A   1      44.815  32.140  27.691  1.00  0.00     0.064 A 
ATOM     62  C   UNL A   1      45.999  32.322  26.949  1.00  0.00     0.173 A 
ATOM     63  C   UNL A   1      44.034  33.301  27.884  1.00  0.00     0.173 A 
ATOM     64  F   UNL A   1      46.826  31.290  26.722  1.00  0.00    -0.203 F 
ATOM     65  C   UNL A   1      46.406  33.584  26.506  1.00  0.00     0.198 A 
ATOM     66  C   UNL A   1      44.414  34.547  27.390  1.00  0.00     0.198 A 
ATOM     67  F   UNL A   1      42.938  33.304  28.650  1.00  0.00    -0.203 F 
ATOM     68  F   UNL A   1      47.601  33.728  25.918  1.00  0.00    -0.200 F 
ATOM     69  C   UNL A   1      45.616  34.696  26.733  1.00  0.00     0.200 A 
ATOM     70  F   UNL A   1      43.643  35.616  27.636  1.00  0.00    -0.200 F 
ATOM     71  F   UNL A   1      46.033  35.915  26.366  1.00  0.00    -0.200 F 
ENDBRANCH  47  61
BRANCH  48  72
ATOM     72  C   UNL A   1      36.890  31.686  30.776  1.00  0.00     0.064 A 
ATOM     73  C   UNL A   1      36.003  32.008  31.814  1.00  0.00     0.173 A 
ATOM     74  C   UNL A   1      36.598  32.239  29.511  1.00  0.00     0.173 A 
ATOM     75  F   UNL A   1      36.237  31.567  33.058  1.00  0.00    -0.203 F 
ATOM     76  C   UNL A   1      34.897  32.840  31.603  1.00  0.00     0.198 A 
ATOM     77  C   UNL A   1      35.492  33.064  29.300  1.00  0.00     0.198 A 
ATOM     78  F   UNL A   1      37.433  32.063  28.476  1.00  0.00    -0.203 F 
ATOM     79  F   UNL A   1      34.100  33.168  32.630  1.00  0.00    -0.200 F 
ATOM     80  C   UNL A   1      34.646  33.374  30.349  1.00  0.00     0.200 A 
ATOM     81  F   UNL A   1      35.286  33.606  28.091  1.00  0.00    -0.200 F 
ATOM     82  F   UNL A   1      33.620  34.215  30.160  1.00  0.00    -0.200 F 
ENDBRANCH  48  72
BRANCH  60  83
ATOM     83  C   UNL A   1      42.283  30.046  33.639  1.00  0.00     0.064 A 
ATOM     84  C   UNL A   1      41.924  28.689  33.545  1.00  0.00     0.173 A 
ATOM     85  C   UNL A   1      42.580  30.536  34.915  1.00  0.00     0.173 A 
ATOM     86  F   UNL A   1      41.729  28.110  32.359  1.00  0.00    -0.203 F 
ATOM     87  C   UNL A   1      41.826  27.876  34.674  1.00  0.00     0.198 A 
ATOM     88  C   UNL A   1      42.515  29.715  36.039  1.00  0.00     0.198 A 
ATOM     89  F   UNL A   1      42.992  31.805  35.065  1.00  0.00    -0.203 F 
ATOM     90  F   UNL A   1      41.477  26.587  34.547  1.00  0.00    -0.200 F 
ATOM     91  C   UNL A   1      42.129  28.389  35.921  1.00  0.00     0.200 A 
ATOM     92  F   UNL A   1      42.861  30.203  37.238  1.00  0.00    -0.200 F 
ATOM     93  F   UNL A   1      42.081  27.600  37.003  1.00  0.00    -0.200 F 
ENDBRANCH  60  83
ENDBRANCH  34  35
ENDBRANCH  26  29
ENDBRANCH  24  25
ENDBRANCH  23  24
ENDBRANCH   1  23
TORSDOF 14
ENDMDL
