MODEL 1
REMARK VINA RESULT:     -14.5      0.000      0.000
REMARK SMILES CC1(C)Cc2c(-c3ccccc3)c(-c3ccc(Cl)cc3)c(CC(=O)NCCCNC(=O)c3ccc(-c4c5nc(c(-c6c(F)c(F)c(F)c(F)c6F)c6ccc([nH]6)c(-c6c(F)c(F)c(F)c(F)c6F)c6nc(c(-c7c(F)c(F)c(F)c(F)c7F)c7ccc4[nH]7)C=C6)C=C5)cc3)n2C1
REMARK SMILES IDX 27 1 26 2 25 3 23 4 24 5 22 7 21 8 1 9 2 10 3 11 4 12 96 13
REMARK SMILES IDX 5 14 95 15 6 16 13 17 7 18 8 19 12 20 9 21 11 22 10 23 14 24
REMARK SMILES IDX 15 25 20 26 16 27 19 28 17 29 18 30 28 31 29 32 30 33 31 35
REMARK SMILES IDX 32 36 33 37 94 38 34 39 93 40 35 41 36 42 37 43 87 44 38 45
REMARK SMILES IDX 92 46 86 47 88 48 39 49 91 50 85 51 84 52 40 54 72 55 52 56
REMARK SMILES IDX 71 57 53 58 56 59 70 60 89 61 54 62 55 63 69 65 90 66 57 67
REMARK SMILES IDX 41 68 42 69 50 70 43 71 44 72 48 73 51 74 45 75 46 76 49 77
REMARK SMILES IDX 47 78 73 79 74 80 82 81 75 82 76 83 80 84 83 85 77 86 78 87
REMARK SMILES IDX 81 88 79 89 58 90 59 91 67 92 60 93 61 94 65 95 68 96 62 97
REMARK SMILES IDX 63 98 66 99 64 100
REMARK H PARENT 25 6 29 34 88 53 56 64
REMARK Flexibility Score: inf
ROOT
ATOM      1  C   UNL A   1      38.275  21.525  25.584  1.00  0.00     0.042 C 
ENDROOT
BRANCH   1   2
ATOM      2  C   UNL A   1      36.968  22.216  25.205  1.00  0.00     0.117 C 
BRANCH   2   3
ATOM      3  N   UNL A   1      35.995  22.255  26.272  1.00  0.00    -0.356 N 
ATOM      4  C   UNL A   1      35.065  23.221  26.539  1.00  0.00     0.225 C 
ATOM      5  O   UNL A   1      34.202  22.961  27.379  1.00  0.00    -0.275 OA
ATOM      6  H   UNL A   1      36.002  21.486  26.887  1.00  0.00     0.163 HD
BRANCH   4   7
ATOM      7  C   UNL A   1      35.072  24.540  25.779  1.00  0.00     0.154 C 
BRANCH   7   8
ATOM      8  C   UNL A   1      33.792  24.825  25.044  1.00  0.00     0.036 A 
ATOM      9  C   UNL A   1      32.083  20.895  22.433  1.00  0.00     0.013 C 
ATOM     10  C   UNL A   1      32.485  22.369  22.579  1.00  0.00    -0.012 C 
ATOM     11  C   UNL A   1      33.054  22.855  21.231  1.00  0.00     0.013 C 
ATOM     12  C   UNL A   1      31.293  23.299  22.976  1.00  0.00     0.063 C 
ATOM     13  C   UNL A   1      33.497  22.566  23.752  1.00  0.00     0.129 C 
ATOM     14  C   UNL A   1      31.965  24.332  23.803  1.00  0.00     0.027 A 
ATOM     15  N   UNL A   1      33.182  23.902  24.245  1.00  0.00    -0.346 N 
ATOM     16  C   UNL A   1      31.782  25.616  24.241  1.00  0.00     0.011 A 
ATOM     17  C   UNL A   1      32.938  25.938  25.044  1.00  0.00     0.011 A 
BRANCH  16  18
ATOM     18  C   UNL A   1      30.630  26.434  23.914  1.00  0.00    -0.016 A 
ATOM     19  C   UNL A   1      30.775  27.595  23.146  1.00  0.00     0.009 A 
ATOM     20  C   UNL A   1      29.353  26.036  24.327  1.00  0.00     0.009 A 
ATOM     21  C   UNL A   1      29.652  28.344  22.792  1.00  0.00     0.001 A 
ATOM     22  C   UNL A   1      28.232  26.784  23.971  1.00  0.00     0.001 A 
ATOM     23  C   UNL A   1      28.382  27.939  23.203  1.00  0.00     0.000 A 
ENDBRANCH  16  18
BRANCH  17  24
ATOM     24  C   UNL A   1      33.157  27.180  25.779  1.00  0.00    -0.016 A 
ATOM     25  C   UNL A   1      32.296  27.522  26.831  1.00  0.00     0.010 A 
ATOM     26  C   UNL A   1      34.122  28.104  25.366  1.00  0.00     0.010 A 
ATOM     27  C   UNL A   1      32.405  28.764  27.465  1.00  0.00     0.021 A 
ATOM     28  C   UNL A   1      34.252  29.336  26.015  1.00  0.00     0.021 A 
ATOM     29  C   UNL A   1      33.388  29.663  27.056  1.00  0.00     0.041 A 
ATOM     30  Cl  UNL A   1      33.514  31.200  27.821  1.00  0.00    -0.084 Cl
ENDBRANCH  17  24
ENDBRANCH   7   8
ENDBRANCH   4   7
ENDBRANCH   2   3
ENDBRANCH   1   2
BRANCH   1  31
ATOM     31  C   UNL A   1      39.158  22.383  26.458  1.00  0.00     0.118 C 
BRANCH  31  32
ATOM     32  N   UNL A   1      40.575  22.250  26.105  1.00  0.00    -0.352 N 
ATOM     33  C   UNL A   1      41.550  23.221  26.122  1.00  0.00     0.251 C 
ATOM     34  H   UNL A   1      40.864  21.353  25.818  1.00  0.00     0.163 HD
ATOM     35  O   UNL A   1      42.607  23.064  25.509  1.00  0.00    -0.269 OA
BRANCH  33  36
ATOM     36  C   UNL A   1      41.301  24.455  26.878  1.00  0.00     0.039 A 
ATOM     37  C   UNL A   1      41.830  24.647  28.156  1.00  0.00     0.014 A 
ATOM     38  C   UNL A   1      40.565  25.457  26.253  1.00  0.00     0.014 A 
ATOM     39  C   UNL A   1      41.674  25.892  28.756  1.00  0.00     0.010 A 
ATOM     40  C   UNL A   1      40.589  26.729  26.751  1.00  0.00     0.010 A 
ATOM     41  C   UNL A   1      41.075  26.937  28.032  1.00  0.00    -0.014 A 
BRANCH  41  42
ATOM     42  C   UNL A   1      41.067  28.300  28.544  1.00  0.00     0.031 A 
ATOM     43  C   UNL A   1      42.168  29.129  27.993  1.00  0.00     0.074 A 
ATOM     44  C   UNL A   1      40.046  28.811  29.271  1.00  0.00     0.049 A 
ATOM     45  N   UNL A   1      43.212  29.550  28.623  1.00  0.00    -0.248 NA
ATOM     46  C   UNL A   1      42.219  29.371  26.539  1.00  0.00     0.031 C 
ATOM     47  C   UNL A   1      38.760  28.169  29.586  1.00  0.00     0.029 A 
ATOM     48  N   UNL A   1      39.891  30.056  29.807  1.00  0.00    -0.354 N 
ATOM     49  C   UNL A   1      43.914  30.333  27.710  1.00  0.00     0.074 A 
ATOM     50  C   UNL A   1      43.388  30.007  26.414  1.00  0.00     0.031 C 
ATOM     51  C   UNL A   1      37.882  29.093  30.031  1.00  0.00     0.029 A 
ATOM     52  C   UNL A   1      38.591  30.342  30.223  1.00  0.00     0.049 A 
ATOM     53  H   UNL A   1      40.632  30.697  29.893  1.00  0.00     0.167 HD
ATOM     54  C   UNL A   1      44.614  31.415  28.155  1.00  0.00     0.037 A 
ATOM     55  C   UNL A   1      38.131  31.521  30.707  1.00  0.00     0.037 A 
ATOM     56  C   UNL A   1      44.749  31.358  29.590  1.00  0.00     0.049 A 
ATOM     57  C   UNL A   1      39.300  32.278  31.200  1.00  0.00     0.074 A 
ATOM     58  C   UNL A   1      45.509  30.663  30.503  1.00  0.00     0.029 A 
ATOM     59  N   UNL A   1      43.652  31.841  30.253  1.00  0.00    -0.354 N 
ATOM     60  N   UNL A   1      40.006  31.905  32.232  1.00  0.00    -0.248 NA
ATOM     61  C   UNL A   1      39.932  33.260  30.327  1.00  0.00     0.031 C 
ATOM     62  C   UNL A   1      44.753  30.637  31.715  1.00  0.00     0.029 A 
ATOM     63  C   UNL A   1      43.580  31.364  31.531  1.00  0.00     0.049 A 
ATOM     64  H   UNL A   1      42.995  32.458  29.856  1.00  0.00     0.167 HD
ATOM     65  C   UNL A   1      41.298  32.256  31.898  1.00  0.00     0.074 A 
ATOM     66  C   UNL A   1      41.172  33.235  30.826  1.00  0.00     0.031 C 
ATOM     67  C   UNL A   1      42.348  31.472  32.277  1.00  0.00     0.037 A 
BRANCH  54  68
ATOM     68  C   UNL A   1      44.704  32.751  27.442  1.00  0.00     0.064 A 
ATOM     69  C   UNL A   1      45.867  33.038  26.692  1.00  0.00     0.173 A 
ATOM     70  C   UNL A   1      43.884  33.864  27.727  1.00  0.00     0.173 A 
ATOM     71  F   UNL A   1      46.732  32.063  26.372  1.00  0.00    -0.203 F 
ATOM     72  C   UNL A   1      46.215  34.344  26.330  1.00  0.00     0.198 A 
ATOM     73  C   UNL A   1      44.211  35.159  27.323  1.00  0.00     0.198 A 
ATOM     74  F   UNL A   1      42.797  33.774  28.500  1.00  0.00    -0.203 F 
ATOM     75  F   UNL A   1      47.387  34.578  25.725  1.00  0.00    -0.200 F 
ATOM     76  C   UNL A   1      45.390  35.404  26.653  1.00  0.00     0.200 A 
ATOM     77  F   UNL A   1      43.409  36.176  27.668  1.00  0.00    -0.200 F 
ATOM     78  F   UNL A   1      45.747  36.662  26.362  1.00  0.00    -0.200 F 
ENDBRANCH  54  68
BRANCH  55  79
ATOM     79  C   UNL A   1      36.792  32.137  30.590  1.00  0.00     0.064 A 
ATOM     80  C   UNL A   1      35.888  32.136  31.666  1.00  0.00     0.173 A 
ATOM     81  C   UNL A   1      36.497  33.003  29.521  1.00  0.00     0.173 A 
ATOM     82  F   UNL A   1      36.118  31.367  32.739  1.00  0.00    -0.203 F 
ATOM     83  C   UNL A   1      34.775  32.984  31.688  1.00  0.00     0.198 A 
ATOM     84  C   UNL A   1      35.386  33.850  29.546  1.00  0.00     0.198 A 
ATOM     85  F   UNL A   1      37.339  33.114  28.483  1.00  0.00    -0.203 F 
ATOM     86  F   UNL A   1      33.972  33.005  32.762  1.00  0.00    -0.200 F 
ATOM     87  C   UNL A   1      34.535  33.851  30.636  1.00  0.00     0.200 A 
ATOM     88  F   UNL A   1      35.186  34.714  28.541  1.00  0.00    -0.200 F 
ATOM     89  F   UNL A   1      33.512  34.716  30.691  1.00  0.00    -0.200 F 
ENDBRANCH  55  79
BRANCH  67  90
ATOM     90  C   UNL A   1      42.147  30.573  33.455  1.00  0.00     0.064 A 
ATOM     91  C   UNL A   1      42.248  30.974  34.797  1.00  0.00     0.173 A 
ATOM     92  C   UNL A   1      41.766  29.250  33.200  1.00  0.00     0.173 A 
ATOM     93  F   UNL A   1      42.540  32.240  35.120  1.00  0.00    -0.203 F 
ATOM     94  C   UNL A   1      42.011  30.072  35.835  1.00  0.00     0.198 A 
ATOM     95  C   UNL A   1      41.495  28.364  34.234  1.00  0.00     0.198 A 
ATOM     96  F   UNL A   1      41.620  28.827  31.934  1.00  0.00    -0.203 F 
ATOM     97  F   UNL A   1      42.130  30.468  37.110  1.00  0.00    -0.200 F 
ATOM     98  C   UNL A   1      41.628  28.771  35.551  1.00  0.00     0.200 A 
ATOM     99  F   UNL A   1      41.086  27.119  33.953  1.00  0.00    -0.200 F 
ATOM    100  F   UNL A   1      41.369  27.912  36.547  1.00  0.00    -0.200 F 
ENDBRANCH  67  90
ENDBRANCH  41  42
ENDBRANCH  33  36
ENDBRANCH  31  32
ENDBRANCH   1  31
TORSDOF 13
ENDMDL
MODEL 2
REMARK VINA RESULT:     -14.1      3.410      8.890
REMARK SMILES CC1(C)Cc2c(-c3ccccc3)c(-c3ccc(Cl)cc3)c(CC(=O)NCCCNC(=O)c3ccc(-c4c5nc(c(-c6c(F)c(F)c(F)c(F)c6F)c6ccc([nH]6)c(-c6c(F)c(F)c(F)c(F)c6F)c6nc(c(-c7c(F)c(F)c(F)c(F)c7F)c7ccc4[nH]7)C=C6)C=C5)cc3)n2C1
REMARK SMILES IDX 27 1 26 2 25 3 23 4 24 5 22 7 21 8 1 9 2 10 3 11 4 12 96 13
REMARK SMILES IDX 5 14 95 15 6 16 13 17 7 18 8 19 12 20 9 21 11 22 10 23 14 24
REMARK SMILES IDX 15 25 20 26 16 27 19 28 17 29 18 30 28 31 29 32 30 33 31 35
REMARK SMILES IDX 32 36 33 37 94 38 34 39 93 40 35 41 36 42 37 43 87 44 38 45
REMARK SMILES IDX 92 46 86 47 88 48 39 49 91 50 85 51 84 52 40 54 72 55 52 56
REMARK SMILES IDX 71 57 53 58 56 59 70 60 89 61 54 62 55 63 69 65 90 66 57 67
REMARK SMILES IDX 41 68 42 69 50 70 43 71 44 72 48 73 51 74 45 75 46 76 49 77
REMARK SMILES IDX 47 78 73 79 74 80 82 81 75 82 76 83 80 84 83 85 77 86 78 87
REMARK SMILES IDX 81 88 79 89 58 90 59 91 67 92 60 93 61 94 65 95 68 96 62 97
REMARK SMILES IDX 63 98 66 99 64 100
REMARK H PARENT 25 6 29 34 88 53 56 64
REMARK Flexibility Score: inf
ROOT
ATOM      1  C   UNL A   1      33.131  30.877  27.234  1.00  0.00     0.042 C 
ENDROOT
BRANCH   1   2
ATOM      2  C   UNL A   1      33.186  29.431  26.747  1.00  0.00     0.117 C 
BRANCH   2   3
ATOM      3  N   UNL A   1      33.560  29.294  25.359  1.00  0.00    -0.356 N 
ATOM      4  C   UNL A   1      33.999  28.178  24.704  1.00  0.00     0.225 C 
ATOM      5  O   UNL A   1      34.073  28.234  23.474  1.00  0.00    -0.275 OA
ATOM      6  H   UNL A   1      33.490  30.112  24.814  1.00  0.00     0.163 HD
BRANCH   4   7
ATOM      7  C   UNL A   1      34.326  26.903  25.469  1.00  0.00     0.154 C 
BRANCH   7   8
ATOM      8  C   UNL A   1      33.530  25.707  25.026  1.00  0.00     0.036 A 
ATOM      9  C   UNL A   1      28.779  26.811  23.842  1.00  0.00     0.013 C 
ATOM     10  C   UNL A   1      29.851  25.994  24.577  1.00  0.00    -0.012 C 
ATOM     11  C   UNL A   1      29.274  25.540  25.933  1.00  0.00     0.013 C 
ATOM     12  C   UNL A   1      30.311  24.726  23.787  1.00  0.00     0.063 C 
ATOM     13  C   UNL A   1      31.171  26.811  24.741  1.00  0.00     0.129 C 
ATOM     14  C   UNL A   1      31.737  24.611  24.186  1.00  0.00     0.027 A 
ATOM     15  N   UNL A   1      32.207  25.785  24.697  1.00  0.00    -0.346 N 
ATOM     16  C   UNL A   1      32.743  23.685  24.253  1.00  0.00     0.011 A 
ATOM     17  C   UNL A   1      33.896  24.376  24.777  1.00  0.00     0.011 A 
BRANCH  16  18
ATOM     18  C   UNL A   1      32.600  22.295  23.862  1.00  0.00    -0.016 A 
ATOM     19  C   UNL A   1      32.692  21.274  24.814  1.00  0.00     0.009 A 
ATOM     20  C   UNL A   1      32.318  21.972  22.530  1.00  0.00     0.009 A 
ATOM     21  C   UNL A   1      32.499  19.945  24.436  1.00  0.00     0.001 A 
ATOM     22  C   UNL A   1      32.124  20.643  22.153  1.00  0.00     0.001 A 
ATOM     23  C   UNL A   1      32.214  19.630  23.107  1.00  0.00     0.000 A 
ENDBRANCH  16  18
BRANCH  17  24
ATOM     24  C   UNL A   1      35.228  23.811  24.962  1.00  0.00    -0.016 A 
ATOM     25  C   UNL A   1      35.748  22.935  23.999  1.00  0.00     0.010 A 
ATOM     26  C   UNL A   1      35.942  24.013  26.148  1.00  0.00     0.010 A 
ATOM     27  C   UNL A   1      36.966  22.281  24.214  1.00  0.00     0.021 A 
ATOM     28  C   UNL A   1      37.173  23.381  26.355  1.00  0.00     0.021 A 
ATOM     29  C   UNL A   1      37.675  22.512  25.391  1.00  0.00     0.041 A 
ATOM     30  Cl  UNL A   1      39.163  21.694  25.669  1.00  0.00    -0.084 Cl
ENDBRANCH  17  24
ENDBRANCH   7   8
ENDBRANCH   4   7
ENDBRANCH   2   3
ENDBRANCH   1   2
BRANCH   1  31
ATOM     31  C   UNL A   1      34.483  31.405  27.653  1.00  0.00     0.118 C 
BRANCH  31  32
ATOM     32  N   UNL A   1      34.446  32.011  28.987  1.00  0.00    -0.352 N 
ATOM     33  C   UNL A   1      35.254  31.740  30.067  1.00  0.00     0.251 C 
ATOM     34  H   UNL A   1      33.755  32.699  29.128  1.00  0.00     0.163 HD
ATOM     35  O   UNL A   1      34.923  32.078  31.204  1.00  0.00    -0.269 OA
BRANCH  33  36
ATOM     36  C   UNL A   1      36.518  31.027  29.839  1.00  0.00     0.039 A 
ATOM     37  C   UNL A   1      37.713  31.712  29.612  1.00  0.00     0.014 A 
ATOM     38  C   UNL A   1      36.496  29.637  29.914  1.00  0.00     0.014 A 
ATOM     39  C   UNL A   1      38.893  30.980  29.545  1.00  0.00     0.010 A 
ATOM     40  C   UNL A   1      37.667  28.946  30.051  1.00  0.00     0.010 A 
ATOM     41  C   UNL A   1      38.863  29.597  29.794  1.00  0.00    -0.014 A 
BRANCH  41  42
ATOM     42  C   UNL A   1      40.092  28.828  29.926  1.00  0.00     0.031 A 
ATOM     43  C   UNL A   1      40.540  28.696  31.336  1.00  0.00     0.074 A 
ATOM     44  C   UNL A   1      40.644  28.134  28.904  1.00  0.00     0.049 A 
ATOM     45  N   UNL A   1      41.560  29.267  31.882  1.00  0.00    -0.248 NA
ATOM     46  C   UNL A   1      39.665  28.002  32.299  1.00  0.00     0.031 C 
ATOM     47  C   UNL A   1      40.092  27.934  27.555  1.00  0.00     0.029 A 
ATOM     48  N   UNL A   1      41.774  27.369  28.875  1.00  0.00    -0.354 N 
ATOM     49  C   UNL A   1      41.604  28.788  33.190  1.00  0.00     0.074 A 
ATOM     50  C   UNL A   1      40.315  28.209  33.448  1.00  0.00     0.031 C 
ATOM     51  C   UNL A   1      40.745  26.927  26.935  1.00  0.00     0.029 A 
ATOM     52  C   UNL A   1      41.879  26.546  27.754  1.00  0.00     0.049 A 
ATOM     53  H   UNL A   1      42.455  27.396  29.584  1.00  0.00     0.167 HD
ATOM     54  C   UNL A   1      42.811  28.617  33.799  1.00  0.00     0.037 A 
ATOM     55  C   UNL A   1      42.841  25.626  27.506  1.00  0.00     0.037 A 
ATOM     56  C   UNL A   1      43.843  29.284  33.045  1.00  0.00     0.049 A 
ATOM     57  C   UNL A   1      44.012  25.982  28.334  1.00  0.00     0.074 A 
ATOM     58  C   UNL A   1      44.276  30.577  32.857  1.00  0.00     0.029 A 
ATOM     59  N   UNL A   1      44.309  28.540  31.995  1.00  0.00    -0.354 N 
ATOM     60  N   UNL A   1      44.719  27.062  28.140  1.00  0.00    -0.248 NA
ATOM     61  C   UNL A   1      44.191  25.338  29.630  1.00  0.00     0.031 C 
ATOM     62  C   UNL A   1      44.911  30.604  31.578  1.00  0.00     0.029 A 
ATOM     63  C   UNL A   1      44.902  29.319  31.043  1.00  0.00     0.049 A 
ATOM     64  H   UNL A   1      44.226  27.560  31.934  1.00  0.00     0.167 HD
ATOM     65  C   UNL A   1      45.075  27.462  29.411  1.00  0.00     0.074 A 
ATOM     66  C   UNL A   1      44.890  26.289  30.256  1.00  0.00     0.031 C 
ATOM     67  C   UNL A   1      45.151  28.788  29.722  1.00  0.00     0.037 A 
BRANCH  54  68
ATOM     68  C   UNL A   1      43.172  27.459  34.711  1.00  0.00     0.064 A 
ATOM     69  C   UNL A   1      43.500  27.737  36.057  1.00  0.00     0.173 A 
ATOM     70  C   UNL A   1      43.533  26.171  34.259  1.00  0.00     0.173 A 
ATOM     71  F   UNL A   1      43.221  28.934  36.595  1.00  0.00    -0.203 F 
ATOM     72  C   UNL A   1      44.203  26.827  36.855  1.00  0.00     0.198 A 
ATOM     73  C   UNL A   1      44.192  25.249  35.073  1.00  0.00     0.198 A 
ATOM     74  F   UNL A   1      43.371  25.786  32.990  1.00  0.00    -0.203 F 
ATOM     75  F   UNL A   1      44.597  27.184  38.085  1.00  0.00    -0.200 F 
ATOM     76  C   UNL A   1      44.555  25.587  36.359  1.00  0.00     0.200 A 
ATOM     77  F   UNL A   1      44.545  24.060  34.564  1.00  0.00    -0.200 F 
ATOM     78  F   UNL A   1      45.279  24.736  37.096  1.00  0.00    -0.200 F 
ENDBRANCH  54  68
BRANCH  55  79
ATOM     79  C   UNL A   1      42.762  24.345  26.772  1.00  0.00     0.064 A 
ATOM     80  C   UNL A   1      43.328  24.196  25.495  1.00  0.00     0.173 A 
ATOM     81  C   UNL A   1      42.399  23.162  27.441  1.00  0.00     0.173 A 
ATOM     82  F   UNL A   1      43.735  25.272  24.808  1.00  0.00    -0.203 F 
ATOM     83  C   UNL A   1      43.555  22.933  24.937  1.00  0.00     0.198 A 
ATOM     84  C   UNL A   1      42.627  21.901  26.883  1.00  0.00     0.198 A 
ATOM     85  F   UNL A   1      41.911  23.209  28.690  1.00  0.00    -0.203 F 
ATOM     86  F   UNL A   1      44.158  22.827  23.745  1.00  0.00    -0.200 F 
ATOM     87  C   UNL A   1      43.219  21.787  25.638  1.00  0.00     0.200 A 
ATOM     88  F   UNL A   1      42.336  20.799  27.588  1.00  0.00    -0.200 F 
ATOM     89  F   UNL A   1      43.504  20.577  25.136  1.00  0.00    -0.200 F 
ENDBRANCH  55  79
BRANCH  67  90
ATOM     90  C   UNL A   1      45.369  29.749  28.598  1.00  0.00     0.064 A 
ATOM     91  C   UNL A   1      44.347  30.413  27.900  1.00  0.00     0.173 A 
ATOM     92  C   UNL A   1      46.692  30.058  28.260  1.00  0.00     0.173 A 
ATOM     93  F   UNL A   1      43.059  30.223  28.213  1.00  0.00    -0.203 F 
ATOM     94  C   UNL A   1      44.645  31.321  26.884  1.00  0.00     0.198 A 
ATOM     95  C   UNL A   1      46.987  30.989  27.273  1.00  0.00     0.198 A 
ATOM     96  F   UNL A   1      47.705  29.478  28.922  1.00  0.00    -0.203 F 
ATOM     97  F   UNL A   1      43.656  31.932  26.216  1.00  0.00    -0.200 F 
ATOM     98  C   UNL A   1      45.965  31.612  26.577  1.00  0.00     0.200 A 
ATOM     99  F   UNL A   1      48.265  31.296  27.010  1.00  0.00    -0.200 F 
ATOM    100  F   UNL A   1      46.253  32.508  25.623  1.00  0.00    -0.200 F 
ENDBRANCH  67  90
ENDBRANCH  41  42
ENDBRANCH  33  36
ENDBRANCH  31  32
ENDBRANCH   1  31
TORSDOF 13
ENDMDL
MODEL 3
REMARK VINA RESULT:     -13.8      3.887      8.198
REMARK SMILES CC1(C)Cc2c(-c3ccccc3)c(-c3ccc(Cl)cc3)c(CC(=O)NCCCNC(=O)c3ccc(-c4c5nc(c(-c6c(F)c(F)c(F)c(F)c6F)c6ccc([nH]6)c(-c6c(F)c(F)c(F)c(F)c6F)c6nc(c(-c7c(F)c(F)c(F)c(F)c7F)c7ccc4[nH]7)C=C6)C=C5)cc3)n2C1
REMARK SMILES IDX 27 1 26 2 25 3 23 4 24 5 22 7 21 8 1 9 2 10 3 11 4 12 96 13
REMARK SMILES IDX 5 14 95 15 6 16 13 17 7 18 8 19 12 20 9 21 11 22 10 23 14 24
REMARK SMILES IDX 15 25 20 26 16 27 19 28 17 29 18 30 28 31 29 32 30 33 31 35
REMARK SMILES IDX 32 36 33 37 94 38 34 39 93 40 35 41 36 42 37 43 87 44 38 45
REMARK SMILES IDX 92 46 86 47 88 48 39 49 91 50 85 51 84 52 40 54 72 55 52 56
REMARK SMILES IDX 71 57 53 58 56 59 70 60 89 61 54 62 55 63 69 65 90 66 57 67
REMARK SMILES IDX 41 68 42 69 50 70 43 71 44 72 48 73 51 74 45 75 46 76 49 77
REMARK SMILES IDX 47 78 73 79 74 80 82 81 75 82 76 83 80 84 83 85 77 86 78 87
REMARK SMILES IDX 81 88 79 89 58 90 59 91 67 92 60 93 61 94 65 95 68 96 62 97
REMARK SMILES IDX 63 98 66 99 64 100
REMARK H PARENT 25 6 29 34 88 53 56 64
REMARK Flexibility Score: inf
ROOT
ATOM      1  C   UNL A   1      34.469  30.450  27.086  1.00  0.00     0.042 C 
ENDROOT
BRANCH   1   2
ATOM      2  C   UNL A   1      33.368  29.677  26.365  1.00  0.00     0.117 C 
BRANCH   2   3
ATOM      3  N   UNL A   1      33.672  29.374  24.986  1.00  0.00    -0.356 N 
ATOM      4  C   UNL A   1      33.969  28.162  24.429  1.00  0.00     0.225 C 
ATOM      5  O   UNL A   1      33.999  28.096  23.198  1.00  0.00    -0.275 OA
ATOM      6  H   UNL A   1      33.665  30.140  24.368  1.00  0.00     0.163 HD
BRANCH   4   7
ATOM      7  C   UNL A   1      34.192  26.936  25.302  1.00  0.00     0.154 C 
BRANCH   7   8
ATOM      8  C   UNL A   1      33.380  25.740  24.891  1.00  0.00     0.036 A 
ATOM      9  C   UNL A   1      28.638  26.872  23.702  1.00  0.00     0.013 C 
ATOM     10  C   UNL A   1      29.703  26.060  24.451  1.00  0.00    -0.012 C 
ATOM     11  C   UNL A   1      29.126  25.645  25.820  1.00  0.00     0.013 C 
ATOM     12  C   UNL A   1      30.144  24.768  23.690  1.00  0.00     0.063 C 
ATOM     13  C   UNL A   1      31.033  26.864  24.591  1.00  0.00     0.129 C 
ATOM     14  C   UNL A   1      31.570  24.645  24.086  1.00  0.00     0.027 A 
ATOM     15  N   UNL A   1      32.057  25.826  24.566  1.00  0.00    -0.346 N 
ATOM     16  C   UNL A   1      32.565  23.709  24.169  1.00  0.00     0.011 A 
ATOM     17  C   UNL A   1      33.729  24.399  24.672  1.00  0.00     0.011 A 
BRANCH  16  18
ATOM     18  C   UNL A   1      32.404  22.312  23.813  1.00  0.00    -0.016 A 
ATOM     19  C   UNL A   1      32.178  21.937  22.484  1.00  0.00     0.009 A 
ATOM     20  C   UNL A   1      32.522  21.324  24.797  1.00  0.00     0.009 A 
ATOM     21  C   UNL A   1      32.079  20.587  22.145  1.00  0.00     0.001 A 
ATOM     22  C   UNL A   1      32.423  19.975  24.457  1.00  0.00     0.001 A 
ATOM     23  C   UNL A   1      32.202  19.608  23.130  1.00  0.00     0.000 A 
ENDBRANCH  16  18
BRANCH  17  24
ATOM     24  C   UNL A   1      35.055  23.822  24.865  1.00  0.00    -0.016 A 
ATOM     25  C   UNL A   1      35.709  23.213  23.784  1.00  0.00     0.010 A 
ATOM     26  C   UNL A   1      35.631  23.737  26.137  1.00  0.00     0.010 A 
ATOM     27  C   UNL A   1      36.921  22.541  23.972  1.00  0.00     0.021 A 
ATOM     28  C   UNL A   1      36.856  23.089  26.324  1.00  0.00     0.021 A 
ATOM     29  C   UNL A   1      37.491  22.488  25.241  1.00  0.00     0.041 A 
ATOM     30  Cl  UNL A   1      38.973  21.645  25.480  1.00  0.00    -0.084 Cl
ENDBRANCH  17  24
ENDBRANCH   7   8
ENDBRANCH   4   7
ENDBRANCH   2   3
ENDBRANCH   1   2
BRANCH   1  31
ATOM     31  C   UNL A   1      35.380  29.555  27.893  1.00  0.00     0.118 C 
BRANCH  31  32
ATOM     32  N   UNL A   1      35.462  29.975  29.295  1.00  0.00    -0.352 N 
ATOM     33  C   UNL A   1      36.445  29.687  30.213  1.00  0.00     0.251 C 
ATOM     34  H   UNL A   1      34.718  30.533  29.621  1.00  0.00     0.163 HD
ATOM     35  O   UNL A   1      36.242  29.827  31.420  1.00  0.00    -0.269 OA
BRANCH  33  36
ATOM     36  C   UNL A   1      37.741  29.198  29.726  1.00  0.00     0.039 A 
ATOM     37  C   UNL A   1      38.472  29.898  28.765  1.00  0.00     0.014 A 
ATOM     38  C   UNL A   1      38.249  28.036  30.301  1.00  0.00     0.014 A 
ATOM     39  C   UNL A   1      39.753  29.454  28.453  1.00  0.00     0.010 A 
ATOM     40  C   UNL A   1      39.570  27.722  30.147  1.00  0.00     0.010 A 
ATOM     41  C   UNL A   1      40.304  28.379  29.172  1.00  0.00    -0.014 A 
BRANCH  41  42
ATOM     42  C   UNL A   1      41.703  28.008  29.016  1.00  0.00     0.031 A 
ATOM     43  C   UNL A   1      41.883  26.751  28.246  1.00  0.00     0.074 A 
ATOM     44  C   UNL A   1      42.727  28.827  29.349  1.00  0.00     0.049 A 
ATOM     45  N   UNL A   1      42.265  25.608  28.706  1.00  0.00    -0.248 NA
ATOM     46  C   UNL A   1      41.417  26.699  26.848  1.00  0.00     0.031 C 
ATOM     47  C   UNL A   1      42.646  30.222  29.809  1.00  0.00     0.029 A 
ATOM     48  N   UNL A   1      44.074  28.627  29.255  1.00  0.00    -0.354 N 
ATOM     49  C   UNL A   1      42.343  24.764  27.600  1.00  0.00     0.074 A 
ATOM     50  C   UNL A   1      41.607  25.410  26.550  1.00  0.00     0.031 C 
ATOM     51  C   UNL A   1      43.860  30.807  29.718  1.00  0.00     0.029 A 
ATOM     52  C   UNL A   1      44.835  29.787  29.387  1.00  0.00     0.049 A 
ATOM     53  H   UNL A   1      44.473  27.740  29.106  1.00  0.00     0.167 HD
ATOM     54  C   UNL A   1      43.292  23.786  27.571  1.00  0.00     0.037 A 
ATOM     55  C   UNL A   1      46.179  29.901  29.252  1.00  0.00     0.037 A 
ATOM     56  C   UNL A   1      43.861  23.611  28.884  1.00  0.00     0.049 A 
ATOM     57  C   UNL A   1      46.754  28.554  29.449  1.00  0.00     0.074 A 
ATOM     58  C   UNL A   1      43.490  23.023  30.072  1.00  0.00     0.029 A 
ATOM     59  N   UNL A   1      44.851  24.513  29.166  1.00  0.00    -0.354 N 
ATOM     60  N   UNL A   1      46.725  27.929  30.594  1.00  0.00    -0.248 NA
ATOM     61  C   UNL A   1      47.037  27.724  28.284  1.00  0.00     0.031 C 
ATOM     62  C   UNL A   1      44.208  23.708  31.099  1.00  0.00     0.029 A 
ATOM     63  C   UNL A   1      45.042  24.656  30.511  1.00  0.00     0.049 A 
ATOM     64  H   UNL A   1      45.364  25.001  28.481  1.00  0.00     0.167 HD
ATOM     65  C   UNL A   1      46.548  26.605  30.247  1.00  0.00     0.074 A 
ATOM     66  C   UNL A   1      46.929  26.514  28.843  1.00  0.00     0.031 C 
ATOM     67  C   UNL A   1      45.784  25.784  31.024  1.00  0.00     0.037 A 
BRANCH  54  68
ATOM     68  C   UNL A   1      44.086  23.378  26.344  1.00  0.00     0.064 A 
ATOM     69  C   UNL A   1      44.091  22.017  25.965  1.00  0.00     0.173 A 
ATOM     70  C   UNL A   1      45.086  24.171  25.742  1.00  0.00     0.173 A 
ATOM     71  F   UNL A   1      43.197  21.160  26.484  1.00  0.00    -0.203 F 
ATOM     72  C   UNL A   1      45.067  21.484  25.116  1.00  0.00     0.198 A 
ATOM     73  C   UNL A   1      46.030  23.645  24.858  1.00  0.00     0.198 A 
ATOM     74  F   UNL A   1      45.271  25.456  26.061  1.00  0.00    -0.203 F 
ATOM     75  F   UNL A   1      45.101  20.165  24.883  1.00  0.00    -0.200 F 
ATOM     76  C   UNL A   1      46.040  22.298  24.570  1.00  0.00     0.200 A 
ATOM     77  F   UNL A   1      46.980  24.448  24.358  1.00  0.00    -0.200 F 
ATOM     78  F   UNL A   1      47.012  21.784  23.805  1.00  0.00    -0.200 F 
ENDBRANCH  54  68
BRANCH  55  79
ATOM     79  C   UNL A   1      46.990  31.035  28.760  1.00  0.00     0.064 A 
ATOM     80  C   UNL A   1      46.765  31.602  27.494  1.00  0.00     0.173 A 
ATOM     81  C   UNL A   1      47.791  31.776  29.648  1.00  0.00     0.173 A 
ATOM     82  F   UNL A   1      45.982  30.976  26.604  1.00  0.00    -0.203 F 
ATOM     83  C   UNL A   1      47.280  32.857  27.151  1.00  0.00     0.198 A 
ATOM     84  C   UNL A   1      48.303  33.030  29.305  1.00  0.00     0.198 A 
ATOM     85  F   UNL A   1      48.003  31.340  30.898  1.00  0.00    -0.203 F 
ATOM     86  F   UNL A   1      46.990  33.396  25.959  1.00  0.00    -0.200 F 
ATOM     87  C   UNL A   1      48.035  33.576  28.063  1.00  0.00     0.200 A 
ATOM     88  F   UNL A   1      48.997  33.735  30.209  1.00  0.00    -0.200 F 
ATOM     89  F   UNL A   1      48.465  34.810  27.762  1.00  0.00    -0.200 F 
ENDBRANCH  55  79
BRANCH  67  90
ATOM     90  C   UNL A   1      45.602  26.164  32.458  1.00  0.00     0.064 A 
ATOM     91  C   UNL A   1      44.486  26.842  32.974  1.00  0.00     0.173 A 
ATOM     92  C   UNL A   1      46.588  25.755  33.364  1.00  0.00     0.173 A 
ATOM     93  F   UNL A   1      43.470  27.203  32.180  1.00  0.00    -0.203 F 
ATOM     94  C   UNL A   1      44.386  27.126  34.336  1.00  0.00     0.198 A 
ATOM     95  C   UNL A   1      46.469  26.007  34.725  1.00  0.00     0.198 A 
ATOM     96  F   UNL A   1      47.658  25.071  32.927  1.00  0.00    -0.203 F 
ATOM     97  F   UNL A   1      43.321  27.791  34.807  1.00  0.00    -0.200 F 
ATOM     98  C   UNL A   1      45.374  26.703  35.209  1.00  0.00     0.200 A 
ATOM     99  F   UNL A   1      47.408  25.558  35.568  1.00  0.00    -0.200 F 
ATOM    100  F   UNL A   1      45.263  26.947  36.523  1.00  0.00    -0.200 F 
ENDBRANCH  67  90
ENDBRANCH  41  42
ENDBRANCH  33  36
ENDBRANCH  31  32
ENDBRANCH   1  31
TORSDOF 13
ENDMDL
