MODEL 1
REMARK VINA RESULT:     -14.3      0.000      0.000
REMARK SMILES Cc1ccc(F)c(-c2ccc(C(=O)NCCCNC(=O)c3ccc(-c4c5nc(c(-c6c(F)c(F)c(F)c(F)c6F)c6ccc([nH]6)c(-c6c(F)c(F)c(F)c(F)c6F)c6nc(c(-c7c(F)c(F)c(F)c(F)c7F)c7ccc4[nH]7)C=C6)C=C5)cc3)cc2C)c1
REMARK SMILES IDX 16 1 15 2 14 3 12 4 13 5 11 7 8 8 9 9 85 10 10 11 84 12
REMARK SMILES IDX 86 13 7 14 1 15 2 16 3 17 87 18 4 19 5 20 6 21 17 22 18 23
REMARK SMILES IDX 19 24 20 26 21 27 22 28 83 29 23 30 82 31 24 32 25 33 26 34
REMARK SMILES IDX 76 35 27 36 81 37 75 38 77 39 28 40 80 41 74 42 73 43 29 45
REMARK SMILES IDX 61 46 41 47 60 48 42 49 45 50 59 51 78 52 43 53 44 54 58 56
REMARK SMILES IDX 79 57 46 58 30 59 31 60 39 61 32 62 33 63 37 64 40 65 34 66
REMARK SMILES IDX 35 67 38 68 36 69 62 70 63 71 71 72 64 73 65 74 69 75 72 76
REMARK SMILES IDX 66 77 67 78 70 79 68 80 47 81 48 82 56 83 49 84 50 85 54 86
REMARK SMILES IDX 57 87 51 88 52 89 55 90 53 91
REMARK H PARENT 14 6 18 25 77 44 45 55
REMARK Flexibility Score: inf
ROOT
ATOM      1  C   UNL A   1      31.987  30.485  26.670  1.00  0.00     0.042 C 
ENDROOT
BRANCH   1   2
ATOM      2  C   UNL A   1      31.643  29.572  25.491  1.00  0.00     0.118 C 
BRANCH   2   3
ATOM      3  N   UNL A   1      32.608  29.702  24.409  1.00  0.00    -0.352 N 
ATOM      4  C   UNL A   1      33.354  28.778  23.714  1.00  0.00     0.251 C 
ATOM      5  O   UNL A   1      34.031  29.204  22.776  1.00  0.00    -0.269 OA
ATOM      6  H   UNL A   1      32.755  30.631  24.118  1.00  0.00     0.163 HD
BRANCH   4   7
ATOM      7  C   UNL A   1      33.377  27.312  24.013  1.00  0.00     0.040 A 
ATOM      8  C   UNL A   1      33.394  24.488  24.412  1.00  0.00    -0.012 A 
ATOM      9  C   UNL A   1      33.668  25.382  25.455  1.00  0.00     0.010 A 
ATOM     10  C   UNL A   1      33.140  25.018  23.133  1.00  0.00    -0.042 A 
ATOM     11  C   UNL A   1      33.663  26.761  25.256  1.00  0.00     0.014 A 
ATOM     12  C   UNL A   1      33.143  26.421  22.951  1.00  0.00     0.018 A 
ATOM     13  C   UNL A   1      32.902  24.157  21.921  1.00  0.00     0.045 C 
BRANCH   8  14
ATOM     14  C   UNL A   1      33.361  23.060  24.754  1.00  0.00     0.018 A 
ATOM     15  C   UNL A   1      35.868  20.184  25.002  1.00  0.00     0.044 C 
ATOM     16  C   UNL A   1      34.575  20.946  24.998  1.00  0.00    -0.050 A 
ATOM     17  C   UNL A   1      33.360  20.279  25.192  1.00  0.00     0.006 A 
ATOM     18  C   UNL A   1      34.565  22.332  24.793  1.00  0.00     0.015 A 
ATOM     19  C   UNL A   1      32.157  20.988  25.168  1.00  0.00     0.040 A 
ATOM     20  C   UNL A   1      32.164  22.363  24.945  1.00  0.00     0.131 A 
ATOM     21  F   UNL A   1      30.988  23.008  24.890  1.00  0.00    -0.206 F 
ENDBRANCH   8  14
ENDBRANCH   4   7
ENDBRANCH   2   3
ENDBRANCH   1   2
BRANCH   1  22
ATOM     22  C   UNL A   1      33.363  30.235  27.252  1.00  0.00     0.118 C 
BRANCH  22  23
ATOM     23  N   UNL A   1      33.922  31.372  27.969  1.00  0.00    -0.352 N 
ATOM     24  C   UNL A   1      35.073  31.449  28.739  1.00  0.00     0.251 C 
ATOM     25  H   UNL A   1      33.409  32.208  27.896  1.00  0.00     0.163 HD
ATOM     26  O   UNL A   1      35.339  32.472  29.337  1.00  0.00    -0.269 OA
BRANCH  24  27
ATOM     27  C   UNL A   1      36.041  30.322  28.710  1.00  0.00     0.039 A 
ATOM     28  C   UNL A   1      36.312  29.661  29.915  1.00  0.00     0.014 A 
ATOM     29  C   UNL A   1      36.814  30.070  27.585  1.00  0.00     0.014 A 
ATOM     30  C   UNL A   1      37.502  28.951  30.050  1.00  0.00     0.010 A 
ATOM     31  C   UNL A   1      38.050  29.488  27.752  1.00  0.00     0.010 A 
ATOM     32  C   UNL A   1      38.417  28.977  29.001  1.00  0.00    -0.014 A 
BRANCH  32  33
ATOM     33  C   UNL A   1      39.802  28.548  29.106  1.00  0.00     0.031 A 
ATOM     34  C   UNL A   1      40.176  27.184  28.684  1.00  0.00     0.074 A 
ATOM     35  C   UNL A   1      40.751  29.458  29.416  1.00  0.00     0.049 A 
ATOM     36  N   UNL A   1      41.295  26.614  28.974  1.00  0.00    -0.248 NA
ATOM     37  C   UNL A   1      39.280  26.322  27.924  1.00  0.00     0.031 C 
ATOM     38  C   UNL A   1      42.192  29.340  29.207  1.00  0.00     0.029 A 
ATOM     39  N   UNL A   1      40.605  30.635  30.171  1.00  0.00    -0.354 N 
ATOM     40  C   UNL A   1      41.388  25.454  28.239  1.00  0.00     0.074 A 
ATOM     41  C   UNL A   1      40.080  25.288  27.651  1.00  0.00     0.031 C 
ATOM     42  C   UNL A   1      42.822  30.188  30.035  1.00  0.00     0.029 A 
ATOM     43  C   UNL A   1      41.809  30.754  30.907  1.00  0.00     0.049 A 
ATOM     44  H   UNL A   1      39.832  31.245  30.185  1.00  0.00     0.167 HD
ATOM     45  C   UNL A   1      42.606  24.847  28.130  1.00  0.00     0.037 A 
ATOM     46  C   UNL A   1      41.826  30.672  32.269  1.00  0.00     0.037 A 
ATOM     47  C   UNL A   1      43.591  25.522  28.974  1.00  0.00     0.049 A 
ATOM     48  C   UNL A   1      42.710  29.571  32.805  1.00  0.00     0.074 A 
ATOM     49  C   UNL A   1      44.572  26.465  28.711  1.00  0.00     0.029 A 
ATOM     50  N   UNL A   1      43.443  25.484  30.355  1.00  0.00    -0.354 N 
ATOM     51  N   UNL A   1      43.065  28.525  32.113  1.00  0.00    -0.248 NA
ATOM     52  C   UNL A   1      43.246  29.555  34.161  1.00  0.00     0.031 C 
ATOM     53  C   UNL A   1      44.994  27.018  29.946  1.00  0.00     0.029 A 
ATOM     54  C   UNL A   1      44.283  26.398  30.959  1.00  0.00     0.049 A 
ATOM     55  H   UNL A   1      42.824  24.888  30.836  1.00  0.00     0.167 HD
ATOM     56  C   UNL A   1      43.847  27.706  32.889  1.00  0.00     0.074 A 
ATOM     57  C   UNL A   1      43.945  28.406  34.156  1.00  0.00     0.031 C 
ATOM     58  C   UNL A   1      44.333  26.521  32.409  1.00  0.00     0.037 A 
BRANCH  45  59
ATOM     59  C   UNL A   1      42.989  23.813  27.086  1.00  0.00     0.064 A 
ATOM     60  C   UNL A   1      42.581  22.465  27.230  1.00  0.00     0.173 A 
ATOM     61  C   UNL A   1      43.794  24.054  25.958  1.00  0.00     0.173 A 
ATOM     62  F   UNL A   1      41.729  22.088  28.190  1.00  0.00    -0.203 F 
ATOM     63  C   UNL A   1      43.030  21.444  26.385  1.00  0.00     0.198 A 
ATOM     64  C   UNL A   1      44.282  23.027  25.141  1.00  0.00     0.198 A 
ATOM     65  F   UNL A   1      44.085  25.293  25.553  1.00  0.00    -0.203 F 
ATOM     66  F   UNL A   1      42.610  20.186  26.582  1.00  0.00    -0.200 F 
ATOM     67  C   UNL A   1      43.909  21.720  25.361  1.00  0.00     0.200 A 
ATOM     68  F   UNL A   1      45.112  23.324  24.130  1.00  0.00    -0.200 F 
ATOM     69  F   UNL A   1      44.367  20.739  24.572  1.00  0.00    -0.200 F 
ENDBRANCH  45  59
BRANCH  46  70
ATOM     70  C   UNL A   1      40.558  31.139  32.889  1.00  0.00     0.064 A 
ATOM     71  C   UNL A   1      40.301  32.524  32.902  1.00  0.00     0.173 A 
ATOM     72  C   UNL A   1      39.469  30.276  33.055  1.00  0.00     0.173 A 
ATOM     73  F   UNL A   1      41.314  33.393  32.747  1.00  0.00    -0.203 F 
ATOM     74  C   UNL A   1      39.000  33.018  32.933  1.00  0.00     0.198 A 
ATOM     75  C   UNL A   1      38.165  30.778  33.106  1.00  0.00     0.198 A 
ATOM     76  F   UNL A   1      39.647  28.947  33.038  1.00  0.00    -0.203 F 
ATOM     77  F   UNL A   1      38.782  34.336  32.809  1.00  0.00    -0.200 F 
ATOM     78  C   UNL A   1      37.931  32.142  33.003  1.00  0.00     0.200 A 
ATOM     79  F   UNL A   1      37.127  29.930  33.148  1.00  0.00    -0.200 F 
ATOM     80  F   UNL A   1      36.676  32.606  32.924  1.00  0.00    -0.200 F 
ENDBRANCH  46  70
BRANCH  58  81
ATOM     81  C   UNL A   1      44.971  25.399  33.204  1.00  0.00     0.064 A 
ATOM     82  C   UNL A   1      46.348  25.126  33.231  1.00  0.00     0.173 A 
ATOM     83  C   UNL A   1      44.194  24.636  34.117  1.00  0.00     0.173 A 
ATOM     84  F   UNL A   1      47.221  25.844  32.516  1.00  0.00    -0.203 F 
ATOM     85  C   UNL A   1      46.896  24.136  34.057  1.00  0.00     0.198 A 
ATOM     86  C   UNL A   1      44.751  23.698  34.984  1.00  0.00     0.198 A 
ATOM     87  F   UNL A   1      42.867  24.798  34.222  1.00  0.00    -0.203 F 
ATOM     88  F   UNL A   1      48.213  23.892  34.011  1.00  0.00    -0.200 F 
ATOM     89  C   UNL A   1      46.102  23.435  34.943  1.00  0.00     0.200 A 
ATOM     90  F   UNL A   1      43.971  23.069  35.875  1.00  0.00    -0.200 F 
ATOM     91  F   UNL A   1      46.640  22.530  35.771  1.00  0.00    -0.200 F 
ENDBRANCH  58  81
ENDBRANCH  32  33
ENDBRANCH  24  27
ENDBRANCH  22  23
ENDBRANCH   1  22
TORSDOF 11
ENDMDL
MODEL 2
REMARK VINA RESULT:     -14.3      3.909      9.992
REMARK SMILES Cc1ccc(F)c(-c2ccc(C(=O)NCCCNC(=O)c3ccc(-c4c5nc(c(-c6c(F)c(F)c(F)c(F)c6F)c6ccc([nH]6)c(-c6c(F)c(F)c(F)c(F)c6F)c6nc(c(-c7c(F)c(F)c(F)c(F)c7F)c7ccc4[nH]7)C=C6)C=C5)cc3)cc2C)c1
REMARK SMILES IDX 16 1 15 2 14 3 12 4 13 5 11 7 8 8 9 9 85 10 10 11 84 12
REMARK SMILES IDX 86 13 7 14 1 15 2 16 3 17 87 18 4 19 5 20 6 21 17 22 18 23
REMARK SMILES IDX 19 24 20 26 21 27 22 28 83 29 23 30 82 31 24 32 25 33 26 34
REMARK SMILES IDX 76 35 27 36 81 37 75 38 77 39 28 40 80 41 74 42 73 43 29 45
REMARK SMILES IDX 61 46 41 47 60 48 42 49 45 50 59 51 78 52 43 53 44 54 58 56
REMARK SMILES IDX 79 57 46 58 30 59 31 60 39 61 32 62 33 63 37 64 40 65 34 66
REMARK SMILES IDX 35 67 38 68 36 69 62 70 63 71 71 72 64 73 65 74 69 75 72 76
REMARK SMILES IDX 66 77 67 78 70 79 68 80 47 81 48 82 56 83 49 84 50 85 54 86
REMARK SMILES IDX 57 87 51 88 52 89 55 90 53 91
REMARK H PARENT 14 6 18 25 77 44 45 55
REMARK Flexibility Score: inf
ROOT
ATOM      1  C   UNL A   1      37.047  22.524  24.739  1.00  0.00     0.042 C 
ENDROOT
BRANCH   1   2
ATOM      2  C   UNL A   1      36.396  23.299  23.592  1.00  0.00     0.118 C 
BRANCH   2   3
ATOM      3  N   UNL A   1      35.003  22.918  23.405  1.00  0.00    -0.352 N 
ATOM      4  C   UNL A   1      33.819  23.561  23.688  1.00  0.00     0.251 C 
ATOM      5  O   UNL A   1      32.784  22.999  23.326  1.00  0.00    -0.269 OA
ATOM      6  H   UNL A   1      34.886  22.030  22.999  1.00  0.00     0.163 HD
BRANCH   4   7
ATOM      7  C   UNL A   1      33.719  24.885  24.380  1.00  0.00     0.040 A 
ATOM      8  C   UNL A   1      33.553  27.484  25.542  1.00  0.00    -0.012 A 
ATOM      9  C   UNL A   1      33.320  26.323  26.292  1.00  0.00     0.010 A 
ATOM     10  C   UNL A   1      33.842  27.341  24.172  1.00  0.00    -0.042 A 
ATOM     11  C   UNL A   1      33.397  25.055  25.721  1.00  0.00     0.014 A 
ATOM     12  C   UNL A   1      33.913  26.044  23.610  1.00  0.00     0.018 A 
ATOM     13  C   UNL A   1      34.042  28.514  23.250  1.00  0.00     0.045 C 
BRANCH   8  14
ATOM     14  C   UNL A   1      33.511  28.761  26.265  1.00  0.00     0.018 A 
ATOM     15  C   UNL A   1      31.184  31.788  26.460  1.00  0.00     0.044 C 
ATOM     16  C   UNL A   1      32.364  30.887  26.675  1.00  0.00    -0.050 A 
ATOM     17  C   UNL A   1      33.450  31.315  27.448  1.00  0.00     0.006 A 
ATOM     18  C   UNL A   1      32.399  29.610  26.102  1.00  0.00     0.015 A 
ATOM     19  C   UNL A   1      34.556  30.482  27.629  1.00  0.00     0.040 A 
ATOM     20  C   UNL A   1      34.582  29.221  27.037  1.00  0.00     0.131 A 
ATOM     21  F   UNL A   1      35.676  28.461  27.199  1.00  0.00    -0.206 F 
ENDBRANCH   8  14
ENDBRANCH   4   7
ENDBRANCH   2   3
ENDBRANCH   1   2
BRANCH   1  22
ATOM     22  C   UNL A   1      37.600  23.412  25.835  1.00  0.00     0.118 C 
BRANCH  22  23
ATOM     23  N   UNL A   1      38.890  22.982  26.356  1.00  0.00    -0.352 N 
ATOM     24  C   UNL A   1      39.888  23.727  26.964  1.00  0.00     0.251 C 
ATOM     25  H   UNL A   1      39.081  22.021  26.262  1.00  0.00     0.163 HD
ATOM     26  O   UNL A   1      40.944  23.205  27.262  1.00  0.00    -0.269 OA
BRANCH  24  27
ATOM     27  C   UNL A   1      39.600  25.125  27.374  1.00  0.00     0.039 A 
ATOM     28  C   UNL A   1      40.075  26.159  26.557  1.00  0.00     0.014 A 
ATOM     29  C   UNL A   1      39.074  25.412  28.627  1.00  0.00     0.014 A 
ATOM     30  C   UNL A   1      40.252  27.430  27.097  1.00  0.00     0.010 A 
ATOM     31  C   UNL A   1      39.372  26.624  29.205  1.00  0.00     0.010 A 
ATOM     32  C   UNL A   1      40.012  27.615  28.456  1.00  0.00    -0.014 A 
BRANCH  32  33
ATOM     33  C   UNL A   1      40.434  28.783  29.213  1.00  0.00     0.031 A 
ATOM     34  C   UNL A   1      39.445  29.821  29.564  1.00  0.00     0.074 A 
ATOM     35  C   UNL A   1      41.679  28.812  29.737  1.00  0.00     0.049 A 
ATOM     36  N   UNL A   1      39.747  30.999  29.989  1.00  0.00    -0.248 NA
ATOM     37  C   UNL A   1      38.009  29.620  29.416  1.00  0.00     0.031 C 
ATOM     38  C   UNL A   1      42.166  29.673  30.812  1.00  0.00     0.029 A 
ATOM     39  N   UNL A   1      42.833  28.167  29.259  1.00  0.00    -0.354 N 
ATOM     40  C   UNL A   1      38.590  31.607  30.422  1.00  0.00     0.074 A 
ATOM     41  C   UNL A   1      37.530  30.731  29.984  1.00  0.00     0.031 C 
ATOM     42  C   UNL A   1      43.504  29.750  30.734  1.00  0.00     0.029 A 
ATOM     43  C   UNL A   1      43.894  29.071  29.512  1.00  0.00     0.049 A 
ATOM     44  H   UNL A   1      42.891  27.279  28.838  1.00  0.00     0.167 HD
ATOM     45  C   UNL A   1      38.692  32.722  31.203  1.00  0.00     0.037 A 
ATOM     46  C   UNL A   1      44.600  29.648  28.497  1.00  0.00     0.037 A 
ATOM     47  C   UNL A   1      40.089  33.140  31.317  1.00  0.00     0.049 A 
ATOM     48  C   UNL A   1      44.563  31.157  28.506  1.00  0.00     0.074 A 
ATOM     49  C   UNL A   1      41.054  32.950  32.294  1.00  0.00     0.029 A 
ATOM     50  N   UNL A   1      40.757  33.594  30.187  1.00  0.00    -0.354 N 
ATOM     51  N   UNL A   1      43.633  31.857  29.093  1.00  0.00    -0.248 NA
ATOM     52  C   UNL A   1      45.557  31.993  27.843  1.00  0.00     0.031 C 
ATOM     53  C   UNL A   1      42.316  33.267  31.733  1.00  0.00     0.029 A 
ATOM     54  C   UNL A   1      42.116  33.666  30.422  1.00  0.00     0.049 A 
ATOM     55  H   UNL A   1      40.322  33.832  29.336  1.00  0.00     0.167 HD
ATOM     56  C   UNL A   1      43.873  33.194  28.901  1.00  0.00     0.074 A 
ATOM     57  C   UNL A   1      45.100  33.225  28.127  1.00  0.00     0.031 C 
ATOM     58  C   UNL A   1      43.027  34.149  29.394  1.00  0.00     0.037 A 
BRANCH  45  59
ATOM     59  C   UNL A   1      37.588  33.298  32.072  1.00  0.00     0.064 A 
ATOM     60  C   UNL A   1      36.505  33.995  31.486  1.00  0.00     0.173 A 
ATOM     61  C   UNL A   1      37.552  33.254  33.477  1.00  0.00     0.173 A 
ATOM     62  F   UNL A   1      36.335  34.042  30.159  1.00  0.00    -0.203 F 
ATOM     63  C   UNL A   1      35.545  34.676  32.243  1.00  0.00     0.198 A 
ATOM     64  C   UNL A   1      36.620  33.973  34.235  1.00  0.00     0.198 A 
ATOM     65  F   UNL A   1      38.367  32.461  34.178  1.00  0.00    -0.203 F 
ATOM     66  F   UNL A   1      34.548  35.324  31.623  1.00  0.00    -0.200 F 
ATOM     67  C   UNL A   1      35.622  34.693  33.618  1.00  0.00     0.200 A 
ATOM     68  F   UNL A   1      36.697  33.950  35.574  1.00  0.00    -0.200 F 
ATOM     69  F   UNL A   1      34.724  35.372  34.343  1.00  0.00    -0.200 F 
ENDBRANCH  45  59
BRANCH  46  70
ATOM     70  C   UNL A   1      44.661  28.794  27.281  1.00  0.00     0.064 A 
ATOM     71  C   UNL A   1      45.516  27.675  27.304  1.00  0.00     0.173 A 
ATOM     72  C   UNL A   1      43.632  28.805  26.333  1.00  0.00     0.173 A 
ATOM     73  F   UNL A   1      46.520  27.619  28.196  1.00  0.00    -0.203 F 
ATOM     74  C   UNL A   1      45.266  26.557  26.514  1.00  0.00     0.198 A 
ATOM     75  C   UNL A   1      43.396  27.686  25.528  1.00  0.00     0.198 A 
ATOM     76  F   UNL A   1      42.776  29.834  26.271  1.00  0.00    -0.203 F 
ATOM     77  F   UNL A   1      46.019  25.456  26.655  1.00  0.00    -0.200 F 
ATOM     78  C   UNL A   1      44.185  26.551  25.649  1.00  0.00     0.200 A 
ATOM     79  F   UNL A   1      42.335  27.669  24.708  1.00  0.00    -0.200 F 
ATOM     80  F   UNL A   1      43.877  25.440  24.967  1.00  0.00    -0.200 F 
ENDBRANCH  46  70
BRANCH  58  81
ATOM     81  C   UNL A   1      43.002  35.625  29.048  1.00  0.00     0.064 A 
ATOM     82  C   UNL A   1      42.280  36.180  27.980  1.00  0.00     0.173 A 
ATOM     83  C   UNL A   1      43.610  36.573  29.914  1.00  0.00     0.173 A 
ATOM     84  F   UNL A   1      41.557  35.419  27.150  1.00  0.00    -0.203 F 
ATOM     85  C   UNL A   1      42.216  37.562  27.761  1.00  0.00     0.198 A 
ATOM     86  C   UNL A   1      43.489  37.950  29.732  1.00  0.00     0.198 A 
ATOM     87  F   UNL A   1      44.316  36.197  30.991  1.00  0.00    -0.203 F 
ATOM     88  F   UNL A   1      41.544  38.033  26.702  1.00  0.00    -0.200 F 
ATOM     89  C   UNL A   1      42.805  38.445  28.645  1.00  0.00     0.200 A 
ATOM     90  F   UNL A   1      44.021  38.790  30.632  1.00  0.00    -0.200 F 
ATOM     91  F   UNL A   1      42.692  39.768  28.462  1.00  0.00    -0.200 F 
ENDBRANCH  58  81
ENDBRANCH  32  33
ENDBRANCH  24  27
ENDBRANCH  22  23
ENDBRANCH   1  22
TORSDOF 11
ENDMDL
MODEL 3
REMARK VINA RESULT:     -14.2      1.782      2.530
REMARK SMILES Cc1ccc(F)c(-c2ccc(C(=O)NCCCNC(=O)c3ccc(-c4c5nc(c(-c6c(F)c(F)c(F)c(F)c6F)c6ccc([nH]6)c(-c6c(F)c(F)c(F)c(F)c6F)c6nc(c(-c7c(F)c(F)c(F)c(F)c7F)c7ccc4[nH]7)C=C6)C=C5)cc3)cc2C)c1
REMARK SMILES IDX 16 1 15 2 14 3 12 4 13 5 11 7 8 8 9 9 85 10 10 11 84 12
REMARK SMILES IDX 86 13 7 14 1 15 2 16 3 17 87 18 4 19 5 20 6 21 17 22 18 23
REMARK SMILES IDX 19 24 20 26 21 27 22 28 83 29 23 30 82 31 24 32 25 33 26 34
REMARK SMILES IDX 76 35 27 36 81 37 75 38 77 39 28 40 80 41 74 42 73 43 29 45
REMARK SMILES IDX 61 46 41 47 60 48 42 49 45 50 59 51 78 52 43 53 44 54 58 56
REMARK SMILES IDX 79 57 46 58 30 59 31 60 39 61 32 62 33 63 37 64 40 65 34 66
REMARK SMILES IDX 35 67 38 68 36 69 62 70 63 71 71 72 64 73 65 74 69 75 72 76
REMARK SMILES IDX 66 77 67 78 70 79 68 80 47 81 48 82 56 83 49 84 50 85 54 86
REMARK SMILES IDX 57 87 51 88 52 89 55 90 53 91
REMARK H PARENT 14 6 18 25 77 44 45 55
REMARK Flexibility Score: inf
ROOT
ATOM      1  C   UNL A   1      32.603  29.400  27.091  1.00  0.00     0.042 C 
ENDROOT
BRANCH   1   2
ATOM      2  C   UNL A   1      32.143  28.061  27.671  1.00  0.00     0.118 C 
BRANCH   2   3
ATOM      3  N   UNL A   1      31.247  27.359  26.763  1.00  0.00    -0.352 N 
ATOM      4  C   UNL A   1      31.400  26.221  26.004  1.00  0.00     0.251 C 
ATOM      5  O   UNL A   1      30.407  25.826  25.391  1.00  0.00    -0.269 OA
ATOM      6  H   UNL A   1      30.362  27.779  26.676  1.00  0.00     0.163 HD
BRANCH   4   7
ATOM      7  C   UNL A   1      32.673  25.441  25.896  1.00  0.00     0.040 A 
ATOM      8  C   UNL A   1      35.031  23.840  25.805  1.00  0.00    -0.012 A 
ATOM      9  C   UNL A   1      34.860  24.950  24.967  1.00  0.00     0.010 A 
ATOM     10  C   UNL A   1      33.984  23.504  26.683  1.00  0.00    -0.042 A 
ATOM     11  C   UNL A   1      33.705  25.727  25.010  1.00  0.00     0.014 A 
ATOM     12  C   UNL A   1      32.818  24.305  26.710  1.00  0.00     0.018 A 
ATOM     13  C   UNL A   1      34.023  22.296  27.581  1.00  0.00     0.045 C 
BRANCH   8  14
ATOM     14  C   UNL A   1      36.316  23.136  25.719  1.00  0.00     0.018 A 
ATOM     15  C   UNL A   1      37.540  19.664  24.684  1.00  0.00     0.044 C 
ATOM     16  C   UNL A   1      37.532  21.070  25.208  1.00  0.00    -0.050 A 
ATOM     17  C   UNL A   1      38.704  21.643  25.717  1.00  0.00     0.006 A 
ATOM     18  C   UNL A   1      36.353  21.826  25.202  1.00  0.00     0.015 A 
ATOM     19  C   UNL A   1      38.688  22.944  26.222  1.00  0.00     0.040 A 
ATOM     20  C   UNL A   1      37.503  23.676  26.225  1.00  0.00     0.131 A 
ATOM     21  F   UNL A   1      37.514  24.910  26.753  1.00  0.00    -0.206 F 
ENDBRANCH   8  14
ENDBRANCH   4   7
ENDBRANCH   2   3
ENDBRANCH   1   2
BRANCH   1  22
ATOM     22  C   UNL A   1      34.107  29.579  27.091  1.00  0.00     0.118 C 
BRANCH  22  23
ATOM     23  N   UNL A   1      34.569  30.744  27.831  1.00  0.00    -0.352 N 
ATOM     24  C   UNL A   1      35.710  30.904  28.601  1.00  0.00     0.251 C 
ATOM     25  H   UNL A   1      33.985  31.535  27.777  1.00  0.00     0.163 HD
ATOM     26  O   UNL A   1      35.890  31.934  29.220  1.00  0.00    -0.269 OA
BRANCH  24  27
ATOM     27  C   UNL A   1      36.771  29.866  28.548  1.00  0.00     0.039 A 
ATOM     28  C   UNL A   1      36.907  29.011  29.650  1.00  0.00     0.014 A 
ATOM     29  C   UNL A   1      37.735  29.875  27.549  1.00  0.00     0.014 A 
ATOM     30  C   UNL A   1      38.122  28.364  29.865  1.00  0.00     0.010 A 
ATOM     31  C   UNL A   1      38.977  29.351  27.825  1.00  0.00     0.010 A 
ATOM     32  C   UNL A   1      39.185  28.642  29.012  1.00  0.00    -0.014 A 
BRANCH  32  33
ATOM     33  C   UNL A   1      40.570  28.289  29.281  1.00  0.00     0.031 A 
ATOM     34  C   UNL A   1      41.137  27.061  28.690  1.00  0.00     0.074 A 
ATOM     35  C   UNL A   1      41.364  29.178  29.916  1.00  0.00     0.049 A 
ATOM     36  N   UNL A   1      42.243  26.517  29.065  1.00  0.00    -0.248 NA
ATOM     37  C   UNL A   1      40.463  26.311  27.638  1.00  0.00     0.031 C 
ATOM     38  C   UNL A   1      42.824  29.196  29.949  1.00  0.00     0.029 A 
ATOM     39  N   UNL A   1      40.985  30.172  30.835  1.00  0.00    -0.354 N 
ATOM     40  C   UNL A   1      42.566  25.533  28.157  1.00  0.00     0.074 A 
ATOM     41  C   UNL A   1      41.393  25.404  27.326  1.00  0.00     0.031 C 
ATOM     42  C   UNL A   1      43.227  29.902  31.016  1.00  0.00     0.029 A 
ATOM     43  C   UNL A   1      42.037  30.220  31.783  1.00  0.00     0.049 A 
ATOM     44  H   UNL A   1      40.165  30.717  30.824  1.00  0.00     0.167 HD
ATOM     45  C   UNL A   1      43.838  25.037  28.157  1.00  0.00     0.037 A 
ATOM     46  C   UNL A   1      41.841  29.873  33.088  1.00  0.00     0.037 A 
ATOM     47  C   UNL A   1      44.603  25.594  29.272  1.00  0.00     0.049 A 
ATOM     48  C   UNL A   1      42.727  28.746  33.561  1.00  0.00     0.074 A 
ATOM     49  C   UNL A   1      45.519  26.631  29.365  1.00  0.00     0.029 A 
ATOM     50  N   UNL A   1      44.237  25.275  30.574  1.00  0.00    -0.354 N 
ATOM     51  N   UNL A   1      43.289  27.881  32.764  1.00  0.00    -0.248 NA
ATOM     52  C   UNL A   1      43.036  28.497  34.965  1.00  0.00     0.031 C 
ATOM     53  C   UNL A   1      45.680  26.955  30.736  1.00  0.00     0.029 A 
ATOM     54  C   UNL A   1      44.877  26.104  31.475  1.00  0.00     0.049 A 
ATOM     55  H   UNL A   1      43.608  24.559  30.821  1.00  0.00     0.167 HD
ATOM     56  C   UNL A   1      44.010  26.976  33.503  1.00  0.00     0.074 A 
ATOM     57  C   UNL A   1      43.833  27.418  34.874  1.00  0.00     0.031 C 
ATOM     58  C   UNL A   1      44.678  25.942  32.909  1.00  0.00     0.037 A 
BRANCH  45  59
ATOM     59  C   UNL A   1      44.482  24.255  27.027  1.00  0.00     0.064 A 
ATOM     60  C   UNL A   1      44.148  22.897  26.814  1.00  0.00     0.173 A 
ATOM     61  C   UNL A   1      45.468  24.750  26.154  1.00  0.00     0.173 A 
ATOM     62  F   UNL A   1      43.157  22.303  27.490  1.00  0.00    -0.203 F 
ATOM     63  C   UNL A   1      44.819  22.088  25.891  1.00  0.00     0.198 A 
ATOM     64  C   UNL A   1      46.172  23.930  25.264  1.00  0.00     0.198 A 
ATOM     65  F   UNL A   1      45.745  26.053  26.071  1.00  0.00    -0.203 F 
ATOM     66  F   UNL A   1      44.457  20.805  25.745  1.00  0.00    -0.200 F 
ATOM     67  C   UNL A   1      45.855  22.596  25.139  1.00  0.00     0.200 A 
ATOM     68  F   UNL A   1      47.158  24.455  24.519  1.00  0.00    -0.200 F 
ATOM     69  F   UNL A   1      46.522  21.815  24.279  1.00  0.00    -0.200 F 
ENDBRANCH  45  59
BRANCH  46  70
ATOM     70  C   UNL A   1      40.450  30.127  33.548  1.00  0.00     0.064 A 
ATOM     71  C   UNL A   1      40.073  31.460  33.800  1.00  0.00     0.173 A 
ATOM     72  C   UNL A   1      39.429  29.194  33.329  1.00  0.00     0.173 A 
ATOM     73  F   UNL A   1      41.016  32.392  34.017  1.00  0.00    -0.203 F 
ATOM     74  C   UNL A   1      38.746  31.870  33.693  1.00  0.00     0.198 A 
ATOM     75  C   UNL A   1      38.097  29.606  33.242  1.00  0.00     0.198 A 
ATOM     76  F   UNL A   1      39.725  27.913  33.069  1.00  0.00    -0.203 F 
ATOM     77  F   UNL A   1      38.436  33.169  33.807  1.00  0.00    -0.200 F 
ATOM     78  C   UNL A   1      37.763  30.946  33.382  1.00  0.00     0.200 A 
ATOM     79  F   UNL A   1      37.146  28.719  32.917  1.00  0.00    -0.200 F 
ATOM     80  F   UNL A   1      36.503  31.352  33.173  1.00  0.00    -0.200 F 
ENDBRANCH  46  70
BRANCH  58  81
ATOM     81  C   UNL A   1      45.285  24.728  33.585  1.00  0.00     0.064 A 
ATOM     82  C   UNL A   1      44.602  23.523  33.818  1.00  0.00     0.173 A 
ATOM     83  C   UNL A   1      46.673  24.696  33.888  1.00  0.00     0.173 A 
ATOM     84  F   UNL A   1      43.320  23.363  33.471  1.00  0.00    -0.203 F 
ATOM     85  C   UNL A   1      45.238  22.400  34.362  1.00  0.00     0.198 A 
ATOM     86  C   UNL A   1      47.316  23.556  34.367  1.00  0.00     0.198 A 
ATOM     87  F   UNL A   1      47.462  25.764  33.699  1.00  0.00    -0.203 F 
ATOM     88  F   UNL A   1      44.527  21.289  34.600  1.00  0.00    -0.200 F 
ATOM     89  C   UNL A   1      46.595  22.411  34.620  1.00  0.00     0.200 A 
ATOM     90  F   UNL A   1      48.643  23.571  34.558  1.00  0.00    -0.200 F 
ATOM     91  F   UNL A   1      47.209  21.314  35.086  1.00  0.00    -0.200 F 
ENDBRANCH  58  81
ENDBRANCH  32  33
ENDBRANCH  24  27
ENDBRANCH  22  23
ENDBRANCH   1  22
TORSDOF 11
ENDMDL
