MODEL 1
REMARK VINA RESULT:     -10.8      0.000      0.000
REMARK SMILES C=CCN(CC(=O)NCCCNC(=O)c1ccc(-c2c3nc(c(-c4c(F)c(F)c(F)c(F)c4F)c4ccc([nH]4)c(-c4c(F)c(F)c(F)c(F)c4F)c4nc(c(-c5c(F)c(F)c(F)c(F)c5F)c5ccc2[nH]5)C=C4)C=C3)cc1)C(=O)c1cc(OC)ccc1Br
REMARK SMILES IDX 9 1 8 2 6 3 7 4 5 6 4 7 3 8 2 9 1 10 78 11 79 12 80 13 81 14
REMARK SMILES IDX 87 15 82 16 86 17 88 18 85 19 83 20 84 21 10 22 11 23 12 24
REMARK SMILES IDX 13 25 14 27 15 28 16 29 77 30 17 31 76 32 18 33 19 34 20 35
REMARK SMILES IDX 70 36 21 37 75 38 69 39 71 40 22 41 74 42 68 43 67 44 23 46
REMARK SMILES IDX 55 47 35 48 54 49 36 50 39 51 53 52 72 53 37 54 38 55 52 57
REMARK SMILES IDX 73 58 40 59 24 60 25 61 33 62 26 63 27 64 31 65 34 66 28 67
REMARK SMILES IDX 29 68 32 69 30 70 56 71 57 72 65 73 58 74 59 75 63 76 66 77
REMARK SMILES IDX 60 78 61 79 64 80 62 81 41 82 42 83 50 84 43 85 44 86 48 87
REMARK SMILES IDX 51 88 45 89 46 90 49 91 47 92
REMARK H PARENT 8 5 12 26 71 45 39 56
REMARK Flexibility Score: inf
ROOT
ATOM      1  C   UNL A   1      31.404  30.355  26.047  1.00  0.00     0.117 C 
ENDROOT
BRANCH   1   2
ATOM      2  N   UNL A   1      31.448  30.049  24.631  1.00  0.00    -0.354 N 
ATOM      3  C   UNL A   1      32.276  29.251  23.899  1.00  0.00     0.239 C 
ATOM      4  O   UNL A   1      31.901  28.972  22.755  1.00  0.00    -0.273 OA
ATOM      5  H   UNL A   1      30.752  30.499  24.101  1.00  0.00     0.163 HD
BRANCH   3   6
ATOM      6  C   UNL A   1      33.555  28.604  24.462  1.00  0.00     0.220 C 
BRANCH   6   7
ATOM      7  N   UNL A   1      33.382  27.556  25.476  1.00  0.00    -0.326 N 
BRANCH   7   8
ATOM      8  C   UNL A   1      33.629  27.918  26.869  1.00  0.00     0.147 C 
BRANCH   8   9
ATOM      9  C   UNL A   1      34.791  28.856  26.989  1.00  0.00    -0.014 C 
ATOM     10  C   UNL A   1      34.765  29.952  27.763  1.00  0.00     0.006 C 
ENDBRANCH   8   9
ENDBRANCH   7   8
BRANCH   7  11
ATOM     11  C   UNL A   1      32.893  26.268  25.208  1.00  0.00     0.255 C 
ATOM     12  O   UNL A   1      31.713  25.953  25.348  1.00  0.00    -0.269 OA
BRANCH  11  13
ATOM     13  C   UNL A   1      33.804  25.222  24.684  1.00  0.00     0.057 A 
ATOM     14  C   UNL A   1      34.892  24.840  25.482  1.00  0.00     0.061 A 
ATOM     15  C   UNL A   1      33.716  24.716  23.384  1.00  0.00     0.031 A 
ATOM     16  C   UNL A   1      35.822  23.915  24.998  1.00  0.00     0.119 A 
ATOM     17  C   UNL A   1      34.544  23.668  22.975  1.00  0.00     0.020 A 
ATOM     18  Br  UNL A   1      32.685  25.525  22.026  1.00  0.00    -0.050 Br
ATOM     19  C   UNL A   1      35.588  23.254  23.793  1.00  0.00     0.047 A 
BRANCH  16  20
ATOM     20  O   UNL A   1      36.957  23.721  25.739  1.00  0.00    -0.497 OA
ATOM     21  C   UNL A   1      37.573  22.450  25.498  1.00  0.00     0.278 C 
ENDBRANCH  16  20
ENDBRANCH  11  13
ENDBRANCH   7  11
ENDBRANCH   6   7
ENDBRANCH   3   6
ENDBRANCH   1   2
BRANCH   1  22
ATOM     22  C   UNL A   1      31.287  31.841  26.375  1.00  0.00     0.042 C 
BRANCH  22  23
ATOM     23  C   UNL A   1      32.562  32.518  26.873  1.00  0.00     0.118 C 
BRANCH  23  24
ATOM     24  N   UNL A   1      32.350  33.821  27.471  1.00  0.00    -0.352 N 
ATOM     25  C   UNL A   1      33.072  34.502  28.415  1.00  0.00     0.251 C 
ATOM     26  H   UNL A   1      31.553  34.298  27.142  1.00  0.00     0.163 HD
ATOM     27  O   UNL A   1      32.666  35.611  28.778  1.00  0.00    -0.269 OA
BRANCH  25  28
ATOM     28  C   UNL A   1      34.290  33.942  29.047  1.00  0.00     0.039 A 
ATOM     29  C   UNL A   1      34.113  32.971  30.039  1.00  0.00     0.014 A 
ATOM     30  C   UNL A   1      35.583  34.375  28.738  1.00  0.00     0.014 A 
ATOM     31  C   UNL A   1      35.217  32.402  30.678  1.00  0.00     0.010 A 
ATOM     32  C   UNL A   1      36.691  33.757  29.329  1.00  0.00     0.010 A 
ATOM     33  C   UNL A   1      36.520  32.765  30.307  1.00  0.00    -0.014 A 
BRANCH  33  34
ATOM     34  C   UNL A   1      37.694  32.104  30.941  1.00  0.00     0.031 A 
ATOM     35  C   UNL A   1      38.138  32.482  32.327  1.00  0.00     0.074 A 
ATOM     36  C   UNL A   1      38.375  31.164  30.255  1.00  0.00     0.049 A 
ATOM     37  N   UNL A   1      39.132  32.008  33.037  1.00  0.00    -0.248 NA
ATOM     38  C   UNL A   1      37.376  33.545  32.999  1.00  0.00     0.031 C 
ATOM     39  C   UNL A   1      38.074  30.734  28.889  1.00  0.00     0.029 A 
ATOM     40  N   UNL A   1      39.460  30.403  30.611  1.00  0.00    -0.354 N 
ATOM     41  C   UNL A   1      39.120  32.716  34.231  1.00  0.00     0.074 A 
ATOM     42  C   UNL A   1      38.050  33.686  34.132  1.00  0.00     0.031 C 
ATOM     43  C   UNL A   1      38.934  29.767  28.533  1.00  0.00     0.029 A 
ATOM     44  C   UNL A   1      39.868  29.532  29.631  1.00  0.00     0.049 A 
ATOM     45  H   UNL A   1      39.904  30.474  31.487  1.00  0.00     0.167 HD
ATOM     46  C   UNL A   1      39.912  32.558  35.319  1.00  0.00     0.037 A 
ATOM     47  C   UNL A   1      40.880  28.642  29.616  1.00  0.00     0.037 A 
ATOM     48  C   UNL A   1      40.967  31.582  35.426  1.00  0.00     0.049 A 
ATOM     49  C   UNL A   1      41.748  28.492  30.835  1.00  0.00     0.074 A 
ATOM     50  C   UNL A   1      41.792  31.316  36.506  1.00  0.00     0.029 A 
ATOM     51  N   UNL A   1      41.345  30.713  34.413  1.00  0.00    -0.354 N 
ATOM     52  N   UNL A   1      41.682  29.122  31.982  1.00  0.00    -0.248 NA
ATOM     53  C   UNL A   1      42.826  27.496  30.760  1.00  0.00     0.031 C 
ATOM     54  C   UNL A   1      42.698  30.317  36.132  1.00  0.00     0.029 A 
ATOM     55  C   UNL A   1      42.403  29.923  34.836  1.00  0.00     0.049 A 
ATOM     56  H   UNL A   1      40.924  30.664  33.524  1.00  0.00     0.167 HD
ATOM     57  C   UNL A   1      42.687  28.581  32.773  1.00  0.00     0.074 A 
ATOM     58  C   UNL A   1      43.337  27.559  31.980  1.00  0.00     0.031 C 
ATOM     59  C   UNL A   1      43.038  28.903  34.042  1.00  0.00     0.037 A 
BRANCH  46  60
ATOM     60  C   UNL A   1      39.670  33.467  36.491  1.00  0.00     0.064 A 
ATOM     61  C   UNL A   1      38.826  33.092  37.548  1.00  0.00     0.173 A 
ATOM     62  C   UNL A   1      40.317  34.708  36.579  1.00  0.00     0.173 A 
ATOM     63  F   UNL A   1      38.175  31.919  37.510  1.00  0.00    -0.203 F 
ATOM     64  C   UNL A   1      38.617  33.938  38.634  1.00  0.00     0.198 A 
ATOM     65  C   UNL A   1      40.129  35.539  37.680  1.00  0.00     0.198 A 
ATOM     66  F   UNL A   1      41.141  35.112  35.601  1.00  0.00    -0.203 F 
ATOM     67  F   UNL A   1      37.770  33.579  39.609  1.00  0.00    -0.200 F 
ATOM     68  C   UNL A   1      39.273  35.157  38.703  1.00  0.00     0.200 A 
ATOM     69  F   UNL A   1      40.775  36.712  37.752  1.00  0.00    -0.200 F 
ATOM     70  F   UNL A   1      39.076  35.968  39.751  1.00  0.00    -0.200 F 
ENDBRANCH  46  60
BRANCH  47  71
ATOM     71  C   UNL A   1      41.109  27.801  28.413  1.00  0.00     0.064 A 
ATOM     72  C   UNL A   1      41.949  28.238  27.379  1.00  0.00     0.173 A 
ATOM     73  C   UNL A   1      40.490  26.551  28.267  1.00  0.00     0.173 A 
ATOM     74  F   UNL A   1      42.544  29.437  27.462  1.00  0.00    -0.203 F 
ATOM     75  C   UNL A   1      42.145  27.466  26.237  1.00  0.00     0.198 A 
ATOM     76  C   UNL A   1      40.710  25.767  27.136  1.00  0.00     0.198 A 
ATOM     77  F   UNL A   1      39.679  26.087  29.230  1.00  0.00    -0.203 F 
ATOM     78  F   UNL A   1      42.916  27.929  25.242  1.00  0.00    -0.200 F 
ATOM     79  C   UNL A   1      41.530  26.228  26.118  1.00  0.00     0.200 A 
ATOM     80  F   UNL A   1      40.124  24.567  27.032  1.00  0.00    -0.200 F 
ATOM     81  F   UNL A   1      41.723  25.485  25.021  1.00  0.00    -0.200 F 
ENDBRANCH  47  71
BRANCH  59  82
ATOM     82  C   UNL A   1      44.153  28.114  34.667  1.00  0.00     0.064 A 
ATOM     83  C   UNL A   1      43.908  26.941  35.395  1.00  0.00     0.173 A 
ATOM     84  C   UNL A   1      45.485  28.528  34.518  1.00  0.00     0.173 A 
ATOM     85  F   UNL A   1      42.650  26.510  35.581  1.00  0.00    -0.203 F 
ATOM     86  C   UNL A   1      44.954  26.228  35.977  1.00  0.00     0.198 A 
ATOM     87  C   UNL A   1      46.530  27.796  35.075  1.00  0.00     0.198 A 
ATOM     88  F   UNL A   1      45.775  29.640  33.826  1.00  0.00    -0.203 F 
ATOM     89  F   UNL A   1      44.692  25.139  36.715  1.00  0.00    -0.200 F 
ATOM     90  C   UNL A   1      46.264  26.652  35.811  1.00  0.00     0.200 A 
ATOM     91  F   UNL A   1      47.797  28.201  34.902  1.00  0.00    -0.200 F 
ATOM     92  F   UNL A   1      47.269  25.964  36.370  1.00  0.00    -0.200 F 
ENDBRANCH  59  82
ENDBRANCH  33  34
ENDBRANCH  25  28
ENDBRANCH  23  24
ENDBRANCH  22  23
ENDBRANCH   1  22
TORSDOF 16
ENDMDL
MODEL 2
REMARK VINA RESULT:     -10.6      1.142      7.524
REMARK SMILES C=CCN(CC(=O)NCCCNC(=O)c1ccc(-c2c3nc(c(-c4c(F)c(F)c(F)c(F)c4F)c4ccc([nH]4)c(-c4c(F)c(F)c(F)c(F)c4F)c4nc(c(-c5c(F)c(F)c(F)c(F)c5F)c5ccc2[nH]5)C=C4)C=C3)cc1)C(=O)c1cc(OC)ccc1Br
REMARK SMILES IDX 9 1 8 2 6 3 7 4 5 6 4 7 3 8 2 9 1 10 78 11 79 12 80 13 81 14
REMARK SMILES IDX 87 15 82 16 86 17 88 18 85 19 83 20 84 21 10 22 11 23 12 24
REMARK SMILES IDX 13 25 14 27 15 28 16 29 77 30 17 31 76 32 18 33 19 34 20 35
REMARK SMILES IDX 70 36 21 37 75 38 69 39 71 40 22 41 74 42 68 43 67 44 23 46
REMARK SMILES IDX 55 47 35 48 54 49 36 50 39 51 53 52 72 53 37 54 38 55 52 57
REMARK SMILES IDX 73 58 40 59 24 60 25 61 33 62 26 63 27 64 31 65 34 66 28 67
REMARK SMILES IDX 29 68 32 69 30 70 56 71 57 72 65 73 58 74 59 75 63 76 66 77
REMARK SMILES IDX 60 78 61 79 64 80 62 81 41 82 42 83 50 84 43 85 44 86 48 87
REMARK SMILES IDX 51 88 45 89 46 90 49 91 47 92
REMARK H PARENT 8 5 12 26 71 45 39 56
REMARK Flexibility Score: inf
ROOT
ATOM      1  C   UNL A   1      31.213  31.038  26.419  1.00  0.00     0.117 C 
ENDROOT
BRANCH   1   2
ATOM      2  N   UNL A   1      31.243  30.475  25.084  1.00  0.00    -0.354 N 
ATOM      3  C   UNL A   1      31.368  29.191  24.643  1.00  0.00     0.239 C 
ATOM      4  O   UNL A   1      31.085  28.987  23.456  1.00  0.00    -0.273 OA
ATOM      5  H   UNL A   1      31.157  31.141  24.364  1.00  0.00     0.163 HD
BRANCH   3   6
ATOM      6  C   UNL A   1      31.714  28.003  25.559  1.00  0.00     0.220 C 
BRANCH   6   7
ATOM      7  N   UNL A   1      33.004  27.338  25.331  1.00  0.00    -0.326 N 
BRANCH   7   8
ATOM      8  C   UNL A   1      34.201  27.991  25.854  1.00  0.00     0.147 C 
BRANCH   8   9
ATOM      9  C   UNL A   1      33.915  28.701  27.141  1.00  0.00    -0.014 C 
ATOM     10  C   UNL A   1      34.775  29.563  27.703  1.00  0.00     0.006 C 
ENDBRANCH   8   9
ENDBRANCH   7   8
BRANCH   7  11
ATOM     11  C   UNL A   1      33.148  26.072  24.743  1.00  0.00     0.255 C 
ATOM     12  O   UNL A   1      33.044  25.875  23.534  1.00  0.00    -0.269 OA
BRANCH  11  13
ATOM     13  C   UNL A   1      33.490  24.897  25.582  1.00  0.00     0.057 A 
ATOM     14  C   UNL A   1      34.799  24.400  25.509  1.00  0.00     0.061 A 
ATOM     15  C   UNL A   1      32.540  24.181  26.315  1.00  0.00     0.031 A 
ATOM     16  C   UNL A   1      35.148  23.248  26.221  1.00  0.00     0.119 A 
ATOM     17  C   UNL A   1      32.935  23.140  27.157  1.00  0.00     0.020 A 
ATOM     18  Br  UNL A   1      30.679  24.376  26.066  1.00  0.00    -0.050 Br
ATOM     19  C   UNL A   1      34.247  22.684  27.123  1.00  0.00     0.047 A 
BRANCH  16  20
ATOM     20  O   UNL A   1      36.379  22.704  25.968  1.00  0.00    -0.497 OA
ATOM     21  C   UNL A   1      37.274  23.620  25.326  1.00  0.00     0.278 C 
ENDBRANCH  16  20
ENDBRANCH  11  13
ENDBRANCH   7  11
ENDBRANCH   6   7
ENDBRANCH   3   6
ENDBRANCH   1   2
BRANCH   1  22
ATOM     22  C   UNL A   1      31.301  32.561  26.470  1.00  0.00     0.042 C 
BRANCH  22  23
ATOM     23  C   UNL A   1      32.541  33.136  27.152  1.00  0.00     0.118 C 
BRANCH  23  24
ATOM     24  N   UNL A   1      32.332  34.425  27.781  1.00  0.00    -0.352 N 
ATOM     25  C   UNL A   1      33.029  35.062  28.772  1.00  0.00     0.251 C 
ATOM     26  H   UNL A   1      31.558  34.928  27.436  1.00  0.00     0.163 HD
ATOM     27  O   UNL A   1      32.631  36.168  29.154  1.00  0.00    -0.269 OA
BRANCH  25  28
ATOM     28  C   UNL A   1      34.210  34.458  29.433  1.00  0.00     0.039 A 
ATOM     29  C   UNL A   1      33.997  33.772  30.634  1.00  0.00     0.014 A 
ATOM     30  C   UNL A   1      35.514  34.590  28.945  1.00  0.00     0.014 A 
ATOM     31  C   UNL A   1      35.065  33.180  31.311  1.00  0.00     0.010 A 
ATOM     32  C   UNL A   1      36.574  33.940  29.586  1.00  0.00     0.010 A 
ATOM     33  C   UNL A   1      36.362  33.230  30.779  1.00  0.00    -0.014 A 
BRANCH  33  34
ATOM     34  C   UNL A   1      37.484  32.536  31.467  1.00  0.00     0.031 A 
ATOM     35  C   UNL A   1      38.194  31.381  30.816  1.00  0.00     0.074 A 
ATOM     36  C   UNL A   1      37.860  32.943  32.696  1.00  0.00     0.049 A 
ATOM     37  N   UNL A   1      39.195  30.664  31.265  1.00  0.00    -0.248 NA
ATOM     38  C   UNL A   1      37.704  30.964  29.495  1.00  0.00     0.031 C 
ATOM     39  C   UNL A   1      37.230  34.023  33.456  1.00  0.00     0.029 A 
ATOM     40  N   UNL A   1      38.860  32.495  33.524  1.00  0.00    -0.354 N 
ATOM     41  C   UNL A   1      39.449  29.711  30.288  1.00  0.00     0.074 A 
ATOM     42  C   UNL A   1      38.466  29.908  29.244  1.00  0.00     0.031 C 
ATOM     43  C   UNL A   1      37.875  34.175  34.623  1.00  0.00     0.029 A 
ATOM     44  C   UNL A   1      38.941  33.180  34.711  1.00  0.00     0.049 A 
ATOM     45  H   UNL A   1      39.462  31.753  33.288  1.00  0.00     0.167 HD
ATOM     46  C   UNL A   1      40.425  28.770  30.254  1.00  0.00     0.037 A 
ATOM     47  C   UNL A   1      39.779  33.027  35.755  1.00  0.00     0.037 A 
ATOM     48  C   UNL A   1      41.414  28.583  31.285  1.00  0.00     0.049 A 
ATOM     49  C   UNL A   1      40.849  31.971  35.693  1.00  0.00     0.074 A 
ATOM     50  C   UNL A   1      42.470  27.688  31.316  1.00  0.00     0.029 A 
ATOM     51  N   UNL A   1      41.466  29.302  32.470  1.00  0.00    -0.354 N 
ATOM     52  N   UNL A   1      41.119  31.121  34.734  1.00  0.00    -0.248 NA
ATOM     53  C   UNL A   1      41.739  31.864  36.858  1.00  0.00     0.031 C 
ATOM     54  C   UNL A   1      43.135  27.835  32.539  1.00  0.00     0.029 A 
ATOM     55  C   UNL A   1      42.525  28.858  33.247  1.00  0.00     0.049 A 
ATOM     56  H   UNL A   1      40.843  30.022  32.722  1.00  0.00     0.167 HD
ATOM     57  C   UNL A   1      42.224  30.398  35.164  1.00  0.00     0.074 A 
ATOM     58  C   UNL A   1      42.584  30.923  36.465  1.00  0.00     0.031 C 
ATOM     59  C   UNL A   1      42.880  29.392  34.537  1.00  0.00     0.037 A 
BRANCH  46  60
ATOM     60  C   UNL A   1      40.473  27.865  29.056  1.00  0.00     0.064 A 
ATOM     61  C   UNL A   1      39.708  26.688  28.995  1.00  0.00     0.173 A 
ATOM     62  C   UNL A   1      41.258  28.194  27.942  1.00  0.00     0.173 A 
ATOM     63  F   UNL A   1      38.946  26.322  30.036  1.00  0.00    -0.203 F 
ATOM     64  C   UNL A   1      39.753  25.863  27.874  1.00  0.00     0.198 A 
ATOM     65  C   UNL A   1      41.277  27.381  26.812  1.00  0.00     0.198 A 
ATOM     66  F   UNL A   1      42.001  29.311  27.944  1.00  0.00    -0.203 F 
ATOM     67  F   UNL A   1      39.051  24.721  27.857  1.00  0.00    -0.200 F 
ATOM     68  C   UNL A   1      40.531  26.212  26.782  1.00  0.00     0.200 A 
ATOM     69  F   UNL A   1      42.019  27.727  25.750  1.00  0.00    -0.200 F 
ATOM     70  F   UNL A   1      40.568  25.419  25.702  1.00  0.00    -0.200 F 
ENDBRANCH  46  60
BRANCH  47  71
ATOM     71  C   UNL A   1      39.658  33.917  36.939  1.00  0.00     0.064 A 
ATOM     72  C   UNL A   1      38.891  33.537  38.049  1.00  0.00     0.173 A 
ATOM     73  C   UNL A   1      40.298  35.164  36.983  1.00  0.00     0.173 A 
ATOM     74  F   UNL A   1      38.242  32.364  38.044  1.00  0.00    -0.203 F 
ATOM     75  C   UNL A   1      38.753  34.379  39.150  1.00  0.00     0.198 A 
ATOM     76  C   UNL A   1      40.181  35.993  38.096  1.00  0.00     0.198 A 
ATOM     77  F   UNL A   1      41.046  35.572  35.946  1.00  0.00    -0.203 F 
ATOM     78  F   UNL A   1      37.976  34.012  40.178  1.00  0.00    -0.200 F 
ATOM     79  C   UNL A   1      39.402  35.604  39.175  1.00  0.00     0.200 A 
ATOM     80  F   UNL A   1      40.821  37.171  38.122  1.00  0.00    -0.200 F 
ATOM     81  F   UNL A   1      39.271  36.412  40.236  1.00  0.00    -0.200 F 
ENDBRANCH  47  71
BRANCH  59  82
ATOM     82  C   UNL A   1      44.081  28.816  35.233  1.00  0.00     0.064 A 
ATOM     83  C   UNL A   1      45.368  29.340  35.038  1.00  0.00     0.173 A 
ATOM     84  C   UNL A   1      43.938  27.740  36.122  1.00  0.00     0.173 A 
ATOM     85  F   UNL A   1      45.562  30.358  34.185  1.00  0.00    -0.203 F 
ATOM     86  C   UNL A   1      46.471  28.786  35.683  1.00  0.00     0.198 A 
ATOM     87  C   UNL A   1      45.038  27.210  36.789  1.00  0.00     0.198 A 
ATOM     88  F   UNL A   1      42.728  27.207  36.349  1.00  0.00    -0.203 F 
ATOM     89  F   UNL A   1      47.698  29.266  35.440  1.00  0.00    -0.200 F 
ATOM     90  C   UNL A   1      46.304  27.726  36.563  1.00  0.00     0.200 A 
ATOM     91  F   UNL A   1      44.873  26.194  37.648  1.00  0.00    -0.200 F 
ATOM     92  F   UNL A   1      47.367  27.196  37.184  1.00  0.00    -0.200 F 
ENDBRANCH  59  82
ENDBRANCH  33  34
ENDBRANCH  25  28
ENDBRANCH  23  24
ENDBRANCH  22  23
ENDBRANCH   1  22
TORSDOF 16
ENDMDL
MODEL 3
REMARK VINA RESULT:     -10.6      1.970      2.762
REMARK SMILES C=CCN(CC(=O)NCCCNC(=O)c1ccc(-c2c3nc(c(-c4c(F)c(F)c(F)c(F)c4F)c4ccc([nH]4)c(-c4c(F)c(F)c(F)c(F)c4F)c4nc(c(-c5c(F)c(F)c(F)c(F)c5F)c5ccc2[nH]5)C=C4)C=C3)cc1)C(=O)c1cc(OC)ccc1Br
REMARK SMILES IDX 9 1 8 2 6 3 7 4 5 6 4 7 3 8 2 9 1 10 78 11 79 12 80 13 81 14
REMARK SMILES IDX 87 15 82 16 86 17 88 18 85 19 83 20 84 21 10 22 11 23 12 24
REMARK SMILES IDX 13 25 14 27 15 28 16 29 77 30 17 31 76 32 18 33 19 34 20 35
REMARK SMILES IDX 70 36 21 37 75 38 69 39 71 40 22 41 74 42 68 43 67 44 23 46
REMARK SMILES IDX 55 47 35 48 54 49 36 50 39 51 53 52 72 53 37 54 38 55 52 57
REMARK SMILES IDX 73 58 40 59 24 60 25 61 33 62 26 63 27 64 31 65 34 66 28 67
REMARK SMILES IDX 29 68 32 69 30 70 56 71 57 72 65 73 58 74 59 75 63 76 66 77
REMARK SMILES IDX 60 78 61 79 64 80 62 81 41 82 42 83 50 84 43 85 44 86 48 87
REMARK SMILES IDX 51 88 45 89 46 90 49 91 47 92
REMARK H PARENT 8 5 12 26 71 45 39 56
REMARK Flexibility Score: inf
ROOT
ATOM      1  C   UNL A   1      32.693  27.605  22.829  1.00  0.00     0.117 C 
ENDROOT
BRANCH   1   2
ATOM      2  N   UNL A   1      33.631  26.500  22.857  1.00  0.00    -0.354 N 
ATOM      3  C   UNL A   1      33.453  25.163  23.054  1.00  0.00     0.239 C 
ATOM      4  O   UNL A   1      34.403  24.432  22.751  1.00  0.00    -0.273 OA
ATOM      5  H   UNL A   1      34.567  26.764  22.706  1.00  0.00     0.163 HD
BRANCH   3   6
ATOM      6  C   UNL A   1      32.121  24.536  23.506  1.00  0.00     0.220 C 
BRANCH   6   7
ATOM      7  N   UNL A   1      31.840  24.532  24.947  1.00  0.00    -0.326 N 
BRANCH   7   8
ATOM      8  C   UNL A   1      31.071  25.649  25.488  1.00  0.00     0.147 C 
BRANCH   8   9
ATOM      9  C   UNL A   1      31.919  26.520  26.363  1.00  0.00    -0.014 C 
ATOM     10  C   UNL A   1      31.404  27.451  27.180  1.00  0.00     0.006 C 
ENDBRANCH   8   9
ENDBRANCH   7   8
BRANCH   7  11
ATOM     11  C   UNL A   1      32.168  23.477  25.814  1.00  0.00     0.255 C 
ATOM     12  O   UNL A   1      31.368  22.982  26.604  1.00  0.00    -0.269 OA
BRANCH  11  13
ATOM     13  C   UNL A   1      33.522  22.873  25.770  1.00  0.00     0.057 A 
ATOM     14  C   UNL A   1      34.606  23.663  26.179  1.00  0.00     0.061 A 
ATOM     15  C   UNL A   1      33.780  21.622  25.203  1.00  0.00     0.031 A 
ATOM     16  C   UNL A   1      35.908  23.164  26.081  1.00  0.00     0.119 A 
ATOM     17  C   UNL A   1      35.059  21.065  25.270  1.00  0.00     0.020 A 
ATOM     18  Br  UNL A   1      32.541  20.702  24.117  1.00  0.00    -0.050 Br
ATOM     19  C   UNL A   1      36.123  21.833  25.728  1.00  0.00     0.047 A 
BRANCH  16  20
ATOM     20  O   UNL A   1      36.934  24.041  26.317  1.00  0.00    -0.497 OA
ATOM     21  C   UNL A   1      38.227  23.458  26.110  1.00  0.00     0.278 C 
ENDBRANCH  16  20
ENDBRANCH  11  13
ENDBRANCH   7  11
ENDBRANCH   6   7
ENDBRANCH   3   6
ENDBRANCH   1   2
BRANCH   1  22
ATOM     22  C   UNL A   1      33.287  28.955  23.226  1.00  0.00     0.042 C 
BRANCH  22  23
ATOM     23  C   UNL A   1      33.657  29.115  24.699  1.00  0.00     0.118 C 
BRANCH  23  24
ATOM     24  N   UNL A   1      32.894  30.129  25.398  1.00  0.00    -0.352 N 
ATOM     25  C   UNL A   1      33.165  30.818  26.551  1.00  0.00     0.251 C 
ATOM     26  H   UNL A   1      32.037  30.364  24.973  1.00  0.00     0.163 HD
ATOM     27  O   UNL A   1      32.331  31.633  26.958  1.00  0.00    -0.269 OA
BRANCH  25  28
ATOM     28  C   UNL A   1      34.394  30.590  27.348  1.00  0.00     0.039 A 
ATOM     29  C   UNL A   1      34.584  29.313  27.888  1.00  0.00     0.014 A 
ATOM     30  C   UNL A   1      35.326  31.595  27.625  1.00  0.00     0.014 A 
ATOM     31  C   UNL A   1      35.719  29.029  28.650  1.00  0.00     0.010 A 
ATOM     32  C   UNL A   1      36.496  31.293  28.331  1.00  0.00     0.010 A 
ATOM     33  C   UNL A   1      36.704  30.007  28.855  1.00  0.00    -0.014 A 
BRANCH  33  34
ATOM     34  C   UNL A   1      37.945  29.679  29.608  1.00  0.00     0.031 A 
ATOM     35  C   UNL A   1      38.192  30.253  30.976  1.00  0.00     0.074 A 
ATOM     36  C   UNL A   1      38.864  28.866  29.049  1.00  0.00     0.049 A 
ATOM     37  N   UNL A   1      39.212  30.072  31.779  1.00  0.00    -0.248 NA
ATOM     38  C   UNL A   1      37.168  31.165  31.505  1.00  0.00     0.031 C 
ATOM     39  C   UNL A   1      38.766  28.275  27.715  1.00  0.00     0.029 A 
ATOM     40  N   UNL A   1      40.061  28.399  29.532  1.00  0.00    -0.354 N 
ATOM     41  C   UNL A   1      38.957  30.849  32.900  1.00  0.00     0.074 A 
ATOM     42  C   UNL A   1      37.710  31.543  32.655  1.00  0.00     0.031 C 
ATOM     43  C   UNL A   1      39.841  27.501  27.496  1.00  0.00     0.029 A 
ATOM     44  C   UNL A   1      40.721  27.569  28.660  1.00  0.00     0.049 A 
ATOM     45  H   UNL A   1      40.414  28.636  30.420  1.00  0.00     0.167 HD
ATOM     46  C   UNL A   1      39.684  30.959  34.040  1.00  0.00     0.037 A 
ATOM     47  C   UNL A   1      41.902  26.932  28.780  1.00  0.00     0.037 A 
ATOM     48  C   UNL A   1      40.916  30.257  34.292  1.00  0.00     0.049 A 
ATOM     49  C   UNL A   1      42.691  27.077  30.053  1.00  0.00     0.074 A 
ATOM     50  C   UNL A   1      41.698  30.269  35.434  1.00  0.00     0.029 A 
ATOM     51  N   UNL A   1      41.549  29.420  33.385  1.00  0.00    -0.354 N 
ATOM     52  N   UNL A   1      42.405  27.763  31.132  1.00  0.00    -0.248 NA
ATOM     53  C   UNL A   1      43.964  26.346  30.128  1.00  0.00     0.031 C 
ATOM     54  C   UNL A   1      42.827  29.474  35.203  1.00  0.00     0.029 A 
ATOM     55  C   UNL A   1      42.722  28.925  33.935  1.00  0.00     0.049 A 
ATOM     56  H   UNL A   1      41.215  29.209  32.483  1.00  0.00     0.167 HD
ATOM     57  C   UNL A   1      43.444  27.525  32.022  1.00  0.00     0.074 A 
ATOM     58  C   UNL A   1      44.359  26.618  31.363  1.00  0.00     0.031 C 
ATOM     59  C   UNL A   1      43.622  28.015  33.273  1.00  0.00     0.037 A 
BRANCH  46  60
ATOM     60  C   UNL A   1      39.162  31.878  35.108  1.00  0.00     0.064 A 
ATOM     61  C   UNL A   1      38.432  31.390  36.204  1.00  0.00     0.173 A 
ATOM     62  C   UNL A   1      39.427  33.254  35.059  1.00  0.00     0.173 A 
ATOM     63  F   UNL A   1      38.144  30.083  36.295  1.00  0.00    -0.203 F 
ATOM     64  C   UNL A   1      37.963  32.250  37.193  1.00  0.00     0.198 A 
ATOM     65  C   UNL A   1      38.982  34.107  36.065  1.00  0.00     0.198 A 
ATOM     66  F   UNL A   1      40.127  33.773  34.039  1.00  0.00    -0.203 F 
ATOM     67  F   UNL A   1      37.228  31.768  38.205  1.00  0.00    -0.200 F 
ATOM     68  C   UNL A   1      38.244  33.606  37.128  1.00  0.00     0.200 A 
ATOM     69  F   UNL A   1      39.265  35.416  36.008  1.00  0.00    -0.200 F 
ATOM     70  F   UNL A   1      37.797  34.432  38.084  1.00  0.00    -0.200 F 
ENDBRANCH  46  60
BRANCH  47  71
ATOM     71  C   UNL A   1      42.398  26.074  27.674  1.00  0.00     0.064 A 
ATOM     72  C   UNL A   1      43.338  26.559  26.753  1.00  0.00     0.173 A 
ATOM     73  C   UNL A   1      41.939  24.758  27.508  1.00  0.00     0.173 A 
ATOM     74  F   UNL A   1      43.788  27.817  26.856  1.00  0.00    -0.203 F 
ATOM     75  C   UNL A   1      43.785  25.767  25.698  1.00  0.00     0.198 A 
ATOM     76  C   UNL A   1      42.409  23.959  26.468  1.00  0.00     0.198 A 
ATOM     77  F   UNL A   1      41.042  24.248  28.364  1.00  0.00    -0.203 F 
ATOM     78  F   UNL A   1      44.648  26.271  24.805  1.00  0.00    -0.200 F 
ATOM     79  C   UNL A   1      43.325  24.466  25.559  1.00  0.00     0.200 A 
ATOM     80  F   UNL A   1      41.972  22.698  26.345  1.00  0.00    -0.200 F 
ATOM     81  F   UNL A   1      43.758  23.705  24.546  1.00  0.00    -0.200 F 
ENDBRANCH  47  71
BRANCH  59  82
ATOM     82  C   UNL A   1      44.834  27.549  34.027  1.00  0.00     0.064 A 
ATOM     83  C   UNL A   1      44.809  26.393  34.822  1.00  0.00     0.173 A 
ATOM     84  C   UNL A   1      46.042  28.258  33.937  1.00  0.00     0.173 A 
ATOM     85  F   UNL A   1      43.675  25.688  34.955  1.00  0.00    -0.203 F 
ATOM     86  C   UNL A   1      45.941  25.983  35.522  1.00  0.00     0.198 A 
ATOM     87  C   UNL A   1      47.179  27.826  34.614  1.00  0.00     0.198 A 
ATOM     88  F   UNL A   1      46.121  29.366  33.186  1.00  0.00    -0.203 F 
ATOM     89  F   UNL A   1      45.879  24.906  36.319  1.00  0.00    -0.200 F 
ATOM     90  C   UNL A   1      47.126  26.695  35.413  1.00  0.00     0.200 A 
ATOM     91  F   UNL A   1      48.326  28.510  34.497  1.00  0.00    -0.200 F 
ATOM     92  F   UNL A   1      48.214  26.297  36.087  1.00  0.00    -0.200 F 
ENDBRANCH  59  82
ENDBRANCH  33  34
ENDBRANCH  25  28
ENDBRANCH  23  24
ENDBRANCH  22  23
ENDBRANCH   1  22
TORSDOF 16
ENDMDL
