MODEL 1
REMARK VINA RESULT:     -12.6      0.000      0.000
REMARK SMILES CCCN(C(=O)Cc1c(C(=O)NCCCNC(=O)c2ccc(-c3c4nc(c(-c5c(F)c(F)c(F)c(F)c5F)c5ccc([nH]5)c(-c5c(F)c(F)c(F)c(F)c5F)c5nc(c(-c6c(F)c(F)c(F)c(F)c6F)c6ccc3[nH]6)C=C5)C=C4)cc2)c(C)cn1CC)c1cccc(Cl)c1
REMARK SMILES IDX 10 1 11 2 12 3 9 5 8 6 85 7 82 8 84 9 83 10 7 11 5 12 6 13
REMARK SMILES IDX 4 14 3 15 2 16 1 17 88 18 89 19 94 20 90 21 92 22 91 23
REMARK SMILES IDX 93 24 86 25 87 26 13 27 14 28 15 29 16 30 17 31 18 33 19 34
REMARK SMILES IDX 20 35 81 36 21 37 80 38 22 39 23 40 24 41 74 42 25 43 79 44
REMARK SMILES IDX 73 45 75 46 26 47 78 48 72 49 71 50 27 52 59 53 39 54 58 55
REMARK SMILES IDX 40 56 43 57 57 58 76 59 41 60 42 61 56 63 77 64 44 65 28 66
REMARK SMILES IDX 29 67 37 68 30 69 31 70 35 71 38 72 32 73 33 74 36 75 34 76
REMARK SMILES IDX 60 77 61 78 69 79 62 80 63 81 67 82 70 83 64 84 65 85 68 86
REMARK SMILES IDX 66 87 45 88 46 89 54 90 47 91 48 92 52 93 55 94 49 95 50 96
REMARK SMILES IDX 53 97 51 98
REMARK H PARENT 12 4 16 32 75 51 43 62
REMARK Flexibility Score: inf
ROOT
ATOM      1  C   UNL A   1      36.244  22.638  23.926  1.00  0.00     0.253 C 
ATOM      2  O   UNL A   1      36.291  22.981  22.738  1.00  0.00    -0.269 OA
ATOM      3  N   UNL A   1      37.495  22.511  24.456  1.00  0.00    -0.352 N 
ATOM      4  H   UNL A   1      38.203  22.614  23.780  1.00  0.00     0.163 HD
ENDROOT
BRANCH   1   5
ATOM      5  C   UNL A   1      34.945  22.408  24.619  1.00  0.00     0.064 A 
ATOM      6  C   UNL A   1      34.148  23.506  25.051  1.00  0.00     0.040 A 
ATOM      7  N   UNL A   1      33.069  23.015  25.757  1.00  0.00    -0.350 N 
ATOM      8  C   UNL A   1      34.161  21.231  24.958  1.00  0.00    -0.020 A 
ATOM      9  C   UNL A   1      33.058  21.661  25.663  1.00  0.00     0.090 A 
ATOM     10  C   UNL A   1      34.299  19.780  24.681  1.00  0.00     0.047 C 
BRANCH   6  11
ATOM     11  C   UNL A   1      34.360  25.000  24.872  1.00  0.00     0.155 C 
BRANCH  11  12
ATOM     12  C   UNL A   1      33.692  25.560  23.619  1.00  0.00     0.232 C 
ATOM     13  O   UNL A   1      33.876  24.971  22.545  1.00  0.00    -0.274 OA
BRANCH  12  14
ATOM     14  N   UNL A   1      32.925  26.727  23.717  1.00  0.00    -0.312 N 
BRANCH  14  15
ATOM     15  C   UNL A   1      32.430  27.508  22.563  1.00  0.00     0.125 C 
BRANCH  15  16
ATOM     16  C   UNL A   1      30.932  27.372  22.268  1.00  0.00     0.019 C 
ATOM     17  C   UNL A   1      30.146  28.628  22.637  1.00  0.00     0.006 C 
ENDBRANCH  15  16
ENDBRANCH  14  15
BRANCH  14  18
ATOM     18  C   UNL A   1      32.824  27.369  24.984  1.00  0.00     0.045 A 
ATOM     19  C   UNL A   1      31.688  27.176  25.778  1.00  0.00     0.026 A 
ATOM     20  C   UNL A   1      33.878  28.148  25.466  1.00  0.00     0.046 A 
ATOM     21  C   UNL A   1      31.636  27.706  27.069  1.00  0.00     0.004 A 
ATOM     22  C   UNL A   1      33.823  28.668  26.757  1.00  0.00     0.043 A 
ATOM     23  C   UNL A   1      32.713  28.440  27.565  1.00  0.00     0.020 A 
ATOM     24  Cl  UNL A   1      35.155  29.576  27.363  1.00  0.00    -0.084 Cl
ENDBRANCH  14  18
ENDBRANCH  12  14
ENDBRANCH  11  12
ENDBRANCH   6  11
BRANCH   7  25
ATOM     25  C   UNL A   1      32.022  23.735  26.470  1.00  0.00     0.118 C 
ATOM     26  C   UNL A   1      30.655  23.088  26.345  1.00  0.00     0.027 C 
ENDBRANCH   7  25
ENDBRANCH   1   5
BRANCH   3  27
ATOM     27  C   UNL A   1      38.023  22.263  25.770  1.00  0.00     0.118 C 
BRANCH  27  28
ATOM     28  C   UNL A   1      39.056  21.134  25.770  1.00  0.00     0.042 C 
BRANCH  28  29
ATOM     29  C   UNL A   1      40.211  21.397  26.718  1.00  0.00     0.118 C 
BRANCH  29  30
ATOM     30  N   UNL A   1      41.458  21.626  25.990  1.00  0.00    -0.352 N 
ATOM     31  C   UNL A   1      42.152  22.805  25.805  1.00  0.00     0.251 C 
ATOM     32  H   UNL A   1      41.859  20.829  25.575  1.00  0.00     0.163 HD
ATOM     33  O   UNL A   1      42.999  22.905  24.938  1.00  0.00    -0.269 OA
BRANCH  31  34
ATOM     34  C   UNL A   1      41.817  23.951  26.666  1.00  0.00     0.039 A 
ATOM     35  C   UNL A   1      42.486  24.134  27.877  1.00  0.00     0.014 A 
ATOM     36  C   UNL A   1      40.891  24.881  26.207  1.00  0.00     0.014 A 
ATOM     37  C   UNL A   1      42.290  25.322  28.572  1.00  0.00     0.010 A 
ATOM     38  C   UNL A   1      40.818  26.113  26.812  1.00  0.00     0.010 A 
ATOM     39  C   UNL A   1      41.484  26.331  28.014  1.00  0.00    -0.014 A 
BRANCH  39  40
ATOM     40  C   UNL A   1      41.447  27.655  28.632  1.00  0.00     0.031 A 
ATOM     41  C   UNL A   1      42.566  28.564  28.244  1.00  0.00     0.074 A 
ATOM     42  C   UNL A   1      40.401  28.126  29.344  1.00  0.00     0.049 A 
ATOM     43  N   UNL A   1      43.481  29.062  29.011  1.00  0.00    -0.248 NA
ATOM     44  C   UNL A   1      42.754  28.871  26.817  1.00  0.00     0.031 C 
ATOM     45  C   UNL A   1      39.092  27.504  29.572  1.00  0.00     0.029 A 
ATOM     46  N   UNL A   1      40.262  29.339  29.949  1.00  0.00    -0.354 N 
ATOM     47  C   UNL A   1      44.260  29.886  28.202  1.00  0.00     0.074 A 
ATOM     48  C   UNL A   1      43.860  29.619  26.845  1.00  0.00     0.031 C 
ATOM     49  C   UNL A   1      38.227  28.425  30.050  1.00  0.00     0.029 A 
ATOM     50  C   UNL A   1      38.963  29.640  30.339  1.00  0.00     0.049 A 
ATOM     51  H   UNL A   1      41.018  29.951  30.096  1.00  0.00     0.167 HD
ATOM     52  C   UNL A   1      45.016  30.886  28.737  1.00  0.00     0.037 A 
ATOM     53  C   UNL A   1      38.519  30.811  30.856  1.00  0.00     0.037 A 
ATOM     54  C   UNL A   1      45.238  30.678  30.145  1.00  0.00     0.049 A 
ATOM     55  C   UNL A   1      39.696  31.541  31.377  1.00  0.00     0.074 A 
ATOM     56  C   UNL A   1      45.821  29.677  30.900  1.00  0.00     0.029 A 
ATOM     57  N   UNL A   1      44.494  31.414  31.033  1.00  0.00    -0.354 N 
ATOM     58  N   UNL A   1      40.379  31.169  32.422  1.00  0.00    -0.248 NA
ATOM     59  C   UNL A   1      40.373  32.464  30.482  1.00  0.00     0.031 C 
ATOM     60  C   UNL A   1      45.002  29.566  32.063  1.00  0.00     0.029 A 
ATOM     61  C   UNL A   1      44.013  30.547  31.980  1.00  0.00     0.049 A 
ATOM     62  H   UNL A   1      44.336  32.385  30.997  1.00  0.00     0.167 HD
ATOM     63  C   UNL A   1      41.697  31.436  32.087  1.00  0.00     0.074 A 
ATOM     64  C   UNL A   1      41.622  32.335  30.938  1.00  0.00     0.031 C 
ATOM     65  C   UNL A   1      42.714  30.680  32.596  1.00  0.00     0.037 A 
BRANCH  52  66
ATOM     66  C   UNL A   1      45.239  32.225  28.076  1.00  0.00     0.064 A 
ATOM     67  C   UNL A   1      44.144  33.093  27.882  1.00  0.00     0.173 A 
ATOM     68  C   UNL A   1      46.408  32.557  27.357  1.00  0.00     0.173 A 
ATOM     69  F   UNL A   1      42.972  32.862  28.495  1.00  0.00    -0.203 F 
ATOM     70  C   UNL A   1      44.196  34.160  26.980  1.00  0.00     0.198 A 
ATOM     71  C   UNL A   1      46.473  33.653  26.499  1.00  0.00     0.198 A 
ATOM     72  F   UNL A   1      47.492  31.773  27.361  1.00  0.00    -0.203 F 
ATOM     73  F   UNL A   1      43.091  34.876  26.732  1.00  0.00    -0.200 F 
ATOM     74  C   UNL A   1      45.359  34.435  26.284  1.00  0.00     0.200 A 
ATOM     75  F   UNL A   1      47.604  33.889  25.818  1.00  0.00    -0.200 F 
ATOM     76  F   UNL A   1      45.393  35.415  25.372  1.00  0.00    -0.200 F 
ENDBRANCH  52  66
BRANCH  53  77
ATOM     77  C   UNL A   1      37.195  31.453  30.716  1.00  0.00     0.064 A 
ATOM     78  C   UNL A   1      36.338  31.582  31.820  1.00  0.00     0.173 A 
ATOM     79  C   UNL A   1      36.876  32.217  29.577  1.00  0.00     0.173 A 
ATOM     80  F   UNL A   1      36.593  30.914  32.954  1.00  0.00    -0.203 F 
ATOM     81  C   UNL A   1      35.252  32.462  31.804  1.00  0.00     0.198 A 
ATOM     82  C   UNL A   1      35.787  33.089  29.561  1.00  0.00     0.198 A 
ATOM     83  F   UNL A   1      37.673  32.208  28.499  1.00  0.00    -0.203 F 
ATOM     84  F   UNL A   1      34.501  32.616  32.904  1.00  0.00    -0.200 F 
ATOM     85  C   UNL A   1      34.987  33.226  30.680  1.00  0.00     0.200 A 
ATOM     86  F   UNL A   1      35.561  33.850  28.479  1.00  0.00    -0.200 F 
ATOM     87  F   UNL A   1      33.991  34.123  30.690  1.00  0.00    -0.200 F 
ENDBRANCH  53  77
BRANCH  65  88
ATOM     88  C   UNL A   1      42.390  29.759  33.741  1.00  0.00     0.064 A 
ATOM     89  C   UNL A   1      41.905  28.446  33.596  1.00  0.00     0.173 A 
ATOM     90  C   UNL A   1      42.666  30.198  35.043  1.00  0.00     0.173 A 
ATOM     91  F   UNL A   1      41.719  27.906  32.385  1.00  0.00    -0.203 F 
ATOM     92  C   UNL A   1      41.645  27.642  34.705  1.00  0.00     0.198 A 
ATOM     93  C   UNL A   1      42.445  29.377  36.147  1.00  0.00     0.198 A 
ATOM     94  F   UNL A   1      43.184  31.419  35.245  1.00  0.00    -0.203 F 
ATOM     95  F   UNL A   1      41.150  26.406  34.540  1.00  0.00    -0.200 F 
ATOM     96  C   UNL A   1      41.918  28.108  35.979  1.00  0.00     0.200 A 
ATOM     97  F   UNL A   1      42.759  29.816  37.373  1.00  0.00    -0.200 F 
ATOM     98  F   UNL A   1      41.694  27.326  37.045  1.00  0.00    -0.200 F 
ENDBRANCH  65  88
ENDBRANCH  39  40
ENDBRANCH  31  34
ENDBRANCH  29  30
ENDBRANCH  28  29
ENDBRANCH  27  28
ENDBRANCH   3  27
TORSDOF 17
ENDMDL
MODEL 2
REMARK VINA RESULT:     -12.5      0.764      1.723
REMARK SMILES CCCN(C(=O)Cc1c(C(=O)NCCCNC(=O)c2ccc(-c3c4nc(c(-c5c(F)c(F)c(F)c(F)c5F)c5ccc([nH]5)c(-c5c(F)c(F)c(F)c(F)c5F)c5nc(c(-c6c(F)c(F)c(F)c(F)c6F)c6ccc3[nH]6)C=C5)C=C4)cc2)c(C)cn1CC)c1cccc(Cl)c1
REMARK SMILES IDX 10 1 11 2 12 3 9 5 8 6 85 7 82 8 84 9 83 10 7 11 5 12 6 13
REMARK SMILES IDX 4 14 3 15 2 16 1 17 88 18 89 19 94 20 90 21 92 22 91 23
REMARK SMILES IDX 93 24 86 25 87 26 13 27 14 28 15 29 16 30 17 31 18 33 19 34
REMARK SMILES IDX 20 35 81 36 21 37 80 38 22 39 23 40 24 41 74 42 25 43 79 44
REMARK SMILES IDX 73 45 75 46 26 47 78 48 72 49 71 50 27 52 59 53 39 54 58 55
REMARK SMILES IDX 40 56 43 57 57 58 76 59 41 60 42 61 56 63 77 64 44 65 28 66
REMARK SMILES IDX 29 67 37 68 30 69 31 70 35 71 38 72 32 73 33 74 36 75 34 76
REMARK SMILES IDX 60 77 61 78 69 79 62 80 63 81 67 82 70 83 64 84 65 85 68 86
REMARK SMILES IDX 66 87 45 88 46 89 54 90 47 91 48 92 52 93 55 94 49 95 50 96
REMARK SMILES IDX 53 97 51 98
REMARK H PARENT 12 4 16 32 75 51 43 62
REMARK Flexibility Score: inf
ROOT
ATOM      1  C   UNL A   1      36.162  22.371  23.857  1.00  0.00     0.253 C 
ATOM      2  O   UNL A   1      36.148  22.952  22.764  1.00  0.00    -0.269 OA
ATOM      3  N   UNL A   1      37.429  22.001  24.205  1.00  0.00    -0.352 N 
ATOM      4  H   UNL A   1      38.081  22.168  23.487  1.00  0.00     0.163 HD
ENDROOT
BRANCH   1   5
ATOM      5  C   UNL A   1      34.911  22.141  24.633  1.00  0.00     0.064 A 
ATOM      6  C   UNL A   1      34.178  23.237  25.170  1.00  0.00     0.040 A 
ATOM      7  N   UNL A   1      33.140  22.740  25.931  1.00  0.00    -0.350 N 
ATOM      8  C   UNL A   1      34.122  20.969  24.976  1.00  0.00    -0.020 A 
ATOM      9  C   UNL A   1      33.085  21.393  25.779  1.00  0.00     0.090 A 
ATOM     10  C   UNL A   1      34.200  19.529  24.628  1.00  0.00     0.047 C 
BRANCH   6  11
ATOM     11  C   UNL A   1      34.417  24.732  25.040  1.00  0.00     0.155 C 
BRANCH  11  12
ATOM     12  C   UNL A   1      33.580  25.387  23.945  1.00  0.00     0.232 C 
ATOM     13  O   UNL A   1      33.990  25.318  22.777  1.00  0.00    -0.274 OA
BRANCH  12  14
ATOM     14  N   UNL A   1      32.405  26.062  24.293  1.00  0.00    -0.312 N 
BRANCH  14  15
ATOM     15  C   UNL A   1      31.180  26.102  23.465  1.00  0.00     0.125 C 
BRANCH  15  16
ATOM     16  C   UNL A   1      31.108  27.248  22.449  1.00  0.00     0.019 C 
ATOM     17  C   UNL A   1      29.963  28.216  22.739  1.00  0.00     0.006 C 
ENDBRANCH  15  16
ENDBRANCH  14  15
BRANCH  14  18
ATOM     18  C   UNL A   1      32.449  26.991  25.372  1.00  0.00     0.045 A 
ATOM     19  C   UNL A   1      31.326  27.174  26.184  1.00  0.00     0.026 A 
ATOM     20  C   UNL A   1      33.629  27.681  25.659  1.00  0.00     0.046 A 
ATOM     21  C   UNL A   1      31.402  27.992  27.313  1.00  0.00     0.004 A 
ATOM     22  C   UNL A   1      33.701  28.491  26.791  1.00  0.00     0.043 A 
ATOM     23  C   UNL A   1      32.598  28.639  27.626  1.00  0.00     0.020 A 
ATOM     24  Cl  UNL A   1      35.178  29.289  27.169  1.00  0.00    -0.084 Cl
ENDBRANCH  14  18
ENDBRANCH  12  14
ENDBRANCH  11  12
ENDBRANCH   6  11
BRANCH   7  25
ATOM     25  C   UNL A   1      32.167  23.451  26.749  1.00  0.00     0.118 C 
ATOM     26  C   UNL A   1      30.759  23.409  26.185  1.00  0.00     0.027 C 
ENDBRANCH   7  25
ENDBRANCH   1   5
BRANCH   3  27
ATOM     27  C   UNL A   1      38.034  21.424  25.375  1.00  0.00     0.118 C 
BRANCH  27  28
ATOM     28  C   UNL A   1      38.906  22.433  26.126  1.00  0.00     0.042 C 
BRANCH  28  29
ATOM     29  C   UNL A   1      40.050  21.775  26.875  1.00  0.00     0.118 C 
BRANCH  29  30
ATOM     30  N   UNL A   1      41.326  21.990  26.198  1.00  0.00    -0.352 N 
ATOM     31  C   UNL A   1      42.002  23.172  25.971  1.00  0.00     0.251 C 
ATOM     32  H   UNL A   1      41.767  21.178  25.856  1.00  0.00     0.163 HD
ATOM     33  O   UNL A   1      42.890  23.238  25.142  1.00  0.00    -0.269 OA
BRANCH  31  34
ATOM     34  C   UNL A   1      41.598  24.361  26.737  1.00  0.00     0.039 A 
ATOM     35  C   UNL A   1      42.122  24.584  28.011  1.00  0.00     0.014 A 
ATOM     36  C   UNL A   1      40.758  25.290  26.131  1.00  0.00     0.014 A 
ATOM     37  C   UNL A   1      41.875  25.805  28.628  1.00  0.00     0.010 A 
ATOM     38  C   UNL A   1      40.646  26.548  26.672  1.00  0.00     0.010 A 
ATOM     39  C   UNL A   1      41.169  26.805  27.936  1.00  0.00    -0.014 A 
BRANCH  39  40
ATOM     40  C   UNL A   1      41.093  28.156  28.489  1.00  0.00     0.031 A 
ATOM     41  C   UNL A   1      42.151  29.094  28.010  1.00  0.00     0.074 A 
ATOM     42  C   UNL A   1      40.056  28.614  29.222  1.00  0.00     0.049 A 
ATOM     43  N   UNL A   1      43.071  29.672  28.712  1.00  0.00    -0.248 NA
ATOM     44  C   UNL A   1      42.266  29.337  26.563  1.00  0.00     0.031 C 
ATOM     45  C   UNL A   1      38.789  27.945  29.536  1.00  0.00     0.029 A 
ATOM     46  N   UNL A   1      39.883  29.848  29.773  1.00  0.00    -0.354 N 
ATOM     47  C   UNL A   1      43.777  30.489  27.831  1.00  0.00     0.074 A 
ATOM     48  C   UNL A   1      43.335  30.135  26.508  1.00  0.00     0.031 C 
ATOM     49  C   UNL A   1      37.901  28.848  30.005  1.00  0.00     0.029 A 
ATOM     50  C   UNL A   1      38.589  30.109  30.203  1.00  0.00     0.049 A 
ATOM     51  H   UNL A   1      40.615  30.501  29.857  1.00  0.00     0.167 HD
ATOM     52  C   UNL A   1      44.505  31.548  28.284  1.00  0.00     0.037 A 
ATOM     53  C   UNL A   1      38.110  31.282  30.681  1.00  0.00     0.037 A 
ATOM     54  C   UNL A   1      44.793  31.422  29.690  1.00  0.00     0.049 A 
ATOM     55  C   UNL A   1      39.271  32.091  31.115  1.00  0.00     0.074 A 
ATOM     56  C   UNL A   1      45.454  30.488  30.467  1.00  0.00     0.029 A 
ATOM     57  N   UNL A   1      44.051  32.167  30.572  1.00  0.00    -0.354 N 
ATOM     58  N   UNL A   1      40.013  31.804  32.146  1.00  0.00    -0.248 NA
ATOM     59  C   UNL A   1      39.867  32.998  30.148  1.00  0.00     0.031 C 
ATOM     60  C   UNL A   1      44.689  30.399  31.668  1.00  0.00     0.029 A 
ATOM     61  C   UNL A   1      43.652  31.328  31.580  1.00  0.00     0.049 A 
ATOM     62  H   UNL A   1      43.846  33.127  30.496  1.00  0.00     0.167 HD
ATOM     63  C   UNL A   1      41.301  32.115  31.743  1.00  0.00     0.074 A 
ATOM     64  C   UNL A   1      41.137  32.949  30.556  1.00  0.00     0.031 C 
ATOM     65  C   UNL A   1      42.374  31.432  32.244  1.00  0.00     0.037 A 
BRANCH  52  66
ATOM     66  C   UNL A   1      44.636  32.861  27.550  1.00  0.00     0.064 A 
ATOM     67  C   UNL A   1      45.801  33.121  26.800  1.00  0.00     0.173 A 
ATOM     68  C   UNL A   1      43.815  33.982  27.801  1.00  0.00     0.173 A 
ATOM     69  F   UNL A   1      46.670  32.136  26.521  1.00  0.00    -0.203 F 
ATOM     70  C   UNL A   1      46.152  34.415  26.402  1.00  0.00     0.198 A 
ATOM     71  C   UNL A   1      44.141  35.262  27.357  1.00  0.00     0.198 A 
ATOM     72  F   UNL A   1      42.732  33.910  28.583  1.00  0.00    -0.203 F 
ATOM     73  F   UNL A   1      47.333  34.632  25.805  1.00  0.00    -0.200 F 
ATOM     74  C   UNL A   1      45.324  35.486  26.687  1.00  0.00     0.200 A 
ATOM     75  F   UNL A   1      43.335  36.289  27.663  1.00  0.00    -0.200 F 
ATOM     76  F   UNL A   1      45.687  36.734  26.365  1.00  0.00    -0.200 F 
ENDBRANCH  52  66
BRANCH  53  77
ATOM     77  C   UNL A   1      36.752  31.856  30.566  1.00  0.00     0.064 A 
ATOM     78  C   UNL A   1      35.947  32.031  31.704  1.00  0.00     0.173 A 
ATOM     79  C   UNL A   1      36.340  32.518  29.394  1.00  0.00     0.173 A 
ATOM     80  F   UNL A   1      36.291  31.462  32.867  1.00  0.00    -0.203 F 
ATOM     81  C   UNL A   1      34.823  32.860  31.682  1.00  0.00     0.198 A 
ATOM     82  C   UNL A   1      35.212  33.339  29.373  1.00  0.00     0.198 A 
ATOM     83  F   UNL A   1      37.080  32.461  28.277  1.00  0.00    -0.203 F 
ATOM     84  F   UNL A   1      34.123  33.064  32.807  1.00  0.00    -0.200 F 
ATOM     85  C   UNL A   1      34.466  33.525  30.521  1.00  0.00     0.200 A 
ATOM     86  F   UNL A   1      34.896  34.005  28.252  1.00  0.00    -0.200 F 
ATOM     87  F   UNL A   1      33.431  34.377  30.520  1.00  0.00    -0.200 F 
ENDBRANCH  53  77
BRANCH  65  88
ATOM     88  C   UNL A   1      42.140  30.557  33.445  1.00  0.00     0.064 A 
ATOM     89  C   UNL A   1      42.138  31.014  34.777  1.00  0.00     0.173 A 
ATOM     90  C   UNL A   1      41.817  29.210  33.232  1.00  0.00     0.173 A 
ATOM     91  F   UNL A   1      42.326  32.307  35.065  1.00  0.00    -0.203 F 
ATOM     92  C   UNL A   1      41.894  30.147  35.840  1.00  0.00     0.198 A 
ATOM     93  C   UNL A   1      41.532  28.356  34.294  1.00  0.00     0.198 A 
ATOM     94  F   UNL A   1      41.746  28.726  31.982  1.00  0.00    -0.203 F 
ATOM     95  F   UNL A   1      41.932  30.602  37.102  1.00  0.00    -0.200 F 
ATOM     96  C   UNL A   1      41.588  28.819  35.598  1.00  0.00     0.200 A 
ATOM     97  F   UNL A   1      41.188  27.084  34.049  1.00  0.00    -0.200 F 
ATOM     98  F   UNL A   1      41.327  27.990  36.618  1.00  0.00    -0.200 F 
ENDBRANCH  65  88
ENDBRANCH  39  40
ENDBRANCH  31  34
ENDBRANCH  29  30
ENDBRANCH  28  29
ENDBRANCH  27  28
ENDBRANCH   3  27
TORSDOF 17
ENDMDL
MODEL 3
REMARK VINA RESULT:     -12.3      1.645      3.576
REMARK SMILES CCCN(C(=O)Cc1c(C(=O)NCCCNC(=O)c2ccc(-c3c4nc(c(-c5c(F)c(F)c(F)c(F)c5F)c5ccc([nH]5)c(-c5c(F)c(F)c(F)c(F)c5F)c5nc(c(-c6c(F)c(F)c(F)c(F)c6F)c6ccc3[nH]6)C=C5)C=C4)cc2)c(C)cn1CC)c1cccc(Cl)c1
REMARK SMILES IDX 10 1 11 2 12 3 9 5 8 6 85 7 82 8 84 9 83 10 7 11 5 12 6 13
REMARK SMILES IDX 4 14 3 15 2 16 1 17 88 18 89 19 94 20 90 21 92 22 91 23
REMARK SMILES IDX 93 24 86 25 87 26 13 27 14 28 15 29 16 30 17 31 18 33 19 34
REMARK SMILES IDX 20 35 81 36 21 37 80 38 22 39 23 40 24 41 74 42 25 43 79 44
REMARK SMILES IDX 73 45 75 46 26 47 78 48 72 49 71 50 27 52 59 53 39 54 58 55
REMARK SMILES IDX 40 56 43 57 57 58 76 59 41 60 42 61 56 63 77 64 44 65 28 66
REMARK SMILES IDX 29 67 37 68 30 69 31 70 35 71 38 72 32 73 33 74 36 75 34 76
REMARK SMILES IDX 60 77 61 78 69 79 62 80 63 81 67 82 70 83 64 84 65 85 68 86
REMARK SMILES IDX 66 87 45 88 46 89 54 90 47 91 48 92 52 93 55 94 49 95 50 96
REMARK SMILES IDX 53 97 51 98
REMARK H PARENT 12 4 16 32 75 51 43 62
REMARK Flexibility Score: inf
ROOT
ATOM      1  C   UNL A   1      34.900  23.698  26.177  1.00  0.00     0.253 C 
ATOM      2  O   UNL A   1      34.249  23.205  27.106  1.00  0.00    -0.269 OA
ATOM      3  N   UNL A   1      36.184  23.235  26.171  1.00  0.00    -0.352 N 
ATOM      4  H   UNL A   1      36.388  22.679  26.957  1.00  0.00     0.163 HD
ENDROOT
BRANCH   1   5
ATOM      5  C   UNL A   1      34.289  24.670  25.227  1.00  0.00     0.064 A 
ATOM      6  C   UNL A   1      34.002  24.291  23.885  1.00  0.00     0.040 A 
ATOM      7  N   UNL A   1      33.554  25.402  23.201  1.00  0.00    -0.350 N 
ATOM      8  C   UNL A   1      33.801  26.035  25.334  1.00  0.00    -0.020 A 
ATOM      9  C   UNL A   1      33.396  26.427  24.077  1.00  0.00     0.090 A 
ATOM     10  C   UNL A   1      33.641  26.993  26.456  1.00  0.00     0.047 C 
BRANCH   6  11
ATOM     11  C   UNL A   1      34.160  22.948  23.192  1.00  0.00     0.155 C 
BRANCH  11  12
ATOM     12  C   UNL A   1      32.872  22.129  23.159  1.00  0.00     0.232 C 
ATOM     13  O   UNL A   1      32.126  22.252  22.177  1.00  0.00    -0.274 OA
BRANCH  12  14
ATOM     14  N   UNL A   1      32.564  21.295  24.240  1.00  0.00    -0.312 N 
BRANCH  14  15
ATOM     15  C   UNL A   1      31.804  21.715  25.437  1.00  0.00     0.125 C 
BRANCH  15  16
ATOM     16  C   UNL A   1      30.951  22.978  25.268  1.00  0.00     0.019 C 
ATOM     17  C   UNL A   1      30.874  23.809  26.547  1.00  0.00     0.006 C 
ENDBRANCH  15  16
ENDBRANCH  14  15
BRANCH  14  18
ATOM     18  C   UNL A   1      33.233  20.042  24.344  1.00  0.00     0.045 A 
ATOM     19  C   UNL A   1      32.552  18.858  24.043  1.00  0.00     0.026 A 
ATOM     20  C   UNL A   1      34.585  19.991  24.692  1.00  0.00     0.046 A 
ATOM     21  C   UNL A   1      33.235  17.640  24.027  1.00  0.00     0.004 A 
ATOM     22  C   UNL A   1      35.262  18.774  24.669  1.00  0.00     0.043 A 
ATOM     23  C   UNL A   1      34.597  17.601  24.326  1.00  0.00     0.020 A 
ATOM     24  Cl  UNL A   1      36.943  18.732  25.041  1.00  0.00    -0.084 Cl
ENDBRANCH  14  18
ENDBRANCH  12  14
ENDBRANCH  11  12
ENDBRANCH   6  11
BRANCH   7  25
ATOM     25  C   UNL A   1      33.217  25.550  21.791  1.00  0.00     0.118 C 
ATOM     26  C   UNL A   1      31.762  25.909  21.555  1.00  0.00     0.027 C 
ENDBRANCH   7  25
ENDBRANCH   1   5
BRANCH   3  27
ATOM     27  C   UNL A   1      37.309  23.368  25.286  1.00  0.00     0.118 C 
BRANCH  27  28
ATOM     28  C   UNL A   1      38.123  22.075  25.194  1.00  0.00     0.042 C 
BRANCH  28  29
ATOM     29  C   UNL A   1      39.072  21.895  26.364  1.00  0.00     0.118 C 
BRANCH  29  30
ATOM     30  N   UNL A   1      40.465  21.870  25.924  1.00  0.00    -0.352 N 
ATOM     31  C   UNL A   1      41.407  22.879  25.963  1.00  0.00     0.251 C 
ATOM     32  H   UNL A   1      40.775  21.015  25.547  1.00  0.00     0.163 HD
ATOM     33  O   UNL A   1      42.422  22.816  25.296  1.00  0.00    -0.269 OA
BRANCH  31  34
ATOM     34  C   UNL A   1      41.135  24.050  26.812  1.00  0.00     0.039 A 
ATOM     35  C   UNL A   1      41.816  24.212  28.019  1.00  0.00     0.014 A 
ATOM     36  C   UNL A   1      40.257  25.022  26.344  1.00  0.00     0.014 A 
ATOM     37  C   UNL A   1      41.684  25.416  28.701  1.00  0.00     0.010 A 
ATOM     38  C   UNL A   1      40.251  26.263  26.936  1.00  0.00     0.010 A 
ATOM     39  C   UNL A   1      40.930  26.459  28.134  1.00  0.00    -0.014 A 
BRANCH  39  40
ATOM     40  C   UNL A   1      40.965  27.791  28.736  1.00  0.00     0.031 A 
ATOM     41  C   UNL A   1      42.022  28.699  28.201  1.00  0.00     0.074 A 
ATOM     42  C   UNL A   1      40.014  28.266  29.569  1.00  0.00     0.049 A 
ATOM     43  N   UNL A   1      43.023  29.209  28.842  1.00  0.00    -0.248 NA
ATOM     44  C   UNL A   1      42.027  28.990  26.758  1.00  0.00     0.031 C 
ATOM     45  C   UNL A   1      38.748  27.642  29.966  1.00  0.00     0.029 A 
ATOM     46  N   UNL A   1      39.946  29.485  30.173  1.00  0.00    -0.354 N 
ATOM     47  C   UNL A   1      43.690  30.026  27.932  1.00  0.00     0.074 A 
ATOM     48  C   UNL A   1      43.124  29.742  26.639  1.00  0.00     0.031 C 
ATOM     49  C   UNL A   1      37.945  28.565  30.539  1.00  0.00     0.029 A 
ATOM     50  C   UNL A   1      38.705  29.786  30.720  1.00  0.00     0.049 A 
ATOM     51  H   UNL A   1      40.712  30.102  30.217  1.00  0.00     0.167 HD
ATOM     52  C   UNL A   1      44.502  31.035  28.356  1.00  0.00     0.037 A 
ATOM     53  C   UNL A   1      38.323  30.961  31.276  1.00  0.00     0.037 A 
ATOM     54  C   UNL A   1      44.900  30.844  29.728  1.00  0.00     0.049 A 
ATOM     55  C   UNL A   1      39.553  31.701  31.637  1.00  0.00     0.074 A 
ATOM     56  C   UNL A   1      45.579  29.854  30.414  1.00  0.00     0.029 A 
ATOM     57  N   UNL A   1      44.270  31.588  30.694  1.00  0.00    -0.354 N 
ATOM     58  N   UNL A   1      40.363  31.344  32.591  1.00  0.00    -0.248 NA
ATOM     59  C   UNL A   1      40.108  32.617  30.654  1.00  0.00     0.031 C 
ATOM     60  C   UNL A   1      44.913  29.754  31.672  1.00  0.00     0.029 A 
ATOM     61  C   UNL A   1      43.916  30.730  31.703  1.00  0.00     0.049 A 
ATOM     62  H   UNL A   1      44.104  32.558  30.667  1.00  0.00     0.167 HD
ATOM     63  C   UNL A   1      41.627  31.613  32.091  1.00  0.00     0.074 A 
ATOM     64  C   UNL A   1      41.404  32.497  30.951  1.00  0.00     0.031 C 
ATOM     65  C   UNL A   1      42.704  30.866  32.476  1.00  0.00     0.037 A 
BRANCH  52  66
ATOM     66  C   UNL A   1      44.634  32.367  27.658  1.00  0.00     0.064 A 
ATOM     67  C   UNL A   1      45.768  32.623  26.860  1.00  0.00     0.173 A 
ATOM     68  C   UNL A   1      43.856  33.500  27.984  1.00  0.00     0.173 A 
ATOM     69  F   UNL A   1      46.595  31.626  26.509  1.00  0.00    -0.203 F 
ATOM     70  C   UNL A   1      46.134  33.920  26.486  1.00  0.00     0.198 A 
ATOM     71  C   UNL A   1      44.194  34.786  27.564  1.00  0.00     0.198 A 
ATOM     72  F   UNL A   1      42.809  33.431  28.814  1.00  0.00    -0.203 F 
ATOM     73  F   UNL A   1      47.290  34.126  25.840  1.00  0.00    -0.200 F 
ATOM     74  C   UNL A   1      45.349  35.001  26.844  1.00  0.00     0.200 A 
ATOM     75  F   UNL A   1      43.431  35.822  27.940  1.00  0.00    -0.200 F 
ATOM     76  F   UNL A   1      45.730  36.249  26.544  1.00  0.00    -0.200 F 
ENDBRANCH  52  66
BRANCH  53  77
ATOM     77  C   UNL A   1      36.989  31.598  31.296  1.00  0.00     0.064 A 
ATOM     78  C   UNL A   1      36.329  31.846  32.510  1.00  0.00     0.173 A 
ATOM     79  C   UNL A   1      36.475  32.244  30.156  1.00  0.00     0.173 A 
ATOM     80  F   UNL A   1      36.778  31.295  33.647  1.00  0.00    -0.203 F 
ATOM     81  C   UNL A   1      35.248  32.729  32.587  1.00  0.00     0.198 A 
ATOM     82  C   UNL A   1      35.392  33.119  30.234  1.00  0.00     0.198 A 
ATOM     83  F   UNL A   1      37.079  32.117  28.964  1.00  0.00    -0.203 F 
ATOM     84  F   UNL A   1      34.693  33.001  33.777  1.00  0.00    -0.200 F 
ATOM     85  C   UNL A   1      34.791  33.376  31.452  1.00  0.00     0.200 A 
ATOM     86  F   UNL A   1      34.980  33.766  29.133  1.00  0.00    -0.200 F 
ATOM     87  F   UNL A   1      33.803  34.278  31.538  1.00  0.00    -0.200 F 
ENDBRANCH  53  77
BRANCH  65  88
ATOM     88  C   UNL A   1      42.531  29.958  33.663  1.00  0.00     0.064 A 
ATOM     89  C   UNL A   1      42.045  28.638  33.594  1.00  0.00     0.173 A 
ATOM     90  C   UNL A   1      42.959  30.415  34.917  1.00  0.00     0.173 A 
ATOM     91  F   UNL A   1      41.719  28.081  32.421  1.00  0.00    -0.203 F 
ATOM     92  C   UNL A   1      41.930  27.847  34.736  1.00  0.00     0.198 A 
ATOM     93  C   UNL A   1      42.882  29.607  36.048  1.00  0.00     0.198 A 
ATOM     94  F   UNL A   1      43.486  31.643  35.039  1.00  0.00    -0.203 F 
ATOM     95  F   UNL A   1      41.431  26.604  34.646  1.00  0.00    -0.200 F 
ATOM     96  C   UNL A   1      42.351  28.331  35.961  1.00  0.00     0.200 A 
ATOM     97  F   UNL A   1      43.339  30.064  37.222  1.00  0.00    -0.200 F 
ATOM     98  F   UNL A   1      42.266  27.562  37.055  1.00  0.00    -0.200 F 
ENDBRANCH  65  88
ENDBRANCH  39  40
ENDBRANCH  31  34
ENDBRANCH  29  30
ENDBRANCH  28  29
ENDBRANCH  27  28
ENDBRANCH   3  27
TORSDOF 17
ENDMDL
