MODEL 1
REMARK VINA RESULT:     -12.4      0.000      0.000
REMARK SMILES [NH3+][C@@H](CNc1ccc(C(=O)NCCCNC(=O)c2ccc(-c3c4nc(c(-c5c(F)c(F)c(F)c(F)c5F)c5ccc([nH]5)c(-c5c(F)c(F)c(F)c(F)c5F)c5nc(c(-c6c(F)c(F)c(F)c(F)c6F)c6ccc3[nH]6)C=C5)C=C4)cc2)c(F)c1F)c1ccccc1
REMARK SMILES IDX 12 1 11 2 9 3 10 4 8 6 5 7 6 8 83 9 7 10 81 11 84 12 82 13
REMARK SMILES IDX 4 14 3 16 2 17 1 18 85 22 86 23 90 24 87 25 89 26 88 27
REMARK SMILES IDX 13 28 14 29 15 30 16 31 17 33 18 34 19 35 80 36 20 37 79 38
REMARK SMILES IDX 21 39 22 40 23 41 73 42 24 43 78 44 72 45 74 46 25 47 77 48
REMARK SMILES IDX 71 49 70 50 26 52 58 53 38 54 57 55 39 56 42 57 56 58 75 59
REMARK SMILES IDX 40 60 41 61 55 63 76 64 43 65 27 66 28 67 36 68 29 69 30 70
REMARK SMILES IDX 34 71 37 72 31 73 32 74 35 75 33 76 59 77 60 78 68 79 61 80
REMARK SMILES IDX 62 81 66 82 69 83 63 84 64 85 67 86 65 87 44 88 45 89 53 90
REMARK SMILES IDX 46 91 47 92 51 93 54 94 48 95 49 96 52 97 50 98
REMARK H PARENT 11 5 4 15 1 19 1 20 1 21 15 32 74 51 42 62
REMARK Flexibility Score: inf
ROOT
ATOM      1  C   UNL A   1      31.421  30.659  26.384  1.00  0.00     0.118 C 
ENDROOT
BRANCH   1   2
ATOM      2  N   UNL A   1      31.297  30.197  25.013  1.00  0.00    -0.352 N 
ATOM      3  C   UNL A   1      31.438  28.987  24.386  1.00  0.00     0.254 C 
ATOM      4  O   UNL A   1      31.256  28.994  23.165  1.00  0.00    -0.269 OA
ATOM      5  H   UNL A   1      31.056  30.920  24.390  1.00  0.00     0.163 HD
BRANCH   3   6
ATOM      6  C   UNL A   1      31.858  27.706  25.015  1.00  0.00     0.078 A 
ATOM      7  C   UNL A   1      32.346  25.143  26.176  1.00  0.00     0.074 A 
ATOM      8  C   UNL A   1      31.066  25.689  26.171  1.00  0.00     0.030 A 
ATOM      9  C   UNL A   1      33.384  25.953  25.690  1.00  0.00     0.182 A 
ATOM     10  C   UNL A   1      30.825  26.942  25.592  1.00  0.00     0.019 A 
ATOM     11  C   UNL A   1      33.153  27.221  25.149  1.00  0.00     0.173 A 
ATOM     12  F   UNL A   1      34.641  25.475  25.710  1.00  0.00    -0.201 F 
ATOM     13  F   UNL A   1      34.228  27.955  24.834  1.00  0.00    -0.203 F 
BRANCH   7  14
ATOM     14  N   UNL A   1      32.602  23.841  26.590  1.00  0.00    -0.376 N 
ATOM     15  H   UNL A   1      33.121  23.690  27.413  1.00  0.00     0.160 HD
BRANCH  14  16
ATOM     16  C   UNL A   1      32.115  22.687  25.825  1.00  0.00     0.183 C 
BRANCH  16  17
ATOM     17  C   UNL A   1      33.196  21.571  25.639  1.00  0.00     0.231 C 
BRANCH  17  18
ATOM     18  N   UNL A   1      33.391  20.741  26.840  1.00  0.00    -0.350 N 
ATOM     19  H   UNL A   1      33.626  19.788  26.561  1.00  0.00     0.345 HD
ATOM     20  H   UNL A   1      32.532  20.732  27.390  1.00  0.00     0.345 HD
ATOM     21  H   UNL A   1      34.150  21.128  27.401  1.00  0.00     0.345 HD
ENDBRANCH  17  18
BRANCH  17  22
ATOM     22  C   UNL A   1      34.522  22.100  25.109  1.00  0.00     0.011 A 
ATOM     23  C   UNL A   1      34.649  22.634  23.816  1.00  0.00     0.010 A 
ATOM     24  C   UNL A   1      35.671  22.056  25.915  1.00  0.00     0.010 A 
ATOM     25  C   UNL A   1      35.886  23.056  23.323  1.00  0.00     0.001 A 
ATOM     26  C   UNL A   1      36.906  22.497  25.430  1.00  0.00     0.001 A 
ATOM     27  C   UNL A   1      37.015  22.984  24.130  1.00  0.00     0.000 A 
ENDBRANCH  17  22
ENDBRANCH  16  17
ENDBRANCH  14  16
ENDBRANCH   7  14
ENDBRANCH   3   6
ENDBRANCH   1   2
BRANCH   1  28
ATOM     28  C   UNL A   1      31.413  32.177  26.514  1.00  0.00     0.042 C 
BRANCH  28  29
ATOM     29  C   UNL A   1      32.667  32.770  27.144  1.00  0.00     0.118 C 
BRANCH  29  30
ATOM     30  N   UNL A   1      32.478  34.147  27.587  1.00  0.00    -0.352 N 
ATOM     31  C   UNL A   1      33.039  34.845  28.630  1.00  0.00     0.251 C 
ATOM     32  H   UNL A   1      31.840  34.666  27.046  1.00  0.00     0.163 HD
ATOM     33  O   UNL A   1      32.565  35.928  28.958  1.00  0.00    -0.269 OA
BRANCH  31  34
ATOM     34  C   UNL A   1      34.204  34.306  29.365  1.00  0.00     0.039 A 
ATOM     35  C   UNL A   1      33.990  33.609  30.559  1.00  0.00     0.014 A 
ATOM     36  C   UNL A   1      35.506  34.525  28.912  1.00  0.00     0.014 A 
ATOM     37  C   UNL A   1      35.076  33.074  31.255  1.00  0.00     0.010 A 
ATOM     38  C   UNL A   1      36.578  33.911  29.553  1.00  0.00     0.010 A 
ATOM     39  C   UNL A   1      36.376  33.186  30.736  1.00  0.00    -0.014 A 
BRANCH  39  40
ATOM     40  C   UNL A   1      37.540  32.563  31.414  1.00  0.00     0.031 A 
ATOM     41  C   UNL A   1      38.265  31.416  30.764  1.00  0.00     0.074 A 
ATOM     42  C   UNL A   1      37.896  32.983  32.644  1.00  0.00     0.049 A 
ATOM     43  N   UNL A   1      39.238  30.679  31.237  1.00  0.00    -0.248 NA
ATOM     44  C   UNL A   1      37.822  31.026  29.414  1.00  0.00     0.031 C 
ATOM     45  C   UNL A   1      37.237  34.055  33.393  1.00  0.00     0.029 A 
ATOM     46  N   UNL A   1      38.892  32.556  33.487  1.00  0.00    -0.354 N 
ATOM     47  C   UNL A   1      39.508  29.734  30.255  1.00  0.00     0.074 A 
ATOM     48  C   UNL A   1      38.565  29.953  29.181  1.00  0.00     0.031 C 
ATOM     49  C   UNL A   1      37.862  34.220  34.570  1.00  0.00     0.029 A 
ATOM     50  C   UNL A   1      38.935  33.236  34.681  1.00  0.00     0.049 A 
ATOM     51  H   UNL A   1      39.517  31.830  33.258  1.00  0.00     0.167 HD
ATOM     52  C   UNL A   1      40.475  28.789  30.242  1.00  0.00     0.037 A 
ATOM     53  C   UNL A   1      39.741  33.076  35.749  1.00  0.00     0.037 A 
ATOM     54  C   UNL A   1      41.438  28.608  31.296  1.00  0.00     0.049 A 
ATOM     55  C   UNL A   1      40.808  32.016  35.705  1.00  0.00     0.074 A 
ATOM     56  C   UNL A   1      42.499  27.721  31.346  1.00  0.00     0.029 A 
ATOM     57  N   UNL A   1      41.460  29.330  32.479  1.00  0.00    -0.354 N 
ATOM     58  N   UNL A   1      41.093  31.171  34.743  1.00  0.00    -0.248 NA
ATOM     59  C   UNL A   1      41.670  31.888  36.888  1.00  0.00     0.031 C 
ATOM     60  C   UNL A   1      43.133  27.871  32.581  1.00  0.00     0.029 A 
ATOM     61  C   UNL A   1      42.505  28.891  33.276  1.00  0.00     0.049 A 
ATOM     62  H   UNL A   1      40.830  30.047  32.718  1.00  0.00     0.167 HD
ATOM     63  C   UNL A   1      42.178  30.431  35.193  1.00  0.00     0.074 A 
ATOM     64  C   UNL A   1      42.513  30.938  36.507  1.00  0.00     0.031 C 
ATOM     65  C   UNL A   1      42.833  29.420  34.575  1.00  0.00     0.037 A 
BRANCH  52  66
ATOM     66  C   UNL A   1      40.577  27.888  29.047  1.00  0.00     0.064 A 
ATOM     67  C   UNL A   1      41.391  28.238  27.959  1.00  0.00     0.173 A 
ATOM     68  C   UNL A   1      39.782  26.738  28.929  1.00  0.00     0.173 A 
ATOM     69  F   UNL A   1      42.167  29.330  28.020  1.00  0.00    -0.203 F 
ATOM     70  C   UNL A   1      41.384  27.485  26.787  1.00  0.00     0.198 A 
ATOM     71  C   UNL A   1      39.799  25.972  27.766  1.00  0.00     0.198 A 
ATOM     72  F   UNL A   1      38.994  26.354  29.945  1.00  0.00    -0.203 F 
ATOM     73  F   UNL A   1      42.134  27.866  25.744  1.00  0.00    -0.200 F 
ATOM     74  C   UNL A   1      40.588  26.355  26.692  1.00  0.00     0.200 A 
ATOM     75  F   UNL A   1      39.044  24.868  27.684  1.00  0.00    -0.200 F 
ATOM     76  F   UNL A   1      40.577  25.635  25.562  1.00  0.00    -0.200 F 
ENDBRANCH  52  66
BRANCH  53  77
ATOM     77  C   UNL A   1      39.583  33.958  36.936  1.00  0.00     0.064 A 
ATOM     78  C   UNL A   1      38.808  33.568  38.041  1.00  0.00     0.173 A 
ATOM     79  C   UNL A   1      40.197  35.216  36.987  1.00  0.00     0.173 A 
ATOM     80  F   UNL A   1      38.192  32.376  38.042  1.00  0.00    -0.203 F 
ATOM     81  C   UNL A   1      38.645  34.408  39.140  1.00  0.00     0.198 A 
ATOM     82  C   UNL A   1      40.060  36.042  38.101  1.00  0.00     0.198 A 
ATOM     83  F   UNL A   1      40.963  35.629  35.966  1.00  0.00    -0.203 F 
ATOM     84  F   UNL A   1      37.873  34.024  40.164  1.00  0.00    -0.200 F 
ATOM     85  C   UNL A   1      39.277  35.641  39.173  1.00  0.00     0.200 A 
ATOM     86  F   UNL A   1      40.696  37.221  38.141  1.00  0.00    -0.200 F 
ATOM     87  F   UNL A   1      39.138  36.440  40.240  1.00  0.00    -0.200 F 
ENDBRANCH  53  77
BRANCH  65  88
ATOM     88  C   UNL A   1      43.999  28.800  35.290  1.00  0.00     0.064 A 
ATOM     89  C   UNL A   1      43.790  27.790  36.243  1.00  0.00     0.173 A 
ATOM     90  C   UNL A   1      45.306  29.270  35.104  1.00  0.00     0.173 A 
ATOM     91  F   UNL A   1      42.555  27.315  36.466  1.00  0.00    -0.203 F 
ATOM     92  C   UNL A   1      44.846  27.292  36.999  1.00  0.00     0.198 A 
ATOM     93  C   UNL A   1      46.365  28.744  35.838  1.00  0.00     0.198 A 
ATOM     94  F   UNL A   1      45.557  30.225  34.196  1.00  0.00    -0.203 F 
ATOM     95  F   UNL A   1      44.617  26.361  37.935  1.00  0.00    -0.200 F 
ATOM     96  C   UNL A   1      46.133  27.765  36.793  1.00  0.00     0.200 A 
ATOM     97  F   UNL A   1      47.611  29.187  35.622  1.00  0.00    -0.200 F 
ATOM     98  F   UNL A   1      47.151  27.280  37.518  1.00  0.00    -0.200 F 
ENDBRANCH  65  88
ENDBRANCH  39  40
ENDBRANCH  31  34
ENDBRANCH  29  30
ENDBRANCH  28  29
ENDBRANCH   1  28
TORSDOF 15
ENDMDL
MODEL 2
REMARK VINA RESULT:     -12.3      1.640      2.902
REMARK SMILES [NH3+][C@@H](CNc1ccc(C(=O)NCCCNC(=O)c2ccc(-c3c4nc(c(-c5c(F)c(F)c(F)c(F)c5F)c5ccc([nH]5)c(-c5c(F)c(F)c(F)c(F)c5F)c5nc(c(-c6c(F)c(F)c(F)c(F)c6F)c6ccc3[nH]6)C=C5)C=C4)cc2)c(F)c1F)c1ccccc1
REMARK SMILES IDX 12 1 11 2 9 3 10 4 8 6 5 7 6 8 83 9 7 10 81 11 84 12 82 13
REMARK SMILES IDX 4 14 3 16 2 17 1 18 85 22 86 23 90 24 87 25 89 26 88 27
REMARK SMILES IDX 13 28 14 29 15 30 16 31 17 33 18 34 19 35 80 36 20 37 79 38
REMARK SMILES IDX 21 39 22 40 23 41 73 42 24 43 78 44 72 45 74 46 25 47 77 48
REMARK SMILES IDX 71 49 70 50 26 52 58 53 38 54 57 55 39 56 42 57 56 58 75 59
REMARK SMILES IDX 40 60 41 61 55 63 76 64 43 65 27 66 28 67 36 68 29 69 30 70
REMARK SMILES IDX 34 71 37 72 31 73 32 74 35 75 33 76 59 77 60 78 68 79 61 80
REMARK SMILES IDX 62 81 66 82 69 83 63 84 64 85 67 86 65 87 44 88 45 89 53 90
REMARK SMILES IDX 46 91 47 92 51 93 54 94 48 95 49 96 52 97 50 98
REMARK H PARENT 11 5 4 15 1 19 1 20 1 21 15 32 74 51 42 62
REMARK Flexibility Score: inf
ROOT
ATOM      1  C   UNL A   1      31.038  30.892  25.422  1.00  0.00     0.118 C 
ENDROOT
BRANCH   1   2
ATOM      2  N   UNL A   1      30.124  30.844  24.294  1.00  0.00    -0.352 N 
ATOM      3  C   UNL A   1      29.805  29.903  23.351  1.00  0.00     0.254 C 
ATOM      4  O   UNL A   1      28.958  30.246  22.521  1.00  0.00    -0.269 OA
ATOM      5  H   UNL A   1      29.615  31.679  24.184  1.00  0.00     0.163 HD
BRANCH   3   6
ATOM      6  C   UNL A   1      30.428  28.562  23.189  1.00  0.00     0.078 A 
ATOM      7  C   UNL A   1      31.921  26.143  22.917  1.00  0.00     0.074 A 
ATOM      8  C   UNL A   1      32.496  27.372  22.606  1.00  0.00     0.030 A 
ATOM      9  C   UNL A   1      30.560  26.146  23.256  1.00  0.00     0.182 A 
ATOM     10  C   UNL A   1      31.767  28.560  22.751  1.00  0.00     0.019 A 
ATOM     11  C   UNL A   1      29.817  27.327  23.361  1.00  0.00     0.173 A 
ATOM     12  F   UNL A   1      29.958  24.975  23.530  1.00  0.00    -0.201 F 
ATOM     13  F   UNL A   1      28.499  27.202  23.565  1.00  0.00    -0.203 F 
BRANCH   7  14
ATOM     14  N   UNL A   1      32.653  24.961  22.946  1.00  0.00    -0.376 N 
ATOM     15  H   UNL A   1      32.403  24.225  22.342  1.00  0.00     0.160 HD
BRANCH  14  16
ATOM     16  C   UNL A   1      33.789  24.789  23.859  1.00  0.00     0.183 C 
BRANCH  16  17
ATOM     17  C   UNL A   1      33.362  24.696  25.362  1.00  0.00     0.231 C 
BRANCH  17  18
ATOM     18  N   UNL A   1      32.251  23.759  25.596  1.00  0.00    -0.350 N 
ATOM     19  H   UNL A   1      32.476  22.855  25.180  1.00  0.00     0.345 HD
ATOM     20  H   UNL A   1      31.401  24.127  25.170  1.00  0.00     0.345 HD
ATOM     21  H   UNL A   1      32.107  23.645  26.599  1.00  0.00     0.345 HD
ENDBRANCH  17  18
BRANCH  17  22
ATOM     22  C   UNL A   1      33.085  26.055  25.994  1.00  0.00     0.011 A 
ATOM     23  C   UNL A   1      34.053  27.071  26.031  1.00  0.00     0.010 A 
ATOM     24  C   UNL A   1      31.833  26.320  26.571  1.00  0.00     0.010 A 
ATOM     25  C   UNL A   1      33.803  28.288  26.671  1.00  0.00     0.001 A 
ATOM     26  C   UNL A   1      31.574  27.545  27.194  1.00  0.00     0.001 A 
ATOM     27  C   UNL A   1      32.564  28.523  27.255  1.00  0.00     0.000 A 
ENDBRANCH  17  22
ENDBRANCH  16  17
ENDBRANCH  14  16
ENDBRANCH   7  14
ENDBRANCH   3   6
ENDBRANCH   1   2
BRANCH   1  28
ATOM     28  C   UNL A   1      31.003  32.217  26.172  1.00  0.00     0.042 C 
BRANCH  28  29
ATOM     29  C   UNL A   1      32.275  32.550  26.941  1.00  0.00     0.118 C 
BRANCH  29  30
ATOM     30  N   UNL A   1      32.299  33.927  27.423  1.00  0.00    -0.352 N 
ATOM     31  C   UNL A   1      33.061  34.530  28.395  1.00  0.00     0.251 C 
ATOM     32  H   UNL A   1      31.662  34.527  26.974  1.00  0.00     0.163 HD
ATOM     33  O   UNL A   1      32.757  35.648  28.795  1.00  0.00    -0.269 OA
BRANCH  31  34
ATOM     34  C   UNL A   1      34.241  33.846  28.969  1.00  0.00     0.039 A 
ATOM     35  C   UNL A   1      35.514  34.374  28.732  1.00  0.00     0.014 A 
ATOM     36  C   UNL A   1      34.104  32.664  29.698  1.00  0.00     0.014 A 
ATOM     37  C   UNL A   1      36.637  33.755  29.285  1.00  0.00     0.010 A 
ATOM     38  C   UNL A   1      35.211  32.102  30.327  1.00  0.00     0.010 A 
ATOM     39  C   UNL A   1      36.490  32.636  30.121  1.00  0.00    -0.014 A 
BRANCH  39  40
ATOM     40  C   UNL A   1      37.658  32.002  30.783  1.00  0.00     0.031 A 
ATOM     41  C   UNL A   1      38.449  30.944  30.063  1.00  0.00     0.074 A 
ATOM     42  C   UNL A   1      37.959  32.328  32.056  1.00  0.00     0.049 A 
ATOM     43  N   UNL A   1      39.437  30.207  30.504  1.00  0.00    -0.248 NA
ATOM     44  C   UNL A   1      38.064  30.654  28.671  1.00  0.00     0.031 C 
ATOM     45  C   UNL A   1      37.234  33.305  32.870  1.00  0.00     0.029 A 
ATOM     46  N   UNL A   1      38.945  31.869  32.892  1.00  0.00    -0.354 N 
ATOM     47  C   UNL A   1      39.775  29.361  29.455  1.00  0.00     0.074 A 
ATOM     48  C   UNL A   1      38.858  29.635  28.373  1.00  0.00     0.031 C 
ATOM     49  C   UNL A   1      37.815  33.392  34.077  1.00  0.00     0.029 A 
ATOM     50  C   UNL A   1      38.924  32.445  34.140  1.00  0.00     0.049 A 
ATOM     51  H   UNL A   1      39.607  31.190  32.623  1.00  0.00     0.167 HD
ATOM     52  C   UNL A   1      40.781  28.459  29.395  1.00  0.00     0.037 A 
ATOM     53  C   UNL A   1      39.703  32.226  35.217  1.00  0.00     0.037 A 
ATOM     54  C   UNL A   1      41.718  28.226  30.461  1.00  0.00     0.049 A 
ATOM     55  C   UNL A   1      40.815  31.215  35.119  1.00  0.00     0.074 A 
ATOM     56  C   UNL A   1      42.813  27.380  30.472  1.00  0.00     0.029 A 
ATOM     57  N   UNL A   1      41.675  28.844  31.702  1.00  0.00    -0.354 N 
ATOM     58  N   UNL A   1      41.164  30.468  34.100  1.00  0.00    -0.248 NA
ATOM     59  C   UNL A   1      41.645  31.020  36.316  1.00  0.00     0.031 C 
ATOM     60  C   UNL A   1      43.403  27.447  31.736  1.00  0.00     0.029 A 
ATOM     61  C   UNL A   1      42.712  28.378  32.493  1.00  0.00     0.049 A 
ATOM     62  H   UNL A   1      41.008  29.513  31.979  1.00  0.00     0.167 HD
ATOM     63  C   UNL A   1      42.264  29.734  34.522  1.00  0.00     0.074 A 
ATOM     64  C   UNL A   1      42.538  30.139  35.884  1.00  0.00     0.031 C 
ATOM     65  C   UNL A   1      42.979  28.806  33.842  1.00  0.00     0.037 A 
BRANCH  52  66
ATOM     66  C   UNL A   1      40.956  27.669  28.132  1.00  0.00     0.064 A 
ATOM     67  C   UNL A   1      40.416  26.379  28.020  1.00  0.00     0.173 A 
ATOM     68  C   UNL A   1      41.755  28.140  27.079  1.00  0.00     0.173 A 
ATOM     69  F   UNL A   1      39.648  25.879  29.000  1.00  0.00    -0.203 F 
ATOM     70  C   UNL A   1      40.692  25.579  26.913  1.00  0.00     0.198 A 
ATOM     71  C   UNL A   1      42.005  27.349  25.961  1.00  0.00     0.198 A 
ATOM     72  F   UNL A   1      42.286  29.371  27.133  1.00  0.00    -0.203 F 
ATOM     73  F   UNL A   1      40.203  24.333  26.850  1.00  0.00    -0.200 F 
ATOM     74  C   UNL A   1      41.486  26.065  25.886  1.00  0.00     0.200 A 
ATOM     75  F   UNL A   1      42.757  27.827  24.960  1.00  0.00    -0.200 F 
ATOM     76  F   UNL A   1      41.756  25.293  24.824  1.00  0.00    -0.200 F 
ENDBRANCH  52  66
BRANCH  53  77
ATOM     77  C   UNL A   1      39.473  32.995  36.469  1.00  0.00     0.064 A 
ATOM     78  C   UNL A   1      38.582  32.541  37.455  1.00  0.00     0.173 A 
ATOM     79  C   UNL A   1      40.134  34.208  36.702  1.00  0.00     0.173 A 
ATOM     80  F   UNL A   1      37.918  31.388  37.280  1.00  0.00    -0.203 F 
ATOM     81  C   UNL A   1      38.353  33.278  38.615  1.00  0.00     0.198 A 
ATOM     82  C   UNL A   1      39.928  34.929  37.877  1.00  0.00     0.198 A 
ATOM     83  F   UNL A   1      41.009  34.678  35.800  1.00  0.00    -0.203 F 
ATOM     84  F   UNL A   1      37.473  32.837  39.522  1.00  0.00    -0.200 F 
ATOM     85  C   UNL A   1      39.032  34.467  38.829  1.00  0.00     0.200 A 
ATOM     86  F   UNL A   1      40.608  36.063  38.092  1.00  0.00    -0.200 F 
ATOM     87  F   UNL A   1      38.828  35.165  39.954  1.00  0.00    -0.200 F 
ENDBRANCH  53  77
BRANCH  65  88
ATOM     88  C   UNL A   1      44.147  28.173  34.542  1.00  0.00     0.064 A 
ATOM     89  C   UNL A   1      45.429  28.734  34.431  1.00  0.00     0.173 A 
ATOM     90  C   UNL A   1      44.016  26.963  35.237  1.00  0.00     0.173 A 
ATOM     91  F   UNL A   1      45.608  29.885  33.765  1.00  0.00    -0.203 F 
ATOM     92  C   UNL A   1      46.539  28.094  34.972  1.00  0.00     0.198 A 
ATOM     93  C   UNL A   1      45.125  26.343  35.806  1.00  0.00     0.198 A 
ATOM     94  F   UNL A   1      42.810  26.394  35.379  1.00  0.00    -0.203 F 
ATOM     95  F   UNL A   1      47.760  28.625  34.814  1.00  0.00    -0.200 F 
ATOM     96  C   UNL A   1      46.386  26.902  35.662  1.00  0.00     0.200 A 
ATOM     97  F   UNL A   1      44.971  25.203  36.493  1.00  0.00    -0.200 F 
ATOM     98  F   UNL A   1      47.455  26.289  36.189  1.00  0.00    -0.200 F 
ENDBRANCH  65  88
ENDBRANCH  39  40
ENDBRANCH  31  34
ENDBRANCH  29  30
ENDBRANCH  28  29
ENDBRANCH   1  28
TORSDOF 15
ENDMDL
MODEL 3
REMARK VINA RESULT:     -12.3      0.679      1.808
REMARK SMILES [NH3+][C@@H](CNc1ccc(C(=O)NCCCNC(=O)c2ccc(-c3c4nc(c(-c5c(F)c(F)c(F)c(F)c5F)c5ccc([nH]5)c(-c5c(F)c(F)c(F)c(F)c5F)c5nc(c(-c6c(F)c(F)c(F)c(F)c6F)c6ccc3[nH]6)C=C5)C=C4)cc2)c(F)c1F)c1ccccc1
REMARK SMILES IDX 12 1 11 2 9 3 10 4 8 6 5 7 6 8 83 9 7 10 81 11 84 12 82 13
REMARK SMILES IDX 4 14 3 16 2 17 1 18 85 22 86 23 90 24 87 25 89 26 88 27
REMARK SMILES IDX 13 28 14 29 15 30 16 31 17 33 18 34 19 35 80 36 20 37 79 38
REMARK SMILES IDX 21 39 22 40 23 41 73 42 24 43 78 44 72 45 74 46 25 47 77 48
REMARK SMILES IDX 71 49 70 50 26 52 58 53 38 54 57 55 39 56 42 57 56 58 75 59
REMARK SMILES IDX 40 60 41 61 55 63 76 64 43 65 27 66 28 67 36 68 29 69 30 70
REMARK SMILES IDX 34 71 37 72 31 73 32 74 35 75 33 76 59 77 60 78 68 79 61 80
REMARK SMILES IDX 62 81 66 82 69 83 63 84 64 85 67 86 65 87 44 88 45 89 53 90
REMARK SMILES IDX 46 91 47 92 51 93 54 94 48 95 49 96 52 97 50 98
REMARK H PARENT 11 5 4 15 1 19 1 20 1 21 15 32 74 51 42 62
REMARK Flexibility Score: inf
ROOT
ATOM      1  C   UNL A   1      31.455  30.603  26.210  1.00  0.00     0.118 C 
ENDROOT
BRANCH   1   2
ATOM      2  N   UNL A   1      31.170  30.252  24.829  1.00  0.00    -0.352 N 
ATOM      3  C   UNL A   1      31.105  29.078  24.127  1.00  0.00     0.254 C 
ATOM      4  O   UNL A   1      30.833  29.189  22.927  1.00  0.00    -0.269 OA
ATOM      5  H   UNL A   1      30.978  31.040  24.271  1.00  0.00     0.163 HD
BRANCH   3   6
ATOM      6  C   UNL A   1      31.401  27.716  24.646  1.00  0.00     0.078 A 
ATOM      7  C   UNL A   1      31.705  24.997  25.464  1.00  0.00     0.074 A 
ATOM      8  C   UNL A   1      30.463  25.486  25.067  1.00  0.00     0.030 A 
ATOM      9  C   UNL A   1      32.755  25.923  25.547  1.00  0.00     0.182 A 
ATOM     10  C   UNL A   1      30.317  26.817  24.655  1.00  0.00     0.019 A 
ATOM     11  C   UNL A   1      32.602  27.263  25.177  1.00  0.00     0.173 A 
ATOM     12  F   UNL A   1      33.962  25.498  25.960  1.00  0.00    -0.201 F 
ATOM     13  F   UNL A   1      33.633  28.083  25.417  1.00  0.00    -0.203 F 
BRANCH   7  14
ATOM     14  N   UNL A   1      31.930  23.650  25.722  1.00  0.00    -0.376 N 
ATOM     15  H   UNL A   1      32.123  23.361  26.643  1.00  0.00     0.160 HD
BRANCH  14  16
ATOM     16  C   UNL A   1      31.885  22.648  24.650  1.00  0.00     0.183 C 
BRANCH  16  17
ATOM     17  C   UNL A   1      32.894  22.943  23.490  1.00  0.00     0.231 C 
BRANCH  17  18
ATOM     18  N   UNL A   1      32.441  22.440  22.182  1.00  0.00    -0.350 N 
ATOM     19  H   UNL A   1      32.213  23.229  21.575  1.00  0.00     0.345 HD
ATOM     20  H   UNL A   1      31.613  21.859  22.309  1.00  0.00     0.345 HD
ATOM     21  H   UNL A   1      33.183  21.887  21.754  1.00  0.00     0.345 HD
ENDBRANCH  17  18
BRANCH  17  22
ATOM     22  C   UNL A   1      34.314  22.487  23.798  1.00  0.00     0.011 A 
ATOM     23  C   UNL A   1      34.582  21.414  24.663  1.00  0.00     0.010 A 
ATOM     24  C   UNL A   1      35.408  23.149  23.217  1.00  0.00     0.010 A 
ATOM     25  C   UNL A   1      35.891  21.050  24.985  1.00  0.00     0.001 A 
ATOM     26  C   UNL A   1      36.720  22.772  23.522  1.00  0.00     0.001 A 
ATOM     27  C   UNL A   1      36.961  21.733  24.416  1.00  0.00     0.000 A 
ENDBRANCH  17  22
ENDBRANCH  16  17
ENDBRANCH  14  16
ENDBRANCH   7  14
ENDBRANCH   3   6
ENDBRANCH   1   2
BRANCH   1  28
ATOM     28  C   UNL A   1      31.428  32.104  26.470  1.00  0.00     0.042 C 
BRANCH  28  29
ATOM     29  C   UNL A   1      32.641  32.646  27.214  1.00  0.00     0.118 C 
BRANCH  29  30
ATOM     30  N   UNL A   1      32.484  34.042  27.609  1.00  0.00    -0.352 N 
ATOM     31  C   UNL A   1      33.075  34.768  28.615  1.00  0.00     0.251 C 
ATOM     32  H   UNL A   1      31.846  34.552  27.060  1.00  0.00     0.163 HD
ATOM     33  O   UNL A   1      32.626  35.869  28.911  1.00  0.00    -0.269 OA
BRANCH  31  34
ATOM     34  C   UNL A   1      34.244  34.235  29.350  1.00  0.00     0.039 A 
ATOM     35  C   UNL A   1      34.031  33.472  30.504  1.00  0.00     0.014 A 
ATOM     36  C   UNL A   1      35.546  34.522  28.938  1.00  0.00     0.014 A 
ATOM     37  C   UNL A   1      35.121  32.943  31.198  1.00  0.00     0.010 A 
ATOM     38  C   UNL A   1      36.626  33.917  29.572  1.00  0.00     0.010 A 
ATOM     39  C   UNL A   1      36.427  33.128  30.714  1.00  0.00    -0.014 A 
BRANCH  39  40
ATOM     40  C   UNL A   1      37.599  32.514  31.388  1.00  0.00     0.031 A 
ATOM     41  C   UNL A   1      38.334  31.377  30.732  1.00  0.00     0.074 A 
ATOM     42  C   UNL A   1      37.953  32.933  32.619  1.00  0.00     0.049 A 
ATOM     43  N   UNL A   1      39.315  30.648  31.200  1.00  0.00    -0.248 NA
ATOM     44  C   UNL A   1      37.893  30.987  29.382  1.00  0.00     0.031 C 
ATOM     45  C   UNL A   1      37.284  33.995  33.373  1.00  0.00     0.029 A 
ATOM     46  N   UNL A   1      38.954  32.513  33.457  1.00  0.00    -0.354 N 
ATOM     47  C   UNL A   1      39.593  29.710  30.214  1.00  0.00     0.074 A 
ATOM     48  C   UNL A   1      38.646  29.923  29.143  1.00  0.00     0.031 C 
ATOM     49  C   UNL A   1      37.910  34.162  34.549  1.00  0.00     0.029 A 
ATOM     50  C   UNL A   1      38.993  33.189  34.655  1.00  0.00     0.049 A 
ATOM     51  H   UNL A   1      39.587  31.794  33.224  1.00  0.00     0.167 HD
ATOM     52  C   UNL A   1      40.570  28.775  30.195  1.00  0.00     0.037 A 
ATOM     53  C   UNL A   1      39.803  33.034  35.720  1.00  0.00     0.037 A 
ATOM     54  C   UNL A   1      41.536  28.600  31.247  1.00  0.00     0.049 A 
ATOM     55  C   UNL A   1      40.881  31.985  35.669  1.00  0.00     0.074 A 
ATOM     56  C   UNL A   1      42.607  27.724  31.291  1.00  0.00     0.029 A 
ATOM     57  N   UNL A   1      41.554  29.317  32.433  1.00  0.00    -0.354 N 
ATOM     58  N   UNL A   1      41.173  31.146  34.705  1.00  0.00    -0.248 NA
ATOM     59  C   UNL A   1      41.746  31.861  36.851  1.00  0.00     0.031 C 
ATOM     60  C   UNL A   1      43.241  27.875  32.526  1.00  0.00     0.029 A 
ATOM     61  C   UNL A   1      42.605  28.886  33.225  1.00  0.00     0.049 A 
ATOM     62  H   UNL A   1      40.916  30.027  32.675  1.00  0.00     0.167 HD
ATOM     63  C   UNL A   1      42.265  30.416  35.149  1.00  0.00     0.074 A 
ATOM     64  C   UNL A   1      42.598  30.921  36.464  1.00  0.00     0.031 C 
ATOM     65  C   UNL A   1      42.930  29.414  34.526  1.00  0.00     0.037 A 
BRANCH  52  66
ATOM     66  C   UNL A   1      40.678  27.879  28.997  1.00  0.00     0.064 A 
ATOM     67  C   UNL A   1      41.502  28.232  27.917  1.00  0.00     0.173 A 
ATOM     68  C   UNL A   1      39.881  26.732  28.867  1.00  0.00     0.173 A 
ATOM     69  F   UNL A   1      42.281  29.322  27.989  1.00  0.00    -0.203 F 
ATOM     70  C   UNL A   1      41.502  27.485  26.741  1.00  0.00     0.198 A 
ATOM     71  C   UNL A   1      39.905  25.972  27.700  1.00  0.00     0.198 A 
ATOM     72  F   UNL A   1      39.084  26.345  29.875  1.00  0.00    -0.203 F 
ATOM     73  F   UNL A   1      42.262  27.869  25.706  1.00  0.00    -0.200 F 
ATOM     74  C   UNL A   1      40.704  26.358  26.634  1.00  0.00     0.200 A 
ATOM     75  F   UNL A   1      39.147  24.871  27.606  1.00  0.00    -0.200 F 
ATOM     76  F   UNL A   1      40.700  25.644  25.500  1.00  0.00    -0.200 F 
ENDBRANCH  52  66
BRANCH  53  77
ATOM     77  C   UNL A   1      39.638  33.909  36.911  1.00  0.00     0.064 A 
ATOM     78  C   UNL A   1      40.259  35.165  36.989  1.00  0.00     0.173 A 
ATOM     79  C   UNL A   1      38.860  33.501  38.003  1.00  0.00     0.173 A 
ATOM     80  F   UNL A   1      41.020  35.602  35.974  1.00  0.00    -0.203 F 
ATOM     81  C   UNL A   1      40.120  35.970  38.118  1.00  0.00     0.198 A 
ATOM     82  C   UNL A   1      38.694  34.321  39.118  1.00  0.00     0.198 A 
ATOM     83  F   UNL A   1      38.229  32.317  37.971  1.00  0.00    -0.203 F 
ATOM     84  F   UNL A   1      40.751  37.149  38.179  1.00  0.00    -0.200 F 
ATOM     85  C   UNL A   1      39.331  35.551  39.178  1.00  0.00     0.200 A 
ATOM     86  F   UNL A   1      37.909  33.924  40.128  1.00  0.00    -0.200 F 
ATOM     87  F   UNL A   1      39.179  36.335  40.254  1.00  0.00    -0.200 F 
ENDBRANCH  53  77
BRANCH  65  88
ATOM     88  C   UNL A   1      44.104  28.803  35.236  1.00  0.00     0.064 A 
ATOM     89  C   UNL A   1      45.403  29.277  34.996  1.00  0.00     0.173 A 
ATOM     90  C   UNL A   1      43.953  27.691  36.076  1.00  0.00     0.173 A 
ATOM     91  F   UNL A   1      45.600  30.332  34.190  1.00  0.00    -0.203 F 
ATOM     92  C   UNL A   1      46.509  28.645  35.554  1.00  0.00     0.198 A 
ATOM     93  C   UNL A   1      45.061  27.082  36.659  1.00  0.00     0.198 A 
ATOM     94  F   UNL A   1      42.731  27.209  36.345  1.00  0.00    -0.203 F 
ATOM     95  F   UNL A   1      47.743  29.087  35.274  1.00  0.00    -0.200 F 
ATOM     96  C   UNL A   1      46.337  27.551  36.388  1.00  0.00     0.200 A 
ATOM     97  F   UNL A   1      44.891  26.039  37.484  1.00  0.00    -0.200 F 
ATOM     98  F   UNL A   1      47.404  26.946  36.930  1.00  0.00    -0.200 F 
ENDBRANCH  65  88
ENDBRANCH  39  40
ENDBRANCH  31  34
ENDBRANCH  29  30
ENDBRANCH  28  29
ENDBRANCH   1  28
TORSDOF 15
ENDMDL
