MODEL 1
REMARK VINA RESULT:     -12.2      0.000      0.000
REMARK SMILES CC(C)[C@H]1CC[C@@H](C)C/C1=C(\F)C(=O)NCCCNC(=O)c1ccc(-c2c3nc(c(-c4c(F)c(F)c(F)c(F)c4F)c4ccc([nH]4)c(-c4c(F)c(F)c(F)c(F)c4F)c4nc(c(-c5c(F)c(F)c(F)c(F)c5F)c5ccc2[nH]5)C=C4)C=C3)cc1
REMARK SMILES IDX 17 1 16 2 15 3 13 4 14 5 11 7 4 8 5 9 10 10 6 11 9 12 7 13
REMARK SMILES IDX 12 14 8 15 2 16 1 17 3 18 18 19 19 20 20 21 21 23 22 24
REMARK SMILES IDX 23 25 84 26 24 27 83 28 25 29 26 30 27 31 77 32 28 33 82 34
REMARK SMILES IDX 76 35 78 36 29 37 81 38 75 39 74 40 30 42 62 43 42 44 61 45
REMARK SMILES IDX 43 46 46 47 60 48 79 49 44 50 45 51 59 53 80 54 47 55 31 56
REMARK SMILES IDX 32 57 40 58 33 59 34 60 38 61 41 62 35 63 36 64 39 65 37 66
REMARK SMILES IDX 63 67 64 68 72 69 65 70 66 71 70 72 73 73 67 74 68 75 71 76
REMARK SMILES IDX 69 77 48 78 49 79 57 80 50 81 51 82 55 83 58 84 52 85 53 86
REMARK SMILES IDX 56 87 54 88
REMARK H PARENT 15 6 19 22 78 41 46 52
REMARK Flexibility Score: inf
ROOT
ATOM      1  C   UNL A   1      32.002  28.117  25.136  1.00  0.00     0.042 C 
ENDROOT
BRANCH   1   2
ATOM      2  C   UNL A   1      32.537  26.708  24.912  1.00  0.00     0.118 C 
BRANCH   2   3
ATOM      3  N   UNL A   1      33.332  26.559  23.704  1.00  0.00    -0.350 N 
ATOM      4  C   UNL A   1      33.275  25.626  22.708  1.00  0.00     0.279 C 
ATOM      5  O   UNL A   1      33.798  25.915  21.634  1.00  0.00    -0.267 OA
ATOM      6  H   UNL A   1      34.027  27.245  23.584  1.00  0.00     0.163 HD
BRANCH   4   7
ATOM      7  C   UNL A   1      32.547  24.340  22.921  1.00  0.00     0.187 C 
ATOM      8  C   UNL A   1      34.455  22.621  23.553  1.00  0.00     0.021 C 
ATOM      9  C   UNL A   1      34.478  21.488  24.619  1.00  0.00     0.009 C 
ATOM     10  C   UNL A   1      33.013  23.107  23.234  1.00  0.00    -0.025 C 
ATOM     11  C   UNL A   1      33.438  20.399  24.407  1.00  0.00     0.004 C 
ATOM     12  C   UNL A   1      31.983  21.974  23.162  1.00  0.00     0.038 C 
ATOM     13  C   UNL A   1      32.034  20.981  24.327  1.00  0.00    -0.010 C 
ATOM     14  F   UNL A   1      31.228  24.457  22.629  1.00  0.00    -0.201 F 
ATOM     15  C   UNL A   1      31.588  21.610  25.650  1.00  0.00     0.008 C 
BRANCH   8  16
ATOM     16  C   UNL A   1      35.555  23.670  23.921  1.00  0.00    -0.010 C 
ATOM     17  C   UNL A   1      35.510  24.132  25.382  1.00  0.00     0.008 C 
ATOM     18  C   UNL A   1      36.981  23.191  23.594  1.00  0.00     0.008 C 
ENDBRANCH   8  16
ENDBRANCH   4   7
ENDBRANCH   2   3
ENDBRANCH   1   2
BRANCH   1  19
ATOM     19  C   UNL A   1      33.045  29.229  25.167  1.00  0.00     0.118 C 
BRANCH  19  20
ATOM     20  N   UNL A   1      32.574  30.459  25.787  1.00  0.00    -0.352 N 
ATOM     21  C   UNL A   1      33.069  31.194  26.838  1.00  0.00     0.251 C 
ATOM     22  H   UNL A   1      31.758  30.831  25.383  1.00  0.00     0.163 HD
ATOM     23  O   UNL A   1      32.422  32.146  27.262  1.00  0.00    -0.269 OA
BRANCH  21  24
ATOM     24  C   UNL A   1      34.351  30.840  27.492  1.00  0.00     0.039 A 
ATOM     25  C   UNL A   1      35.314  31.841  27.656  1.00  0.00     0.014 A 
ATOM     26  C   UNL A   1      34.631  29.539  27.911  1.00  0.00     0.014 A 
ATOM     27  C   UNL A   1      36.515  31.557  28.310  1.00  0.00     0.010 A 
ATOM     28  C   UNL A   1      35.790  29.275  28.639  1.00  0.00     0.010 A 
ATOM     29  C   UNL A   1      36.745  30.282  28.849  1.00  0.00    -0.014 A 
BRANCH  29  30
ATOM     30  C   UNL A   1      37.967  29.988  29.645  1.00  0.00     0.031 A 
ATOM     31  C   UNL A   1      39.019  29.053  29.114  1.00  0.00     0.074 A 
ATOM     32  C   UNL A   1      38.098  30.510  30.881  1.00  0.00     0.049 A 
ATOM     33  N   UNL A   1      40.115  28.625  29.689  1.00  0.00    -0.248 NA
ATOM     34  C   UNL A   1      38.796  28.505  27.768  1.00  0.00     0.031 C 
ATOM     35  C   UNL A   1      37.130  31.396  31.530  1.00  0.00     0.029 A 
ATOM     36  N   UNL A   1      39.092  30.363  31.816  1.00  0.00    -0.354 N 
ATOM     37  C   UNL A   1      40.698  27.746  28.786  1.00  0.00     0.074 A 
ATOM     38  C   UNL A   1      39.809  27.661  27.648  1.00  0.00     0.031 C 
ATOM     39  C   UNL A   1      37.592  31.738  32.742  1.00  0.00     0.029 A 
ATOM     40  C   UNL A   1      38.863  31.061  32.978  1.00  0.00     0.049 A 
ATOM     41  H   UNL A   1      39.894  29.811  31.669  1.00  0.00     0.167 HD
ATOM     42  C   UNL A   1      41.877  27.086  28.887  1.00  0.00     0.037 A 
ATOM     43  C   UNL A   1      39.591  31.140  34.108  1.00  0.00     0.037 A 
ATOM     44  C   UNL A   1      42.771  27.190  30.013  1.00  0.00     0.049 A 
ATOM     45  C   UNL A   1      40.886  30.381  34.204  1.00  0.00     0.074 A 
ATOM     46  C   UNL A   1      44.020  26.618  30.179  1.00  0.00     0.029 A 
ATOM     47  N   UNL A   1      42.503  27.906  31.170  1.00  0.00    -0.354 N 
ATOM     48  N   UNL A   1      41.465  29.614  33.313  1.00  0.00    -0.248 NA
ATOM     49  C   UNL A   1      41.632  30.503  35.465  1.00  0.00     0.031 C 
ATOM     50  C   UNL A   1      44.480  26.936  31.461  1.00  0.00     0.029 A 
ATOM     51  C   UNL A   1      43.549  27.761  32.070  1.00  0.00     0.049 A 
ATOM     52  H   UNL A   1      41.690  28.438  31.331  1.00  0.00     0.167 HD
ATOM     53  C   UNL A   1      42.654  29.188  33.890  1.00  0.00     0.074 A 
ATOM     54  C   UNL A   1      42.720  29.794  35.204  1.00  0.00     0.031 C 
ATOM     55  C   UNL A   1      43.606  28.371  33.375  1.00  0.00     0.037 A 
BRANCH  42  56
ATOM     56  C   UNL A   1      42.266  26.178  27.753  1.00  0.00     0.064 A 
ATOM     57  C   UNL A   1      43.143  26.592  26.739  1.00  0.00     0.173 A 
ATOM     58  C   UNL A   1      41.769  24.866  27.691  1.00  0.00     0.173 A 
ATOM     59  F   UNL A   1      43.641  27.838  26.743  1.00  0.00    -0.203 F 
ATOM     60  C   UNL A   1      43.477  25.743  25.686  1.00  0.00     0.198 A 
ATOM     61  C   UNL A   1      42.134  24.008  26.656  1.00  0.00     0.198 A 
ATOM     62  F   UNL A   1      40.934  24.413  28.637  1.00  0.00    -0.203 F 
ATOM     63  F   UNL A   1      44.268  26.183  24.698  1.00  0.00    -0.200 F 
ATOM     64  C   UNL A   1      42.978  24.450  25.649  1.00  0.00     0.200 A 
ATOM     65  F   UNL A   1      41.664  22.753  26.632  1.00  0.00    -0.200 F 
ATOM     66  F   UNL A   1      43.302  23.633  24.638  1.00  0.00    -0.200 F 
ENDBRANCH  42  56
BRANCH  43  67
ATOM     67  C   UNL A   1      39.126  31.998  35.230  1.00  0.00     0.064 A 
ATOM     68  C   UNL A   1      38.403  31.451  36.298  1.00  0.00     0.173 A 
ATOM     69  C   UNL A   1      39.393  33.375  35.261  1.00  0.00     0.173 A 
ATOM     70  F   UNL A   1      38.103  30.143  36.303  1.00  0.00    -0.203 F 
ATOM     71  C   UNL A   1      37.950  32.248  37.347  1.00  0.00     0.198 A 
ATOM     72  C   UNL A   1      38.967  34.166  36.325  1.00  0.00     0.198 A 
ATOM     73  F   UNL A   1      40.085  33.948  34.266  1.00  0.00    -0.203 F 
ATOM     74  F   UNL A   1      37.224  31.705  38.334  1.00  0.00    -0.200 F 
ATOM     75  C   UNL A   1      38.239  33.604  37.364  1.00  0.00     0.200 A 
ATOM     76  F   UNL A   1      39.261  35.473  36.346  1.00  0.00    -0.200 F 
ATOM     77  F   UNL A   1      37.811  34.370  38.376  1.00  0.00    -0.200 F 
ENDBRANCH  43  67
BRANCH  55  78
ATOM     78  C   UNL A   1      44.824  28.113  34.217  1.00  0.00     0.064 A 
ATOM     79  C   UNL A   1      44.908  27.010  35.079  1.00  0.00     0.173 A 
ATOM     80  C   UNL A   1      45.938  28.963  34.130  1.00  0.00     0.173 A 
ATOM     81  F   UNL A   1      43.866  26.176  35.212  1.00  0.00    -0.203 F 
ATOM     82  C   UNL A   1      46.049  26.783  35.844  1.00  0.00     0.198 A 
ATOM     83  C   UNL A   1      47.091  28.714  34.871  1.00  0.00     0.198 A 
ATOM     84  F   UNL A   1      45.915  30.029  33.316  1.00  0.00    -0.203 F 
ATOM     85  F   UNL A   1      46.087  25.754  36.701  1.00  0.00    -0.200 F 
ATOM     86  C   UNL A   1      47.143  27.630  35.732  1.00  0.00     0.200 A 
ATOM     87  F   UNL A   1      48.152  29.524  34.749  1.00  0.00    -0.200 F 
ATOM     88  F   UNL A   1      48.244  27.405  36.462  1.00  0.00    -0.200 F 
ENDBRANCH  55  78
ENDBRANCH  29  30
ENDBRANCH  21  24
ENDBRANCH  19  20
ENDBRANCH   1  19
TORSDOF 11
ENDMDL
MODEL 2
REMARK VINA RESULT:     -12.2      2.307      3.888
REMARK SMILES CC(C)[C@H]1CC[C@@H](C)C/C1=C(\F)C(=O)NCCCNC(=O)c1ccc(-c2c3nc(c(-c4c(F)c(F)c(F)c(F)c4F)c4ccc([nH]4)c(-c4c(F)c(F)c(F)c(F)c4F)c4nc(c(-c5c(F)c(F)c(F)c(F)c5F)c5ccc2[nH]5)C=C4)C=C3)cc1
REMARK SMILES IDX 17 1 16 2 15 3 13 4 14 5 11 7 4 8 5 9 10 10 6 11 9 12 7 13
REMARK SMILES IDX 12 14 8 15 2 16 1 17 3 18 18 19 19 20 20 21 21 23 22 24
REMARK SMILES IDX 23 25 84 26 24 27 83 28 25 29 26 30 27 31 77 32 28 33 82 34
REMARK SMILES IDX 76 35 78 36 29 37 81 38 75 39 74 40 30 42 62 43 42 44 61 45
REMARK SMILES IDX 43 46 46 47 60 48 79 49 44 50 45 51 59 53 80 54 47 55 31 56
REMARK SMILES IDX 32 57 40 58 33 59 34 60 38 61 41 62 35 63 36 64 39 65 37 66
REMARK SMILES IDX 63 67 64 68 72 69 65 70 66 71 70 72 73 73 67 74 68 75 71 76
REMARK SMILES IDX 69 77 48 78 49 79 57 80 50 81 51 82 55 83 58 84 52 85 53 86
REMARK SMILES IDX 56 87 54 88
REMARK H PARENT 15 6 19 22 78 41 46 52
REMARK Flexibility Score: inf
ROOT
ATOM      1  C   UNL A   1      31.342  32.207  26.501  1.00  0.00     0.042 C 
ENDROOT
BRANCH   1   2
ATOM      2  C   UNL A   1      31.462  30.730  26.146  1.00  0.00     0.118 C 
BRANCH   2   3
ATOM      3  N   UNL A   1      32.434  30.446  25.104  1.00  0.00    -0.350 N 
ATOM      4  C   UNL A   1      32.989  29.265  24.700  1.00  0.00     0.279 C 
ATOM      5  O   UNL A   1      33.499  29.235  23.582  1.00  0.00    -0.267 OA
ATOM      6  H   UNL A   1      32.742  31.236  24.605  1.00  0.00     0.163 HD
BRANCH   4   7
ATOM      7  C   UNL A   1      32.913  28.058  25.575  1.00  0.00     0.187 C 
ATOM      8  C   UNL A   1      30.633  26.909  24.884  1.00  0.00     0.021 C 
ATOM      9  C   UNL A   1      30.281  25.407  24.684  1.00  0.00     0.009 C 
ATOM     10  C   UNL A   1      31.951  27.109  25.683  1.00  0.00    -0.025 C 
ATOM     11  C   UNL A   1      30.443  24.549  25.929  1.00  0.00     0.004 C 
ATOM     12  C   UNL A   1      32.120  26.128  26.849  1.00  0.00     0.038 C 
ATOM     13  C   UNL A   1      31.849  24.661  26.501  1.00  0.00    -0.010 C 
ATOM     14  F   UNL A   1      33.938  28.016  26.461  1.00  0.00    -0.201 F 
ATOM     15  C   UNL A   1      32.908  24.080  25.559  1.00  0.00     0.008 C 
BRANCH   8  16
ATOM     16  C   UNL A   1      30.444  27.648  23.518  1.00  0.00    -0.010 C 
ATOM     17  C   UNL A   1      31.096  26.933  22.329  1.00  0.00     0.008 C 
ATOM     18  C   UNL A   1      28.968  27.927  23.181  1.00  0.00     0.008 C 
ENDBRANCH   8  16
ENDBRANCH   4   7
ENDBRANCH   2   3
ENDBRANCH   1   2
BRANCH   1  19
ATOM     19  C   UNL A   1      32.553  32.827  27.190  1.00  0.00     0.118 C 
BRANCH  19  20
ATOM     20  N   UNL A   1      32.342  34.200  27.627  1.00  0.00    -0.352 N 
ATOM     21  C   UNL A   1      32.970  34.954  28.589  1.00  0.00     0.251 C 
ATOM     22  H   UNL A   1      31.623  34.672  27.148  1.00  0.00     0.163 HD
ATOM     23  O   UNL A   1      32.530  36.067  28.861  1.00  0.00    -0.269 OA
BRANCH  21  24
ATOM     24  C   UNL A   1      34.145  34.439  29.329  1.00  0.00     0.039 A 
ATOM     25  C   UNL A   1      33.936  33.828  30.569  1.00  0.00     0.014 A 
ATOM     26  C   UNL A   1      35.445  34.577  28.838  1.00  0.00     0.014 A 
ATOM     27  C   UNL A   1      35.015  33.287  31.275  1.00  0.00     0.010 A 
ATOM     28  C   UNL A   1      36.508  33.963  29.498  1.00  0.00     0.010 A 
ATOM     29  C   UNL A   1      36.306  33.308  30.723  1.00  0.00    -0.014 A 
BRANCH  29  30
ATOM     30  C   UNL A   1      37.448  32.642  31.404  1.00  0.00     0.031 A 
ATOM     31  C   UNL A   1      38.156  31.486  30.754  1.00  0.00     0.074 A 
ATOM     32  C   UNL A   1      37.805  33.036  32.643  1.00  0.00     0.049 A 
ATOM     33  N   UNL A   1      39.126  30.739  31.221  1.00  0.00    -0.248 NA
ATOM     34  C   UNL A   1      37.696  31.099  29.413  1.00  0.00     0.031 C 
ATOM     35  C   UNL A   1      37.172  34.116  33.401  1.00  0.00     0.029 A 
ATOM     36  N   UNL A   1      38.781  32.566  33.487  1.00  0.00    -0.354 N 
ATOM     37  C   UNL A   1      39.376  29.786  30.241  1.00  0.00     0.074 A 
ATOM     38  C   UNL A   1      38.422  30.016  29.179  1.00  0.00     0.031 C 
ATOM     39  C   UNL A   1      37.794  34.247  34.583  1.00  0.00     0.029 A 
ATOM     40  C   UNL A   1      38.837  33.232  34.688  1.00  0.00     0.049 A 
ATOM     41  H   UNL A   1      39.383  31.823  33.254  1.00  0.00     0.167 HD
ATOM     42  C   UNL A   1      40.327  28.821  30.221  1.00  0.00     0.037 A 
ATOM     43  C   UNL A   1      39.635  33.041  35.756  1.00  0.00     0.037 A 
ATOM     44  C   UNL A   1      41.289  28.609  31.272  1.00  0.00     0.049 A 
ATOM     45  C   UNL A   1      40.669  31.950  35.718  1.00  0.00     0.074 A 
ATOM     46  C   UNL A   1      42.336  27.706  31.314  1.00  0.00     0.029 A 
ATOM     47  N   UNL A   1      41.314  29.303  32.473  1.00  0.00    -0.354 N 
ATOM     48  N   UNL A   1      40.947  31.105  34.754  1.00  0.00    -0.248 NA
ATOM     49  C   UNL A   1      41.504  31.787  36.916  1.00  0.00     0.031 C 
ATOM     50  C   UNL A   1      42.955  27.809  32.564  1.00  0.00     0.029 A 
ATOM     51  C   UNL A   1      42.337  28.824  33.277  1.00  0.00     0.049 A 
ATOM     52  H   UNL A   1      40.696  30.029  32.720  1.00  0.00     0.167 HD
ATOM     53  C   UNL A   1      42.006  30.335  35.216  1.00  0.00     0.074 A 
ATOM     54  C   UNL A   1      42.330  30.821  36.540  1.00  0.00     0.031 C 
ATOM     55  C   UNL A   1      42.653  29.317  34.594  1.00  0.00     0.037 A 
BRANCH  42  56
ATOM     56  C   UNL A   1      40.366  27.909  29.027  1.00  0.00     0.064 A 
ATOM     57  C   UNL A   1      41.132  28.208  27.890  1.00  0.00     0.173 A 
ATOM     58  C   UNL A   1      39.642  26.705  29.028  1.00  0.00     0.173 A 
ATOM     59  F   UNL A   1      41.836  29.348  27.831  1.00  0.00    -0.203 F 
ATOM     60  C   UNL A   1      41.141  27.359  26.785  1.00  0.00     0.198 A 
ATOM     61  C   UNL A   1      39.683  25.841  27.936  1.00  0.00     0.198 A 
ATOM     62  F   UNL A   1      38.900  26.363  30.091  1.00  0.00    -0.203 F 
ATOM     63  F   UNL A   1      41.832  27.697  25.688  1.00  0.00    -0.200 F 
ATOM     64  C   UNL A   1      40.422  26.174  26.812  1.00  0.00     0.200 A 
ATOM     65  F   UNL A   1      39.001  24.688  27.972  1.00  0.00    -0.200 F 
ATOM     66  F   UNL A   1      40.434  25.356  25.750  1.00  0.00    -0.200 F 
ENDBRANCH  42  56
BRANCH  43  67
ATOM     67  C   UNL A   1      39.507  33.928  36.943  1.00  0.00     0.064 A 
ATOM     68  C   UNL A   1      40.142  35.177  36.976  1.00  0.00     0.173 A 
ATOM     69  C   UNL A   1      38.750  33.552  38.062  1.00  0.00     0.173 A 
ATOM     70  F   UNL A   1      40.896  35.572  35.939  1.00  0.00    -0.203 F 
ATOM     71  C   UNL A   1      40.040  36.009  38.089  1.00  0.00     0.198 A 
ATOM     72  C   UNL A   1      38.623  34.397  39.162  1.00  0.00     0.198 A 
ATOM     73  F   UNL A   1      38.118  32.370  38.080  1.00  0.00    -0.203 F 
ATOM     74  F   UNL A   1      40.694  37.179  38.111  1.00  0.00    -0.200 F 
ATOM     75  C   UNL A   1      39.275  35.622  39.178  1.00  0.00     0.200 A 
ATOM     76  F   UNL A   1      37.870  34.027  40.206  1.00  0.00    -0.200 F 
ATOM     77  F   UNL A   1      39.169  36.426  40.246  1.00  0.00    -0.200 F 
ENDBRANCH  43  67
BRANCH  55  78
ATOM     78  C   UNL A   1      43.805  28.684  35.323  1.00  0.00     0.064 A 
ATOM     79  C   UNL A   1      45.120  29.151  35.178  1.00  0.00     0.173 A 
ATOM     80  C   UNL A   1      43.582  27.618  36.209  1.00  0.00     0.173 A 
ATOM     81  F   UNL A   1      45.389  30.157  34.332  1.00  0.00    -0.203 F 
ATOM     82  C   UNL A   1      46.172  28.557  35.870  1.00  0.00     0.198 A 
ATOM     83  C   UNL A   1      44.632  27.048  36.926  1.00  0.00     0.198 A 
ATOM     84  F   UNL A   1      42.344  27.136  36.391  1.00  0.00    -0.203 F 
ATOM     85  F   UNL A   1      47.427  28.985  35.675  1.00  0.00    -0.200 F 
ATOM     86  C   UNL A   1      45.926  27.512  36.750  1.00  0.00     0.200 A 
ATOM     87  F   UNL A   1      44.389  26.050  37.787  1.00  0.00    -0.200 F 
ATOM     88  F   UNL A   1      46.939  26.948  37.422  1.00  0.00    -0.200 F 
ENDBRANCH  55  78
ENDBRANCH  29  30
ENDBRANCH  21  24
ENDBRANCH  19  20
ENDBRANCH   1  19
TORSDOF 11
ENDMDL
MODEL 3
REMARK VINA RESULT:     -12.2      2.423      3.806
REMARK SMILES CC(C)[C@H]1CC[C@@H](C)C/C1=C(\F)C(=O)NCCCNC(=O)c1ccc(-c2c3nc(c(-c4c(F)c(F)c(F)c(F)c4F)c4ccc([nH]4)c(-c4c(F)c(F)c(F)c(F)c4F)c4nc(c(-c5c(F)c(F)c(F)c(F)c5F)c5ccc2[nH]5)C=C4)C=C3)cc1
REMARK SMILES IDX 17 1 16 2 15 3 13 4 14 5 11 7 4 8 5 9 10 10 6 11 9 12 7 13
REMARK SMILES IDX 12 14 8 15 2 16 1 17 3 18 18 19 19 20 20 21 21 23 22 24
REMARK SMILES IDX 23 25 84 26 24 27 83 28 25 29 26 30 27 31 77 32 28 33 82 34
REMARK SMILES IDX 76 35 78 36 29 37 81 38 75 39 74 40 30 42 62 43 42 44 61 45
REMARK SMILES IDX 43 46 46 47 60 48 79 49 44 50 45 51 59 53 80 54 47 55 31 56
REMARK SMILES IDX 32 57 40 58 33 59 34 60 38 61 41 62 35 63 36 64 39 65 37 66
REMARK SMILES IDX 63 67 64 68 72 69 65 70 66 71 70 72 73 73 67 74 68 75 71 76
REMARK SMILES IDX 69 77 48 78 49 79 57 80 50 81 51 82 55 83 58 84 52 85 53 86
REMARK SMILES IDX 56 87 54 88
REMARK H PARENT 15 6 19 22 78 41 46 52
REMARK Flexibility Score: inf
ROOT
ATOM      1  C   UNL A   1      31.319  32.213  26.501  1.00  0.00     0.042 C 
ENDROOT
BRANCH   1   2
ATOM      2  C   UNL A   1      31.517  30.815  25.931  1.00  0.00     0.118 C 
BRANCH   2   3
ATOM      3  N   UNL A   1      32.810  30.226  26.236  1.00  0.00    -0.350 N 
ATOM      4  C   UNL A   1      33.189  28.918  26.355  1.00  0.00     0.279 C 
ATOM      5  O   UNL A   1      34.389  28.669  26.260  1.00  0.00    -0.267 OA
ATOM      6  H   UNL A   1      33.533  30.877  26.380  1.00  0.00     0.163 HD
BRANCH   4   7
ATOM      7  C   UNL A   1      32.163  27.849  26.531  1.00  0.00     0.187 C 
ATOM      8  C   UNL A   1      31.704  26.990  24.073  1.00  0.00     0.021 C 
ATOM      9  C   UNL A   1      31.493  25.546  23.533  1.00  0.00     0.009 C 
ATOM     10  C   UNL A   1      31.529  27.078  25.615  1.00  0.00    -0.025 C 
ATOM     11  C   UNL A   1      30.284  24.826  24.109  1.00  0.00     0.004 C 
ATOM     12  C   UNL A   1      30.373  26.227  26.154  1.00  0.00     0.038 C 
ATOM     13  C   UNL A   1      30.334  24.789  25.630  1.00  0.00    -0.010 C 
ATOM     14  F   UNL A   1      31.754  27.755  27.821  1.00  0.00    -0.201 F 
ATOM     15  C   UNL A   1      31.501  23.945  26.153  1.00  0.00     0.008 C 
BRANCH   8  16
ATOM     16  C   UNL A   1      32.992  27.582  23.411  1.00  0.00    -0.010 C 
ATOM     17  C   UNL A   1      33.653  26.649  22.390  1.00  0.00     0.008 C 
ATOM     18  C   UNL A   1      32.757  28.953  22.751  1.00  0.00     0.008 C 
ENDBRANCH   8  16
ENDBRANCH   4   7
ENDBRANCH   2   3
ENDBRANCH   1   2
BRANCH   1  19
ATOM     19  C   UNL A   1      32.527  32.825  27.203  1.00  0.00     0.118 C 
BRANCH  19  20
ATOM     20  N   UNL A   1      32.325  34.202  27.628  1.00  0.00    -0.352 N 
ATOM     21  C   UNL A   1      32.962  34.962  28.580  1.00  0.00     0.251 C 
ATOM     22  H   UNL A   1      31.606  34.674  27.149  1.00  0.00     0.163 HD
ATOM     23  O   UNL A   1      32.529  36.080  28.845  1.00  0.00    -0.269 OA
BRANCH  21  24
ATOM     24  C   UNL A   1      34.138  34.447  29.319  1.00  0.00     0.039 A 
ATOM     25  C   UNL A   1      33.934  33.857  30.570  1.00  0.00     0.014 A 
ATOM     26  C   UNL A   1      35.436  34.567  28.817  1.00  0.00     0.014 A 
ATOM     27  C   UNL A   1      35.013  33.317  31.275  1.00  0.00     0.010 A 
ATOM     28  C   UNL A   1      36.498  33.953  29.478  1.00  0.00     0.010 A 
ATOM     29  C   UNL A   1      36.299  33.319  30.714  1.00  0.00    -0.014 A 
BRANCH  29  30
ATOM     30  C   UNL A   1      37.441  32.653  31.395  1.00  0.00     0.031 A 
ATOM     31  C   UNL A   1      38.148  31.494  30.749  1.00  0.00     0.074 A 
ATOM     32  C   UNL A   1      37.799  33.049  32.633  1.00  0.00     0.049 A 
ATOM     33  N   UNL A   1      39.117  30.747  31.217  1.00  0.00    -0.248 NA
ATOM     34  C   UNL A   1      37.686  31.104  29.408  1.00  0.00     0.031 C 
ATOM     35  C   UNL A   1      37.168  34.132  33.389  1.00  0.00     0.029 A 
ATOM     36  N   UNL A   1      38.775  32.580  33.478  1.00  0.00    -0.354 N 
ATOM     37  C   UNL A   1      39.364  29.791  30.240  1.00  0.00     0.074 A 
ATOM     38  C   UNL A   1      38.410  30.020  29.177  1.00  0.00     0.031 C 
ATOM     39  C   UNL A   1      37.790  34.265  34.571  1.00  0.00     0.029 A 
ATOM     40  C   UNL A   1      38.833  33.249  34.678  1.00  0.00     0.049 A 
ATOM     41  H   UNL A   1      39.376  31.836  33.247  1.00  0.00     0.167 HD
ATOM     42  C   UNL A   1      40.314  28.825  30.222  1.00  0.00     0.037 A 
ATOM     43  C   UNL A   1      39.631  33.060  35.746  1.00  0.00     0.037 A 
ATOM     44  C   UNL A   1      41.277  28.614  31.273  1.00  0.00     0.049 A 
ATOM     45  C   UNL A   1      40.663  31.967  35.710  1.00  0.00     0.074 A 
ATOM     46  C   UNL A   1      42.322  27.709  31.316  1.00  0.00     0.029 A 
ATOM     47  N   UNL A   1      41.302  29.311  32.472  1.00  0.00    -0.354 N 
ATOM     48  N   UNL A   1      40.939  31.120  34.749  1.00  0.00    -0.248 NA
ATOM     49  C   UNL A   1      41.498  31.806  36.908  1.00  0.00     0.031 C 
ATOM     50  C   UNL A   1      42.942  27.815  32.566  1.00  0.00     0.029 A 
ATOM     51  C   UNL A   1      42.325  28.832  33.277  1.00  0.00     0.049 A 
ATOM     52  H   UNL A   1      40.685  30.039  32.717  1.00  0.00     0.167 HD
ATOM     53  C   UNL A   1      41.997  30.349  35.211  1.00  0.00     0.074 A 
ATOM     54  C   UNL A   1      42.322  30.838  36.535  1.00  0.00     0.031 C 
ATOM     55  C   UNL A   1      42.643  29.329  34.592  1.00  0.00     0.037 A 
BRANCH  42  56
ATOM     56  C   UNL A   1      40.351  27.909  29.029  1.00  0.00     0.064 A 
ATOM     57  C   UNL A   1      39.630  26.705  28.996  1.00  0.00     0.173 A 
ATOM     58  C   UNL A   1      41.102  28.253  27.893  1.00  0.00     0.173 A 
ATOM     59  F   UNL A   1      38.903  26.324  30.056  1.00  0.00    -0.203 F 
ATOM     60  C   UNL A   1      39.692  25.861  27.889  1.00  0.00     0.198 A 
ATOM     61  C   UNL A   1      41.132  27.423  26.775  1.00  0.00     0.198 A 
ATOM     62  F   UNL A   1      41.803  29.395  27.865  1.00  0.00    -0.203 F 
ATOM     63  F   UNL A   1      39.044  24.688  27.907  1.00  0.00    -0.200 F 
ATOM     64  C   UNL A   1      40.437  26.224  26.778  1.00  0.00     0.200 A 
ATOM     65  F   UNL A   1      41.839  27.784  25.695  1.00  0.00    -0.200 F 
ATOM     66  F   UNL A   1      40.493  25.413  25.712  1.00  0.00    -0.200 F 
ENDBRANCH  42  56
BRANCH  43  67
ATOM     67  C   UNL A   1      39.505  33.950  36.931  1.00  0.00     0.064 A 
ATOM     68  C   UNL A   1      38.752  33.557  38.045  1.00  0.00     0.173 A 
ATOM     69  C   UNL A   1      40.132  35.204  36.977  1.00  0.00     0.173 A 
ATOM     70  F   UNL A   1      38.114  32.377  38.040  1.00  0.00    -0.203 F 
ATOM     71  C   UNL A   1      38.616  34.390  39.154  1.00  0.00     0.198 A 
ATOM     72  C   UNL A   1      40.021  36.023  38.098  1.00  0.00     0.198 A 
ATOM     73  F   UNL A   1      40.868  35.626  35.939  1.00  0.00    -0.203 F 
ATOM     74  F   UNL A   1      37.854  34.007  40.188  1.00  0.00    -0.200 F 
ATOM     75  C   UNL A   1      39.257  35.619  39.183  1.00  0.00     0.200 A 
ATOM     76  F   UNL A   1      40.655  37.203  38.129  1.00  0.00    -0.200 F 
ATOM     77  F   UNL A   1      39.133  36.417  40.253  1.00  0.00    -0.200 F 
ENDBRANCH  43  67
BRANCH  55  78
ATOM     78  C   UNL A   1      43.794  28.696  35.322  1.00  0.00     0.064 A 
ATOM     79  C   UNL A   1      45.110  29.158  35.172  1.00  0.00     0.173 A 
ATOM     80  C   UNL A   1      43.570  27.635  36.214  1.00  0.00     0.173 A 
ATOM     81  F   UNL A   1      45.381  30.159  34.321  1.00  0.00    -0.203 F 
ATOM     82  C   UNL A   1      46.161  28.565  35.865  1.00  0.00     0.198 A 
ATOM     83  C   UNL A   1      44.619  27.066  36.932  1.00  0.00     0.198 A 
ATOM     84  F   UNL A   1      42.330  27.158  36.401  1.00  0.00    -0.203 F 
ATOM     85  F   UNL A   1      47.417  28.987  35.666  1.00  0.00    -0.200 F 
ATOM     86  C   UNL A   1      45.914  27.525  36.751  1.00  0.00     0.200 A 
ATOM     87  F   UNL A   1      44.375  26.073  37.798  1.00  0.00    -0.200 F 
ATOM     88  F   UNL A   1      46.926  26.961  37.424  1.00  0.00    -0.200 F 
ENDBRANCH  55  78
ENDBRANCH  29  30
ENDBRANCH  21  24
ENDBRANCH  19  20
ENDBRANCH   1  19
TORSDOF 11
ENDMDL
