MODEL 1
REMARK VINA RESULT:     -13.3      0.000      0.000
REMARK SMILES Cc1ccnc(C(=O)c2[nH]c3ccc(F)cc3c2CC(=O)NCCCNC(=O)c2ccc(-c3c4nc(c(-c5c(F)c(F)c(F)c(F)c5F)c5ccc([nH]5)c(-c5c(F)c(F)c(F)c(F)c5F)c5nc(c(-c6c(F)c(F)c(F)c(F)c6F)c6ccc3[nH]6)C=C5)C=C4)cc2)c1
REMARK SMILES IDX 23 1 22 2 20 3 21 4 19 6 18 7 9 8 10 9 11 10 17 12 12 13
REMARK SMILES IDX 16 14 13 15 14 16 15 17 7 18 8 19 6 20 1 21 2 22 3 23 92 24
REMARK SMILES IDX 4 25 5 26 24 27 25 28 26 29 27 30 28 32 29 33 30 34 91 35
REMARK SMILES IDX 31 36 90 37 32 38 33 39 34 40 84 41 35 42 89 43 83 44 85 45
REMARK SMILES IDX 36 46 88 47 82 48 81 49 37 51 69 52 49 53 68 54 50 55 53 56
REMARK SMILES IDX 67 57 86 58 51 59 52 60 66 62 87 63 54 64 38 65 39 66 47 67
REMARK SMILES IDX 40 68 41 69 45 70 48 71 42 72 43 73 46 74 44 75 70 76 71 77
REMARK SMILES IDX 79 78 72 79 73 80 77 81 80 82 74 83 75 84 78 85 76 86 55 87
REMARK SMILES IDX 56 88 64 89 57 90 58 91 62 92 65 93 59 94 60 95 63 96 61 97
REMARK H PARENT 22 5 10 11 26 31 85 50 53 61
REMARK Flexibility Score: inf
ROOT
ATOM      1  C   UNL A   1      31.515  30.762  26.011  1.00  0.00     0.117 C 
ENDROOT
BRANCH   1   2
ATOM      2  N   UNL A   1      32.748  30.094  26.372  1.00  0.00    -0.356 N 
ATOM      3  C   UNL A   1      33.011  28.776  26.611  1.00  0.00     0.224 C 
ATOM      4  O   UNL A   1      34.200  28.452  26.684  1.00  0.00    -0.275 OA
ATOM      5  H   UNL A   1      33.528  30.691  26.460  1.00  0.00     0.163 HD
BRANCH   3   6
ATOM      6  C   UNL A   1      31.922  27.729  26.731  1.00  0.00     0.138 C 
BRANCH   6   7
ATOM      7  C   UNL A   1      31.803  26.749  25.596  1.00  0.00    -0.002 A 
ATOM      8  C   UNL A   1      31.509  26.977  24.248  1.00  0.00     0.093 A 
ATOM      9  N   UNL A   1      31.360  25.734  23.663  1.00  0.00    -0.352 N 
ATOM     10  C   UNL A   1      31.665  24.722  24.533  1.00  0.00     0.046 A 
ATOM     11  H   UNL A   1      31.069  25.593  22.732  1.00  0.00     0.167 HD
ATOM     12  C   UNL A   1      31.875  25.314  25.773  1.00  0.00     0.007 A 
ATOM     13  C   UNL A   1      31.738  23.339  24.318  1.00  0.00     0.030 A 
ATOM     14  C   UNL A   1      32.121  24.469  26.877  1.00  0.00     0.049 A 
ATOM     15  C   UNL A   1      32.046  22.532  25.416  1.00  0.00     0.041 A 
ATOM     16  C   UNL A   1      32.224  23.094  26.671  1.00  0.00     0.123 A 
ATOM     17  F   UNL A   1      32.520  22.301  27.710  1.00  0.00    -0.207 F 
BRANCH   8  18
ATOM     18  C   UNL A   1      31.227  28.158  23.435  1.00  0.00     0.227 C 
ATOM     19  O   UNL A   1      32.165  28.767  22.920  1.00  0.00    -0.285 OA
BRANCH  18  20
ATOM     20  C   UNL A   1      29.848  28.750  23.326  1.00  0.00     0.113 A 
ATOM     21  C   UNL A   1      28.007  32.068  23.117  1.00  0.00     0.044 C 
ATOM     22  C   UNL A   1      28.321  30.603  23.122  1.00  0.00    -0.047 A 
ATOM     23  C   UNL A   1      27.278  29.682  23.064  1.00  0.00     0.023 A 
ATOM     24  C   UNL A   1      29.635  30.119  23.194  1.00  0.00     0.036 A 
ATOM     25  C   UNL A   1      27.580  28.333  23.127  1.00  0.00     0.112 A 
ATOM     26  N   UNL A   1      28.831  27.850  23.266  1.00  0.00    -0.253 NA
ENDBRANCH  18  20
ENDBRANCH   8  18
ENDBRANCH   6   7
ENDBRANCH   3   6
ENDBRANCH   1   2
BRANCH   1  27
ATOM     27  C   UNL A   1      31.363  32.193  26.534  1.00  0.00     0.042 C 
BRANCH  27  28
ATOM     28  C   UNL A   1      32.564  32.821  27.236  1.00  0.00     0.118 C 
BRANCH  28  29
ATOM     29  N   UNL A   1      32.373  34.203  27.625  1.00  0.00    -0.352 N 
ATOM     30  C   UNL A   1      33.043  34.940  28.569  1.00  0.00     0.251 C 
ATOM     31  H   UNL A   1      31.661  34.683  27.144  1.00  0.00     0.163 HD
ATOM     32  O   UNL A   1      32.658  36.070  28.847  1.00  0.00    -0.269 OA
BRANCH  30  33
ATOM     33  C   UNL A   1      34.216  34.372  29.269  1.00  0.00     0.039 A 
ATOM     34  C   UNL A   1      34.006  33.678  30.464  1.00  0.00     0.014 A 
ATOM     35  C   UNL A   1      35.513  34.548  28.778  1.00  0.00     0.014 A 
ATOM     36  C   UNL A   1      35.091  33.118  31.143  1.00  0.00     0.010 A 
ATOM     37  C   UNL A   1      36.590  33.943  29.430  1.00  0.00     0.010 A 
ATOM     38  C   UNL A   1      36.389  33.221  30.617  1.00  0.00    -0.014 A 
BRANCH  38  39
ATOM     39  C   UNL A   1      37.538  32.560  31.291  1.00  0.00     0.031 A 
ATOM     40  C   UNL A   1      38.264  31.421  30.628  1.00  0.00     0.074 A 
ATOM     41  C   UNL A   1      37.898  32.956  32.527  1.00  0.00     0.049 A 
ATOM     42  N   UNL A   1      39.255  30.696  31.082  1.00  0.00    -0.248 NA
ATOM     43  C   UNL A   1      37.801  31.034  29.288  1.00  0.00     0.031 C 
ATOM     44  C   UNL A   1      37.252  34.024  33.292  1.00  0.00     0.029 A 
ATOM     45  N   UNL A   1      38.889  32.502  33.363  1.00  0.00    -0.354 N 
ATOM     46  C   UNL A   1      39.530  29.764  30.089  1.00  0.00     0.074 A 
ATOM     47  C   UNL A   1      38.568  29.984  29.030  1.00  0.00     0.031 C 
ATOM     48  C   UNL A   1      37.873  34.155  34.475  1.00  0.00     0.029 A 
ATOM     49  C   UNL A   1      38.933  33.155  34.571  1.00  0.00     0.049 A 
ATOM     50  H   UNL A   1      39.509  31.776  33.120  1.00  0.00     0.167 HD
ATOM     51  C   UNL A   1      40.507  28.827  30.055  1.00  0.00     0.037 A 
ATOM     52  C   UNL A   1      39.730  32.964  35.639  1.00  0.00     0.037 A 
ATOM     53  C   UNL A   1      41.470  28.617  31.107  1.00  0.00     0.049 A 
ATOM     54  C   UNL A   1      40.790  31.897  35.587  1.00  0.00     0.074 A 
ATOM     55  C   UNL A   1      42.530  27.728  31.141  1.00  0.00     0.029 A 
ATOM     56  N   UNL A   1      41.485  29.302  32.314  1.00  0.00    -0.354 N 
ATOM     57  N   UNL A   1      41.085  31.070  34.613  1.00  0.00    -0.248 NA
ATOM     58  C   UNL A   1      41.634  31.742  36.780  1.00  0.00     0.031 C 
ATOM     59  C   UNL A   1      43.150  27.833  32.390  1.00  0.00     0.029 A 
ATOM     60  C   UNL A   1      42.517  28.832  33.111  1.00  0.00     0.049 A 
ATOM     61  H   UNL A   1      40.855  30.014  32.567  1.00  0.00     0.167 HD
ATOM     62  C   UNL A   1      42.164  30.320  35.062  1.00  0.00     0.074 A 
ATOM     63  C   UNL A   1      42.483  30.802  36.389  1.00  0.00     0.031 C 
ATOM     64  C   UNL A   1      42.831  29.324  34.430  1.00  0.00     0.037 A 
BRANCH  51  65
ATOM     65  C   UNL A   1      40.585  27.944  28.841  1.00  0.00     0.064 A 
ATOM     66  C   UNL A   1      39.860  26.745  28.754  1.00  0.00     0.173 A 
ATOM     67  C   UNL A   1      41.355  28.323  27.732  1.00  0.00     0.173 A 
ATOM     68  F   UNL A   1      39.114  26.330  29.788  1.00  0.00    -0.203 F 
ATOM     69  C   UNL A   1      39.931  25.944  27.617  1.00  0.00     0.198 A 
ATOM     70  C   UNL A   1      41.397  27.538  26.582  1.00  0.00     0.198 A 
ATOM     71  F   UNL A   1      42.060  29.465  27.756  1.00  0.00    -0.203 F 
ATOM     72  F   UNL A   1      39.271  24.779  27.578  1.00  0.00    -0.200 F 
ATOM     73  C   UNL A   1      40.692  26.345  26.529  1.00  0.00     0.200 A 
ATOM     74  F   UNL A   1      42.121  27.935  25.526  1.00  0.00    -0.200 F 
ATOM     75  F   UNL A   1      40.751  25.578  25.431  1.00  0.00    -0.200 F 
ENDBRANCH  51  65
BRANCH  52  76
ATOM     76  C   UNL A   1      39.567  33.813  36.849  1.00  0.00     0.064 A 
ATOM     77  C   UNL A   1      38.770  33.393  37.924  1.00  0.00     0.173 A 
ATOM     78  C   UNL A   1      40.194  35.064  36.953  1.00  0.00     0.173 A 
ATOM     79  F   UNL A   1      38.133  32.215  37.863  1.00  0.00    -0.203 F 
ATOM     80  C   UNL A   1      38.587  34.202  39.044  1.00  0.00     0.198 A 
ATOM     81  C   UNL A   1      40.037  35.857  38.088  1.00  0.00     0.198 A 
ATOM     82  F   UNL A   1      40.973  35.510  35.957  1.00  0.00    -0.203 F 
ATOM     83  F   UNL A   1      37.779  33.797  40.034  1.00  0.00    -0.200 F 
ATOM     84  C   UNL A   1      39.226  35.429  39.128  1.00  0.00     0.200 A 
ATOM     85  F   UNL A   1      40.671  37.035  38.172  1.00  0.00    -0.200 F 
ATOM     86  F   UNL A   1      39.053  36.204  40.207  1.00  0.00    -0.200 F 
ENDBRANCH  52  76
BRANCH  64  87
ATOM     87  C   UNL A   1      44.000  28.710  35.148  1.00  0.00     0.064 A 
ATOM     88  C   UNL A   1      45.297  29.233  35.033  1.00  0.00     0.173 A 
ATOM     89  C   UNL A   1      43.812  27.604  35.991  1.00  0.00     0.173 A 
ATOM     90  F   UNL A   1      45.535  30.279  34.228  1.00  0.00    -0.203 F 
ATOM     91  C   UNL A   1      46.365  28.652  35.713  1.00  0.00     0.198 A 
ATOM     92  C   UNL A   1      44.876  27.049  36.697  1.00  0.00     0.198 A 
ATOM     93  F   UNL A   1      42.590  27.069  36.143  1.00  0.00    -0.203 F 
ATOM     94  F   UNL A   1      47.604  29.136  35.546  1.00  0.00    -0.200 F 
ATOM     95  C   UNL A   1      46.153  27.568  36.551  1.00  0.00     0.200 A 
ATOM     96  F   UNL A   1      44.665  26.011  37.518  1.00  0.00    -0.200 F 
ATOM     97  F   UNL A   1      47.181  27.017  37.211  1.00  0.00    -0.200 F 
ENDBRANCH  64  87
ENDBRANCH  38  39
ENDBRANCH  30  33
ENDBRANCH  28  29
ENDBRANCH  27  28
ENDBRANCH   1  27
TORSDOF 13
ENDMDL
MODEL 2
REMARK VINA RESULT:     -13.2      5.791     11.276
REMARK SMILES Cc1ccnc(C(=O)c2[nH]c3ccc(F)cc3c2CC(=O)NCCCNC(=O)c2ccc(-c3c4nc(c(-c5c(F)c(F)c(F)c(F)c5F)c5ccc([nH]5)c(-c5c(F)c(F)c(F)c(F)c5F)c5nc(c(-c6c(F)c(F)c(F)c(F)c6F)c6ccc3[nH]6)C=C5)C=C4)cc2)c1
REMARK SMILES IDX 23 1 22 2 20 3 21 4 19 6 18 7 9 8 10 9 11 10 17 12 12 13
REMARK SMILES IDX 16 14 13 15 14 16 15 17 7 18 8 19 6 20 1 21 2 22 3 23 92 24
REMARK SMILES IDX 4 25 5 26 24 27 25 28 26 29 27 30 28 32 29 33 30 34 91 35
REMARK SMILES IDX 31 36 90 37 32 38 33 39 34 40 84 41 35 42 89 43 83 44 85 45
REMARK SMILES IDX 36 46 88 47 82 48 81 49 37 51 69 52 49 53 68 54 50 55 53 56
REMARK SMILES IDX 67 57 86 58 51 59 52 60 66 62 87 63 54 64 38 65 39 66 47 67
REMARK SMILES IDX 40 68 41 69 45 70 48 71 42 72 43 73 46 74 44 75 70 76 71 77
REMARK SMILES IDX 79 78 72 79 73 80 77 81 80 82 74 83 75 84 78 85 76 86 55 87
REMARK SMILES IDX 56 88 64 89 57 90 58 91 62 92 65 93 59 94 60 95 63 96 61 97
REMARK H PARENT 22 5 10 11 26 31 85 50 53 61
REMARK Flexibility Score: inf
ROOT
ATOM      1  C   UNL A   1      37.389  21.101  24.635  1.00  0.00     0.117 C 
ENDROOT
BRANCH   1   2
ATOM      2  N   UNL A   1      37.708  22.267  25.433  1.00  0.00    -0.356 N 
ATOM      3  C   UNL A   1      37.077  23.473  25.541  1.00  0.00     0.224 C 
ATOM      4  O   UNL A   1      37.439  24.209  26.463  1.00  0.00    -0.275 OA
ATOM      5  H   UNL A   1      38.515  22.175  25.991  1.00  0.00     0.163 HD
BRANCH   3   6
ATOM      6  C   UNL A   1      35.945  23.893  24.625  1.00  0.00     0.138 C 
BRANCH   6   7
ATOM      7  C   UNL A   1      34.575  23.974  25.240  1.00  0.00    -0.002 A 
ATOM      8  C   UNL A   1      33.771  22.957  25.764  1.00  0.00     0.093 A 
ATOM      9  N   UNL A   1      32.548  23.533  26.054  1.00  0.00    -0.352 N 
ATOM     10  C   UNL A   1      32.566  24.888  25.862  1.00  0.00     0.046 A 
ATOM     11  H   UNL A   1      31.760  23.028  26.361  1.00  0.00     0.167 HD
ATOM     12  C   UNL A   1      33.793  25.192  25.284  1.00  0.00     0.007 A 
ATOM     13  C   UNL A   1      31.582  25.850  26.129  1.00  0.00     0.030 A 
ATOM     14  C   UNL A   1      34.030  26.529  24.899  1.00  0.00     0.049 A 
ATOM     15  C   UNL A   1      31.870  27.176  25.796  1.00  0.00     0.041 A 
ATOM     16  C   UNL A   1      33.071  27.500  25.184  1.00  0.00     0.123 A 
ATOM     17  F   UNL A   1      33.326  28.778  24.875  1.00  0.00    -0.207 F 
BRANCH   8  18
ATOM     18  C   UNL A   1      33.907  21.512  25.931  1.00  0.00     0.227 C 
ATOM     19  O   UNL A   1      34.514  21.078  26.909  1.00  0.00    -0.285 OA
BRANCH  18  20
ATOM     20  C   UNL A   1      33.466  20.534  24.875  1.00  0.00     0.113 A 
ATOM     21  C   UNL A   1      33.870  16.921  23.765  1.00  0.00     0.044 C 
ATOM     22  C   UNL A   1      33.406  18.342  23.876  1.00  0.00    -0.047 A 
ATOM     23  C   UNL A   1      32.528  18.848  22.920  1.00  0.00     0.023 A 
ATOM     24  C   UNL A   1      33.832  19.192  24.906  1.00  0.00     0.036 A 
ATOM     25  C   UNL A   1      32.153  20.178  23.003  1.00  0.00     0.112 A 
ATOM     26  N   UNL A   1      32.607  21.028  23.946  1.00  0.00    -0.253 NA
ENDBRANCH  18  20
ENDBRANCH   8  18
ENDBRANCH   6   7
ENDBRANCH   3   6
ENDBRANCH   1   2
BRANCH   1  27
ATOM     27  C   UNL A   1      38.170  19.831  24.985  1.00  0.00     0.042 C 
BRANCH  27  28
ATOM     28  C   UNL A   1      39.180  19.913  26.125  1.00  0.00     0.118 C 
BRANCH  28  29
ATOM     29  N   UNL A   1      40.273  18.967  26.026  1.00  0.00    -0.352 N 
ATOM     30  C   UNL A   1      41.625  19.192  26.082  1.00  0.00     0.251 C 
ATOM     31  H   UNL A   1      40.007  18.027  25.900  1.00  0.00     0.163 HD
ATOM     32  O   UNL A   1      42.406  18.275  25.855  1.00  0.00    -0.269 OA
BRANCH  30  33
ATOM     33  C   UNL A   1      42.148  20.540  26.395  1.00  0.00     0.039 A 
ATOM     34  C   UNL A   1      42.499  21.380  25.334  1.00  0.00     0.014 A 
ATOM     35  C   UNL A   1      42.326  20.964  27.715  1.00  0.00     0.014 A 
ATOM     36  C   UNL A   1      42.983  22.664  25.595  1.00  0.00     0.010 A 
ATOM     37  C   UNL A   1      42.760  22.266  27.973  1.00  0.00     0.010 A 
ATOM     38  C   UNL A   1      43.092  23.129  26.916  1.00  0.00    -0.014 A 
BRANCH  38  39
ATOM     39  C   UNL A   1      43.529  24.522  27.199  1.00  0.00     0.031 A 
ATOM     40  C   UNL A   1      42.559  25.536  27.739  1.00  0.00     0.074 A 
ATOM     41  C   UNL A   1      44.796  24.886  26.923  1.00  0.00     0.049 A 
ATOM     42  N   UNL A   1      42.748  26.805  28.002  1.00  0.00    -0.248 NA
ATOM     43  C   UNL A   1      41.190  25.067  27.998  1.00  0.00     0.031 C 
ATOM     44  C   UNL A   1      45.824  24.007  26.364  1.00  0.00     0.029 A 
ATOM     45  N   UNL A   1      45.435  26.094  27.066  1.00  0.00    -0.354 N 
ATOM     46  C   UNL A   1      41.525  27.287  28.450  1.00  0.00     0.074 A 
ATOM     47  C   UNL A   1      40.588  26.187  28.374  1.00  0.00     0.031 C 
ATOM     48  C   UNL A   1      46.967  24.697  26.228  1.00  0.00     0.029 A 
ATOM     49  C   UNL A   1      46.744  26.077  26.650  1.00  0.00     0.049 A 
ATOM     50  H   UNL A   1      44.995  26.896  27.431  1.00  0.00     0.167 HD
ATOM     51  C   UNL A   1      41.218  28.527  28.901  1.00  0.00     0.037 A 
ATOM     52  C   UNL A   1      47.659  27.064  26.604  1.00  0.00     0.037 A 
ATOM     53  C   UNL A   1      42.157  29.618  28.985  1.00  0.00     0.049 A 
ATOM     54  C   UNL A   1      47.284  28.440  27.085  1.00  0.00     0.074 A 
ATOM     55  C   UNL A   1      41.953  30.895  29.478  1.00  0.00     0.029 A 
ATOM     56  N   UNL A   1      43.476  29.561  28.557  1.00  0.00    -0.354 N 
ATOM     57  N   UNL A   1      46.144  28.865  27.573  1.00  0.00    -0.248 NA
ATOM     58  C   UNL A   1      48.328  29.472  27.018  1.00  0.00     0.031 C 
ATOM     59  C   UNL A   1      43.130  31.628  29.295  1.00  0.00     0.029 A 
ATOM     60  C   UNL A   1      44.088  30.790  28.748  1.00  0.00     0.049 A 
ATOM     61  H   UNL A   1      43.912  28.766  28.175  1.00  0.00     0.167 HD
ATOM     62  C   UNL A   1      46.340  30.200  27.897  1.00  0.00     0.074 A 
ATOM     63  C   UNL A   1      47.715  30.511  27.568  1.00  0.00     0.031 C 
ATOM     64  C   UNL A   1      45.461  31.088  28.423  1.00  0.00     0.037 A 
BRANCH  51  65
ATOM     65  C   UNL A   1      39.801  28.779  29.336  1.00  0.00     0.064 A 
ATOM     66  C   UNL A   1      39.389  28.573  30.662  1.00  0.00     0.173 A 
ATOM     67  C   UNL A   1      38.856  29.279  28.428  1.00  0.00     0.173 A 
ATOM     68  F   UNL A   1      40.250  28.089  31.569  1.00  0.00    -0.203 F 
ATOM     69  C   UNL A   1      38.077  28.825  31.053  1.00  0.00     0.198 A 
ATOM     70  C   UNL A   1      37.553  29.564  28.830  1.00  0.00     0.198 A 
ATOM     71  F   UNL A   1      39.197  29.505  27.151  1.00  0.00    -0.203 F 
ATOM     72  F   UNL A   1      37.694  28.571  32.312  1.00  0.00    -0.200 F 
ATOM     73  C   UNL A   1      37.162  29.328  30.141  1.00  0.00     0.200 A 
ATOM     74  F   UNL A   1      36.674  30.064  27.950  1.00  0.00    -0.200 F 
ATOM     75  F   UNL A   1      35.902  29.580  30.521  1.00  0.00    -0.200 F 
ENDBRANCH  51  65
BRANCH  52  76
ATOM     76  C   UNL A   1      49.028  26.785  26.094  1.00  0.00     0.064 A 
ATOM     77  C   UNL A   1      49.354  26.999  24.747  1.00  0.00     0.173 A 
ATOM     78  C   UNL A   1      50.034  26.290  26.938  1.00  0.00     0.173 A 
ATOM     79  F   UNL A   1      48.422  27.451  23.897  1.00  0.00    -0.203 F 
ATOM     80  C   UNL A   1      50.627  26.705  24.259  1.00  0.00     0.198 A 
ATOM     81  C   UNL A   1      51.315  26.028  26.455  1.00  0.00     0.198 A 
ATOM     82  F   UNL A   1      49.777  26.075  28.236  1.00  0.00    -0.203 F 
ATOM     83  F   UNL A   1      50.895  26.870  22.956  1.00  0.00    -0.200 F 
ATOM     84  C   UNL A   1      51.607  26.227  25.114  1.00  0.00     0.200 A 
ATOM     85  F   UNL A   1      52.264  25.583  27.289  1.00  0.00    -0.200 F 
ATOM     86  F   UNL A   1      52.831  25.949  24.645  1.00  0.00    -0.200 F 
ENDBRANCH  52  76
BRANCH  64  87
ATOM     87  C   UNL A   1      45.966  32.473  28.713  1.00  0.00     0.064 A 
ATOM     88  C   UNL A   1      45.868  33.509  27.771  1.00  0.00     0.173 A 
ATOM     89  C   UNL A   1      46.524  32.776  29.965  1.00  0.00     0.173 A 
ATOM     90  F   UNL A   1      45.359  33.269  26.554  1.00  0.00    -0.203 F 
ATOM     91  C   UNL A   1      46.337  34.788  28.063  1.00  0.00     0.198 A 
ATOM     92  C   UNL A   1      46.958  34.064  30.265  1.00  0.00     0.198 A 
ATOM     93  F   UNL A   1      46.633  31.824  30.904  1.00  0.00    -0.203 F 
ATOM     94  F   UNL A   1      46.283  35.748  27.129  1.00  0.00    -0.200 F 
ATOM     95  C   UNL A   1      46.873  35.067  29.312  1.00  0.00     0.200 A 
ATOM     96  F   UNL A   1      47.460  34.334  31.478  1.00  0.00    -0.200 F 
ATOM     97  F   UNL A   1      47.315  36.300  29.593  1.00  0.00    -0.200 F 
ENDBRANCH  64  87
ENDBRANCH  38  39
ENDBRANCH  30  33
ENDBRANCH  28  29
ENDBRANCH  27  28
ENDBRANCH   1  27
TORSDOF 13
ENDMDL
MODEL 3
REMARK VINA RESULT:     -13.2      5.744     11.212
REMARK SMILES Cc1ccnc(C(=O)c2[nH]c3ccc(F)cc3c2CC(=O)NCCCNC(=O)c2ccc(-c3c4nc(c(-c5c(F)c(F)c(F)c(F)c5F)c5ccc([nH]5)c(-c5c(F)c(F)c(F)c(F)c5F)c5nc(c(-c6c(F)c(F)c(F)c(F)c6F)c6ccc3[nH]6)C=C5)C=C4)cc2)c1
REMARK SMILES IDX 23 1 22 2 20 3 21 4 19 6 18 7 9 8 10 9 11 10 17 12 12 13
REMARK SMILES IDX 16 14 13 15 14 16 15 17 7 18 8 19 6 20 1 21 2 22 3 23 92 24
REMARK SMILES IDX 4 25 5 26 24 27 25 28 26 29 27 30 28 32 29 33 30 34 91 35
REMARK SMILES IDX 31 36 90 37 32 38 33 39 34 40 84 41 35 42 89 43 83 44 85 45
REMARK SMILES IDX 36 46 88 47 82 48 81 49 37 51 69 52 49 53 68 54 50 55 53 56
REMARK SMILES IDX 67 57 86 58 51 59 52 60 66 62 87 63 54 64 38 65 39 66 47 67
REMARK SMILES IDX 40 68 41 69 45 70 48 71 42 72 43 73 46 74 44 75 70 76 71 77
REMARK SMILES IDX 79 78 72 79 73 80 77 81 80 82 74 83 75 84 78 85 76 86 55 87
REMARK SMILES IDX 56 88 64 89 57 90 58 91 62 92 65 93 59 94 60 95 63 96 61 97
REMARK H PARENT 22 5 10 11 26 31 85 50 53 61
REMARK Flexibility Score: inf
ROOT
ATOM      1  C   UNL A   1      36.730  20.723  25.156  1.00  0.00     0.117 C 
ENDROOT
BRANCH   1   2
ATOM      2  N   UNL A   1      36.376  21.637  24.090  1.00  0.00    -0.356 N 
ATOM      3  C   UNL A   1      36.036  22.959  24.125  1.00  0.00     0.224 C 
ATOM      4  O   UNL A   1      35.997  23.551  23.043  1.00  0.00    -0.275 OA
ATOM      5  H   UNL A   1      36.382  21.239  23.188  1.00  0.00     0.163 HD
BRANCH   3   6
ATOM      6  C   UNL A   1      35.769  23.705  25.417  1.00  0.00     0.138 C 
BRANCH   6   7
ATOM      7  C   UNL A   1      34.327  23.900  25.796  1.00  0.00    -0.002 A 
ATOM      8  C   UNL A   1      33.350  22.950  26.105  1.00  0.00     0.093 A 
ATOM      9  N   UNL A   1      32.156  23.637  26.223  1.00  0.00    -0.352 N 
ATOM     10  C   UNL A   1      32.338  24.991  26.130  1.00  0.00     0.046 A 
ATOM     11  H   UNL A   1      31.281  23.205  26.358  1.00  0.00     0.167 HD
ATOM     12  C   UNL A   1      33.671  25.190  25.790  1.00  0.00     0.007 A 
ATOM     13  C   UNL A   1      31.420  26.038  26.292  1.00  0.00     0.030 A 
ATOM     14  C   UNL A   1      34.100  26.513  25.542  1.00  0.00     0.049 A 
ATOM     15  C   UNL A   1      31.888  27.340  26.104  1.00  0.00     0.041 A 
ATOM     16  C   UNL A   1      33.203  27.564  25.727  1.00  0.00     0.123 A 
ATOM     17  F   UNL A   1      33.631  28.822  25.553  1.00  0.00    -0.207 F 
BRANCH   8  18
ATOM     18  C   UNL A   1      33.314  21.491  26.194  1.00  0.00     0.227 C 
ATOM     19  O   UNL A   1      33.661  20.948  27.242  1.00  0.00    -0.285 OA
BRANCH  18  20
ATOM     20  C   UNL A   1      33.018  20.619  25.004  1.00  0.00     0.113 A 
ATOM     21  C   UNL A   1      33.335  17.050  23.737  1.00  0.00     0.044 C 
ATOM     22  C   UNL A   1      32.978  18.500  23.857  1.00  0.00    -0.047 A 
ATOM     23  C   UNL A   1      32.359  19.140  22.785  1.00  0.00     0.023 A 
ATOM     24  C   UNL A   1      33.256  19.248  25.009  1.00  0.00     0.036 A 
ATOM     25  C   UNL A   1      32.088  20.493  22.888  1.00  0.00     0.112 A 
ATOM     26  N   UNL A   1      32.410  21.244  23.962  1.00  0.00    -0.253 NA
ENDBRANCH  18  20
ENDBRANCH   8  18
ENDBRANCH   6   7
ENDBRANCH   3   6
ENDBRANCH   1   2
BRANCH   1  27
ATOM     27  C   UNL A   1      38.044  19.962  24.961  1.00  0.00     0.042 C 
BRANCH  27  28
ATOM     28  C   UNL A   1      39.122  20.127  26.027  1.00  0.00     0.118 C 
BRANCH  28  29
ATOM     29  N   UNL A   1      40.197  19.159  25.946  1.00  0.00    -0.352 N 
ATOM     30  C   UNL A   1      41.551  19.354  26.045  1.00  0.00     0.251 C 
ATOM     31  H   UNL A   1      39.914  18.227  25.801  1.00  0.00     0.163 HD
ATOM     32  O   UNL A   1      42.319  18.422  25.828  1.00  0.00    -0.269 OA
BRANCH  30  33
ATOM     33  C   UNL A   1      42.093  20.686  26.390  1.00  0.00     0.039 A 
ATOM     34  C   UNL A   1      42.402  21.568  25.351  1.00  0.00     0.014 A 
ATOM     35  C   UNL A   1      42.330  21.054  27.718  1.00  0.00     0.014 A 
ATOM     36  C   UNL A   1      42.903  22.839  25.644  1.00  0.00     0.010 A 
ATOM     37  C   UNL A   1      42.782  22.343  28.011  1.00  0.00     0.010 A 
ATOM     38  C   UNL A   1      43.071  23.248  26.977  1.00  0.00    -0.014 A 
BRANCH  38  39
ATOM     39  C   UNL A   1      43.527  24.627  27.299  1.00  0.00     0.031 A 
ATOM     40  C   UNL A   1      42.565  25.644  27.848  1.00  0.00     0.074 A 
ATOM     41  C   UNL A   1      44.803  24.976  27.050  1.00  0.00     0.049 A 
ATOM     42  N   UNL A   1      42.772  26.903  28.144  1.00  0.00    -0.248 NA
ATOM     43  C   UNL A   1      41.185  25.192  28.077  1.00  0.00     0.031 C 
ATOM     44  C   UNL A   1      45.825  24.093  26.484  1.00  0.00     0.029 A 
ATOM     45  N   UNL A   1      45.460  26.169  27.229  1.00  0.00    -0.354 N 
ATOM     46  C   UNL A   1      41.550  27.395  28.585  1.00  0.00     0.074 A 
ATOM     47  C   UNL A   1      40.596  26.313  28.470  1.00  0.00     0.031 C 
ATOM     48  C   UNL A   1      46.981  24.767  26.381  1.00  0.00     0.029 A 
ATOM     49  C   UNL A   1      46.774  26.140  26.832  1.00  0.00     0.049 A 
ATOM     50  H   UNL A   1      45.028  26.971  27.606  1.00  0.00     0.167 HD
ATOM     51  C   UNL A   1      41.256  28.629  29.060  1.00  0.00     0.037 A 
ATOM     52  C   UNL A   1      47.706  27.113  26.821  1.00  0.00     0.037 A 
ATOM     53  C   UNL A   1      42.211  29.702  29.183  1.00  0.00     0.049 A 
ATOM     54  C   UNL A   1      47.346  28.484  27.329  1.00  0.00     0.074 A 
ATOM     55  C   UNL A   1      42.021  30.971  29.702  1.00  0.00     0.029 A 
ATOM     56  N   UNL A   1      43.536  29.633  28.773  1.00  0.00    -0.354 N 
ATOM     57  N   UNL A   1      46.206  28.916  27.810  1.00  0.00    -0.248 NA
ATOM     58  C   UNL A   1      48.408  29.500  27.301  1.00  0.00     0.031 C 
ATOM     59  C   UNL A   1      43.213  31.688  29.554  1.00  0.00     0.029 A 
ATOM     60  C   UNL A   1      44.165  30.848  29.000  1.00  0.00     0.049 A 
ATOM     61  H   UNL A   1      43.964  28.840  28.378  1.00  0.00     0.167 HD
ATOM     62  C   UNL A   1      46.419  30.240  28.168  1.00  0.00     0.074 A 
ATOM     63  C   UNL A   1      47.804  30.535  27.866  1.00  0.00     0.031 C 
ATOM     64  C   UNL A   1      45.547  31.130  28.702  1.00  0.00     0.037 A 
BRANCH  51  65
ATOM     65  C   UNL A   1      39.838  28.895  29.481  1.00  0.00     0.064 A 
ATOM     66  C   UNL A   1      38.879  29.378  28.577  1.00  0.00     0.173 A 
ATOM     67  C   UNL A   1      39.420  28.620  30.792  1.00  0.00     0.173 A 
ATOM     68  F   UNL A   1      39.227  29.666  27.314  1.00  0.00    -0.203 F 
ATOM     69  C   UNL A   1      37.566  29.606  28.978  1.00  0.00     0.198 A 
ATOM     70  C   UNL A   1      38.097  28.816  31.181  1.00  0.00     0.198 A 
ATOM     71  F   UNL A   1      40.292  28.147  31.695  1.00  0.00    -0.203 F 
ATOM     72  F   UNL A   1      36.681  30.116  28.110  1.00  0.00    -0.200 F 
ATOM     73  C   UNL A   1      37.173  29.318  30.276  1.00  0.00     0.200 A 
ATOM     74  F   UNL A   1      37.717  28.522  32.432  1.00  0.00    -0.200 F 
ATOM     75  F   UNL A   1      35.906  29.529  30.658  1.00  0.00    -0.200 F 
ENDBRANCH  51  65
BRANCH  52  76
ATOM     76  C   UNL A   1      49.077  26.823  26.325  1.00  0.00     0.064 A 
ATOM     77  C   UNL A   1      49.424  27.054  24.986  1.00  0.00     0.173 A 
ATOM     78  C   UNL A   1      50.065  26.300  27.173  1.00  0.00     0.173 A 
ATOM     79  F   UNL A   1      48.509  27.533  24.132  1.00  0.00    -0.203 F 
ATOM     80  C   UNL A   1      50.699  26.750  24.509  1.00  0.00     0.198 A 
ATOM     81  C   UNL A   1      51.348  26.029  26.703  1.00  0.00     0.198 A 
ATOM     82  F   UNL A   1      49.788  26.068  28.465  1.00  0.00    -0.203 F 
ATOM     83  F   UNL A   1      50.987  26.933  23.214  1.00  0.00    -0.200 F 
ATOM     84  C   UNL A   1      51.661  26.245  25.369  1.00  0.00     0.200 A 
ATOM     85  F   UNL A   1      52.281  25.557  27.542  1.00  0.00    -0.200 F 
ATOM     86  F   UNL A   1      52.887  25.957  24.912  1.00  0.00    -0.200 F 
ENDBRANCH  52  76
BRANCH  64  87
ATOM     87  C   UNL A   1      46.070  32.500  29.031  1.00  0.00     0.064 A 
ATOM     88  C   UNL A   1      46.663  32.788  30.270  1.00  0.00     0.173 A 
ATOM     89  C   UNL A   1      46.009  33.529  28.078  1.00  0.00     0.173 A 
ATOM     90  F   UNL A   1      46.732  31.845  31.221  1.00  0.00    -0.203 F 
ATOM     91  C   UNL A   1      47.148  34.063  30.551  1.00  0.00     0.198 A 
ATOM     92  C   UNL A   1      46.527  34.792  28.351  1.00  0.00     0.198 A 
ATOM     93  F   UNL A   1      45.459  33.305  26.875  1.00  0.00    -0.203 F 
ATOM     94  F   UNL A   1      47.661  34.329  31.761  1.00  0.00    -0.200 F 
ATOM     95  C   UNL A   1      47.088  35.061  29.590  1.00  0.00     0.200 A 
ATOM     96  F   UNL A   1      46.482  35.750  27.415  1.00  0.00    -0.200 F 
ATOM     97  F   UNL A   1      47.564  36.284  29.861  1.00  0.00    -0.200 F 
ENDBRANCH  64  87
ENDBRANCH  38  39
ENDBRANCH  30  33
ENDBRANCH  28  29
ENDBRANCH  27  28
ENDBRANCH   1  27
TORSDOF 13
ENDMDL
