MODEL 1
REMARK VINA RESULT:     -13.9      0.000      0.000
REMARK SMILES Cc1ccc2cc(C[N@H+]3CC[NH2+][C@H](C(=O)NCCCNC(=O)c4ccc(-c5c6nc(c(-c7c(F)c(F)c(F)c(F)c7F)c7ccc([nH]7)c(-c7c(F)c(F)c(F)c(F)c7F)c7nc(c(-c8c(F)c(F)c(F)c(F)c8F)c8ccc5[nH]8)C=C7)C=C6)cc4)C3)c(N3CCOCC3)nc2c1
REMARK SMILES IDX 17 1 16 2 14 3 15 4 13 6 9 7 10 8 86 9 11 11 12 12 8 15 7 16
REMARK SMILES IDX 1 17 2 18 3 19 96 20 4 21 95 22 5 23 94 24 6 25 87 26 88 27
REMARK SMILES IDX 89 28 93 29 90 30 92 31 91 32 18 33 19 34 20 35 21 36 22 38
REMARK SMILES IDX 23 39 24 40 85 41 25 42 84 43 26 44 27 45 28 46 78 47 29 48
REMARK SMILES IDX 83 49 77 50 79 51 30 52 82 53 76 54 75 55 31 57 63 58 43 59
REMARK SMILES IDX 62 60 44 61 47 62 61 63 80 64 45 65 46 66 60 68 81 69 48 70
REMARK SMILES IDX 32 71 33 72 41 73 34 74 35 75 39 76 42 77 36 78 37 79 40 80
REMARK SMILES IDX 38 81 64 82 65 83 73 84 66 85 67 86 71 87 74 88 68 89 69 90
REMARK SMILES IDX 72 91 70 92 49 93 50 94 58 95 51 96 52 97 56 98 59 99 53 100
REMARK SMILES IDX 54 101 57 102 55 103
REMARK H PARENT 16 5 9 10 12 13 12 14 20 37 79 56 47 67
REMARK Flexibility Score: inf
ROOT
ATOM      1  C   UNL A   1      32.760  27.900  24.295  1.00  0.00     0.118 C 
ENDROOT
BRANCH   1   2
ATOM      2  N   UNL A   1      31.497  28.137  23.621  1.00  0.00    -0.351 N 
ATOM      3  C   UNL A   1      30.806  27.363  22.740  1.00  0.00     0.284 C 
ATOM      4  O   UNL A   1      29.722  27.812  22.350  1.00  0.00    -0.268 OA
ATOM      5  H   UNL A   1      31.070  28.998  23.837  1.00  0.00     0.163 HD
BRANCH   3   6
ATOM      6  C   UNL A   1      31.410  26.088  22.134  1.00  0.00     0.328 C 
ATOM      7  N   UNL A   1      32.390  23.829  22.836  1.00  0.00    -0.321 N 
ATOM      8  C   UNL A   1      33.298  23.969  21.686  1.00  0.00     0.324 C 
ATOM      9  C   UNL A   1      31.823  25.115  23.272  1.00  0.00     0.339 C 
ATOM     10  H   UNL A   1      32.989  23.524  23.603  1.00  0.00     0.348 HD
ATOM     11  C   UNL A   1      32.904  25.022  20.626  1.00  0.00     0.323 C 
ATOM     12  N   UNL A   1      32.569  26.322  21.236  1.00  0.00    -0.327 N 
ATOM     13  H   UNL A   1      32.322  26.997  20.513  1.00  0.00     0.347 HD
ATOM     14  H   UNL A   1      33.363  26.699  21.754  1.00  0.00     0.347 HD
BRANCH   7  15
ATOM     15  C   UNL A   1      31.424  22.721  22.750  1.00  0.00     0.303 C 
BRANCH  15  16
ATOM     16  C   UNL A   1      31.758  21.450  23.502  1.00  0.00     0.049 A 
ATOM     17  C   UNL A   1      34.804  15.926  24.981  1.00  0.00     0.044 C 
ATOM     18  C   UNL A   1      34.039  17.071  24.387  1.00  0.00    -0.049 A 
ATOM     19  C   UNL A   1      33.654  17.034  23.047  1.00  0.00     0.004 A 
ATOM     20  C   UNL A   1      33.659  18.172  25.180  1.00  0.00     0.032 A 
ATOM     21  C   UNL A   1      32.907  18.078  22.516  1.00  0.00     0.010 A 
ATOM     22  C   UNL A   1      32.946  19.254  24.665  1.00  0.00     0.073 A 
ATOM     23  C   UNL A   1      32.558  19.177  23.318  1.00  0.00     0.001 A 
ATOM     24  N   UNL A   1      32.677  20.343  25.424  1.00  0.00    -0.230 NA
ATOM     25  C   UNL A   1      31.893  20.265  22.768  1.00  0.00     0.023 A 
ATOM     26  C   UNL A   1      32.087  21.428  24.865  1.00  0.00     0.138 A 
BRANCH  26  27
ATOM     27  N   UNL A   1      31.885  22.549  25.645  1.00  0.00    -0.352 N 
ATOM     28  C   UNL A   1      30.592  22.721  26.321  1.00  0.00     0.146 C 
ATOM     29  C   UNL A   1      33.000  23.140  26.387  1.00  0.00     0.146 C 
ATOM     30  C   UNL A   1      30.348  24.230  26.494  1.00  0.00     0.181 C 
ATOM     31  C   UNL A   1      32.684  24.635  26.606  1.00  0.00     0.181 C 
ATOM     32  O   UNL A   1      31.410  24.839  27.251  1.00  0.00    -0.378 OA
ENDBRANCH  26  27
ENDBRANCH  15  16
ENDBRANCH   7  15
ENDBRANCH   3   6
ENDBRANCH   1   2
BRANCH   1  33
ATOM     33  C   UNL A   1      33.323  29.152  24.941  1.00  0.00     0.042 C 
BRANCH  33  34
ATOM     34  C   UNL A   1      32.787  29.407  26.340  1.00  0.00     0.118 C 
BRANCH  34  35
ATOM     35  N   UNL A   1      32.555  30.825  26.613  1.00  0.00    -0.352 N 
ATOM     36  C   UNL A   1      33.295  31.726  27.341  1.00  0.00     0.251 C 
ATOM     37  H   UNL A   1      31.736  31.195  26.210  1.00  0.00     0.163 HD
ATOM     38  O   UNL A   1      32.825  32.822  27.633  1.00  0.00    -0.269 OA
BRANCH  36  39
ATOM     39  C   UNL A   1      34.650  31.357  27.792  1.00  0.00     0.039 A 
ATOM     40  C   UNL A   1      34.946  30.026  28.070  1.00  0.00     0.014 A 
ATOM     41  C   UNL A   1      35.618  32.347  27.981  1.00  0.00     0.014 A 
ATOM     42  C   UNL A   1      36.102  29.719  28.766  1.00  0.00     0.010 A 
ATOM     43  C   UNL A   1      36.848  32.009  28.554  1.00  0.00     0.010 A 
ATOM     44  C   UNL A   1      37.071  30.704  29.019  1.00  0.00    -0.014 A 
BRANCH  44  45
ATOM     45  C   UNL A   1      38.284  30.319  29.789  1.00  0.00     0.031 A 
ATOM     46  C   UNL A   1      38.454  30.739  31.225  1.00  0.00     0.074 A 
ATOM     47  C   UNL A   1      39.179  29.488  29.217  1.00  0.00     0.049 A 
ATOM     48  N   UNL A   1      39.399  30.410  32.071  1.00  0.00    -0.248 NA
ATOM     49  C   UNL A   1      37.443  31.648  31.790  1.00  0.00     0.031 C 
ATOM     50  C   UNL A   1      39.112  29.010  27.833  1.00  0.00     0.029 A 
ATOM     51  N   UNL A   1      40.280  28.853  29.731  1.00  0.00    -0.354 N 
ATOM     52  C   UNL A   1      39.107  31.084  33.250  1.00  0.00     0.074 A 
ATOM     53  C   UNL A   1      37.921  31.872  33.006  1.00  0.00     0.031 C 
ATOM     54  C   UNL A   1      40.065  28.090  27.638  1.00  0.00     0.029 A 
ATOM     55  C   UNL A   1      40.867  27.976  28.851  1.00  0.00     0.049 A 
ATOM     56  H   UNL A   1      40.618  29.010  30.642  1.00  0.00     0.167 HD
ATOM     57  C   UNL A   1      39.759  31.029  34.436  1.00  0.00     0.037 A 
ATOM     58  C   UNL A   1      41.938  27.172  28.997  1.00  0.00     0.037 A 
ATOM     59  C   UNL A   1      40.917  30.212  34.685  1.00  0.00     0.049 A 
ATOM     60  C   UNL A   1      42.669  27.171  30.309  1.00  0.00     0.074 A 
ATOM     61  C   UNL A   1      41.627  30.063  35.862  1.00  0.00     0.029 A 
ATOM     62  N   UNL A   1      41.530  29.403  33.740  1.00  0.00    -0.354 N 
ATOM     63  N   UNL A   1      42.365  27.793  31.421  1.00  0.00    -0.248 NA
ATOM     64  C   UNL A   1      43.901  26.374  30.382  1.00  0.00     0.031 C 
ATOM     65  C   UNL A   1      42.701  29.205  35.618  1.00  0.00     0.029 A 
ATOM     66  C   UNL A   1      42.633  28.778  34.301  1.00  0.00     0.049 A 
ATOM     67  H   UNL A   1      41.229  29.290  32.809  1.00  0.00     0.167 HD
ATOM     68  C   UNL A   1      43.361  27.462  32.327  1.00  0.00     0.074 A 
ATOM     69  C   UNL A   1      44.266  26.561  31.643  1.00  0.00     0.031 C 
ATOM     70  C   UNL A   1      43.519  27.880  33.606  1.00  0.00     0.037 A 
BRANCH  57  71
ATOM     71  C   UNL A   1      39.240  31.871  35.567  1.00  0.00     0.064 A 
ATOM     72  C   UNL A   1      38.346  31.357  36.517  1.00  0.00     0.173 A 
ATOM     73  C   UNL A   1      39.704  33.184  35.746  1.00  0.00     0.173 A 
ATOM     74  F   UNL A   1      37.865  30.111  36.387  1.00  0.00    -0.203 F 
ATOM     75  C   UNL A   1      37.922  32.130  37.595  1.00  0.00     0.198 A 
ATOM     76  C   UNL A   1      39.301  33.944  36.841  1.00  0.00     0.198 A 
ATOM     77  F   UNL A   1      40.568  33.722  34.872  1.00  0.00    -0.203 F 
ATOM     78  F   UNL A   1      37.041  31.630  38.471  1.00  0.00    -0.200 F 
ATOM     79  C   UNL A   1      38.408  33.419  37.762  1.00  0.00     0.200 A 
ATOM     80  F   UNL A   1      39.785  35.183  37.010  1.00  0.00    -0.200 F 
ATOM     81  F   UNL A   1      38.013  34.155  38.810  1.00  0.00    -0.200 F 
ENDBRANCH  57  71
BRANCH  58  82
ATOM     82  C   UNL A   1      42.373  26.313  27.865  1.00  0.00     0.064 A 
ATOM     83  C   UNL A   1      41.780  25.063  27.640  1.00  0.00     0.173 A 
ATOM     84  C   UNL A   1      43.363  26.737  26.965  1.00  0.00     0.173 A 
ATOM     85  F   UNL A   1      40.842  24.605  28.481  1.00  0.00    -0.203 F 
ATOM     86  C   UNL A   1      42.165  24.270  26.560  1.00  0.00     0.198 A 
ATOM     87  C   UNL A   1      43.722  25.958  25.868  1.00  0.00     0.198 A 
ATOM     88  F   UNL A   1      43.958  27.927  27.134  1.00  0.00    -0.203 F 
ATOM     89  F   UNL A   1      41.604  23.065  26.384  1.00  0.00    -0.200 F 
ATOM     90  C   UNL A   1      43.127  24.722  25.669  1.00  0.00     0.200 A 
ATOM     91  F   UNL A   1      44.636  26.410  25.000  1.00  0.00    -0.200 F 
ATOM     92  F   UNL A   1      43.482  23.967  24.622  1.00  0.00    -0.200 F 
ENDBRANCH  58  82
BRANCH  70  93
ATOM     93  C   UNL A   1      44.711  27.378  34.363  1.00  0.00     0.064 A 
ATOM     94  C   UNL A   1      45.911  28.102  34.387  1.00  0.00     0.173 A 
ATOM     95  C   UNL A   1      44.618  26.227  35.161  1.00  0.00     0.173 A 
ATOM     96  F   UNL A   1      46.052  29.199  33.628  1.00  0.00    -0.203 F 
ATOM     97  C   UNL A   1      46.974  27.695  35.187  1.00  0.00     0.198 A 
ATOM     98  C   UNL A   1      45.672  25.840  35.981  1.00  0.00     0.198 A 
ATOM     99  F   UNL A   1      43.487  25.506  35.176  1.00  0.00    -0.203 F 
ATOM    100  F   UNL A   1      48.119  28.392  35.183  1.00  0.00    -0.200 F 
ATOM    101  C   UNL A   1      46.849  26.573  35.994  1.00  0.00     0.200 A 
ATOM    102  F   UNL A   1      45.543  24.766  36.773  1.00  0.00    -0.200 F 
ATOM    103  F   UNL A   1      47.863  26.202  36.788  1.00  0.00    -0.200 F 
ENDBRANCH  70  93
ENDBRANCH  44  45
ENDBRANCH  36  39
ENDBRANCH  34  35
ENDBRANCH  33  34
ENDBRANCH   1  33
TORSDOF 13
ENDMDL
MODEL 2
REMARK VINA RESULT:     -13.8      1.946      3.475
REMARK SMILES Cc1ccc2cc(C[N@H+]3CC[NH2+][C@H](C(=O)NCCCNC(=O)c4ccc(-c5c6nc(c(-c7c(F)c(F)c(F)c(F)c7F)c7ccc([nH]7)c(-c7c(F)c(F)c(F)c(F)c7F)c7nc(c(-c8c(F)c(F)c(F)c(F)c8F)c8ccc5[nH]8)C=C7)C=C6)cc4)C3)c(N3CCOCC3)nc2c1
REMARK SMILES IDX 17 1 16 2 14 3 15 4 13 6 9 7 10 8 86 9 11 11 12 12 8 15 7 16
REMARK SMILES IDX 1 17 2 18 3 19 96 20 4 21 95 22 5 23 94 24 6 25 87 26 88 27
REMARK SMILES IDX 89 28 93 29 90 30 92 31 91 32 18 33 19 34 20 35 21 36 22 38
REMARK SMILES IDX 23 39 24 40 85 41 25 42 84 43 26 44 27 45 28 46 78 47 29 48
REMARK SMILES IDX 83 49 77 50 79 51 30 52 82 53 76 54 75 55 31 57 63 58 43 59
REMARK SMILES IDX 62 60 44 61 47 62 61 63 80 64 45 65 46 66 60 68 81 69 48 70
REMARK SMILES IDX 32 71 33 72 41 73 34 74 35 75 39 76 42 77 36 78 37 79 40 80
REMARK SMILES IDX 38 81 64 82 65 83 73 84 66 85 67 86 71 87 74 88 68 89 69 90
REMARK SMILES IDX 72 91 70 92 49 93 50 94 58 95 51 96 52 97 56 98 59 99 53 100
REMARK SMILES IDX 54 101 57 102 55 103
REMARK H PARENT 16 5 9 10 12 13 12 14 20 37 79 56 47 67
REMARK Flexibility Score: inf
ROOT
ATOM      1  C   UNL A   1      32.004  30.375  26.035  1.00  0.00     0.118 C 
ENDROOT
BRANCH   1   2
ATOM      2  N   UNL A   1      31.253  30.288  24.797  1.00  0.00    -0.351 N 
ATOM      3  C   UNL A   1      30.657  29.221  24.197  1.00  0.00     0.284 C 
ATOM      4  O   UNL A   1      30.045  29.454  23.149  1.00  0.00    -0.268 OA
ATOM      5  H   UNL A   1      31.159  31.140  24.311  1.00  0.00     0.163 HD
BRANCH   3   6
ATOM      6  C   UNL A   1      30.870  27.785  24.699  1.00  0.00     0.328 C 
ATOM      7  N   UNL A   1      29.885  25.434  24.463  1.00  0.00    -0.321 N 
ATOM      8  C   UNL A   1      30.249  25.239  25.876  1.00  0.00     0.324 C 
ATOM      9  C   UNL A   1      29.785  26.855  24.093  1.00  0.00     0.339 C 
ATOM     10  H   UNL A   1      28.937  25.067  24.387  1.00  0.00     0.348 HD
ATOM     11  C   UNL A   1      31.256  26.250  26.471  1.00  0.00     0.323 C 
ATOM     12  N   UNL A   1      30.876  27.645  26.177  1.00  0.00    -0.327 N 
ATOM     13  H   UNL A   1      31.552  28.287  26.589  1.00  0.00     0.347 HD
ATOM     14  H   UNL A   1      29.960  27.864  26.570  1.00  0.00     0.347 HD
BRANCH   7  15
ATOM     15  C   UNL A   1      30.612  24.590  23.499  1.00  0.00     0.303 C 
BRANCH  15  16
ATOM     16  C   UNL A   1      31.756  23.754  24.034  1.00  0.00     0.049 A 
ATOM     17  C   UNL A   1      35.650  18.635  24.814  1.00  0.00     0.044 C 
ATOM     18  C   UNL A   1      34.540  19.639  24.724  1.00  0.00    -0.049 A 
ATOM     19  C   UNL A   1      33.215  19.232  24.884  1.00  0.00     0.004 A 
ATOM     20  C   UNL A   1      34.818  21.006  24.526  1.00  0.00     0.032 A 
ATOM     21  C   UNL A   1      32.195  20.175  24.844  1.00  0.00     0.010 A 
ATOM     22  C   UNL A   1      33.813  21.969  24.438  1.00  0.00     0.073 A 
ATOM     23  C   UNL A   1      32.493  21.529  24.623  1.00  0.00     0.001 A 
ATOM     24  N   UNL A   1      34.103  23.260  24.151  1.00  0.00    -0.230 NA
ATOM     25  C   UNL A   1      31.471  22.461  24.488  1.00  0.00     0.023 A 
ATOM     26  C   UNL A   1      33.099  24.151  23.955  1.00  0.00     0.138 A 
BRANCH  26  27
ATOM     27  N   UNL A   1      33.420  25.445  23.598  1.00  0.00    -0.352 N 
ATOM     28  C   UNL A   1      34.304  26.226  24.474  1.00  0.00     0.146 C 
ATOM     29  C   UNL A   1      33.550  25.808  22.186  1.00  0.00     0.146 C 
ATOM     30  C   UNL A   1      33.952  27.712  24.294  1.00  0.00     0.181 C 
ATOM     31  C   UNL A   1      33.264  27.320  22.056  1.00  0.00     0.181 C 
ATOM     32  O   UNL A   1      34.103  28.114  22.919  1.00  0.00    -0.378 OA
ENDBRANCH  26  27
ENDBRANCH  15  16
ENDBRANCH   7  15
ENDBRANCH   3   6
ENDBRANCH   1   2
BRANCH   1  33
ATOM     33  C   UNL A   1      31.643  31.599  26.855  1.00  0.00     0.042 C 
BRANCH  33  34
ATOM     34  C   UNL A   1      32.848  32.419  27.284  1.00  0.00     0.118 C 
BRANCH  34  35
ATOM     35  N   UNL A   1      32.522  33.822  27.543  1.00  0.00    -0.352 N 
ATOM     36  C   UNL A   1      33.017  34.694  28.482  1.00  0.00     0.251 C 
ATOM     37  H   UNL A   1      31.837  34.203  26.947  1.00  0.00     0.163 HD
ATOM     38  O   UNL A   1      32.464  35.773  28.679  1.00  0.00    -0.269 OA
BRANCH  36  39
ATOM     39  C   UNL A   1      34.205  34.316  29.270  1.00  0.00     0.039 A 
ATOM     40  C   UNL A   1      35.476  34.610  28.786  1.00  0.00     0.014 A 
ATOM     41  C   UNL A   1      34.054  33.628  30.477  1.00  0.00     0.014 A 
ATOM     42  C   UNL A   1      36.579  34.005  29.363  1.00  0.00     0.010 A 
ATOM     43  C   UNL A   1      35.185  33.140  31.139  1.00  0.00     0.010 A 
ATOM     44  C   UNL A   1      36.452  33.261  30.548  1.00  0.00    -0.014 A 
BRANCH  44  45
ATOM     45  C   UNL A   1      37.669  32.618  31.112  1.00  0.00     0.031 A 
ATOM     46  C   UNL A   1      38.140  32.944  32.505  1.00  0.00     0.074 A 
ATOM     47  C   UNL A   1      38.279  31.649  30.401  1.00  0.00     0.049 A 
ATOM     48  N   UNL A   1      39.121  32.405  33.187  1.00  0.00    -0.248 NA
ATOM     49  C   UNL A   1      37.432  34.012  33.229  1.00  0.00     0.031 C 
ATOM     50  C   UNL A   1      37.903  31.245  29.043  1.00  0.00     0.029 A 
ATOM     51  N   UNL A   1      39.298  30.792  30.729  1.00  0.00    -0.354 N 
ATOM     52  C   UNL A   1      39.157  33.079  34.401  1.00  0.00     0.074 A 
ATOM     53  C   UNL A   1      38.129  34.094  34.353  1.00  0.00     0.031 C 
ATOM     54  C   UNL A   1      38.611  30.163  28.693  1.00  0.00     0.029 A 
ATOM     55  C   UNL A   1      39.553  29.850  29.762  1.00  0.00     0.049 A 
ATOM     56  H   UNL A   1      39.798  30.846  31.575  1.00  0.00     0.167 HD
ATOM     57  C   UNL A   1      39.961  32.855  35.467  1.00  0.00     0.037 A 
ATOM     58  C   UNL A   1      40.451  28.846  29.732  1.00  0.00     0.037 A 
ATOM     59  C   UNL A   1      40.957  31.818  35.523  1.00  0.00     0.049 A 
ATOM     60  C   UNL A   1      41.363  28.654  30.909  1.00  0.00     0.074 A 
ATOM     61  C   UNL A   1      41.798  31.489  36.572  1.00  0.00     0.029 A 
ATOM     62  N   UNL A   1      41.242  30.939  34.489  1.00  0.00    -0.354 N 
ATOM     63  N   UNL A   1      41.366  29.282  32.058  1.00  0.00    -0.248 NA
ATOM     64  C   UNL A   1      42.407  27.628  30.780  1.00  0.00     0.031 C 
ATOM     65  C   UNL A   1      42.628  30.446  36.154  1.00  0.00     0.029 A 
ATOM     66  C   UNL A   1      42.271  30.090  34.863  1.00  0.00     0.049 A 
ATOM     67  H   UNL A   1      40.782  30.921  33.618  1.00  0.00     0.167 HD
ATOM     68  C   UNL A   1      42.405  28.729  32.792  1.00  0.00     0.074 A 
ATOM     69  C   UNL A   1      42.994  27.693  31.968  1.00  0.00     0.031 C 
ATOM     70  C   UNL A   1      42.840  29.061  34.031  1.00  0.00     0.037 A 
BRANCH  57  71
ATOM     71  C   UNL A   1      39.804  33.741  36.671  1.00  0.00     0.064 A 
ATOM     72  C   UNL A   1      40.443  34.986  36.756  1.00  0.00     0.173 A 
ATOM     73  C   UNL A   1      38.942  33.372  37.715  1.00  0.00     0.173 A 
ATOM     74  F   UNL A   1      41.285  35.381  35.789  1.00  0.00    -0.203 F 
ATOM     75  C   UNL A   1      40.239  35.823  37.850  1.00  0.00     0.198 A 
ATOM     76  C   UNL A   1      38.717  34.225  38.794  1.00  0.00     0.198 A 
ATOM     77  F   UNL A   1      38.298  32.196  37.679  1.00  0.00    -0.203 F 
ATOM     78  F   UNL A   1      40.887  36.993  37.926  1.00  0.00    -0.200 F 
ATOM     79  C   UNL A   1      39.368  35.447  38.862  1.00  0.00     0.200 A 
ATOM     80  F   UNL A   1      37.862  33.867  39.762  1.00  0.00    -0.200 F 
ATOM     81  F   UNL A   1      39.159  36.261  39.905  1.00  0.00    -0.200 F 
ENDBRANCH  57  71
BRANCH  58  82
ATOM     82  C   UNL A   1      40.524  27.960  28.541  1.00  0.00     0.064 A 
ATOM     83  C   UNL A   1      41.287  28.318  27.421  1.00  0.00     0.173 A 
ATOM     84  C   UNL A   1      39.863  26.722  28.510  1.00  0.00     0.173 A 
ATOM     85  F   UNL A   1      41.923  29.498  27.394  1.00  0.00    -0.203 F 
ATOM     86  C   UNL A   1      41.381  27.474  26.316  1.00  0.00     0.198 A 
ATOM     87  C   UNL A   1      39.986  25.865  27.420  1.00  0.00     0.198 A 
ATOM     88  F   UNL A   1      39.124  26.330  29.558  1.00  0.00    -0.203 F 
ATOM     89  F   UNL A   1      42.093  27.853  25.245  1.00  0.00    -0.200 F 
ATOM     90  C   UNL A   1      40.740  26.243  26.321  1.00  0.00     0.200 A 
ATOM     91  F   UNL A   1      39.382  24.670  27.439  1.00  0.00    -0.200 F 
ATOM     92  F   UNL A   1      40.848  25.425  25.266  1.00  0.00    -0.200 F 
ENDBRANCH  58  82
BRANCH  70  93
ATOM     93  C   UNL A   1      44.012  28.307  34.585  1.00  0.00     0.064 A 
ATOM     94  C   UNL A   1      43.837  27.093  35.263  1.00  0.00     0.173 A 
ATOM     95  C   UNL A   1      45.323  28.742  34.336  1.00  0.00     0.173 A 
ATOM     96  F   UNL A   1      42.602  26.646  35.538  1.00  0.00    -0.203 F 
ATOM     97  C   UNL A   1      44.932  26.338  35.669  1.00  0.00     0.198 A 
ATOM     98  C   UNL A   1      46.415  27.971  34.718  1.00  0.00     0.198 A 
ATOM     99  F   UNL A   1      45.540  29.894  33.684  1.00  0.00    -0.203 F 
ATOM    100  F   UNL A   1      44.744  25.189  36.331  1.00  0.00    -0.200 F 
ATOM    101  C   UNL A   1      46.220  26.770  35.384  1.00  0.00     0.200 A 
ATOM    102  F   UNL A   1      47.657  28.381  34.425  1.00  0.00    -0.200 F 
ATOM    103  F   UNL A   1      47.273  26.025  35.747  1.00  0.00    -0.200 F 
ENDBRANCH  70  93
ENDBRANCH  44  45
ENDBRANCH  36  39
ENDBRANCH  34  35
ENDBRANCH  33  34
ENDBRANCH   1  33
TORSDOF 13
ENDMDL
MODEL 3
REMARK VINA RESULT:     -13.8      4.010      9.173
REMARK SMILES Cc1ccc2cc(C[N@H+]3CC[NH2+][C@H](C(=O)NCCCNC(=O)c4ccc(-c5c6nc(c(-c7c(F)c(F)c(F)c(F)c7F)c7ccc([nH]7)c(-c7c(F)c(F)c(F)c(F)c7F)c7nc(c(-c8c(F)c(F)c(F)c(F)c8F)c8ccc5[nH]8)C=C7)C=C6)cc4)C3)c(N3CCOCC3)nc2c1
REMARK SMILES IDX 17 1 16 2 14 3 15 4 13 6 9 7 10 8 86 9 11 11 12 12 8 15 7 16
REMARK SMILES IDX 1 17 2 18 3 19 96 20 4 21 95 22 5 23 94 24 6 25 87 26 88 27
REMARK SMILES IDX 89 28 93 29 90 30 92 31 91 32 18 33 19 34 20 35 21 36 22 38
REMARK SMILES IDX 23 39 24 40 85 41 25 42 84 43 26 44 27 45 28 46 78 47 29 48
REMARK SMILES IDX 83 49 77 50 79 51 30 52 82 53 76 54 75 55 31 57 63 58 43 59
REMARK SMILES IDX 62 60 44 61 47 62 61 63 80 64 45 65 46 66 60 68 81 69 48 70
REMARK SMILES IDX 32 71 33 72 41 73 34 74 35 75 39 76 42 77 36 78 37 79 40 80
REMARK SMILES IDX 38 81 64 82 65 83 73 84 66 85 67 86 71 87 74 88 68 89 69 90
REMARK SMILES IDX 72 91 70 92 49 93 50 94 58 95 51 96 52 97 56 98 59 99 53 100
REMARK SMILES IDX 54 101 57 102 55 103
REMARK H PARENT 16 5 9 10 12 13 12 14 20 37 79 56 47 67
REMARK Flexibility Score: inf
ROOT
ATOM      1  C   UNL A   1      34.793  23.921  23.729  1.00  0.00     0.118 C 
ENDROOT
BRANCH   1   2
ATOM      2  N   UNL A   1      34.073  23.938  22.470  1.00  0.00    -0.351 N 
ATOM      3  C   UNL A   1      33.388  24.941  21.856  1.00  0.00     0.284 C 
ATOM      4  O   UNL A   1      32.897  24.674  20.753  1.00  0.00    -0.268 OA
ATOM      5  H   UNL A   1      34.082  23.084  21.979  1.00  0.00     0.163 HD
BRANCH   3   6
ATOM      6  C   UNL A   1      33.096  26.273  22.562  1.00  0.00     0.328 C 
ATOM      7  N   UNL A   1      31.178  27.917  22.983  1.00  0.00    -0.321 N 
ATOM      8  C   UNL A   1      32.195  28.979  22.911  1.00  0.00     0.324 C 
ATOM      9  C   UNL A   1      31.612  26.670  22.332  1.00  0.00     0.339 C 
ATOM     10  H   UNL A   1      30.403  28.262  22.417  1.00  0.00     0.348 HD
ATOM     11  C   UNL A   1      33.668  28.529  23.041  1.00  0.00     0.323 C 
ATOM     12  N   UNL A   1      33.979  27.394  22.152  1.00  0.00    -0.327 N 
ATOM     13  H   UNL A   1      34.957  27.126  22.253  1.00  0.00     0.347 HD
ATOM     14  H   UNL A   1      33.825  27.643  21.174  1.00  0.00     0.347 HD
BRANCH   7  15
ATOM     15  C   UNL A   1      30.537  27.742  24.297  1.00  0.00     0.303 C 
BRANCH  15  16
ATOM     16  C   UNL A   1      31.045  26.616  25.172  1.00  0.00     0.049 A 
ATOM     17  C   UNL A   1      33.575  20.866  26.757  1.00  0.00     0.044 C 
ATOM     18  C   UNL A   1      32.783  22.038  26.261  1.00  0.00    -0.049 A 
ATOM     19  C   UNL A   1      31.722  21.841  25.377  1.00  0.00     0.004 A 
ATOM     20  C   UNL A   1      33.065  23.343  26.714  1.00  0.00     0.032 A 
ATOM     21  C   UNL A   1      30.963  22.927  24.958  1.00  0.00     0.010 A 
ATOM     22  C   UNL A   1      32.349  24.457  26.278  1.00  0.00     0.073 A 
ATOM     23  C   UNL A   1      31.276  24.221  25.404  1.00  0.00     0.001 A 
ATOM     24  N   UNL A   1      32.703  25.709  26.653  1.00  0.00    -0.230 NA
ATOM     25  C   UNL A   1      30.581  25.320  24.914  1.00  0.00     0.023 A 
ATOM     26  C   UNL A   1      32.064  26.780  26.121  1.00  0.00     0.138 A 
BRANCH  26  27
ATOM     27  N   UNL A   1      32.489  28.047  26.471  1.00  0.00    -0.352 N 
ATOM     28  C   UNL A   1      31.590  28.907  27.253  1.00  0.00     0.146 C 
ATOM     29  C   UNL A   1      33.903  28.298  26.747  1.00  0.00     0.146 C 
ATOM     30  C   UNL A   1      31.926  30.369  26.913  1.00  0.00     0.181 C 
ATOM     31  C   UNL A   1      34.184  29.791  26.468  1.00  0.00     0.181 C 
ATOM     32  O   UNL A   1      33.304  30.663  27.206  1.00  0.00    -0.378 OA
ENDBRANCH  26  27
ENDBRANCH  15  16
ENDBRANCH   7  15
ENDBRANCH   3   6
ENDBRANCH   1   2
BRANCH   1  33
ATOM     33  C   UNL A   1      35.714  22.724  23.862  1.00  0.00     0.042 C 
BRANCH  33  34
ATOM     34  C   UNL A   1      36.408  22.637  25.211  1.00  0.00     0.118 C 
BRANCH  34  35
ATOM     35  N   UNL A   1      37.325  21.502  25.311  1.00  0.00    -0.352 N 
ATOM     36  C   UNL A   1      38.617  21.438  25.775  1.00  0.00     0.251 C 
ATOM     37  H   UNL A   1      36.958  20.645  24.995  1.00  0.00     0.163 HD
ATOM     38  O   UNL A   1      39.297  20.434  25.580  1.00  0.00    -0.269 OA
BRANCH  36  39
ATOM     39  C   UNL A   1      39.192  22.594  26.488  1.00  0.00     0.039 A 
ATOM     40  C   UNL A   1      38.691  23.870  26.248  1.00  0.00     0.014 A 
ATOM     41  C   UNL A   1      40.264  22.412  27.365  1.00  0.00     0.014 A 
ATOM     42  C   UNL A   1      39.409  24.973  26.678  1.00  0.00     0.010 A 
ATOM     43  C   UNL A   1      40.901  23.529  27.917  1.00  0.00     0.010 A 
ATOM     44  C   UNL A   1      40.524  24.821  27.519  1.00  0.00    -0.014 A 
BRANCH  44  45
ATOM     45  C   UNL A   1      41.268  26.040  27.933  1.00  0.00     0.031 A 
ATOM     46  C   UNL A   1      42.662  26.304  27.429  1.00  0.00     0.074 A 
ATOM     47  C   UNL A   1      40.630  26.968  28.674  1.00  0.00     0.049 A 
ATOM     48  N   UNL A   1      43.416  27.360  27.609  1.00  0.00    -0.248 NA
ATOM     49  C   UNL A   1      43.303  25.250  26.624  1.00  0.00     0.031 C 
ATOM     50  C   UNL A   1      39.275  26.823  29.212  1.00  0.00     0.029 A 
ATOM     51  N   UNL A   1      41.003  28.231  29.058  1.00  0.00    -0.354 N 
ATOM     52  C   UNL A   1      44.615  27.090  26.964  1.00  0.00     0.074 A 
ATOM     53  C   UNL A   1      44.511  25.756  26.418  1.00  0.00     0.031 C 
ATOM     54  C   UNL A   1      38.896  27.980  29.770  1.00  0.00     0.029 A 
ATOM     55  C   UNL A   1      40.009  28.920  29.710  1.00  0.00     0.049 A 
ATOM     56  H   UNL A   1      41.896  28.607  28.884  1.00  0.00     0.167 HD
ATOM     57  C   UNL A   1      45.696  27.893  26.820  1.00  0.00     0.037 A 
ATOM     58  C   UNL A   1      39.994  30.170  30.213  1.00  0.00     0.037 A 
ATOM     59  C   UNL A   1      45.778  29.235  27.333  1.00  0.00     0.049 A 
ATOM     60  C   UNL A   1      41.226  31.019  30.082  1.00  0.00     0.074 A 
ATOM     61  C   UNL A   1      46.817  30.140  27.209  1.00  0.00     0.029 A 
ATOM     62  N   UNL A   1      44.781  29.865  28.061  1.00  0.00    -0.354 N 
ATOM     63  N   UNL A   1      42.341  30.758  29.446  1.00  0.00    -0.248 NA
ATOM     64  C   UNL A   1      41.206  32.325  30.752  1.00  0.00     0.031 C 
ATOM     65  C   UNL A   1      46.472  31.299  27.907  1.00  0.00     0.029 A 
ATOM     66  C   UNL A   1      45.196  31.136  28.424  1.00  0.00     0.049 A 
ATOM     67  H   UNL A   1      43.909  29.468  28.288  1.00  0.00     0.167 HD
ATOM     68  C   UNL A   1      43.155  31.865  29.634  1.00  0.00     0.074 A 
ATOM     69  C   UNL A   1      42.394  32.814  30.421  1.00  0.00     0.031 C 
ATOM     70  C   UNL A   1      44.423  32.070  29.204  1.00  0.00     0.037 A 
BRANCH  57  71
ATOM     71  C   UNL A   1      46.884  27.353  26.076  1.00  0.00     0.064 A 
ATOM     72  C   UNL A   1      47.042  27.555  24.697  1.00  0.00     0.173 A 
ATOM     73  C   UNL A   1      47.914  26.694  26.765  1.00  0.00     0.173 A 
ATOM     74  F   UNL A   1      46.083  28.171  23.990  1.00  0.00    -0.203 F 
ATOM     75  C   UNL A   1      48.180  27.102  24.032  1.00  0.00     0.198 A 
ATOM     76  C   UNL A   1      49.063  26.269  26.102  1.00  0.00     0.198 A 
ATOM     77  F   UNL A   1      47.818  26.483  28.086  1.00  0.00    -0.203 F 
ATOM     78  F   UNL A   1      48.293  27.276  22.709  1.00  0.00    -0.200 F 
ATOM     79  C   UNL A   1      49.193  26.470  24.737  1.00  0.00     0.200 A 
ATOM     80  F   UNL A   1      50.049  25.673  26.788  1.00  0.00    -0.200 F 
ATOM     81  F   UNL A   1      50.294  26.051  24.098  1.00  0.00    -0.200 F 
ENDBRANCH  57  71
BRANCH  58  82
ATOM     82  C   UNL A   1      38.770  30.677  30.887  1.00  0.00     0.064 A 
ATOM     83  C   UNL A   1      38.628  30.598  32.279  1.00  0.00     0.173 A 
ATOM     84  C   UNL A   1      37.734  31.281  30.159  1.00  0.00     0.173 A 
ATOM     85  F   UNL A   1      39.583  30.014  33.017  1.00  0.00    -0.203 F 
ATOM     86  C   UNL A   1      37.495  31.102  32.915  1.00  0.00     0.198 A 
ATOM     87  C   UNL A   1      36.618  31.814  30.799  1.00  0.00     0.198 A 
ATOM     88  F   UNL A   1      37.822  31.386  28.825  1.00  0.00    -0.203 F 
ATOM     89  F   UNL A   1      37.370  30.987  34.244  1.00  0.00    -0.200 F 
ATOM     90  C   UNL A   1      36.496  31.720  32.177  1.00  0.00     0.200 A 
ATOM     91  F   UNL A   1      35.667  32.428  30.083  1.00  0.00    -0.200 F 
ATOM     92  F   UNL A   1      35.417  32.220  32.791  1.00  0.00    -0.200 F 
ENDBRANCH  58  82
BRANCH  70  93
ATOM     93  C   UNL A   1      45.085  33.363  29.571  1.00  0.00     0.064 A 
ATOM     94  C   UNL A   1      45.890  33.466  30.714  1.00  0.00     0.173 A 
ATOM     95  C   UNL A   1      45.007  34.473  28.715  1.00  0.00     0.173 A 
ATOM     96  F   UNL A   1      45.981  32.437  31.569  1.00  0.00    -0.203 F 
ATOM     97  C   UNL A   1      46.599  34.632  30.985  1.00  0.00     0.198 A 
ATOM     98  C   UNL A   1      45.739  35.627  28.975  1.00  0.00     0.198 A 
ATOM     99  F   UNL A   1      44.255  34.419  27.606  1.00  0.00    -0.203 F 
ATOM    100  F   UNL A   1      47.349  34.716  32.092  1.00  0.00    -0.200 F 
ATOM    101  C   UNL A   1      46.534  35.706  30.108  1.00  0.00     0.200 A 
ATOM    102  F   UNL A   1      45.690  36.656  28.117  1.00  0.00    -0.200 F 
ATOM    103  F   UNL A   1      47.242  36.816  30.355  1.00  0.00    -0.200 F 
ENDBRANCH  70  93
ENDBRANCH  44  45
ENDBRANCH  36  39
ENDBRANCH  34  35
ENDBRANCH  33  34
ENDBRANCH   1  33
TORSDOF 13
ENDMDL
