MODEL 1
REMARK VINA RESULT:     -13.5      0.000      0.000
REMARK SMILES Cc1ccc(S(=O)(=O)N(c2ccccc2)[C@H](C)C(=O)NCCCNC(=O)c2ccc(-c3c4nc(c(-c5c(F)c(F)c(F)c(F)c5F)c5ccc([nH]5)c(-c5c(F)c(F)c(F)c(F)c5F)c5nc(c(-c6c(F)c(F)c(F)c(F)c6F)c6ccc3[nH]6)C=C5)C=C4)cc2)cc1
REMARK SMILES IDX 21 1 20 2 18 3 19 4 16 6 17 7 9 8 6 9 7 10 8 11 5 12 1 13
REMARK SMILES IDX 2 14 3 15 91 16 4 17 90 18 10 19 11 20 15 21 12 22 14 23
REMARK SMILES IDX 13 24 22 25 23 26 24 27 25 28 26 30 27 31 28 32 89 33 29 34
REMARK SMILES IDX 88 35 30 36 31 37 32 38 82 39 33 40 87 41 81 42 83 43 34 44
REMARK SMILES IDX 86 45 80 46 79 47 35 49 67 50 47 51 66 52 48 53 51 54 65 55
REMARK SMILES IDX 84 56 49 57 50 58 64 60 85 61 52 62 36 63 37 64 45 65 38 66
REMARK SMILES IDX 39 67 43 68 46 69 40 70 41 71 44 72 42 73 68 74 69 75 77 76
REMARK SMILES IDX 70 77 71 78 75 79 78 80 72 81 73 82 76 83 74 84 53 85 54 86
REMARK SMILES IDX 62 87 55 88 56 89 60 90 63 91 57 92 58 93 61 94 59 95
REMARK H PARENT 20 5 24 29 83 48 51 59
REMARK Flexibility Score: inf
ROOT
ATOM      1  C   UNL A   1      32.124  29.193  27.002  1.00  0.00     0.117 C 
ENDROOT
BRANCH   1   2
ATOM      2  N   UNL A   1      31.377  27.959  27.051  1.00  0.00    -0.354 N 
ATOM      3  C   UNL A   1      31.645  26.781  26.404  1.00  0.00     0.243 C 
ATOM      4  O   UNL A   1      31.102  25.773  26.871  1.00  0.00    -0.273 OA
ATOM      5  H   UNL A   1      30.575  27.964  27.620  1.00  0.00     0.163 HD
BRANCH   3   6
ATOM      6  C   UNL A   1      32.494  26.695  25.128  1.00  0.00     0.185 C 
ATOM      7  C   UNL A   1      33.906  26.180  25.431  1.00  0.00     0.043 C 
BRANCH   6   8
ATOM      8  N   UNL A   1      31.837  26.097  23.896  1.00  0.00    -0.254 N 
BRANCH   8   9
ATOM      9  S   UNL A   1      31.611  27.246  22.639  1.00  0.00     0.265 S 
ATOM     10  O   UNL A   1      31.119  26.501  21.494  1.00  0.00    -0.201 OA
ATOM     11  O   UNL A   1      32.832  28.018  22.532  1.00  0.00    -0.201 OA
BRANCH   9  12
ATOM     12  C   UNL A   1      30.311  28.390  23.062  1.00  0.00     0.088 A 
ATOM     13  C   UNL A   1      27.478  31.594  23.513  1.00  0.00     0.044 C 
ATOM     14  C   UNL A   1      28.456  30.463  23.401  1.00  0.00    -0.051 A 
ATOM     15  C   UNL A   1      29.766  30.610  23.866  1.00  0.00     0.005 A 
ATOM     16  C   UNL A   1      28.060  29.233  22.859  1.00  0.00     0.005 A 
ATOM     17  C   UNL A   1      30.695  29.588  23.679  1.00  0.00     0.022 A 
ATOM     18  C   UNL A   1      28.975  28.185  22.728  1.00  0.00     0.022 A 
ENDBRANCH   9  12
ENDBRANCH   8   9
BRANCH   8  19
ATOM     19  C   UNL A   1      32.108  24.740  23.537  1.00  0.00     0.053 A 
ATOM     20  C   UNL A   1      33.179  24.519  22.655  1.00  0.00     0.027 A 
ATOM     21  C   UNL A   1      31.322  23.665  23.955  1.00  0.00     0.027 A 
ATOM     22  C   UNL A   1      33.460  23.236  22.188  1.00  0.00     0.002 A 
ATOM     23  C   UNL A   1      31.600  22.380  23.473  1.00  0.00     0.002 A 
ATOM     24  C   UNL A   1      32.662  22.169  22.590  1.00  0.00     0.000 A 
ENDBRANCH   8  19
ENDBRANCH   6   8
ENDBRANCH   3   6
ENDBRANCH   1   2
BRANCH   1  25
ATOM     25  C   UNL A   1      33.474  29.178  27.684  1.00  0.00     0.042 C 
BRANCH  25  26
ATOM     26  C   UNL A   1      34.445  30.121  27.002  1.00  0.00     0.118 C 
BRANCH  26  27
ATOM     27  N   UNL A   1      35.055  31.138  27.861  1.00  0.00    -0.352 N 
ATOM     28  C   UNL A   1      36.209  31.056  28.643  1.00  0.00     0.251 C 
ATOM     29  H   UNL A   1      34.585  32.003  27.891  1.00  0.00     0.163 HD
ATOM     30  O   UNL A   1      36.577  32.005  29.298  1.00  0.00    -0.269 OA
BRANCH  28  31
ATOM     31  C   UNL A   1      37.059  29.837  28.537  1.00  0.00     0.039 A 
ATOM     32  C   UNL A   1      37.126  28.978  29.640  1.00  0.00     0.014 A 
ATOM     33  C   UNL A   1      37.992  29.729  27.517  1.00  0.00     0.014 A 
ATOM     34  C   UNL A   1      38.295  28.253  29.859  1.00  0.00     0.010 A 
ATOM     35  C   UNL A   1      39.210  29.170  27.821  1.00  0.00     0.010 A 
ATOM     36  C   UNL A   1      39.385  28.482  29.027  1.00  0.00    -0.014 A 
BRANCH  36  37
ATOM     37  C   UNL A   1      40.764  28.149  29.361  1.00  0.00     0.031 A 
ATOM     38  C   UNL A   1      41.360  26.901  28.830  1.00  0.00     0.074 A 
ATOM     39  C   UNL A   1      41.541  29.067  29.985  1.00  0.00     0.049 A 
ATOM     40  N   UNL A   1      42.510  26.445  29.191  1.00  0.00    -0.248 NA
ATOM     41  C   UNL A   1      40.678  26.017  27.883  1.00  0.00     0.031 C 
ATOM     42  C   UNL A   1      43.004  29.102  30.044  1.00  0.00     0.029 A 
ATOM     43  N   UNL A   1      41.141  30.076  30.885  1.00  0.00    -0.354 N 
ATOM     44  C   UNL A   1      42.849  25.436  28.326  1.00  0.00     0.074 A 
ATOM     45  C   UNL A   1      41.636  25.122  27.621  1.00  0.00     0.031 C 
ATOM     46  C   UNL A   1      43.381  29.819  31.114  1.00  0.00     0.029 A 
ATOM     47  C   UNL A   1      42.175  30.132  31.856  1.00  0.00     0.049 A 
ATOM     48  H   UNL A   1      40.323  30.621  30.848  1.00  0.00     0.167 HD
ATOM     49  C   UNL A   1      44.161  25.090  28.226  1.00  0.00     0.037 A 
ATOM     50  C   UNL A   1      41.955  29.782  33.156  1.00  0.00     0.037 A 
ATOM     51  C   UNL A   1      44.912  25.607  29.370  1.00  0.00     0.049 A 
ATOM     52  C   UNL A   1      42.819  28.640  33.646  1.00  0.00     0.074 A 
ATOM     53  C   UNL A   1      45.859  26.602  29.537  1.00  0.00     0.029 A 
ATOM     54  N   UNL A   1      44.509  25.231  30.651  1.00  0.00    -0.354 N 
ATOM     55  N   UNL A   1      43.455  27.818  32.857  1.00  0.00    -0.248 NA
ATOM     56  C   UNL A   1      43.009  28.318  35.056  1.00  0.00     0.031 C 
ATOM     57  C   UNL A   1      45.947  26.888  30.929  1.00  0.00     0.029 A 
ATOM     58  C   UNL A   1      45.092  26.034  31.607  1.00  0.00     0.049 A 
ATOM     59  H   UNL A   1      43.889  24.491  30.845  1.00  0.00     0.167 HD
ATOM     60  C   UNL A   1      44.096  26.864  33.605  1.00  0.00     0.074 A 
ATOM     61  C   UNL A   1      43.808  27.238  34.977  1.00  0.00     0.031 C 
ATOM     62  C   UNL A   1      44.789  25.839  33.021  1.00  0.00     0.037 A 
BRANCH  49  63
ATOM     63  C   UNL A   1      44.808  24.435  27.022  1.00  0.00     0.064 A 
ATOM     64  C   UNL A   1      44.591  23.065  26.760  1.00  0.00     0.173 A 
ATOM     65  C   UNL A   1      45.755  25.047  26.170  1.00  0.00     0.173 A 
ATOM     66  F   UNL A   1      43.733  22.345  27.498  1.00  0.00    -0.203 F 
ATOM     67  C   UNL A   1      45.267  22.373  25.748  1.00  0.00     0.198 A 
ATOM     68  C   UNL A   1      46.389  24.369  25.125  1.00  0.00     0.198 A 
ATOM     69  F   UNL A   1      46.167  26.308  26.343  1.00  0.00    -0.203 F 
ATOM     70  F   UNL A   1      45.064  21.057  25.588  1.00  0.00    -0.200 F 
ATOM     71  C   UNL A   1      46.158  23.028  24.922  1.00  0.00     0.200 A 
ATOM     72  F   UNL A   1      47.256  25.026  24.340  1.00  0.00    -0.200 F 
ATOM     73  F   UNL A   1      46.805  22.369  23.951  1.00  0.00    -0.200 F 
ENDBRANCH  49  63
BRANCH  50  74
ATOM     74  C   UNL A   1      40.568  30.076  33.604  1.00  0.00     0.064 A 
ATOM     75  C   UNL A   1      40.246  31.413  33.914  1.00  0.00     0.173 A 
ATOM     76  C   UNL A   1      39.511  29.202  33.331  1.00  0.00     0.173 A 
ATOM     77  F   UNL A   1      41.225  32.290  34.188  1.00  0.00    -0.203 F 
ATOM     78  C   UNL A   1      38.940  31.884  33.815  1.00  0.00     0.198 A 
ATOM     79  C   UNL A   1      38.198  29.676  33.254  1.00  0.00     0.198 A 
ATOM     80  F   UNL A   1      39.753  27.925  33.005  1.00  0.00    -0.203 F 
ATOM     81  F   UNL A   1      38.686  33.191  33.984  1.00  0.00    -0.200 F 
ATOM     82  C   UNL A   1      37.922  31.022  33.453  1.00  0.00     0.200 A 
ATOM     83  F   UNL A   1      37.215  28.851  32.868  1.00  0.00    -0.200 F 
ATOM     84  F   UNL A   1      36.684  31.493  33.244  1.00  0.00    -0.200 F 
ENDBRANCH  50  74
BRANCH  62  85
ATOM     85  C   UNL A   1      45.304  24.589  33.710  1.00  0.00     0.064 A 
ATOM     86  C   UNL A   1      44.551  23.419  33.903  1.00  0.00     0.173 A 
ATOM     87  C   UNL A   1      46.671  24.487  34.075  1.00  0.00     0.173 A 
ATOM     88  F   UNL A   1      43.283  23.323  33.484  1.00  0.00    -0.203 F 
ATOM     89  C   UNL A   1      45.099  22.266  34.479  1.00  0.00     0.198 A 
ATOM     90  C   UNL A   1      47.229  23.317  34.588  1.00  0.00     0.198 A 
ATOM     91  F   UNL A   1      47.520  25.513  33.914  1.00  0.00    -0.203 F 
ATOM     92  F   UNL A   1      44.320  21.193  34.682  1.00  0.00    -0.200 F 
ATOM     93  C   UNL A   1      46.439  22.211  34.809  1.00  0.00     0.200 A 
ATOM     94  F   UNL A   1      48.545  23.263  34.844  1.00  0.00    -0.200 F 
ATOM     95  F   UNL A   1      46.970  21.089  35.312  1.00  0.00    -0.200 F 
ENDBRANCH  62  85
ENDBRANCH  36  37
ENDBRANCH  28  31
ENDBRANCH  26  27
ENDBRANCH  25  26
ENDBRANCH   1  25
TORSDOF 14
ENDMDL
MODEL 2
REMARK VINA RESULT:     -13.5      4.150     10.252
REMARK SMILES Cc1ccc(S(=O)(=O)N(c2ccccc2)[C@H](C)C(=O)NCCCNC(=O)c2ccc(-c3c4nc(c(-c5c(F)c(F)c(F)c(F)c5F)c5ccc([nH]5)c(-c5c(F)c(F)c(F)c(F)c5F)c5nc(c(-c6c(F)c(F)c(F)c(F)c6F)c6ccc3[nH]6)C=C5)C=C4)cc2)cc1
REMARK SMILES IDX 21 1 20 2 18 3 19 4 16 6 17 7 9 8 6 9 7 10 8 11 5 12 1 13
REMARK SMILES IDX 2 14 3 15 91 16 4 17 90 18 10 19 11 20 15 21 12 22 14 23
REMARK SMILES IDX 13 24 22 25 23 26 24 27 25 28 26 30 27 31 28 32 89 33 29 34
REMARK SMILES IDX 88 35 30 36 31 37 32 38 82 39 33 40 87 41 81 42 83 43 34 44
REMARK SMILES IDX 86 45 80 46 79 47 35 49 67 50 47 51 66 52 48 53 51 54 65 55
REMARK SMILES IDX 84 56 49 57 50 58 64 60 85 61 52 62 36 63 37 64 45 65 38 66
REMARK SMILES IDX 39 67 43 68 46 69 40 70 41 71 44 72 42 73 68 74 69 75 77 76
REMARK SMILES IDX 70 77 71 78 75 79 78 80 72 81 73 82 76 83 74 84 53 85 54 86
REMARK SMILES IDX 62 87 55 88 56 89 60 90 63 91 57 92 58 93 61 94 59 95
REMARK H PARENT 20 5 24 29 83 48 51 59
REMARK Flexibility Score: inf
ROOT
ATOM      1  C   UNL A   1      36.302  21.305  25.312  1.00  0.00     0.117 C 
ENDROOT
BRANCH   1   2
ATOM      2  N   UNL A   1      35.766  21.813  24.072  1.00  0.00    -0.354 N 
ATOM      3  C   UNL A   1      34.988  22.925  23.877  1.00  0.00     0.243 C 
ATOM      4  O   UNL A   1      34.959  23.369  22.723  1.00  0.00    -0.273 OA
ATOM      5  H   UNL A   1      35.987  21.297  23.264  1.00  0.00     0.163 HD
BRANCH   3   6
ATOM      6  C   UNL A   1      34.129  23.554  24.983  1.00  0.00     0.185 C 
ATOM      7  C   UNL A   1      34.550  25.003  25.260  1.00  0.00     0.043 C 
BRANCH   6   8
ATOM      8  N   UNL A   1      32.631  23.318  24.917  1.00  0.00    -0.254 N 
BRANCH   8   9
ATOM      9  S   UNL A   1      32.119  22.018  25.918  1.00  0.00     0.265 S 
ATOM     10  O   UNL A   1      30.678  22.148  26.043  1.00  0.00    -0.201 OA
ATOM     11  O   UNL A   1      32.954  22.026  27.101  1.00  0.00    -0.201 OA
BRANCH   9  12
ATOM     12  C   UNL A   1      32.391  20.455  25.103  1.00  0.00     0.088 A 
ATOM     13  C   UNL A   1      33.662  17.049  22.807  1.00  0.00     0.044 C 
ATOM     14  C   UNL A   1      33.175  18.217  23.610  1.00  0.00    -0.051 A 
ATOM     15  C   UNL A   1      32.529  19.287  22.985  1.00  0.00     0.005 A 
ATOM     16  C   UNL A   1      33.330  18.236  25.003  1.00  0.00     0.005 A 
ATOM     17  C   UNL A   1      32.159  20.411  23.722  1.00  0.00     0.022 A 
ATOM     18  C   UNL A   1      32.902  19.335  25.753  1.00  0.00     0.022 A 
ENDBRANCH   9  12
ENDBRANCH   8   9
BRANCH   8  19
ATOM     19  C   UNL A   1      31.745  24.425  24.734  1.00  0.00     0.053 A 
ATOM     20  C   UNL A   1      31.559  25.276  25.836  1.00  0.00     0.027 A 
ATOM     21  C   UNL A   1      31.020  24.641  23.562  1.00  0.00     0.027 A 
ATOM     22  C   UNL A   1      30.650  26.331  25.771  1.00  0.00     0.002 A 
ATOM     23  C   UNL A   1      30.099  25.693  23.506  1.00  0.00     0.002 A 
ATOM     24  C   UNL A   1      29.912  26.532  24.608  1.00  0.00     0.000 A 
ENDBRANCH   8  19
ENDBRANCH   6   8
ENDBRANCH   3   6
ENDBRANCH   1   2
BRANCH   1  25
ATOM     25  C   UNL A   1      37.809  21.210  25.393  1.00  0.00     0.042 C 
BRANCH  25  26
ATOM     26  C   UNL A   1      38.426  22.553  25.725  1.00  0.00     0.118 C 
BRANCH  26  27
ATOM     27  N   UNL A   1      39.789  22.513  26.262  1.00  0.00    -0.352 N 
ATOM     28  C   UNL A   1      40.575  23.555  26.756  1.00  0.00     0.251 C 
ATOM     29  H   UNL A   1      40.210  21.623  26.276  1.00  0.00     0.163 HD
ATOM     30  O   UNL A   1      41.692  23.341  27.168  1.00  0.00    -0.269 OA
BRANCH  28  31
ATOM     31  C   UNL A   1      39.959  24.904  26.909  1.00  0.00     0.039 A 
ATOM     32  C   UNL A   1      40.472  25.957  26.144  1.00  0.00     0.014 A 
ATOM     33  C   UNL A   1      39.136  25.170  27.993  1.00  0.00     0.014 A 
ATOM     34  C   UNL A   1      40.420  27.251  26.658  1.00  0.00     0.010 A 
ATOM     35  C   UNL A   1      39.246  26.403  28.591  1.00  0.00     0.010 A 
ATOM     36  C   UNL A   1      39.947  27.433  27.953  1.00  0.00    -0.014 A 
BRANCH  36  37
ATOM     37  C   UNL A   1      40.215  28.607  28.773  1.00  0.00     0.031 A 
ATOM     38  C   UNL A   1      39.224  29.707  28.816  1.00  0.00     0.074 A 
ATOM     39  C   UNL A   1      41.263  28.596  29.632  1.00  0.00     0.049 A 
ATOM     40  N   UNL A   1      39.438  30.844  29.383  1.00  0.00    -0.248 NA
ATOM     41  C   UNL A   1      37.917  29.644  28.161  1.00  0.00     0.031 C 
ATOM     42  C   UNL A   1      41.468  29.461  30.796  1.00  0.00     0.029 A 
ATOM     43  N   UNL A   1      42.486  27.908  29.502  1.00  0.00    -0.354 N 
ATOM     44  C   UNL A   1      38.239  31.508  29.453  1.00  0.00     0.074 A 
ATOM     45  C   UNL A   1      37.360  30.788  28.573  1.00  0.00     0.031 C 
ATOM     46  C   UNL A   1      42.778  29.505  31.082  1.00  0.00     0.029 A 
ATOM     47  C   UNL A   1      43.464  28.797  30.019  1.00  0.00     0.049 A 
ATOM     48  H   UNL A   1      42.630  27.008  29.131  1.00  0.00     0.167 HD
ATOM     49  C   UNL A   1      38.114  32.511  30.364  1.00  0.00     0.037 A 
ATOM     50  C   UNL A   1      44.428  29.344  29.223  1.00  0.00     0.037 A 
ATOM     51  C   UNL A   1      39.432  32.949  30.824  1.00  0.00     0.049 A 
ATOM     52  C   UNL A   1      44.410  30.856  29.179  1.00  0.00     0.074 A 
ATOM     53  C   UNL A   1      40.128  32.834  32.014  1.00  0.00     0.029 A 
ATOM     54  N   UNL A   1      40.348  33.399  29.875  1.00  0.00    -0.354 N 
ATOM     55  N   UNL A   1      43.393  31.585  29.552  1.00  0.00    -0.248 NA
ATOM     56  C   UNL A   1      45.521  31.664  28.686  1.00  0.00     0.031 C 
ATOM     57  C   UNL A   1      41.496  33.127  31.745  1.00  0.00     0.029 A 
ATOM     58  C   UNL A   1      41.618  33.466  30.407  1.00  0.00     0.049 A 
ATOM     59  H   UNL A   1      40.119  33.638  28.948  1.00  0.00     0.167 HD
ATOM     60  C   UNL A   1      43.670  32.910  29.335  1.00  0.00     0.074 A 
ATOM     61  C   UNL A   1      45.025  32.907  28.817  1.00  0.00     0.031 C 
ATOM     62  C   UNL A   1      42.745  33.887  29.582  1.00  0.00     0.037 A 
BRANCH  49  63
ATOM     63  C   UNL A   1      36.810  32.988  30.971  1.00  0.00     0.064 A 
ATOM     64  C   UNL A   1      35.935  33.803  30.220  1.00  0.00     0.173 A 
ATOM     65  C   UNL A   1      36.421  32.804  32.318  1.00  0.00     0.173 A 
ATOM     66  F   UNL A   1      36.183  34.081  28.932  1.00  0.00    -0.203 F 
ATOM     67  C   UNL A   1      34.787  34.386  30.769  1.00  0.00     0.198 A 
ATOM     68  C   UNL A   1      35.246  33.342  32.851  1.00  0.00     0.198 A 
ATOM     69  F   UNL A   1      37.185  32.155  33.203  1.00  0.00    -0.203 F 
ATOM     70  F   UNL A   1      34.029  35.201  30.021  1.00  0.00    -0.200 F 
ATOM     71  C   UNL A   1      34.435  34.146  32.082  1.00  0.00     0.200 A 
ATOM     72  F   UNL A   1      34.930  33.100  34.131  1.00  0.00    -0.200 F 
ATOM     73  F   UNL A   1      33.336  34.700  32.610  1.00  0.00    -0.200 F 
ENDBRANCH  49  63
BRANCH  50  74
ATOM     74  C   UNL A   1      44.829  28.448  28.107  1.00  0.00     0.064 A 
ATOM     75  C   UNL A   1      45.630  27.329  28.417  1.00  0.00     0.173 A 
ATOM     76  C   UNL A   1      44.127  28.426  26.898  1.00  0.00     0.173 A 
ATOM     77  F   UNL A   1      46.326  27.303  29.564  1.00  0.00    -0.203 F 
ATOM     78  C   UNL A   1      45.615  26.186  27.622  1.00  0.00     0.198 A 
ATOM     79  C   UNL A   1      44.133  27.283  26.092  1.00  0.00     0.198 A 
ATOM     80  F   UNL A   1      43.329  29.448  26.558  1.00  0.00    -0.203 F 
ATOM     81  F   UNL A   1      46.281  25.090  28.015  1.00  0.00    -0.200 F 
ATOM     82  C   UNL A   1      44.840  26.153  26.477  1.00  0.00     0.200 A 
ATOM     83  F   UNL A   1      43.354  27.235  25.001  1.00  0.00    -0.200 F 
ATOM     84  F   UNL A   1      44.732  25.018  25.771  1.00  0.00    -0.200 F 
ENDBRANCH  50  74
BRANCH  62  85
ATOM     85  C   UNL A   1      42.820  35.336  29.138  1.00  0.00     0.064 A 
ATOM     86  C   UNL A   1      42.218  35.844  27.975  1.00  0.00     0.173 A 
ATOM     87  C   UNL A   1      43.402  36.313  29.986  1.00  0.00     0.173 A 
ATOM     88  F   UNL A   1      41.516  35.060  27.148  1.00  0.00    -0.203 F 
ATOM     89  C   UNL A   1      42.255  37.206  27.650  1.00  0.00     0.198 A 
ATOM     90  C   UNL A   1      43.381  37.676  29.691  1.00  0.00     0.198 A 
ATOM     91  F   UNL A   1      43.982  35.979  31.148  1.00  0.00    -0.203 F 
ATOM     92  F   UNL A   1      41.703  37.628  26.503  1.00  0.00    -0.200 F 
ATOM     93  C   UNL A   1      42.824  38.122  28.513  1.00  0.00     0.200 A 
ATOM     94  F   UNL A   1      43.883  38.555  30.571  1.00  0.00    -0.200 F 
ATOM     95  F   UNL A   1      42.813  39.429  28.222  1.00  0.00    -0.200 F 
ENDBRANCH  62  85
ENDBRANCH  36  37
ENDBRANCH  28  31
ENDBRANCH  26  27
ENDBRANCH  25  26
ENDBRANCH   1  25
TORSDOF 14
ENDMDL
MODEL 3
REMARK VINA RESULT:     -13.0      4.191      9.941
REMARK SMILES Cc1ccc(S(=O)(=O)N(c2ccccc2)[C@H](C)C(=O)NCCCNC(=O)c2ccc(-c3c4nc(c(-c5c(F)c(F)c(F)c(F)c5F)c5ccc([nH]5)c(-c5c(F)c(F)c(F)c(F)c5F)c5nc(c(-c6c(F)c(F)c(F)c(F)c6F)c6ccc3[nH]6)C=C5)C=C4)cc2)cc1
REMARK SMILES IDX 21 1 20 2 18 3 19 4 16 6 17 7 9 8 6 9 7 10 8 11 5 12 1 13
REMARK SMILES IDX 2 14 3 15 91 16 4 17 90 18 10 19 11 20 15 21 12 22 14 23
REMARK SMILES IDX 13 24 22 25 23 26 24 27 25 28 26 30 27 31 28 32 89 33 29 34
REMARK SMILES IDX 88 35 30 36 31 37 32 38 82 39 33 40 87 41 81 42 83 43 34 44
REMARK SMILES IDX 86 45 80 46 79 47 35 49 67 50 47 51 66 52 48 53 51 54 65 55
REMARK SMILES IDX 84 56 49 57 50 58 64 60 85 61 52 62 36 63 37 64 45 65 38 66
REMARK SMILES IDX 39 67 43 68 46 69 40 70 41 71 44 72 42 73 68 74 69 75 77 76
REMARK SMILES IDX 70 77 71 78 75 79 78 80 72 81 73 82 76 83 74 84 53 85 54 86
REMARK SMILES IDX 62 87 55 88 56 89 60 90 63 91 57 92 58 93 61 94 59 95
REMARK H PARENT 20 5 24 29 83 48 51 59
REMARK Flexibility Score: inf
ROOT
ATOM      1  C   UNL A   1      36.321  22.035  25.756  1.00  0.00     0.117 C 
ENDROOT
BRANCH   1   2
ATOM      2  N   UNL A   1      35.988  23.439  25.715  1.00  0.00    -0.354 N 
ATOM      3  C   UNL A   1      34.787  24.017  25.396  1.00  0.00     0.243 C 
ATOM      4  O   UNL A   1      34.628  25.181  25.779  1.00  0.00    -0.273 OA
ATOM      5  H   UNL A   1      36.715  24.061  25.946  1.00  0.00     0.163 HD
BRANCH   3   6
ATOM      6  C   UNL A   1      33.718  23.318  24.543  1.00  0.00     0.185 C 
ATOM      7  C   UNL A   1      34.266  22.938  23.163  1.00  0.00     0.043 C 
BRANCH   6   8
ATOM      8  N   UNL A   1      32.878  22.250  25.222  1.00  0.00    -0.254 N 
BRANCH   8   9
ATOM      9  S   UNL A   1      31.542  22.903  26.083  1.00  0.00     0.265 S 
ATOM     10  O   UNL A   1      32.040  23.241  27.404  1.00  0.00    -0.201 OA
ATOM     11  O   UNL A   1      30.438  21.978  25.938  1.00  0.00    -0.201 OA
BRANCH   9  12
ATOM     12  C   UNL A   1      31.023  24.447  25.356  1.00  0.00     0.088 A 
ATOM     13  C   UNL A   1      30.537  28.332  23.579  1.00  0.00     0.044 C 
ATOM     14  C   UNL A   1      30.661  26.980  24.214  1.00  0.00    -0.051 A 
ATOM     15  C   UNL A   1      30.986  26.860  25.568  1.00  0.00     0.005 A 
ATOM     16  C   UNL A   1      30.419  25.820  23.466  1.00  0.00     0.005 A 
ATOM     17  C   UNL A   1      31.188  25.601  26.132  1.00  0.00     0.022 A 
ATOM     18  C   UNL A   1      30.559  24.556  24.047  1.00  0.00     0.022 A 
ENDBRANCH   9  12
ENDBRANCH   8   9
BRANCH   8  19
ATOM     19  C   UNL A   1      32.731  20.968  24.609  1.00  0.00     0.053 A 
ATOM     20  C   UNL A   1      33.266  19.869  25.301  1.00  0.00     0.027 A 
ATOM     21  C   UNL A   1      32.163  20.781  23.348  1.00  0.00     0.027 A 
ATOM     22  C   UNL A   1      33.240  18.594  24.738  1.00  0.00     0.002 A 
ATOM     23  C   UNL A   1      32.151  19.501  22.780  1.00  0.00     0.002 A 
ATOM     24  C   UNL A   1      32.691  18.413  23.471  1.00  0.00     0.000 A 
ENDBRANCH   8  19
ENDBRANCH   6   8
ENDBRANCH   3   6
ENDBRANCH   1   2
BRANCH   1  25
ATOM     25  C   UNL A   1      37.796  21.704  25.753  1.00  0.00     0.042 C 
BRANCH  25  26
ATOM     26  C   UNL A   1      38.642  22.961  25.701  1.00  0.00     0.118 C 
BRANCH  26  27
ATOM     27  N   UNL A   1      39.928  22.893  26.399  1.00  0.00    -0.352 N 
ATOM     28  C   UNL A   1      40.651  23.913  27.019  1.00  0.00     0.251 C 
ATOM     29  H   UNL A   1      40.341  21.999  26.436  1.00  0.00     0.163 HD
ATOM     30  O   UNL A   1      41.709  23.677  27.558  1.00  0.00    -0.269 OA
BRANCH  28  31
ATOM     31  C   UNL A   1      40.027  25.260  27.139  1.00  0.00     0.039 A 
ATOM     32  C   UNL A   1      40.547  26.303  26.364  1.00  0.00     0.014 A 
ATOM     33  C   UNL A   1      39.185  25.541  28.204  1.00  0.00     0.014 A 
ATOM     34  C   UNL A   1      40.481  27.605  26.855  1.00  0.00     0.010 A 
ATOM     35  C   UNL A   1      39.280  26.785  28.783  1.00  0.00     0.010 A 
ATOM     36  C   UNL A   1      39.985  27.807  28.139  1.00  0.00    -0.014 A 
BRANCH  36  37
ATOM     37  C   UNL A   1      40.234  28.996  28.943  1.00  0.00     0.031 A 
ATOM     38  C   UNL A   1      39.213  30.067  28.995  1.00  0.00     0.074 A 
ATOM     39  C   UNL A   1      41.300  29.025  29.781  1.00  0.00     0.049 A 
ATOM     40  N   UNL A   1      39.404  31.215  29.549  1.00  0.00    -0.248 NA
ATOM     41  C   UNL A   1      37.895  29.960  28.368  1.00  0.00     0.031 C 
ATOM     42  C   UNL A   1      41.502  29.906  30.933  1.00  0.00     0.029 A 
ATOM     43  N   UNL A   1      42.540  28.372  29.632  1.00  0.00    -0.354 N 
ATOM     44  C   UNL A   1      38.188  31.844  29.637  1.00  0.00     0.074 A 
ATOM     45  C   UNL A   1      37.313  31.090  28.781  1.00  0.00     0.031 C 
ATOM     46  C   UNL A   1      42.816  29.992  31.192  1.00  0.00     0.029 A 
ATOM     47  C   UNL A   1      43.501  29.294  30.121  1.00  0.00     0.049 A 
ATOM     48  H   UNL A   1      42.703  27.473  29.267  1.00  0.00     0.167 HD
ATOM     49  C   UNL A   1      38.051  32.851  30.540  1.00  0.00     0.037 A 
ATOM     50  C   UNL A   1      44.432  29.862  29.301  1.00  0.00     0.037 A 
ATOM     51  C   UNL A   1      39.364  33.333  30.970  1.00  0.00     0.049 A 
ATOM     52  C   UNL A   1      44.368  31.373  29.244  1.00  0.00     0.074 A 
ATOM     53  C   UNL A   1      40.086  33.250  32.147  1.00  0.00     0.029 A 
ATOM     54  N   UNL A   1      40.247  33.801  29.999  1.00  0.00    -0.354 N 
ATOM     55  N   UNL A   1      43.338  32.074  29.631  1.00  0.00    -0.248 NA
ATOM     56  C   UNL A   1      45.445  32.208  28.722  1.00  0.00     0.031 C 
ATOM     57  C   UNL A   1      41.439  33.581  31.848  1.00  0.00     0.029 A 
ATOM     58  C   UNL A   1      41.524  33.911  30.505  1.00  0.00     0.049 A 
ATOM     59  H   UNL A   1      39.992  34.023  29.074  1.00  0.00     0.167 HD
ATOM     60  C   UNL A   1      43.571  33.405  29.396  1.00  0.00     0.074 A 
ATOM     61  C   UNL A   1      44.915  33.438  28.851  1.00  0.00     0.031 C 
ATOM     62  C   UNL A   1      42.622  34.356  29.653  1.00  0.00     0.037 A 
BRANCH  49  63
ATOM     63  C   UNL A   1      36.745  33.295  31.170  1.00  0.00     0.064 A 
ATOM     64  C   UNL A   1      35.804  34.023  30.409  1.00  0.00     0.173 A 
ATOM     65  C   UNL A   1      36.413  33.167  32.537  1.00  0.00     0.173 A 
ATOM     66  F   UNL A   1      35.992  34.242  29.100  1.00  0.00    -0.203 F 
ATOM     67  C   UNL A   1      34.646  34.577  30.969  1.00  0.00     0.198 A 
ATOM     68  C   UNL A   1      35.231  33.675  33.084  1.00  0.00     0.198 A 
ATOM     69  F   UNL A   1      37.239  32.607  33.428  1.00  0.00    -0.203 F 
ATOM     70  F   UNL A   1      33.822  35.311  30.207  1.00  0.00    -0.200 F 
ATOM     71  C   UNL A   1      34.353  34.393  32.305  1.00  0.00     0.200 A 
ATOM     72  F   UNL A   1      34.972  33.488  34.387  1.00  0.00    -0.200 F 
ATOM     73  F   UNL A   1      33.245  34.920  32.843  1.00  0.00    -0.200 F 
ENDBRANCH  49  63
BRANCH  50  74
ATOM     74  C   UNL A   1      44.837  28.967  28.186  1.00  0.00     0.064 A 
ATOM     75  C   UNL A   1      45.697  27.891  28.485  1.00  0.00     0.173 A 
ATOM     76  C   UNL A   1      44.099  28.896  27.000  1.00  0.00     0.173 A 
ATOM     77  F   UNL A   1      46.431  27.914  29.609  1.00  0.00    -0.203 F 
ATOM     78  C   UNL A   1      45.709  26.736  27.707  1.00  0.00     0.198 A 
ATOM     79  C   UNL A   1      44.130  27.742  26.211  1.00  0.00     0.198 A 
ATOM     80  F   UNL A   1      43.245  29.875  26.672  1.00  0.00    -0.203 F 
ATOM     81  F   UNL A   1      46.436  25.677  28.093  1.00  0.00    -0.200 F 
ATOM     82  C   UNL A   1      44.900  26.650  26.589  1.00  0.00     0.200 A 
ATOM     83  F   UNL A   1      43.321  27.642  25.147  1.00  0.00    -0.200 F 
ATOM     84  F   UNL A   1      44.821  25.501  25.903  1.00  0.00    -0.200 F 
ENDBRANCH  50  74
BRANCH  62  85
ATOM     85  C   UNL A   1      42.645  35.802  29.195  1.00  0.00     0.064 A 
ATOM     86  C   UNL A   1      43.288  36.846  29.883  1.00  0.00     0.173 A 
ATOM     87  C   UNL A   1      42.124  36.156  27.924  1.00  0.00     0.173 A 
ATOM     88  F   UNL A   1      43.941  36.631  31.031  1.00  0.00    -0.203 F 
ATOM     89  C   UNL A   1      43.342  38.150  29.376  1.00  0.00     0.198 A 
ATOM     90  C   UNL A   1      42.237  37.441  27.394  1.00  0.00     0.198 A 
ATOM     91  F   UNL A   1      41.515  35.256  27.138  1.00  0.00    -0.203 F 
ATOM     92  F   UNL A   1      43.928  39.116  30.098  1.00  0.00    -0.200 F 
ATOM     93  C   UNL A   1      42.829  38.444  28.128  1.00  0.00     0.200 A 
ATOM     94  F   UNL A   1      41.787  37.692  26.154  1.00  0.00    -0.200 F 
ATOM     95  F   UNL A   1      42.928  39.682  27.626  1.00  0.00    -0.200 F 
ENDBRANCH  62  85
ENDBRANCH  36  37
ENDBRANCH  28  31
ENDBRANCH  26  27
ENDBRANCH  25  26
ENDBRANCH   1  25
TORSDOF 14
ENDMDL
