MODEL 1
REMARK VINA RESULT:     -11.8      0.000      0.000
REMARK SMILES Cc1cccc(N2C(=O)/C(=C/c3cccn3-c3cccc(C(=O)NCCCNC(=O)c4ccc(-c5c6nc(c(-c7c(F)c(F)c(F)c(F)c7F)c7ccc([nH]7)c(-c7c(F)c(F)c(F)c(F)c7F)c7nc(c(-c8c(F)c(F)c(F)c(F)c8F)c8ccc5[nH]8)C=C7)C=C6)cc4)c3)C(O)=NC2=S)c1C
REMARK SMILES IDX 25 1 24 2 22 3 23 4 21 6 17 7 18 8 94 9 19 10 20 11 16 12
REMARK SMILES IDX 12 13 13 14 14 15 15 16 11 17 7 18 8 19 98 20 9 21 10 22
REMARK SMILES IDX 97 23 99 24 95 25 6 26 1 27 2 28 3 29 100 30 4 31 101 32
REMARK SMILES IDX 5 33 96 34 26 36 27 37 28 38 29 39 30 41 31 42 32 43 93 44
REMARK SMILES IDX 33 45 92 46 34 47 35 48 36 49 86 50 37 51 91 52 85 53 87 54
REMARK SMILES IDX 38 55 90 56 84 57 83 58 39 60 71 61 51 62 70 63 52 64 55 65
REMARK SMILES IDX 69 66 88 67 53 68 54 69 68 71 89 72 56 73 40 74 41 75 49 76
REMARK SMILES IDX 42 77 43 78 47 79 50 80 44 81 45 82 48 83 46 84 72 85 73 86
REMARK SMILES IDX 81 87 74 88 75 89 79 90 82 91 76 92 77 93 80 94 78 95 57 96
REMARK SMILES IDX 58 97 66 98 59 99 60 100 64 101 67 102 61 103 62 104 65 105
REMARK SMILES IDX 63 106
REMARK H PARENT 24 5 96 35 28 40 87 59 55 70
REMARK Flexibility Score: inf
ROOT
ATOM      1  C   UNL A   1      43.010  24.610  26.066  1.00  0.00     0.118 C 
ENDROOT
BRANCH   1   2
ATOM      2  N   UNL A   1      42.658  25.805  25.317  1.00  0.00    -0.352 N 
ATOM      3  C   UNL A   1      43.124  27.094  25.225  1.00  0.00     0.251 C 
ATOM      4  O   UNL A   1      42.562  27.818  24.399  1.00  0.00    -0.269 OA
ATOM      5  H   UNL A   1      41.887  25.651  24.724  1.00  0.00     0.163 HD
BRANCH   3   6
ATOM      6  C   UNL A   1      44.188  27.689  26.084  1.00  0.00     0.041 A 
ATOM      7  C   UNL A   1      46.363  27.627  27.184  1.00  0.00     0.046 A 
ATOM      8  C   UNL A   1      46.000  28.722  27.975  1.00  0.00     0.026 A 
ATOM      9  C   UNL A   1      45.477  27.176  26.201  1.00  0.00     0.040 A 
ATOM     10  C   UNL A   1      44.763  29.339  27.780  1.00  0.00     0.003 A 
ATOM     11  C   UNL A   1      43.855  28.810  26.859  1.00  0.00     0.014 A 
BRANCH   7  12
ATOM     12  N   UNL A   1      47.539  26.863  27.483  1.00  0.00    -0.317 N 
ATOM     13  C   UNL A   1      47.835  26.042  28.588  1.00  0.00     0.047 A 
ATOM     14  C   UNL A   1      49.176  25.695  28.511  1.00  0.00     0.028 A 
ATOM     15  C   UNL A   1      49.736  26.343  27.395  1.00  0.00     0.020 A 
ATOM     16  C   UNL A   1      48.717  27.015  26.766  1.00  0.00     0.092 A 
BRANCH  13  17
ATOM     17  C   UNL A   1      46.839  25.616  29.511  1.00  0.00     0.046 C 
ATOM     18  N   UNL A   1      45.646  25.525  32.964  1.00  0.00    -0.251 N 
ATOM     19  C   UNL A   1      45.600  25.376  31.576  1.00  0.00     0.270 C 
ATOM     20  C   UNL A   1      46.751  26.083  33.635  1.00  0.00     0.210 C 
ATOM     21  O   UNL A   1      44.669  24.862  30.955  1.00  0.00    -0.268 OA
ATOM     22  C   UNL A   1      46.784  25.922  30.828  1.00  0.00     0.104 C 
ATOM     23  N   UNL A   1      47.609  26.877  32.913  1.00  0.00    -0.184 NA
ATOM     24  S   UNL A   1      47.117  25.804  35.270  1.00  0.00    -0.038 S 
ATOM     25  C   UNL A   1      47.651  26.785  31.637  1.00  0.00     0.226 C 
BRANCH  18  26
ATOM     26  C   UNL A   1      44.532  25.001  33.708  1.00  0.00     0.055 A 
ATOM     27  C   UNL A   1      41.503  26.095  35.811  1.00  0.00     0.044 C 
ATOM     28  C   UNL A   1      42.542  25.268  35.100  1.00  0.00    -0.046 A 
ATOM     29  C   UNL A   1      42.466  23.870  35.213  1.00  0.00     0.004 A 
ATOM     30  C   UNL A   1      43.575  25.851  34.324  1.00  0.00    -0.024 A 
ATOM     31  C   UNL A   1      43.386  23.046  34.570  1.00  0.00     0.002 A 
ATOM     32  C   UNL A   1      43.636  27.345  34.121  1.00  0.00     0.047 C 
ATOM     33  C   UNL A   1      44.410  23.607  33.816  1.00  0.00     0.027 A 
ENDBRANCH  18  26
BRANCH  25  34
ATOM     34  O   UNL A   1      48.498  27.625  31.030  1.00  0.00    -0.493 OA
ATOM     35  H   UNL A   1      49.088  27.304  30.377  1.00  0.00     0.295 HD
ENDBRANCH  25  34
ENDBRANCH  13  17
ENDBRANCH   7  12
ENDBRANCH   3   6
ENDBRANCH   1   2
BRANCH   1  36
ATOM     36  C   UNL A   1      42.700  24.684  27.561  1.00  0.00     0.042 C 
BRANCH  36  37
ATOM     37  C   UNL A   1      41.839  23.502  27.994  1.00  0.00     0.118 C 
BRANCH  37  38
ATOM     38  N   UNL A   1      40.647  23.386  27.159  1.00  0.00    -0.352 N 
ATOM     39  C   UNL A   1      39.585  24.242  26.988  1.00  0.00     0.251 C 
ATOM     40  H   UNL A   1      40.594  22.556  26.632  1.00  0.00     0.163 HD
ATOM     41  O   UNL A   1      38.609  23.890  26.352  1.00  0.00    -0.269 OA
BRANCH  39  42
ATOM     42  C   UNL A   1      39.594  25.574  27.617  1.00  0.00     0.039 A 
ATOM     43  C   UNL A   1      39.217  25.653  28.963  1.00  0.00     0.014 A 
ATOM     44  C   UNL A   1      39.942  26.722  26.902  1.00  0.00     0.014 A 
ATOM     45  C   UNL A   1      39.270  26.877  29.613  1.00  0.00     0.010 A 
ATOM     46  C   UNL A   1      40.071  27.929  27.562  1.00  0.00     0.010 A 
ATOM     47  C   UNL A   1      39.730  28.000  28.916  1.00  0.00    -0.014 A 
BRANCH  47  48
ATOM     48  C   UNL A   1      39.929  29.257  29.659  1.00  0.00     0.031 A 
ATOM     49  C   UNL A   1      38.707  30.193  29.520  1.00  0.00     0.074 A 
ATOM     50  C   UNL A   1      41.138  29.361  30.289  1.00  0.00     0.049 A 
ATOM     51  N   UNL A   1      38.624  31.490  29.490  1.00  0.00    -0.248 NA
ATOM     52  C   UNL A   1      37.367  29.573  29.310  1.00  0.00     0.031 C 
ATOM     53  C   UNL A   1      42.157  28.283  30.356  1.00  0.00     0.029 A 
ATOM     54  N   UNL A   1      41.768  30.361  30.992  1.00  0.00    -0.354 N 
ATOM     55  C   UNL A   1      37.249  31.833  29.447  1.00  0.00     0.074 A 
ATOM     56  C   UNL A   1      36.537  30.613  29.214  1.00  0.00     0.031 C 
ATOM     57  C   UNL A   1      43.276  28.706  30.981  1.00  0.00     0.029 A 
ATOM     58  C   UNL A   1      43.115  30.091  31.359  1.00  0.00     0.049 A 
ATOM     59  H   UNL A   1      41.318  31.206  31.225  1.00  0.00     0.167 HD
ATOM     60  C   UNL A   1      36.774  33.079  29.754  1.00  0.00     0.037 A 
ATOM     61  C   UNL A   1      44.057  30.951  31.856  1.00  0.00     0.037 A 
ATOM     62  C   UNL A   1      37.858  33.940  30.082  1.00  0.00     0.049 A 
ATOM     63  C   UNL A   1      43.340  32.225  31.989  1.00  0.00     0.074 A 
ATOM     64  C   UNL A   1      38.749  34.666  29.342  1.00  0.00     0.029 A 
ATOM     65  N   UNL A   1      38.286  33.911  31.384  1.00  0.00    -0.354 N 
ATOM     66  N   UNL A   1      42.470  32.487  32.916  1.00  0.00    -0.248 NA
ATOM     67  C   UNL A   1      43.480  33.217  30.920  1.00  0.00     0.031 C 
ATOM     68  C   UNL A   1      39.908  34.716  30.148  1.00  0.00     0.029 A 
ATOM     69  C   UNL A   1      39.644  34.114  31.382  1.00  0.00     0.049 A 
ATOM     70  H   UNL A   1      37.721  33.769  32.177  1.00  0.00     0.167 HD
ATOM     71  C   UNL A   1      41.751  33.523  32.369  1.00  0.00     0.074 A 
ATOM     72  C   UNL A   1      42.577  34.102  31.334  1.00  0.00     0.031 C 
ATOM     73  C   UNL A   1      40.398  33.542  32.472  1.00  0.00     0.037 A 
BRANCH  60  74
ATOM     74  C   UNL A   1      35.394  33.614  30.063  1.00  0.00     0.064 A 
ATOM     75  C   UNL A   1      34.743  34.397  29.071  1.00  0.00     0.173 A 
ATOM     76  C   UNL A   1      34.876  33.724  31.360  1.00  0.00     0.173 A 
ATOM     77  F   UNL A   1      35.109  34.314  27.782  1.00  0.00    -0.203 F 
ATOM     78  C   UNL A   1      33.768  35.342  29.387  1.00  0.00     0.198 A 
ATOM     79  C   UNL A   1      33.857  34.635  31.664  1.00  0.00     0.198 A 
ATOM     80  F   UNL A   1      35.405  33.030  32.376  1.00  0.00    -0.203 F 
ATOM     81  F   UNL A   1      33.301  36.166  28.438  1.00  0.00    -0.200 F 
ATOM     82  C   UNL A   1      33.342  35.477  30.692  1.00  0.00     0.200 A 
ATOM     83  F   UNL A   1      33.429  34.751  32.929  1.00  0.00    -0.200 F 
ATOM     84  F   UNL A   1      32.461  36.433  31.018  1.00  0.00    -0.200 F 
ENDBRANCH  60  74
BRANCH  61  85
ATOM     85  C   UNL A   1      45.544  30.959  32.128  1.00  0.00     0.064 A 
ATOM     86  C   UNL A   1      46.160  30.730  33.366  1.00  0.00     0.173 A 
ATOM     87  C   UNL A   1      46.461  31.183  31.060  1.00  0.00     0.173 A 
ATOM     88  F   UNL A   1      45.439  30.646  34.489  1.00  0.00    -0.203 F 
ATOM     89  C   UNL A   1      47.558  30.610  33.494  1.00  0.00     0.198 A 
ATOM     90  C   UNL A   1      47.841  31.028  31.177  1.00  0.00     0.198 A 
ATOM     91  F   UNL A   1      46.046  31.568  29.846  1.00  0.00    -0.203 F 
ATOM     92  F   UNL A   1      48.099  30.376  34.699  1.00  0.00    -0.200 F 
ATOM     93  C   UNL A   1      48.393  30.721  32.395  1.00  0.00     0.200 A 
ATOM     94  F   UNL A   1      48.617  31.166  30.092  1.00  0.00    -0.200 F 
ATOM     95  F   UNL A   1      49.717  30.552  32.510  1.00  0.00    -0.200 F 
ENDBRANCH  61  85
BRANCH  73  96
ATOM     96  C   UNL A   1      39.863  32.588  33.533  1.00  0.00     0.064 A 
ATOM     97  C   UNL A   1      39.140  31.447  33.157  1.00  0.00     0.173 A 
ATOM     98  C   UNL A   1      39.911  32.850  34.913  1.00  0.00     0.173 A 
ATOM     99  F   UNL A   1      39.054  31.110  31.861  1.00  0.00    -0.203 F 
ATOM    100  C   UNL A   1      38.490  30.644  34.101  1.00  0.00     0.198 A 
ATOM    101  C   UNL A   1      39.271  32.050  35.860  1.00  0.00     0.198 A 
ATOM    102  F   UNL A   1      40.593  33.890  35.381  1.00  0.00    -0.203 F 
ATOM    103  F   UNL A   1      37.802  29.567  33.699  1.00  0.00    -0.200 F 
ATOM    104  C   UNL A   1      38.551  30.947  35.452  1.00  0.00     0.200 A 
ATOM    105  F   UNL A   1      39.360  32.351  37.166  1.00  0.00    -0.200 F 
ATOM    106  F   UNL A   1      37.932  30.174  36.355  1.00  0.00    -0.200 F 
ENDBRANCH  73  96
ENDBRANCH  47  48
ENDBRANCH  39  42
ENDBRANCH  37  38
ENDBRANCH  36  37
ENDBRANCH   1  36
TORSDOF 14
ENDMDL
MODEL 2
REMARK VINA RESULT:     -11.4      2.967      6.177
REMARK SMILES Cc1cccc(N2C(=O)/C(=C/c3cccn3-c3cccc(C(=O)NCCCNC(=O)c4ccc(-c5c6nc(c(-c7c(F)c(F)c(F)c(F)c7F)c7ccc([nH]7)c(-c7c(F)c(F)c(F)c(F)c7F)c7nc(c(-c8c(F)c(F)c(F)c(F)c8F)c8ccc5[nH]8)C=C7)C=C6)cc4)c3)C(O)=NC2=S)c1C
REMARK SMILES IDX 25 1 24 2 22 3 23 4 21 6 17 7 18 8 94 9 19 10 20 11 16 12
REMARK SMILES IDX 12 13 13 14 14 15 15 16 11 17 7 18 8 19 98 20 9 21 10 22
REMARK SMILES IDX 97 23 99 24 95 25 6 26 1 27 2 28 3 29 100 30 4 31 101 32
REMARK SMILES IDX 5 33 96 34 26 36 27 37 28 38 29 39 30 41 31 42 32 43 93 44
REMARK SMILES IDX 33 45 92 46 34 47 35 48 36 49 86 50 37 51 91 52 85 53 87 54
REMARK SMILES IDX 38 55 90 56 84 57 83 58 39 60 71 61 51 62 70 63 52 64 55 65
REMARK SMILES IDX 69 66 88 67 53 68 54 69 68 71 89 72 56 73 40 74 41 75 49 76
REMARK SMILES IDX 42 77 43 78 47 79 50 80 44 81 45 82 48 83 46 84 72 85 73 86
REMARK SMILES IDX 81 87 74 88 75 89 79 90 82 91 76 92 77 93 80 94 78 95 57 96
REMARK SMILES IDX 58 97 66 98 59 99 60 100 64 101 67 102 61 103 62 104 65 105
REMARK SMILES IDX 63 106
REMARK H PARENT 24 5 96 35 28 40 87 59 55 70
REMARK Flexibility Score: inf
ROOT
ATOM      1  C   UNL A   1      46.956  33.068  27.857  1.00  0.00     0.118 C 
ENDROOT
BRANCH   1   2
ATOM      2  N   UNL A   1      46.716  32.162  26.747  1.00  0.00    -0.352 N 
ATOM      3  C   UNL A   1      46.060  30.969  26.562  1.00  0.00     0.251 C 
ATOM      4  O   UNL A   1      46.041  30.533  25.409  1.00  0.00    -0.269 OA
ATOM      5  H   UNL A   1      47.129  32.486  25.914  1.00  0.00     0.163 HD
BRANCH   3   6
ATOM      6  C   UNL A   1      45.446  30.146  27.644  1.00  0.00     0.041 A 
ATOM      7  C   UNL A   1      45.568  28.504  29.442  1.00  0.00     0.046 A 
ATOM      8  C   UNL A   1      44.174  28.386  29.435  1.00  0.00     0.026 A 
ATOM      9  C   UNL A   1      46.174  29.438  28.596  1.00  0.00     0.040 A 
ATOM     10  C   UNL A   1      43.414  29.188  28.581  1.00  0.00     0.003 A 
ATOM     11  C   UNL A   1      44.048  30.043  27.676  1.00  0.00     0.014 A 
BRANCH   7  12
ATOM     12  N   UNL A   1      46.380  27.572  30.168  1.00  0.00    -0.317 N 
ATOM     13  C   UNL A   1      46.099  26.260  30.595  1.00  0.00     0.047 A 
ATOM     14  C   UNL A   1      47.127  25.858  31.435  1.00  0.00     0.028 A 
ATOM     15  C   UNL A   1      48.020  26.935  31.586  1.00  0.00     0.020 A 
ATOM     16  C   UNL A   1      47.567  27.950  30.779  1.00  0.00     0.092 A 
BRANCH  13  17
ATOM     17  C   UNL A   1      44.983  25.522  30.109  1.00  0.00     0.046 C 
ATOM     18  N   UNL A   1      43.510  23.538  27.417  1.00  0.00    -0.251 N 
ATOM     19  C   UNL A   1      43.638  24.094  28.691  1.00  0.00     0.270 C 
ATOM     20  C   UNL A   1      44.484  23.699  26.413  1.00  0.00     0.210 C 
ATOM     21  O   UNL A   1      42.795  24.006  29.585  1.00  0.00    -0.268 OA
ATOM     22  C   UNL A   1      44.927  24.822  28.953  1.00  0.00     0.104 C 
ATOM     23  N   UNL A   1      45.759  24.036  26.800  1.00  0.00    -0.184 NA
ATOM     24  S   UNL A   1      44.177  23.547  24.750  1.00  0.00    -0.038 S 
ATOM     25  C   UNL A   1      45.962  24.577  27.942  1.00  0.00     0.226 C 
BRANCH  18  26
ATOM     26  C   UNL A   1      42.281  22.846  27.133  1.00  0.00     0.055 A 
ATOM     27  C   UNL A   1      38.588  23.459  26.250  1.00  0.00     0.044 C 
ATOM     28  C   UNL A   1      39.900  22.801  26.590  1.00  0.00    -0.046 A 
ATOM     29  C   UNL A   1      39.929  21.400  26.702  1.00  0.00     0.004 A 
ATOM     30  C   UNL A   1      41.091  23.541  26.788  1.00  0.00    -0.024 A 
ATOM     31  C   UNL A   1      41.110  20.727  26.998  1.00  0.00     0.002 A 
ATOM     32  C   UNL A   1      41.108  25.038  26.599  1.00  0.00     0.047 C 
ATOM     33  C   UNL A   1      42.283  21.444  27.207  1.00  0.00     0.027 A 
ENDBRANCH  18  26
BRANCH  25  34
ATOM     34  O   UNL A   1      47.242  24.837  28.234  1.00  0.00    -0.493 OA
ATOM     35  H   UNL A   1      47.927  24.412  27.756  1.00  0.00     0.295 HD
ENDBRANCH  25  34
ENDBRANCH  13  17
ENDBRANCH   7  12
ENDBRANCH   3   6
ENDBRANCH   1   2
BRANCH   1  36
ATOM     36  C   UNL A   1      47.682  34.360  27.476  1.00  0.00     0.042 C 
BRANCH  36  37
ATOM     37  C   UNL A   1      47.396  35.460  28.492  1.00  0.00     0.118 C 
BRANCH  37  38
ATOM     38  N   UNL A   1      46.692  36.579  27.872  1.00  0.00    -0.352 N 
ATOM     39  C   UNL A   1      45.351  36.873  27.812  1.00  0.00     0.251 C 
ATOM     40  H   UNL A   1      47.277  37.232  27.421  1.00  0.00     0.163 HD
ATOM     41  O   UNL A   1      44.954  37.787  27.112  1.00  0.00    -0.269 OA
BRANCH  39  42
ATOM     42  C   UNL A   1      44.375  36.052  28.549  1.00  0.00     0.039 A 
ATOM     43  C   UNL A   1      43.844  34.937  27.890  1.00  0.00     0.014 A 
ATOM     44  C   UNL A   1      43.974  36.377  29.846  1.00  0.00     0.014 A 
ATOM     45  C   UNL A   1      42.969  34.101  28.567  1.00  0.00     0.010 A 
ATOM     46  C   UNL A   1      43.164  35.507  30.551  1.00  0.00     0.010 A 
ATOM     47  C   UNL A   1      42.663  34.374  29.905  1.00  0.00    -0.014 A 
BRANCH  47  48
ATOM     48  C   UNL A   1      41.858  33.395  30.658  1.00  0.00     0.031 A 
ATOM     49  C   UNL A   1      40.366  33.797  30.690  1.00  0.00     0.074 A 
ATOM     50  C   UNL A   1      42.574  32.359  31.190  1.00  0.00     0.049 A 
ATOM     51  N   UNL A   1      39.453  33.619  31.598  1.00  0.00    -0.248 NA
ATOM     52  C   UNL A   1      39.827  34.591  29.548  1.00  0.00     0.031 C 
ATOM     53  C   UNL A   1      44.022  32.121  30.965  1.00  0.00     0.029 A 
ATOM     54  N   UNL A   1      42.262  31.305  32.017  1.00  0.00    -0.354 N 
ATOM     55  C   UNL A   1      38.225  34.098  31.076  1.00  0.00     0.074 A 
ATOM     56  C   UNL A   1      38.547  34.792  29.866  1.00  0.00     0.031 C 
ATOM     57  C   UNL A   1      44.463  31.066  31.680  1.00  0.00     0.029 A 
ATOM     58  C   UNL A   1      43.368  30.528  32.456  1.00  0.00     0.049 A 
ATOM     59  H   UNL A   1      41.337  31.103  32.287  1.00  0.00     0.167 HD
ATOM     60  C   UNL A   1      37.005  33.765  31.597  1.00  0.00     0.037 A 
ATOM     61  C   UNL A   1      43.411  29.574  33.437  1.00  0.00     0.037 A 
ATOM     62  C   UNL A   1      37.178  32.913  32.723  1.00  0.00     0.049 A 
ATOM     63  C   UNL A   1      42.023  29.482  33.904  1.00  0.00     0.074 A 
ATOM     64  C   UNL A   1      37.472  33.132  34.040  1.00  0.00     0.029 A 
ATOM     65  N   UNL A   1      37.301  31.574  32.460  1.00  0.00    -0.354 N 
ATOM     66  N   UNL A   1      41.062  28.906  33.249  1.00  0.00    -0.248 NA
ATOM     67  C   UNL A   1      41.643  30.227  35.107  1.00  0.00     0.031 C 
ATOM     68  C   UNL A   1      38.159  31.964  34.440  1.00  0.00     0.029 A 
ATOM     69  C   UNL A   1      38.163  31.043  33.387  1.00  0.00     0.049 A 
ATOM     70  H   UNL A   1      36.852  31.081  31.735  1.00  0.00     0.167 HD
ATOM     71  C   UNL A   1      39.939  29.479  33.796  1.00  0.00     0.074 A 
ATOM     72  C   UNL A   1      40.330  30.018  35.079  1.00  0.00     0.031 C 
ATOM     73  C   UNL A   1      38.917  29.876  32.996  1.00  0.00     0.037 A 
BRANCH  60  74
ATOM     74  C   UNL A   1      35.590  33.889  31.080  1.00  0.00     0.064 A 
ATOM     75  C   UNL A   1      35.254  33.201  29.882  1.00  0.00     0.173 A 
ATOM     76  C   UNL A   1      34.709  34.909  31.462  1.00  0.00     0.173 A 
ATOM     77  F   UNL A   1      35.986  32.158  29.460  1.00  0.00    -0.203 F 
ATOM     78  C   UNL A   1      34.219  33.619  29.046  1.00  0.00     0.198 A 
ATOM     79  C   UNL A   1      33.636  35.290  30.647  1.00  0.00     0.198 A 
ATOM     80  F   UNL A   1      34.920  35.623  32.575  1.00  0.00    -0.203 F 
ATOM     81  F   UNL A   1      34.045  33.036  27.852  1.00  0.00    -0.200 F 
ATOM     82  C   UNL A   1      33.423  34.682  29.420  1.00  0.00     0.200 A 
ATOM     83  F   UNL A   1      32.851  36.310  31.020  1.00  0.00    -0.200 F 
ATOM     84  F   UNL A   1      32.475  35.139  28.590  1.00  0.00    -0.200 F 
ENDBRANCH  60  74
BRANCH  61  85
ATOM     85  C   UNL A   1      44.452  28.781  34.194  1.00  0.00     0.064 A 
ATOM     86  C   UNL A   1      44.724  27.415  34.042  1.00  0.00     0.173 A 
ATOM     87  C   UNL A   1      45.292  29.434  35.143  1.00  0.00     0.173 A 
ATOM     88  F   UNL A   1      43.933  26.633  33.299  1.00  0.00    -0.203 F 
ATOM     89  C   UNL A   1      45.814  26.794  34.684  1.00  0.00     0.198 A 
ATOM     90  C   UNL A   1      46.393  28.832  35.750  1.00  0.00     0.198 A 
ATOM     91  F   UNL A   1      45.072  30.699  35.523  1.00  0.00    -0.203 F 
ATOM     92  F   UNL A   1      46.040  25.485  34.495  1.00  0.00    -0.200 F 
ATOM     93  C   UNL A   1      46.668  27.509  35.505  1.00  0.00     0.200 A 
ATOM     94  F   UNL A   1      47.183  29.554  36.556  1.00  0.00    -0.200 F 
ATOM     95  F   UNL A   1      47.735  26.929  36.071  1.00  0.00    -0.200 F 
ENDBRANCH  61  85
BRANCH  73  96
ATOM     96  C   UNL A   1      38.983  29.276  31.596  1.00  0.00     0.064 A 
ATOM     97  C   UNL A   1      38.742  27.909  31.401  1.00  0.00     0.173 A 
ATOM     98  C   UNL A   1      39.429  29.983  30.465  1.00  0.00     0.173 A 
ATOM     99  F   UNL A   1      38.299  27.158  32.420  1.00  0.00    -0.203 F 
ATOM    100  C   UNL A   1      38.959  27.293  30.163  1.00  0.00     0.198 A 
ATOM    101  C   UNL A   1      39.642  29.377  29.227  1.00  0.00     0.198 A 
ATOM    102  F   UNL A   1      39.660  31.290  30.533  1.00  0.00    -0.203 F 
ATOM    103  F   UNL A   1      38.725  25.982  30.021  1.00  0.00    -0.200 F 
ATOM    104  C   UNL A   1      39.414  28.025  29.078  1.00  0.00     0.200 A 
ATOM    105  F   UNL A   1      40.062  30.109  28.183  1.00  0.00    -0.200 F 
ATOM    106  F   UNL A   1      39.617  27.435  27.891  1.00  0.00    -0.200 F 
ENDBRANCH  73  96
ENDBRANCH  47  48
ENDBRANCH  39  42
ENDBRANCH  37  38
ENDBRANCH  36  37
ENDBRANCH   1  36
TORSDOF 14
ENDMDL
MODEL 3
REMARK VINA RESULT:     -11.4      4.073      9.899
REMARK SMILES Cc1cccc(N2C(=O)/C(=C/c3cccn3-c3cccc(C(=O)NCCCNC(=O)c4ccc(-c5c6nc(c(-c7c(F)c(F)c(F)c(F)c7F)c7ccc([nH]7)c(-c7c(F)c(F)c(F)c(F)c7F)c7nc(c(-c8c(F)c(F)c(F)c(F)c8F)c8ccc5[nH]8)C=C7)C=C6)cc4)c3)C(O)=NC2=S)c1C
REMARK SMILES IDX 25 1 24 2 22 3 23 4 21 6 17 7 18 8 94 9 19 10 20 11 16 12
REMARK SMILES IDX 12 13 13 14 14 15 15 16 11 17 7 18 8 19 98 20 9 21 10 22
REMARK SMILES IDX 97 23 99 24 95 25 6 26 1 27 2 28 3 29 100 30 4 31 101 32
REMARK SMILES IDX 5 33 96 34 26 36 27 37 28 38 29 39 30 41 31 42 32 43 93 44
REMARK SMILES IDX 33 45 92 46 34 47 35 48 36 49 86 50 37 51 91 52 85 53 87 54
REMARK SMILES IDX 38 55 90 56 84 57 83 58 39 60 71 61 51 62 70 63 52 64 55 65
REMARK SMILES IDX 69 66 88 67 53 68 54 69 68 71 89 72 56 73 40 74 41 75 49 76
REMARK SMILES IDX 42 77 43 78 47 79 50 80 44 81 45 82 48 83 46 84 72 85 73 86
REMARK SMILES IDX 81 87 74 88 75 89 79 90 82 91 76 92 77 93 80 94 78 95 57 96
REMARK SMILES IDX 58 97 66 98 59 99 60 100 64 101 67 102 61 103 62 104 65 105
REMARK SMILES IDX 63 106
REMARK H PARENT 24 5 96 35 28 40 87 59 55 70
REMARK Flexibility Score: inf
ROOT
ATOM      1  C   UNL A   1      35.771  34.201  29.685  1.00  0.00     0.118 C 
ENDROOT
BRANCH   1   2
ATOM      2  N   UNL A   1      34.891  33.700  30.728  1.00  0.00    -0.352 N 
ATOM      3  C   UNL A   1      35.009  32.863  31.811  1.00  0.00     0.251 C 
ATOM      4  O   UNL A   1      34.001  32.731  32.508  1.00  0.00    -0.269 OA
ATOM      5  H   UNL A   1      33.976  34.052  30.635  1.00  0.00     0.163 HD
BRANCH   3   6
ATOM      6  C   UNL A   1      36.220  32.062  32.153  1.00  0.00     0.041 A 
ATOM      7  C   UNL A   1      38.604  31.840  32.617  1.00  0.00     0.046 A 
ATOM      8  C   UNL A   1      38.508  30.452  32.469  1.00  0.00     0.026 A 
ATOM      9  C   UNL A   1      37.442  32.613  32.529  1.00  0.00     0.040 A 
ATOM     10  C   UNL A   1      37.265  29.865  32.226  1.00  0.00     0.003 A 
ATOM     11  C   UNL A   1      36.135  30.666  32.045  1.00  0.00     0.014 A 
BRANCH   7  12
ATOM     12  N   UNL A   1      39.882  32.485  32.683  1.00  0.00    -0.317 N 
ATOM     13  C   UNL A   1      41.142  31.973  33.046  1.00  0.00     0.047 A 
ATOM     14  C   UNL A   1      42.021  33.041  33.150  1.00  0.00     0.028 A 
ATOM     15  C   UNL A   1      41.302  34.227  32.912  1.00  0.00     0.020 A 
ATOM     16  C   UNL A   1      40.017  33.863  32.594  1.00  0.00     0.092 A 
BRANCH  13  17
ATOM     17  C   UNL A   1      41.394  30.576  33.162  1.00  0.00     0.046 C 
ATOM     18  N   UNL A   1      42.393  27.770  35.280  1.00  0.00    -0.251 N 
ATOM     19  C   UNL A   1      41.883  28.425  34.156  1.00  0.00     0.270 C 
ATOM     20  C   UNL A   1      42.784  28.453  36.447  1.00  0.00     0.210 C 
ATOM     21  O   UNL A   1      41.563  27.869  33.104  1.00  0.00    -0.268 OA
ATOM     22  C   UNL A   1      41.705  29.910  34.298  1.00  0.00     0.104 C 
ATOM     23  N   UNL A   1      42.272  29.710  36.660  1.00  0.00    -0.184 NA
ATOM     24  S   UNL A   1      43.881  27.841  37.591  1.00  0.00    -0.038 S 
ATOM     25  C   UNL A   1      41.809  30.391  35.680  1.00  0.00     0.226 C 
BRANCH  18  26
ATOM     26  C   UNL A   1      42.586  26.349  35.169  1.00  0.00     0.055 A 
ATOM     27  C   UNL A   1      45.082  23.717  33.888  1.00  0.00     0.044 C 
ATOM     28  C   UNL A   1      43.870  24.388  34.481  1.00  0.00    -0.046 A 
ATOM     29  C   UNL A   1      42.807  23.575  34.911  1.00  0.00     0.004 A 
ATOM     30  C   UNL A   1      43.776  25.794  34.625  1.00  0.00    -0.024 A 
ATOM     31  C   UNL A   1      41.665  24.129  35.481  1.00  0.00     0.002 A 
ATOM     32  C   UNL A   1      44.932  26.687  34.244  1.00  0.00     0.047 C 
ATOM     33  C   UNL A   1      41.556  25.508  35.616  1.00  0.00     0.027 A 
ENDBRANCH  18  26
BRANCH  25  34
ATOM     34  O   UNL A   1      41.307  31.589  36.001  1.00  0.00    -0.493 OA
ATOM     35  H   UNL A   1      41.648  32.363  35.598  1.00  0.00     0.295 HD
ENDBRANCH  25  34
ENDBRANCH  13  17
ENDBRANCH   7  12
ENDBRANCH   3   6
ENDBRANCH   1   2
BRANCH   1  36
ATOM     36  C   UNL A   1      35.727  33.402  28.381  1.00  0.00     0.042 C 
BRANCH  36  37
ATOM     37  C   UNL A   1      36.560  32.131  28.498  1.00  0.00     0.118 C 
BRANCH  37  38
ATOM     38  N   UNL A   1      35.794  30.959  28.083  1.00  0.00    -0.352 N 
ATOM     39  C   UNL A   1      36.204  29.686  27.765  1.00  0.00     0.251 C 
ATOM     40  H   UNL A   1      34.822  31.105  28.020  1.00  0.00     0.163 HD
ATOM     41  O   UNL A   1      35.415  28.887  27.296  1.00  0.00    -0.269 OA
BRANCH  39  42
ATOM     42  C   UNL A   1      37.613  29.293  27.937  1.00  0.00     0.039 A 
ATOM     43  C   UNL A   1      37.967  28.677  29.143  1.00  0.00     0.014 A 
ATOM     44  C   UNL A   1      38.571  29.541  26.951  1.00  0.00     0.014 A 
ATOM     45  C   UNL A   1      39.269  28.234  29.324  1.00  0.00     0.010 A 
ATOM     46  C   UNL A   1      39.849  29.034  27.094  1.00  0.00     0.010 A 
ATOM     47  C   UNL A   1      40.191  28.385  28.283  1.00  0.00    -0.014 A 
BRANCH  47  48
ATOM     48  C   UNL A   1      41.524  27.772  28.428  1.00  0.00     0.031 A 
ATOM     49  C   UNL A   1      41.512  26.287  27.999  1.00  0.00     0.074 A 
ATOM     50  C   UNL A   1      42.483  28.609  28.926  1.00  0.00     0.049 A 
ATOM     51  N   UNL A   1      42.190  25.267  28.434  1.00  0.00    -0.248 NA
ATOM     52  C   UNL A   1      40.527  25.864  26.962  1.00  0.00     0.031 C 
ATOM     53  C   UNL A   1      42.291  30.054  29.205  1.00  0.00     0.029 A 
ATOM     54  N   UNL A   1      43.796  28.443  29.303  1.00  0.00    -0.354 N 
ATOM     55  C   UNL A   1      41.860  24.152  27.623  1.00  0.00     0.074 A 
ATOM     56  C   UNL A   1      40.745  24.555  26.820  1.00  0.00     0.031 C 
ATOM     57  C   UNL A   1      43.393  30.597  29.760  1.00  0.00     0.029 A 
ATOM     58  C   UNL A   1      44.399  29.571  29.923  1.00  0.00     0.049 A 
ATOM     59  H   UNL A   1      44.285  27.601  29.154  1.00  0.00     0.167 HD
ATOM     60  C   UNL A   1      42.621  23.017  27.559  1.00  0.00     0.037 A 
ATOM     61  C   UNL A   1      45.589  29.648  30.593  1.00  0.00     0.037 A 
ATOM     62  C   UNL A   1      43.738  23.135  28.432  1.00  0.00     0.049 A 
ATOM     63  C   UNL A   1      46.151  28.297  30.476  1.00  0.00     0.074 A 
ATOM     64  C   UNL A   1      43.913  22.953  29.775  1.00  0.00     0.029 A 
ATOM     65  N   UNL A   1      44.844  23.765  27.923  1.00  0.00    -0.354 N 
ATOM     66  N   UNL A   1      46.678  27.809  29.395  1.00  0.00    -0.248 NA
ATOM     67  C   UNL A   1      45.963  27.365  31.592  1.00  0.00     0.031 C 
ATOM     68  C   UNL A   1      44.956  23.845  30.112  1.00  0.00     0.029 A 
ATOM     69  C   UNL A   1      45.442  24.454  28.950  1.00  0.00     0.049 A 
ATOM     70  H   UNL A   1      45.153  23.731  26.989  1.00  0.00     0.167 HD
ATOM     71  C   UNL A   1      46.598  26.453  29.605  1.00  0.00     0.074 A 
ATOM     72  C   UNL A   1      46.447  26.262  31.030  1.00  0.00     0.031 C 
ATOM     73  C   UNL A   1      46.202  25.631  28.602  1.00  0.00     0.037 A 
BRANCH  60  74
ATOM     74  C   UNL A   1      42.660  21.850  26.598  1.00  0.00     0.064 A 
ATOM     75  C   UNL A   1      42.109  20.612  27.029  1.00  0.00     0.173 A 
ATOM     76  C   UNL A   1      43.517  21.782  25.492  1.00  0.00     0.173 A 
ATOM     77  F   UNL A   1      41.218  20.568  28.032  1.00  0.00    -0.203 F 
ATOM     78  C   UNL A   1      42.523  19.389  26.503  1.00  0.00     0.198 A 
ATOM     79  C   UNL A   1      43.887  20.553  24.930  1.00  0.00     0.198 A 
ATOM     80  F   UNL A   1      44.092  22.884  24.995  1.00  0.00    -0.203 F 
ATOM     81  F   UNL A   1      42.092  18.244  27.052  1.00  0.00    -0.200 F 
ATOM     82  C   UNL A   1      43.432  19.360  25.467  1.00  0.00     0.200 A 
ATOM     83  F   UNL A   1      44.756  20.527  23.910  1.00  0.00    -0.200 F 
ATOM     84  F   UNL A   1      43.893  18.188  25.006  1.00  0.00    -0.200 F 
ENDBRANCH  60  74
BRANCH  61  85
ATOM     85  C   UNL A   1      46.328  30.632  31.471  1.00  0.00     0.064 A 
ATOM     86  C   UNL A   1      47.493  31.333  31.131  1.00  0.00     0.173 A 
ATOM     87  C   UNL A   1      45.824  30.945  32.767  1.00  0.00     0.173 A 
ATOM     88  F   UNL A   1      48.167  31.046  30.012  1.00  0.00    -0.203 F 
ATOM     89  C   UNL A   1      48.027  32.342  31.957  1.00  0.00     0.198 A 
ATOM     90  C   UNL A   1      46.328  31.968  33.570  1.00  0.00     0.198 A 
ATOM     91  F   UNL A   1      44.811  30.261  33.313  1.00  0.00    -0.203 F 
ATOM     92  F   UNL A   1      49.137  32.994  31.580  1.00  0.00    -0.200 F 
ATOM     93  C   UNL A   1      47.424  32.684  33.155  1.00  0.00     0.200 A 
ATOM     94  F   UNL A   1      45.728  32.254  34.734  1.00  0.00    -0.200 F 
ATOM     95  F   UNL A   1      47.902  33.680  33.913  1.00  0.00    -0.200 F 
ENDBRANCH  61  85
BRANCH  73  96
ATOM     96  C   UNL A   1      46.263  26.286  27.227  1.00  0.00     0.064 A 
ATOM     97  C   UNL A   1      47.500  26.617  26.656  1.00  0.00     0.173 A 
ATOM     98  C   UNL A   1      45.130  26.737  26.527  1.00  0.00     0.173 A 
ATOM     99  F   UNL A   1      48.635  26.215  27.247  1.00  0.00    -0.203 F 
ATOM    100  C   UNL A   1      47.589  27.370  25.480  1.00  0.00     0.198 A 
ATOM    101  C   UNL A   1      45.212  27.482  25.350  1.00  0.00     0.198 A 
ATOM    102  F   UNL A   1      43.908  26.454  26.965  1.00  0.00    -0.203 F 
ATOM    103  F   UNL A   1      48.792  27.672  24.972  1.00  0.00    -0.200 F 
ATOM    104  C   UNL A   1      46.446  27.807  24.830  1.00  0.00     0.200 A 
ATOM    105  F   UNL A   1      44.091  27.878  24.726  1.00  0.00    -0.200 F 
ATOM    106  F   UNL A   1      46.534  28.524  23.700  1.00  0.00    -0.200 F 
ENDBRANCH  73  96
ENDBRANCH  47  48
ENDBRANCH  39  42
ENDBRANCH  37  38
ENDBRANCH  36  37
ENDBRANCH   1  36
TORSDOF 14
ENDMDL
