MODEL 1
REMARK VINA RESULT:     -11.9      0.000      0.000
REMARK SMILES C[C@H]([NH3+])c1ccc(F)cc1OCC(C)(C)C(=O)NCCCNC(=O)c1ccc(-c2c3nc(c(-c4c(F)c(F)c(F)c(F)c4F)c4ccc([nH]4)c(-c4c(F)c(F)c(F)c(F)c4F)c4nc(c(-c5c(F)c(F)c(F)c(F)c5F)c5ccc2[nH]5)C=C4)C=C3)cc1
REMARK SMILES IDX 16 1 17 2 18 3 13 5 14 6 15 7 12 8 11 9 10 10 4 11 5 12 6 13
REMARK SMILES IDX 9 14 7 15 8 16 2 17 1 18 3 19 19 23 20 24 21 25 22 26 23 27
REMARK SMILES IDX 24 29 25 30 26 31 87 32 27 33 86 34 28 35 29 36 30 37 80 38
REMARK SMILES IDX 31 39 85 40 79 41 81 42 32 43 84 44 78 45 77 46 33 48 65 49
REMARK SMILES IDX 45 50 64 51 46 52 49 53 63 54 82 55 47 56 48 57 62 59 83 60
REMARK SMILES IDX 50 61 34 62 35 63 43 64 36 65 37 66 41 67 44 68 38 69 39 70
REMARK SMILES IDX 42 71 40 72 66 73 67 74 75 75 68 76 69 77 73 78 76 79 70 80
REMARK SMILES IDX 71 81 74 82 72 83 51 84 52 85 60 86 53 87 54 88 58 89 61 90
REMARK SMILES IDX 55 91 56 92 59 93 57 94
REMARK H PARENT 18 4 3 20 3 21 3 22 22 28 81 47 49 58
REMARK Flexibility Score: inf
ROOT
ATOM      1  C   UNL A   1      31.716  29.136  24.510  1.00  0.00     0.229 C 
ATOM      2  O   UNL A   1      31.312  28.932  23.366  1.00  0.00    -0.274 OA
ATOM      3  N   UNL A   1      31.407  30.347  25.084  1.00  0.00    -0.355 N 
ATOM      4  H   UNL A   1      30.964  30.992  24.487  1.00  0.00     0.163 HD
ENDROOT
BRANCH   1   5
ATOM      5  C   UNL A   1      32.580  28.129  25.291  1.00  0.00     0.077 C 
ATOM      6  C   UNL A   1      31.773  27.704  26.538  1.00  0.00     0.025 C 
ATOM      7  C   UNL A   1      33.900  28.884  25.621  1.00  0.00     0.025 C 
BRANCH   5   8
ATOM      8  C   UNL A   1      33.046  26.930  24.395  1.00  0.00     0.245 C 
BRANCH   8   9
ATOM      9  O   UNL A   1      32.634  25.623  24.756  1.00  0.00    -0.492 OA
BRANCH   9  10
ATOM     10  C   UNL A   1      33.345  24.717  25.490  1.00  0.00     0.131 A 
ATOM     11  C   UNL A   1      32.943  23.647  26.330  1.00  0.00     0.051 A 
ATOM     12  C   UNL A   1      33.959  22.758  26.774  1.00  0.00     0.017 A 
ATOM     13  C   UNL A   1      35.298  22.907  26.413  1.00  0.00     0.040 A 
ATOM     14  C   UNL A   1      34.713  24.886  25.193  1.00  0.00     0.086 A 
ATOM     15  C   UNL A   1      35.665  23.986  25.636  1.00  0.00     0.126 A 
ATOM     16  F   UNL A   1      36.946  24.141  25.277  1.00  0.00    -0.207 F 
BRANCH  11  17
ATOM     17  C   UNL A   1      31.519  23.323  26.766  1.00  0.00     0.212 C 
ATOM     18  C   UNL A   1      30.894  22.204  25.939  1.00  0.00     0.081 C 
BRANCH  17  19
ATOM     19  N   UNL A   1      30.632  24.502  26.768  1.00  0.00    -0.351 N 
ATOM     20  H   UNL A   1      29.681  24.212  26.995  1.00  0.00     0.345 HD
ATOM     21  H   UNL A   1      30.643  24.937  25.845  1.00  0.00     0.345 HD
ATOM     22  H   UNL A   1      30.959  25.172  27.463  1.00  0.00     0.345 HD
ENDBRANCH  17  19
ENDBRANCH  11  17
ENDBRANCH   9  10
ENDBRANCH   8   9
ENDBRANCH   5   8
ENDBRANCH   1   5
BRANCH   3  23
ATOM     23  C   UNL A   1      31.641  30.819  26.446  1.00  0.00     0.117 C 
BRANCH  23  24
ATOM     24  C   UNL A   1      31.486  32.311  26.593  1.00  0.00     0.042 C 
BRANCH  24  25
ATOM     25  C   UNL A   1      32.656  32.919  27.330  1.00  0.00     0.118 C 
BRANCH  25  26
ATOM     26  N   UNL A   1      32.436  34.326  27.667  1.00  0.00    -0.352 N 
ATOM     27  C   UNL A   1      33.017  35.085  28.651  1.00  0.00     0.251 C 
ATOM     28  H   UNL A   1      31.776  34.795  27.107  1.00  0.00     0.163 HD
ATOM     29  O   UNL A   1      32.586  36.200  28.925  1.00  0.00    -0.269 OA
BRANCH  27  30
ATOM     30  C   UNL A   1      34.156  34.519  29.394  1.00  0.00     0.039 A 
ATOM     31  C   UNL A   1      33.924  33.776  30.551  1.00  0.00     0.014 A 
ATOM     32  C   UNL A   1      35.447  34.662  28.882  1.00  0.00     0.014 A 
ATOM     33  C   UNL A   1      34.987  33.102  31.148  1.00  0.00     0.010 A 
ATOM     34  C   UNL A   1      36.468  33.881  29.391  1.00  0.00     0.010 A 
ATOM     35  C   UNL A   1      36.255  33.112  30.543  1.00  0.00    -0.014 A 
BRANCH  35  36
ATOM     36  C   UNL A   1      37.401  32.367  31.112  1.00  0.00     0.031 A 
ATOM     37  C   UNL A   1      37.898  32.726  32.484  1.00  0.00     0.074 A 
ATOM     38  C   UNL A   1      38.033  31.437  30.373  1.00  0.00     0.049 A 
ATOM     39  N   UNL A   1      38.951  32.289  33.123  1.00  0.00    -0.248 NA
ATOM     40  C   UNL A   1      37.134  33.749  33.220  1.00  0.00     0.031 C 
ATOM     41  C   UNL A   1      37.671  31.045  29.010  1.00  0.00     0.029 A 
ATOM     42  N   UNL A   1      39.115  30.649  30.667  1.00  0.00    -0.354 N 
ATOM     43  C   UNL A   1      38.985  33.000  34.316  1.00  0.00     0.074 A 
ATOM     44  C   UNL A   1      37.898  33.950  34.280  1.00  0.00     0.031 C 
ATOM     45  C   UNL A   1      38.484  30.056  28.605  1.00  0.00     0.029 A 
ATOM     46  C   UNL A   1      39.450  29.775  29.662  1.00  0.00     0.049 A 
ATOM     47  H   UNL A   1      39.607  30.705  31.519  1.00  0.00     0.167 HD
ATOM     48  C   UNL A   1      39.821  32.842  35.365  1.00  0.00     0.037 A 
ATOM     49  C   UNL A   1      40.424  28.847  29.609  1.00  0.00     0.037 A 
ATOM     50  C   UNL A   1      40.867  31.858  35.413  1.00  0.00     0.049 A 
ATOM     51  C   UNL A   1      41.337  28.684  30.793  1.00  0.00     0.074 A 
ATOM     52  C   UNL A   1      41.742  31.579  36.445  1.00  0.00     0.029 A 
ATOM     53  N   UNL A   1      41.164  30.980  34.380  1.00  0.00    -0.354 N 
ATOM     54  N   UNL A   1      41.339  29.336  31.930  1.00  0.00    -0.248 NA
ATOM     55  C   UNL A   1      42.384  27.657  30.686  1.00  0.00     0.031 C 
ATOM     56  C   UNL A   1      42.591  30.551  36.026  1.00  0.00     0.029 A 
ATOM     57  C   UNL A   1      42.216  30.161  34.750  1.00  0.00     0.049 A 
ATOM     58  H   UNL A   1      40.696  30.944  33.515  1.00  0.00     0.167 HD
ATOM     59  C   UNL A   1      42.366  28.785  32.684  1.00  0.00     0.074 A 
ATOM     60  C   UNL A   1      42.959  27.738  31.878  1.00  0.00     0.031 C 
ATOM     61  C   UNL A   1      42.781  29.117  33.931  1.00  0.00     0.037 A 
BRANCH  48  62
ATOM     62  C   UNL A   1      39.615  33.732  36.555  1.00  0.00     0.064 A 
ATOM     63  C   UNL A   1      38.797  33.327  37.620  1.00  0.00     0.173 A 
ATOM     64  C   UNL A   1      40.209  35.002  36.630  1.00  0.00     0.173 A 
ATOM     65  F   UNL A   1      38.206  32.122  37.599  1.00  0.00    -0.203 F 
ATOM     66  C   UNL A   1      38.578  34.163  38.712  1.00  0.00     0.198 A 
ATOM     67  C   UNL A   1      40.014  35.821  37.738  1.00  0.00     0.198 A 
ATOM     68  F   UNL A   1      41.015  35.429  35.646  1.00  0.00    -0.203 F 
ATOM     69  F   UNL A   1      37.776  33.763  39.708  1.00  0.00    -0.200 F 
ATOM     70  C   UNL A   1      39.192  35.405  38.774  1.00  0.00     0.200 A 
ATOM     71  F   UNL A   1      40.634  37.007  37.809  1.00  0.00    -0.200 F 
ATOM     72  F   UNL A   1      38.997  36.198  39.836  1.00  0.00    -0.200 F 
ENDBRANCH  48  62
BRANCH  49  73
ATOM     73  C   UNL A   1      40.534  27.966  28.420  1.00  0.00     0.064 A 
ATOM     74  C   UNL A   1      39.915  26.709  28.373  1.00  0.00     0.173 A 
ATOM     75  C   UNL A   1      41.304  28.356  27.315  1.00  0.00     0.173 A 
ATOM     76  F   UNL A   1      39.174  26.286  29.408  1.00  0.00    -0.203 F 
ATOM     77  C   UNL A   1      40.078  25.867  27.274  1.00  0.00     0.198 A 
ATOM     78  C   UNL A   1      41.449  27.524  26.208  1.00  0.00     0.198 A 
ATOM     79  F   UNL A   1      41.903  29.557  27.308  1.00  0.00    -0.203 F 
ATOM     80  F   UNL A   1      39.504  24.657  27.268  1.00  0.00    -0.200 F 
ATOM     81  C   UNL A   1      40.842  26.277  26.190  1.00  0.00     0.200 A 
ATOM     82  F   UNL A   1      42.173  27.931  25.156  1.00  0.00    -0.200 F 
ATOM     83  F   UNL A   1      40.994  25.470  25.132  1.00  0.00    -0.200 F 
ENDBRANCH  49  73
BRANCH  61  84
ATOM     84  C   UNL A   1      43.912  28.330  34.519  1.00  0.00     0.064 A 
ATOM     85  C   UNL A   1      45.239  28.738  34.315  1.00  0.00     0.173 A 
ATOM     86  C   UNL A   1      43.686  27.127  35.202  1.00  0.00     0.173 A 
ATOM     87  F   UNL A   1      45.503  29.877  33.657  1.00  0.00    -0.203 F 
ATOM     88  C   UNL A   1      46.301  27.956  34.757  1.00  0.00     0.198 A 
ATOM     89  C   UNL A   1      44.751  26.362  35.667  1.00  0.00     0.198 A 
ATOM     90  F   UNL A   1      42.433  26.705  35.431  1.00  0.00    -0.203 F 
ATOM     91  F   UNL A   1      47.561  28.344  34.518  1.00  0.00    -0.200 F 
ATOM     92  C   UNL A   1      46.057  26.771  35.434  1.00  0.00     0.200 A 
ATOM     93  F   UNL A   1      44.515  25.227  36.339  1.00  0.00    -0.200 F 
ATOM     94  F   UNL A   1      47.081  26.021  35.864  1.00  0.00    -0.200 F 
ENDBRANCH  61  84
ENDBRANCH  35  36
ENDBRANCH  27  30
ENDBRANCH  25  26
ENDBRANCH  24  25
ENDBRANCH  23  24
ENDBRANCH   3  23
TORSDOF 15
ENDMDL
MODEL 2
REMARK VINA RESULT:     -11.8      0.978      7.391
REMARK SMILES C[C@H]([NH3+])c1ccc(F)cc1OCC(C)(C)C(=O)NCCCNC(=O)c1ccc(-c2c3nc(c(-c4c(F)c(F)c(F)c(F)c4F)c4ccc([nH]4)c(-c4c(F)c(F)c(F)c(F)c4F)c4nc(c(-c5c(F)c(F)c(F)c(F)c5F)c5ccc2[nH]5)C=C4)C=C3)cc1
REMARK SMILES IDX 16 1 17 2 18 3 13 5 14 6 15 7 12 8 11 9 10 10 4 11 5 12 6 13
REMARK SMILES IDX 9 14 7 15 8 16 2 17 1 18 3 19 19 23 20 24 21 25 22 26 23 27
REMARK SMILES IDX 24 29 25 30 26 31 87 32 27 33 86 34 28 35 29 36 30 37 80 38
REMARK SMILES IDX 31 39 85 40 79 41 81 42 32 43 84 44 78 45 77 46 33 48 65 49
REMARK SMILES IDX 45 50 64 51 46 52 49 53 63 54 82 55 47 56 48 57 62 59 83 60
REMARK SMILES IDX 50 61 34 62 35 63 43 64 36 65 37 66 41 67 44 68 38 69 39 70
REMARK SMILES IDX 42 71 40 72 66 73 67 74 75 75 68 76 69 77 73 78 76 79 70 80
REMARK SMILES IDX 71 81 74 82 72 83 51 84 52 85 60 86 53 87 54 88 58 89 61 90
REMARK SMILES IDX 55 91 56 92 59 93 57 94
REMARK H PARENT 18 4 3 20 3 21 3 22 22 28 81 47 49 58
REMARK Flexibility Score: inf
ROOT
ATOM      1  C   UNL A   1      31.542  28.837  24.726  1.00  0.00     0.229 C 
ATOM      2  O   UNL A   1      30.974  28.666  23.649  1.00  0.00    -0.274 OA
ATOM      3  N   UNL A   1      31.565  30.115  25.234  1.00  0.00    -0.355 N 
ATOM      4  H   UNL A   1      31.201  30.809  24.638  1.00  0.00     0.163 HD
ENDROOT
BRANCH   1   5
ATOM      5  C   UNL A   1      32.259  27.709  25.489  1.00  0.00     0.077 C 
ATOM      6  C   UNL A   1      31.549  27.555  26.852  1.00  0.00     0.025 C 
ATOM      7  C   UNL A   1      33.744  28.162  25.599  1.00  0.00     0.025 C 
BRANCH   5   8
ATOM      8  C   UNL A   1      32.330  26.383  24.656  1.00  0.00     0.245 C 
BRANCH   8   9
ATOM      9  O   UNL A   1      32.645  25.180  25.334  1.00  0.00    -0.492 OA
BRANCH   9  10
ATOM     10  C   UNL A   1      33.488  24.195  24.902  1.00  0.00     0.131 A 
ATOM     11  C   UNL A   1      33.284  23.068  24.066  1.00  0.00     0.051 A 
ATOM     12  C   UNL A   1      34.442  22.362  23.640  1.00  0.00     0.017 A 
ATOM     13  C   UNL A   1      35.732  22.741  24.013  1.00  0.00     0.040 A 
ATOM     14  C   UNL A   1      34.795  24.520  25.319  1.00  0.00     0.086 A 
ATOM     15  C   UNL A   1      35.894  23.812  24.867  1.00  0.00     0.126 A 
ATOM     16  F   UNL A   1      37.126  24.192  25.231  1.00  0.00    -0.207 F 
BRANCH  11  17
ATOM     17  C   UNL A   1      31.947  22.564  23.533  1.00  0.00     0.212 C 
ATOM     18  C   UNL A   1      32.103  21.364  22.605  1.00  0.00     0.081 C 
BRANCH  17  19
ATOM     19  N   UNL A   1      31.156  23.616  22.867  1.00  0.00    -0.351 N 
ATOM     20  H   UNL A   1      30.940  24.354  23.538  1.00  0.00     0.345 HD
ATOM     21  H   UNL A   1      30.289  23.215  22.513  1.00  0.00     0.345 HD
ATOM     22  H   UNL A   1      31.693  24.006  22.093  1.00  0.00     0.345 HD
ENDBRANCH  17  19
ENDBRANCH  11  17
ENDBRANCH   9  10
ENDBRANCH   8   9
ENDBRANCH   5   8
ENDBRANCH   1   5
BRANCH   3  23
ATOM     23  C   UNL A   1      32.050  30.596  26.524  1.00  0.00     0.117 C 
BRANCH  23  24
ATOM     24  C   UNL A   1      31.701  32.038  26.791  1.00  0.00     0.042 C 
BRANCH  24  25
ATOM     25  C   UNL A   1      32.842  32.770  27.458  1.00  0.00     0.118 C 
BRANCH  25  26
ATOM     26  N   UNL A   1      32.543  34.184  27.686  1.00  0.00    -0.352 N 
ATOM     27  C   UNL A   1      33.045  35.036  28.637  1.00  0.00     0.251 C 
ATOM     28  H   UNL A   1      31.888  34.581  27.068  1.00  0.00     0.163 HD
ATOM     29  O   UNL A   1      32.551  36.144  28.815  1.00  0.00    -0.269 OA
BRANCH  27  30
ATOM     30  C   UNL A   1      34.174  34.577  29.465  1.00  0.00     0.039 A 
ATOM     31  C   UNL A   1      33.927  33.998  30.709  1.00  0.00     0.014 A 
ATOM     32  C   UNL A   1      35.471  34.651  28.954  1.00  0.00     0.014 A 
ATOM     33  C   UNL A   1      34.982  33.413  31.405  1.00  0.00     0.010 A 
ATOM     34  C   UNL A   1      36.486  33.948  29.578  1.00  0.00     0.010 A 
ATOM     35  C   UNL A   1      36.258  33.342  30.821  1.00  0.00    -0.014 A 
BRANCH  35  36
ATOM     36  C   UNL A   1      37.396  32.683  31.500  1.00  0.00     0.031 A 
ATOM     37  C   UNL A   1      38.110  31.558  30.805  1.00  0.00     0.074 A 
ATOM     38  C   UNL A   1      37.730  33.039  32.754  1.00  0.00     0.049 A 
ATOM     39  N   UNL A   1      39.048  30.768  31.258  1.00  0.00    -0.248 NA
ATOM     40  C   UNL A   1      37.681  31.249  29.430  1.00  0.00     0.031 C 
ATOM     41  C   UNL A   1      37.071  34.080  33.545  1.00  0.00     0.029 A 
ATOM     42  N   UNL A   1      38.710  32.563  33.585  1.00  0.00    -0.354 N 
ATOM     43  C   UNL A   1      39.297  29.862  30.236  1.00  0.00     0.074 A 
ATOM     44  C   UNL A   1      38.362  30.145  29.173  1.00  0.00     0.031 C 
ATOM     45  C   UNL A   1      37.698  34.198  34.726  1.00  0.00     0.029 A 
ATOM     46  C   UNL A   1      38.773  33.214  34.792  1.00  0.00     0.049 A 
ATOM     47  H   UNL A   1      39.312  31.824  33.339  1.00  0.00     0.167 HD
ATOM     48  C   UNL A   1      40.251  28.906  30.174  1.00  0.00     0.037 A 
ATOM     49  C   UNL A   1      39.613  33.037  35.830  1.00  0.00     0.037 A 
ATOM     50  C   UNL A   1      41.211  28.667  31.216  1.00  0.00     0.049 A 
ATOM     51  C   UNL A   1      40.672  31.974  35.734  1.00  0.00     0.074 A 
ATOM     52  C   UNL A   1      42.251  27.757  31.237  1.00  0.00     0.029 A 
ATOM     53  N   UNL A   1      41.253  29.359  32.418  1.00  0.00    -0.354 N 
ATOM     54  N   UNL A   1      40.923  31.145  34.750  1.00  0.00    -0.248 NA
ATOM     55  C   UNL A   1      41.564  31.820  36.892  1.00  0.00     0.031 C 
ATOM     56  C   UNL A   1      42.905  27.877  32.466  1.00  0.00     0.029 A 
ATOM     57  C   UNL A   1      42.299  28.891  33.192  1.00  0.00     0.049 A 
ATOM     58  H   UNL A   1      40.631  30.076  32.680  1.00  0.00     0.167 HD
ATOM     59  C   UNL A   1      42.014  30.389  35.156  1.00  0.00     0.074 A 
ATOM     60  C   UNL A   1      42.384  30.865  36.473  1.00  0.00     0.031 C 
ATOM     61  C   UNL A   1      42.652  29.391  34.497  1.00  0.00     0.037 A 
BRANCH  48  62
ATOM     62  C   UNL A   1      40.320  28.077  28.926  1.00  0.00     0.064 A 
ATOM     63  C   UNL A   1      39.659  26.842  28.849  1.00  0.00     0.173 A 
ATOM     64  C   UNL A   1      41.064  28.494  27.811  1.00  0.00     0.173 A 
ATOM     65  F   UNL A   1      38.933  26.397  29.886  1.00  0.00    -0.203 F 
ATOM     66  C   UNL A   1      39.745  26.055  27.704  1.00  0.00     0.198 A 
ATOM     67  C   UNL A   1      41.122  27.718  26.657  1.00  0.00     0.198 A 
ATOM     68  F   UNL A   1      41.700  29.675  27.828  1.00  0.00    -0.203 F 
ATOM     69  F   UNL A   1      39.123  24.869  27.661  1.00  0.00    -0.200 F 
ATOM     70  C   UNL A   1      40.470  26.496  26.607  1.00  0.00     0.200 A 
ATOM     71  F   UNL A   1      41.797  28.162  25.587  1.00  0.00    -0.200 F 
ATOM     72  F   UNL A   1      40.534  25.746  25.498  1.00  0.00    -0.200 F 
ENDBRANCH  48  62
BRANCH  49  73
ATOM     73  C   UNL A   1      39.519  33.932  37.010  1.00  0.00     0.064 A 
ATOM     74  C   UNL A   1      38.768  33.584  38.142  1.00  0.00     0.173 A 
ATOM     75  C   UNL A   1      40.153  35.182  37.007  1.00  0.00     0.173 A 
ATOM     76  F   UNL A   1      38.135  32.403  38.191  1.00  0.00    -0.203 F 
ATOM     77  C   UNL A   1      38.639  34.462  39.217  1.00  0.00     0.198 A 
ATOM     78  C   UNL A   1      40.043  36.049  38.091  1.00  0.00     0.198 A 
ATOM     79  F   UNL A   1      40.896  35.551  35.952  1.00  0.00    -0.203 F 
ATOM     80  F   UNL A   1      37.887  34.120  40.272  1.00  0.00    -0.200 F 
ATOM     81  C   UNL A   1      39.280  35.693  39.192  1.00  0.00     0.200 A 
ATOM     82  F   UNL A   1      40.678  37.229  38.070  1.00  0.00    -0.200 F 
ATOM     83  F   UNL A   1      39.160  36.533  40.228  1.00  0.00    -0.200 F 
ENDBRANCH  49  73
BRANCH  61  84
ATOM     84  C   UNL A   1      43.830  28.757  35.171  1.00  0.00     0.064 A 
ATOM     85  C   UNL A   1      45.130  29.211  34.898  1.00  0.00     0.173 A 
ATOM     86  C   UNL A   1      43.681  27.645  36.011  1.00  0.00     0.173 A 
ATOM     87  F   UNL A   1      45.322  30.266  34.092  1.00  0.00    -0.203 F 
ATOM     88  C   UNL A   1      46.239  28.560  35.427  1.00  0.00     0.198 A 
ATOM     89  C   UNL A   1      44.791  27.013  36.560  1.00  0.00     0.198 A 
ATOM     90  F   UNL A   1      42.456  27.184  36.309  1.00  0.00    -0.203 F 
ATOM     91  F   UNL A   1      47.472  28.986  35.124  1.00  0.00    -0.200 F 
ATOM     92  C   UNL A   1      46.069  27.463  36.260  1.00  0.00     0.200 A 
ATOM     93  F   UNL A   1      44.626  25.966  37.381  1.00  0.00    -0.200 F 
ATOM     94  F   UNL A   1      47.138  26.839  36.773  1.00  0.00    -0.200 F 
ENDBRANCH  61  84
ENDBRANCH  35  36
ENDBRANCH  27  30
ENDBRANCH  25  26
ENDBRANCH  24  25
ENDBRANCH  23  24
ENDBRANCH   3  23
TORSDOF 15
ENDMDL
MODEL 3
REMARK VINA RESULT:     -11.8      1.054      1.739
REMARK SMILES C[C@H]([NH3+])c1ccc(F)cc1OCC(C)(C)C(=O)NCCCNC(=O)c1ccc(-c2c3nc(c(-c4c(F)c(F)c(F)c(F)c4F)c4ccc([nH]4)c(-c4c(F)c(F)c(F)c(F)c4F)c4nc(c(-c5c(F)c(F)c(F)c(F)c5F)c5ccc2[nH]5)C=C4)C=C3)cc1
REMARK SMILES IDX 16 1 17 2 18 3 13 5 14 6 15 7 12 8 11 9 10 10 4 11 5 12 6 13
REMARK SMILES IDX 9 14 7 15 8 16 2 17 1 18 3 19 19 23 20 24 21 25 22 26 23 27
REMARK SMILES IDX 24 29 25 30 26 31 87 32 27 33 86 34 28 35 29 36 30 37 80 38
REMARK SMILES IDX 31 39 85 40 79 41 81 42 32 43 84 44 78 45 77 46 33 48 65 49
REMARK SMILES IDX 45 50 64 51 46 52 49 53 63 54 82 55 47 56 48 57 62 59 83 60
REMARK SMILES IDX 50 61 34 62 35 63 43 64 36 65 37 66 41 67 44 68 38 69 39 70
REMARK SMILES IDX 42 71 40 72 66 73 67 74 75 75 68 76 69 77 73 78 76 79 70 80
REMARK SMILES IDX 71 81 74 82 72 83 51 84 52 85 60 86 53 87 54 88 58 89 61 90
REMARK SMILES IDX 55 91 56 92 59 93 57 94
REMARK H PARENT 18 4 3 20 3 21 3 22 22 28 81 47 49 58
REMARK Flexibility Score: inf
ROOT
ATOM      1  C   UNL A   1      33.710  29.172  26.821  1.00  0.00     0.229 C 
ATOM      2  O   UNL A   1      34.815  29.039  27.345  1.00  0.00    -0.274 OA
ATOM      3  N   UNL A   1      33.018  30.331  27.085  1.00  0.00    -0.355 N 
ATOM      4  H   UNL A   1      33.432  30.921  27.756  1.00  0.00     0.163 HD
ENDROOT
BRANCH   1   5
ATOM      5  C   UNL A   1      33.060  28.090  25.939  1.00  0.00     0.077 C 
ATOM      6  C   UNL A   1      32.737  28.744  24.577  1.00  0.00     0.025 C 
ATOM      7  C   UNL A   1      31.804  27.614  26.724  1.00  0.00     0.025 C 
BRANCH   5   8
ATOM      8  C   UNL A   1      33.948  26.803  25.832  1.00  0.00     0.245 C 
BRANCH   8   9
ATOM      9  O   UNL A   1      33.304  25.540  25.842  1.00  0.00    -0.492 OA
BRANCH   9  10
ATOM     10  C   UNL A   1      33.220  24.659  24.801  1.00  0.00     0.131 A 
ATOM     11  C   UNL A   1      32.127  24.225  24.008  1.00  0.00     0.051 A 
ATOM     12  C   UNL A   1      32.433  23.453  22.855  1.00  0.00     0.017 A 
ATOM     13  C   UNL A   1      33.741  23.124  22.497  1.00  0.00     0.040 A 
ATOM     14  C   UNL A   1      34.527  24.259  24.456  1.00  0.00     0.086 A 
ATOM     15  C   UNL A   1      34.778  23.518  23.315  1.00  0.00     0.126 A 
ATOM     16  F   UNL A   1      36.040  23.215  22.983  1.00  0.00    -0.207 F 
BRANCH  11  17
ATOM     17  C   UNL A   1      30.655  24.547  24.240  1.00  0.00     0.212 C 
ATOM     18  C   UNL A   1      30.263  25.916  23.695  1.00  0.00     0.081 C 
BRANCH  17  19
ATOM     19  N   UNL A   1      30.255  24.435  25.655  1.00  0.00    -0.351 N 
ATOM     20  H   UNL A   1      29.237  24.412  25.720  1.00  0.00     0.345 HD
ATOM     21  H   UNL A   1      30.610  25.238  26.173  1.00  0.00     0.345 HD
ATOM     22  H   UNL A   1      30.640  23.578  26.051  1.00  0.00     0.345 HD
ENDBRANCH  17  19
ENDBRANCH  11  17
ENDBRANCH   9  10
ENDBRANCH   8   9
ENDBRANCH   5   8
ENDBRANCH   1   5
BRANCH   3  23
ATOM     23  C   UNL A   1      31.761  30.815  26.522  1.00  0.00     0.117 C 
BRANCH  23  24
ATOM     24  C   UNL A   1      31.532  32.286  26.756  1.00  0.00     0.042 C 
BRANCH  24  25
ATOM     25  C   UNL A   1      32.737  32.939  27.393  1.00  0.00     0.118 C 
BRANCH  25  26
ATOM     26  N   UNL A   1      32.498  34.342  27.734  1.00  0.00    -0.352 N 
ATOM     27  C   UNL A   1      33.065  35.104  28.725  1.00  0.00     0.251 C 
ATOM     28  H   UNL A   1      31.836  34.806  27.172  1.00  0.00     0.163 HD
ATOM     29  O   UNL A   1      32.619  36.212  29.001  1.00  0.00    -0.269 OA
BRANCH  27  30
ATOM     30  C   UNL A   1      34.206  34.547  29.472  1.00  0.00     0.039 A 
ATOM     31  C   UNL A   1      33.979  33.854  30.661  1.00  0.00     0.014 A 
ATOM     32  C   UNL A   1      35.491  34.648  28.936  1.00  0.00     0.014 A 
ATOM     33  C   UNL A   1      35.040  33.185  31.268  1.00  0.00     0.010 A 
ATOM     34  C   UNL A   1      36.507  33.871  29.461  1.00  0.00     0.010 A 
ATOM     35  C   UNL A   1      36.299  33.151  30.645  1.00  0.00    -0.014 A 
BRANCH  35  36
ATOM     36  C   UNL A   1      37.441  32.409  31.225  1.00  0.00     0.031 A 
ATOM     37  C   UNL A   1      37.930  32.777  32.598  1.00  0.00     0.074 A 
ATOM     38  C   UNL A   1      38.076  31.473  30.497  1.00  0.00     0.049 A 
ATOM     39  N   UNL A   1      38.979  32.344  33.246  1.00  0.00    -0.248 NA
ATOM     40  C   UNL A   1      37.162  33.805  33.322  1.00  0.00     0.031 C 
ATOM     41  C   UNL A   1      37.722  31.073  29.133  1.00  0.00     0.029 A 
ATOM     42  N   UNL A   1      39.157  30.687  30.802  1.00  0.00    -0.354 N 
ATOM     43  C   UNL A   1      39.006  33.063  34.434  1.00  0.00     0.074 A 
ATOM     44  C   UNL A   1      37.920  34.014  34.385  1.00  0.00     0.031 C 
ATOM     45  C   UNL A   1      38.538  30.081  28.741  1.00  0.00     0.029 A 
ATOM     46  C   UNL A   1      39.497  29.807  29.805  1.00  0.00     0.049 A 
ATOM     47  H   UNL A   1      39.643  30.748  31.656  1.00  0.00     0.167 HD
ATOM     48  C   UNL A   1      39.836  32.912  35.489  1.00  0.00     0.037 A 
ATOM     49  C   UNL A   1      40.471  28.878  29.764  1.00  0.00     0.037 A 
ATOM     50  C   UNL A   1      40.881  31.928  35.550  1.00  0.00     0.049 A 
ATOM     51  C   UNL A   1      41.377  28.722  30.954  1.00  0.00     0.074 A 
ATOM     52  C   UNL A   1      41.750  31.655  36.589  1.00  0.00     0.029 A 
ATOM     53  N   UNL A   1      41.184  31.042  34.525  1.00  0.00    -0.354 N 
ATOM     54  N   UNL A   1      41.373  29.381  32.087  1.00  0.00    -0.248 NA
ATOM     55  C   UNL A   1      42.423  27.694  30.860  1.00  0.00     0.031 C 
ATOM     56  C   UNL A   1      42.601  30.624  36.183  1.00  0.00     0.029 A 
ATOM     57  C   UNL A   1      42.233  30.225  34.906  1.00  0.00     0.049 A 
ATOM     58  H   UNL A   1      40.721  31.001  33.657  1.00  0.00     0.167 HD
ATOM     59  C   UNL A   1      42.394  28.835  32.851  1.00  0.00     0.074 A 
ATOM     60  C   UNL A   1      42.992  27.783  32.056  1.00  0.00     0.031 C 
ATOM     61  C   UNL A   1      42.802  29.176  34.098  1.00  0.00     0.037 A 
BRANCH  48  62
ATOM     62  C   UNL A   1      39.624  33.810  36.672  1.00  0.00     0.064 A 
ATOM     63  C   UNL A   1      38.815  33.405  37.743  1.00  0.00     0.173 A 
ATOM     64  C   UNL A   1      40.202  35.088  36.733  1.00  0.00     0.173 A 
ATOM     65  F   UNL A   1      38.238  32.193  37.736  1.00  0.00    -0.203 F 
ATOM     66  C   UNL A   1      38.590  34.247  38.829  1.00  0.00     0.198 A 
ATOM     67  C   UNL A   1      40.001  35.915  37.834  1.00  0.00     0.198 A 
ATOM     68  F   UNL A   1      40.999  35.516  35.742  1.00  0.00    -0.203 F 
ATOM     69  F   UNL A   1      37.796  33.847  39.832  1.00  0.00    -0.200 F 
ATOM     70  C   UNL A   1      39.188  35.498  38.877  1.00  0.00     0.200 A 
ATOM     71  F   UNL A   1      40.606  37.109  37.893  1.00  0.00    -0.200 F 
ATOM     72  F   UNL A   1      38.987  36.298  39.933  1.00  0.00    -0.200 F 
ENDBRANCH  48  62
BRANCH  49  73
ATOM     73  C   UNL A   1      40.587  27.989  28.581  1.00  0.00     0.064 A 
ATOM     74  C   UNL A   1      41.335  28.355  27.453  1.00  0.00     0.173 A 
ATOM     75  C   UNL A   1      39.909  26.763  28.545  1.00  0.00     0.173 A 
ATOM     76  F   UNL A   1      41.995  29.523  27.435  1.00  0.00    -0.203 F 
ATOM     77  C   UNL A   1      41.384  27.537  26.326  1.00  0.00     0.198 A 
ATOM     78  C   UNL A   1      39.976  25.935  27.427  1.00  0.00     0.198 A 
ATOM     79  F   UNL A   1      39.194  26.362  29.607  1.00  0.00    -0.203 F 
ATOM     80  F   UNL A   1      42.077  27.926  25.247  1.00  0.00    -0.200 F 
ATOM     81  C   UNL A   1      40.707  26.325  26.315  1.00  0.00     0.200 A 
ATOM     82  F   UNL A   1      39.336  24.757  27.427  1.00  0.00    -0.200 F 
ATOM     83  F   UNL A   1      40.759  25.537  25.234  1.00  0.00    -0.200 F 
ENDBRANCH  49  73
BRANCH  61  84
ATOM     84  C   UNL A   1      43.929  28.393  34.698  1.00  0.00     0.064 A 
ATOM     85  C   UNL A   1      45.258  28.796  34.497  1.00  0.00     0.173 A 
ATOM     86  C   UNL A   1      43.699  27.196  35.390  1.00  0.00     0.173 A 
ATOM     87  F   UNL A   1      45.527  29.929  33.831  1.00  0.00    -0.203 F 
ATOM     88  C   UNL A   1      46.317  28.017  34.950  1.00  0.00     0.198 A 
ATOM     89  C   UNL A   1      44.760  26.433  35.866  1.00  0.00     0.198 A 
ATOM     90  F   UNL A   1      42.444  26.777  35.616  1.00  0.00    -0.203 F 
ATOM     91  F   UNL A   1      47.579  28.401  34.714  1.00  0.00    -0.200 F 
ATOM     92  C   UNL A   1      46.068  26.838  35.637  1.00  0.00     0.200 A 
ATOM     93  F   UNL A   1      44.519  25.304  36.547  1.00  0.00    -0.200 F 
ATOM     94  F   UNL A   1      47.088  26.090  36.078  1.00  0.00    -0.200 F 
ENDBRANCH  61  84
ENDBRANCH  35  36
ENDBRANCH  27  30
ENDBRANCH  25  26
ENDBRANCH  24  25
ENDBRANCH  23  24
ENDBRANCH   3  23
TORSDOF 15
ENDMDL
