MODEL 1
REMARK VINA RESULT:     -11.1      0.000      0.000
REMARK SMILES N#C/C(=C\c1cccn1-c1cccc(C(=O)NCCCNC(=O)c2ccc(-c3c4nc(c(-c5c(F)c(F)c(F)c(F)c5F)c5ccc([nH]5)c(-c5c(F)c(F)c(F)c(F)c5F)c5nc(c(-c6c(F)c(F)c(F)c(F)c6F)c6ccc3[nH]6)C=C5)C=C4)cc2)c1)C(=O)Nc1cccc(Cl)c1
REMARK SMILES IDX 18 1 17 2 15 3 16 4 14 6 10 7 11 8 87 9 12 10 13 11 9 12
REMARK SMILES IDX 5 13 6 14 7 15 8 16 4 17 3 18 2 19 1 20 88 21 89 22 90 23
REMARK SMILES IDX 91 25 92 26 97 27 93 28 95 29 94 30 96 31 19 32 20 33 21 34
REMARK SMILES IDX 22 35 23 37 24 38 25 39 86 40 26 41 85 42 27 43 28 44 29 45
REMARK SMILES IDX 79 46 30 47 84 48 78 49 80 50 31 51 83 52 77 53 76 54 32 56
REMARK SMILES IDX 64 57 44 58 63 59 45 60 48 61 62 62 81 63 46 64 47 65 61 67
REMARK SMILES IDX 82 68 49 69 33 70 34 71 42 72 35 73 36 74 40 75 43 76 37 77
REMARK SMILES IDX 38 78 41 79 39 80 65 81 66 82 74 83 67 84 68 85 72 86 75 87
REMARK SMILES IDX 69 88 70 89 73 90 71 91 50 92 51 93 59 94 52 95 53 96 57 97
REMARK SMILES IDX 60 98 54 99 55 100 58 101 56 102
REMARK H PARENT 17 5 90 24 21 36 80 55 48 66
REMARK Flexibility Score: inf
ROOT
ATOM      1  C   UNL A   1      41.954  30.706  35.328  1.00  0.00     0.118 C 
ENDROOT
BRANCH   1   2
ATOM      2  N   UNL A   1      40.523  30.841  35.111  1.00  0.00    -0.352 N 
ATOM      3  C   UNL A   1      39.737  30.870  33.982  1.00  0.00     0.251 C 
ATOM      4  O   UNL A   1      38.517  30.889  34.153  1.00  0.00    -0.269 OA
ATOM      5  H   UNL A   1      40.009  30.929  35.945  1.00  0.00     0.163 HD
BRANCH   3   6
ATOM      6  C   UNL A   1      40.265  30.861  32.586  1.00  0.00     0.041 A 
ATOM      7  C   UNL A   1      40.594  29.847  30.400  1.00  0.00     0.046 A 
ATOM      8  C   UNL A   1      41.342  30.939  29.966  1.00  0.00     0.026 A 
ATOM      9  C   UNL A   1      40.123  29.791  31.713  1.00  0.00     0.040 A 
ATOM     10  C   UNL A   1      41.530  32.012  30.838  1.00  0.00     0.003 A 
ATOM     11  C   UNL A   1      40.982  31.979  32.129  1.00  0.00     0.014 A 
BRANCH   7  12
ATOM     12  N   UNL A   1      40.325  28.743  29.551  1.00  0.00    -0.317 N 
ATOM     13  C   UNL A   1      39.249  28.582  28.655  1.00  0.00     0.047 A 
ATOM     14  C   UNL A   1      39.340  27.276  28.184  1.00  0.00     0.028 A 
ATOM     15  C   UNL A   1      40.455  26.647  28.778  1.00  0.00     0.020 A 
ATOM     16  C   UNL A   1      41.074  27.585  29.564  1.00  0.00     0.092 A 
BRANCH  13  17
ATOM     17  C   UNL A   1      38.413  29.705  28.269  1.00  0.00     0.052 C 
ATOM     18  C   UNL A   1      37.178  30.008  28.762  1.00  0.00     0.119 C 
BRANCH  18  19
ATOM     19  C   UNL A   1      36.968  29.404  30.140  1.00  0.00     0.105 C 
ATOM     20  N   UNL A   1      36.794  28.902  31.284  1.00  0.00    -0.192 NA
ENDBRANCH  18  19
BRANCH  18  21
ATOM     21  C   UNL A   1      36.284  31.070  28.225  1.00  0.00     0.266 C 
ATOM     22  O   UNL A   1      35.417  30.764  27.404  1.00  0.00    -0.268 OA
ATOM     23  N   UNL A   1      36.314  32.372  28.678  1.00  0.00    -0.321 N 
ATOM     24  H   UNL A   1      35.593  32.940  28.324  1.00  0.00     0.170 HD
BRANCH  23  25
ATOM     25  C   UNL A   1      37.191  33.038  29.558  1.00  0.00     0.042 A 
ATOM     26  C   UNL A   1      38.297  33.678  28.987  1.00  0.00     0.026 A 
ATOM     27  C   UNL A   1      36.938  33.190  30.926  1.00  0.00     0.046 A 
ATOM     28  C   UNL A   1      39.046  34.588  29.737  1.00  0.00     0.004 A 
ATOM     29  C   UNL A   1      37.687  34.110  31.667  1.00  0.00     0.043 A 
ATOM     30  C   UNL A   1      38.723  34.827  31.073  1.00  0.00     0.020 A 
ATOM     31  Cl  UNL A   1      37.258  34.437  33.301  1.00  0.00    -0.084 Cl
ENDBRANCH  23  25
ENDBRANCH  18  21
ENDBRANCH  13  17
ENDBRANCH   7  12
ENDBRANCH   3   6
ENDBRANCH   1   2
BRANCH   1  32
ATOM     32  C   UNL A   1      42.293  29.604  36.343  1.00  0.00     0.042 C 
BRANCH  32  33
ATOM     33  C   UNL A   1      43.794  29.407  36.492  1.00  0.00     0.118 C 
BRANCH  33  34
ATOM     34  N   UNL A   1      44.081  28.099  37.061  1.00  0.00    -0.352 N 
ATOM     35  C   UNL A   1      44.203  26.874  36.456  1.00  0.00     0.251 C 
ATOM     36  H   UNL A   1      44.209  28.092  38.037  1.00  0.00     0.163 HD
ATOM     37  O   UNL A   1      44.178  25.860  37.135  1.00  0.00    -0.269 OA
BRANCH  35  38
ATOM     38  C   UNL A   1      44.327  26.764  34.992  1.00  0.00     0.039 A 
ATOM     39  C   UNL A   1      43.162  26.919  34.232  1.00  0.00     0.014 A 
ATOM     40  C   UNL A   1      45.546  26.458  34.377  1.00  0.00     0.014 A 
ATOM     41  C   UNL A   1      43.233  26.829  32.850  1.00  0.00     0.010 A 
ATOM     42  C   UNL A   1      45.632  26.427  32.995  1.00  0.00     0.010 A 
ATOM     43  C   UNL A   1      44.474  26.614  32.236  1.00  0.00    -0.014 A 
BRANCH  43  44
ATOM     44  C   UNL A   1      44.555  26.715  30.767  1.00  0.00     0.031 A 
ATOM     45  C   UNL A   1      44.679  28.186  30.322  1.00  0.00     0.074 A 
ATOM     46  C   UNL A   1      44.460  25.536  30.081  1.00  0.00     0.049 A 
ATOM     47  N   UNL A   1      44.214  28.786  29.269  1.00  0.00    -0.248 NA
ATOM     48  C   UNL A   1      45.345  29.159  31.233  1.00  0.00     0.031 C 
ATOM     49  C   UNL A   1      44.411  24.196  30.711  1.00  0.00     0.029 A 
ATOM     50  N   UNL A   1      44.379  25.203  28.744  1.00  0.00    -0.354 N 
ATOM     51  C   UNL A   1      44.661  30.130  29.299  1.00  0.00     0.074 A 
ATOM     52  C   UNL A   1      45.250  30.326  30.588  1.00  0.00     0.031 C 
ATOM     53  C   UNL A   1      44.234  23.229  29.786  1.00  0.00     0.029 A 
ATOM     54  C   UNL A   1      44.135  23.829  28.472  1.00  0.00     0.049 A 
ATOM     55  H   UNL A   1      44.484  25.871  28.028  1.00  0.00     0.167 HD
ATOM     56  C   UNL A   1      44.630  30.946  28.200  1.00  0.00     0.037 A 
ATOM     57  C   UNL A   1      43.803  23.229  27.285  1.00  0.00     0.037 A 
ATOM     58  C   UNL A   1      44.052  30.240  27.107  1.00  0.00     0.049 A 
ATOM     59  C   UNL A   1      43.841  24.317  26.298  1.00  0.00     0.074 A 
ATOM     60  C   UNL A   1      42.767  29.859  26.829  1.00  0.00     0.029 A 
ATOM     61  N   UNL A   1      44.917  29.522  26.320  1.00  0.00    -0.354 N 
ATOM     62  N   UNL A   1      44.925  24.859  25.828  1.00  0.00    -0.248 NA
ATOM     63  C   UNL A   1      42.568  24.932  25.900  1.00  0.00     0.031 C 
ATOM     64  C   UNL A   1      42.931  28.580  26.256  1.00  0.00     0.029 A 
ATOM     65  C   UNL A   1      44.287  28.350  25.993  1.00  0.00     0.049 A 
ATOM     66  H   UNL A   1      45.822  29.796  26.044  1.00  0.00     0.167 HD
ATOM     67  C   UNL A   1      44.458  26.060  25.353  1.00  0.00     0.074 A 
ATOM     68  C   UNL A   1      43.039  25.907  25.130  1.00  0.00     0.031 C 
ATOM     69  C   UNL A   1      45.104  27.206  25.679  1.00  0.00     0.037 A 
BRANCH  56  70
ATOM     70  C   UNL A   1      45.292  32.260  27.866  1.00  0.00     0.064 A 
ATOM     71  C   UNL A   1      44.461  33.401  27.699  1.00  0.00     0.173 A 
ATOM     72  C   UNL A   1      46.587  32.366  27.350  1.00  0.00     0.173 A 
ATOM     73  F   UNL A   1      43.221  33.432  28.213  1.00  0.00    -0.203 F 
ATOM     74  C   UNL A   1      44.844  34.491  26.919  1.00  0.00     0.198 A 
ATOM     75  C   UNL A   1      46.987  33.488  26.613  1.00  0.00     0.198 A 
ATOM     76  F   UNL A   1      47.459  31.355  27.450  1.00  0.00    -0.203 F 
ATOM     77  F   UNL A   1      43.964  35.468  26.656  1.00  0.00    -0.200 F 
ATOM     78  C   UNL A   1      46.103  34.523  26.359  1.00  0.00     0.200 A 
ATOM     79  F   UNL A   1      48.216  33.523  26.080  1.00  0.00    -0.200 F 
ATOM     80  F   UNL A   1      46.452  35.529  25.544  1.00  0.00    -0.200 F 
ENDBRANCH  56  70
BRANCH  57  81
ATOM     81  C   UNL A   1      43.297  21.887  26.795  1.00  0.00     0.064 A 
ATOM     82  C   UNL A   1      43.835  21.128  25.749  1.00  0.00     0.173 A 
ATOM     83  C   UNL A   1      42.203  21.255  27.458  1.00  0.00     0.173 A 
ATOM     84  F   UNL A   1      44.763  21.638  24.932  1.00  0.00    -0.203 F 
ATOM     85  C   UNL A   1      43.412  19.809  25.487  1.00  0.00     0.198 A 
ATOM     86  C   UNL A   1      41.816  19.934  27.235  1.00  0.00     0.198 A 
ATOM     87  F   UNL A   1      41.456  21.902  28.362  1.00  0.00    -0.203 F 
ATOM     88  F   UNL A   1      43.967  19.120  24.480  1.00  0.00    -0.200 F 
ATOM     89  C   UNL A   1      42.436  19.199  26.257  1.00  0.00     0.200 A 
ATOM     90  F   UNL A   1      40.851  19.389  27.989  1.00  0.00    -0.200 F 
ATOM     91  F   UNL A   1      42.083  17.924  26.047  1.00  0.00    -0.200 F 
ENDBRANCH  57  81
BRANCH  69  92
ATOM     92  C   UNL A   1      46.566  27.020  26.028  1.00  0.00     0.064 A 
ATOM     93  C   UNL A   1      47.487  26.745  25.007  1.00  0.00     0.173 A 
ATOM     94  C   UNL A   1      47.072  26.991  27.339  1.00  0.00     0.173 A 
ATOM     95  F   UNL A   1      47.087  26.763  23.727  1.00  0.00    -0.203 F 
ATOM     96  C   UNL A   1      48.826  26.455  25.283  1.00  0.00     0.198 A 
ATOM     97  C   UNL A   1      48.410  26.709  27.619  1.00  0.00     0.198 A 
ATOM     98  F   UNL A   1      46.277  27.235  28.379  1.00  0.00    -0.203 F 
ATOM     99  F   UNL A   1      49.673  26.201  24.276  1.00  0.00    -0.200 F 
ATOM    100  C   UNL A   1      49.288  26.436  26.588  1.00  0.00     0.200 A 
ATOM    101  F   UNL A   1      48.847  26.707  28.889  1.00  0.00    -0.200 F 
ATOM    102  F   UNL A   1      50.576  26.173  26.849  1.00  0.00    -0.200 F 
ENDBRANCH  69  92
ENDBRANCH  43  44
ENDBRANCH  35  38
ENDBRANCH  33  34
ENDBRANCH  32  33
ENDBRANCH   1  32
TORSDOF 15
ENDMDL
MODEL 2
REMARK VINA RESULT:     -11.0      4.916      8.021
REMARK SMILES N#C/C(=C\c1cccn1-c1cccc(C(=O)NCCCNC(=O)c2ccc(-c3c4nc(c(-c5c(F)c(F)c(F)c(F)c5F)c5ccc([nH]5)c(-c5c(F)c(F)c(F)c(F)c5F)c5nc(c(-c6c(F)c(F)c(F)c(F)c6F)c6ccc3[nH]6)C=C5)C=C4)cc2)c1)C(=O)Nc1cccc(Cl)c1
REMARK SMILES IDX 18 1 17 2 15 3 16 4 14 6 10 7 11 8 87 9 12 10 13 11 9 12
REMARK SMILES IDX 5 13 6 14 7 15 8 16 4 17 3 18 2 19 1 20 88 21 89 22 90 23
REMARK SMILES IDX 91 25 92 26 97 27 93 28 95 29 94 30 96 31 19 32 20 33 21 34
REMARK SMILES IDX 22 35 23 37 24 38 25 39 86 40 26 41 85 42 27 43 28 44 29 45
REMARK SMILES IDX 79 46 30 47 84 48 78 49 80 50 31 51 83 52 77 53 76 54 32 56
REMARK SMILES IDX 64 57 44 58 63 59 45 60 48 61 62 62 81 63 46 64 47 65 61 67
REMARK SMILES IDX 82 68 49 69 33 70 34 71 42 72 35 73 36 74 40 75 43 76 37 77
REMARK SMILES IDX 38 78 41 79 39 80 65 81 66 82 74 83 67 84 68 85 72 86 75 87
REMARK SMILES IDX 69 88 70 89 73 90 71 91 50 92 51 93 59 94 52 95 53 96 57 97
REMARK SMILES IDX 60 98 54 99 55 100 58 101 56 102
REMARK H PARENT 17 5 90 24 21 36 80 55 48 66
REMARK Flexibility Score: inf
ROOT
ATOM      1  C   UNL A   1      34.098  32.108  27.916  1.00  0.00     0.118 C 
ENDROOT
BRANCH   1   2
ATOM      2  N   UNL A   1      35.088  31.047  28.015  1.00  0.00    -0.352 N 
ATOM      3  C   UNL A   1      35.111  29.735  27.603  1.00  0.00     0.251 C 
ATOM      4  O   UNL A   1      36.171  29.123  27.751  1.00  0.00    -0.269 OA
ATOM      5  H   UNL A   1      35.913  31.326  28.472  1.00  0.00     0.163 HD
BRANCH   3   6
ATOM      6  C   UNL A   1      33.955  29.026  26.978  1.00  0.00     0.041 A 
ATOM      7  C   UNL A   1      32.928  27.663  25.246  1.00  0.00     0.046 A 
ATOM      8  C   UNL A   1      31.684  27.746  25.868  1.00  0.00     0.026 A 
ATOM      9  C   UNL A   1      34.025  28.350  25.768  1.00  0.00     0.040 A 
ATOM     10  C   UNL A   1      31.580  28.451  27.068  1.00  0.00     0.003 A 
ATOM     11  C   UNL A   1      32.709  29.070  27.625  1.00  0.00     0.014 A 
BRANCH   7  12
ATOM     12  N   UNL A   1      33.114  26.925  24.050  1.00  0.00    -0.317 N 
ATOM     13  C   UNL A   1      33.404  25.551  23.916  1.00  0.00     0.047 A 
ATOM     14  C   UNL A   1      33.654  25.347  22.562  1.00  0.00     0.028 A 
ATOM     15  C   UNL A   1      33.517  26.573  21.876  1.00  0.00     0.020 A 
ATOM     16  C   UNL A   1      33.128  27.509  22.801  1.00  0.00     0.092 A 
BRANCH  13  17
ATOM     17  C   UNL A   1      33.250  24.635  25.031  1.00  0.00     0.052 C 
ATOM     18  C   UNL A   1      32.100  24.016  25.424  1.00  0.00     0.119 C 
BRANCH  18  19
ATOM     19  C   UNL A   1      31.105  23.920  24.279  1.00  0.00     0.105 C 
ATOM     20  N   UNL A   1      30.279  23.840  23.330  1.00  0.00    -0.192 NA
ENDBRANCH  18  19
BRANCH  18  21
ATOM     21  C   UNL A   1      31.946  23.215  26.669  1.00  0.00     0.266 C 
ATOM     22  O   UNL A   1      31.343  23.705  27.625  1.00  0.00    -0.268 OA
ATOM     23  N   UNL A   1      32.363  21.904  26.770  1.00  0.00    -0.321 N 
ATOM     24  H   UNL A   1      32.095  21.459  27.606  1.00  0.00     0.170 HD
BRANCH  23  25
ATOM     25  C   UNL A   1      33.104  21.086  25.894  1.00  0.00     0.042 A 
ATOM     26  C   UNL A   1      34.491  21.272  25.874  1.00  0.00     0.026 A 
ATOM     27  C   UNL A   1      32.540  20.037  25.160  1.00  0.00     0.046 A 
ATOM     28  C   UNL A   1      35.318  20.327  25.261  1.00  0.00     0.004 A 
ATOM     29  C   UNL A   1      33.374  19.090  24.557  1.00  0.00     0.043 A 
ATOM     30  C   UNL A   1      34.760  19.217  24.626  1.00  0.00     0.020 A 
ATOM     31  Cl  UNL A   1      32.687  17.699  23.814  1.00  0.00    -0.084 Cl
ENDBRANCH  23  25
ENDBRANCH  18  21
ENDBRANCH  13  17
ENDBRANCH   7  12
ENDBRANCH   3   6
ENDBRANCH   1   2
BRANCH   1  32
ATOM     32  C   UNL A   1      34.354  33.244  28.918  1.00  0.00     0.042 C 
BRANCH  32  33
ATOM     33  C   UNL A   1      34.654  32.717  30.314  1.00  0.00     0.118 C 
BRANCH  33  34
ATOM     34  N   UNL A   1      35.354  33.723  31.097  1.00  0.00    -0.352 N 
ATOM     35  C   UNL A   1      36.616  33.711  31.636  1.00  0.00     0.251 C 
ATOM     36  H   UNL A   1      34.841  34.546  31.268  1.00  0.00     0.163 HD
ATOM     37  O   UNL A   1      36.918  34.535  32.485  1.00  0.00    -0.269 OA
BRANCH  35  38
ATOM     38  C   UNL A   1      37.600  32.692  31.230  1.00  0.00     0.039 A 
ATOM     39  C   UNL A   1      37.992  32.673  29.888  1.00  0.00     0.014 A 
ATOM     40  C   UNL A   1      38.086  31.737  32.130  1.00  0.00     0.014 A 
ATOM     41  C   UNL A   1      38.921  31.734  29.461  1.00  0.00     0.010 A 
ATOM     42  C   UNL A   1      39.058  30.838  31.724  1.00  0.00     0.010 A 
ATOM     43  C   UNL A   1      39.473  30.842  30.390  1.00  0.00    -0.014 A 
BRANCH  43  44
ATOM     44  C   UNL A   1      40.594  29.987  29.957  1.00  0.00     0.031 A 
ATOM     45  C   UNL A   1      41.909  30.790  29.901  1.00  0.00     0.074 A 
ATOM     46  C   UNL A   1      40.274  28.694  29.647  1.00  0.00     0.049 A 
ATOM     47  N   UNL A   1      42.920  30.688  29.094  1.00  0.00    -0.248 NA
ATOM     48  C   UNL A   1      42.088  31.943  30.828  1.00  0.00     0.031 C 
ATOM     49  C   UNL A   1      38.936  28.087  29.836  1.00  0.00     0.029 A 
ATOM     50  N   UNL A   1      40.974  27.630  29.114  1.00  0.00    -0.354 N 
ATOM     51  C   UNL A   1      43.903  31.620  29.505  1.00  0.00     0.074 A 
ATOM     52  C   UNL A   1      43.284  32.441  30.501  1.00  0.00     0.031 C 
ATOM     53  C   UNL A   1      38.902  26.824  29.363  1.00  0.00     0.029 A 
ATOM     54  C   UNL A   1      40.195  26.480  28.809  1.00  0.00     0.049 A 
ATOM     55  H   UNL A   1      41.946  27.664  28.956  1.00  0.00     0.167 HD
ATOM     56  C   UNL A   1      45.205  31.558  29.086  1.00  0.00     0.037 A 
ATOM     57  C   UNL A   1      40.546  25.364  28.096  1.00  0.00     0.037 A 
ATOM     58  C   UNL A   1      45.355  30.474  28.176  1.00  0.00     0.049 A 
ATOM     59  C   UNL A   1      41.966  25.560  27.776  1.00  0.00     0.074 A 
ATOM     60  C   UNL A   1      44.955  30.295  26.879  1.00  0.00     0.029 A 
ATOM     61  N   UNL A   1      45.667  29.256  28.726  1.00  0.00    -0.354 N 
ATOM     62  N   UNL A   1      42.944  25.440  28.624  1.00  0.00    -0.248 NA
ATOM     63  C   UNL A   1      42.311  26.053  26.437  1.00  0.00     0.031 C 
ATOM     64  C   UNL A   1      44.560  28.941  26.852  1.00  0.00     0.029 A 
ATOM     65  C   UNL A   1      44.957  28.308  28.036  1.00  0.00     0.049 A 
ATOM     66  H   UNL A   1      46.284  29.093  29.476  1.00  0.00     0.167 HD
ATOM     67  C   UNL A   1      43.945  26.150  28.006  1.00  0.00     0.074 A 
ATOM     68  C   UNL A   1      43.620  26.206  26.600  1.00  0.00     0.031 C 
ATOM     69  C   UNL A   1      44.643  27.074  28.710  1.00  0.00     0.037 A 
BRANCH  56  70
ATOM     70  C   UNL A   1      46.483  32.195  29.576  1.00  0.00     0.064 A 
ATOM     71  C   UNL A   1      47.278  32.902  28.633  1.00  0.00     0.173 A 
ATOM     72  C   UNL A   1      47.122  31.835  30.766  1.00  0.00     0.173 A 
ATOM     73  F   UNL A   1      46.748  33.353  27.485  1.00  0.00    -0.203 F 
ATOM     74  C   UNL A   1      48.651  33.077  28.801  1.00  0.00     0.198 A 
ATOM     75  C   UNL A   1      48.491  32.061  30.954  1.00  0.00     0.198 A 
ATOM     76  F   UNL A   1      46.473  31.167  31.728  1.00  0.00    -0.203 F 
ATOM     77  F   UNL A   1      49.384  33.604  27.811  1.00  0.00    -0.200 F 
ATOM     78  C   UNL A   1      49.261  32.635  29.956  1.00  0.00     0.200 A 
ATOM     79  F   UNL A   1      49.080  31.643  32.083  1.00  0.00    -0.200 F 
ATOM     80  F   UNL A   1      50.591  32.727  30.092  1.00  0.00    -0.200 F 
ENDBRANCH  56  70
BRANCH  57  81
ATOM     81  C   UNL A   1      39.872  24.160  27.468  1.00  0.00     0.064 A 
ATOM     82  C   UNL A   1      38.727  24.175  26.662  1.00  0.00     0.173 A 
ATOM     83  C   UNL A   1      40.442  22.862  27.628  1.00  0.00     0.173 A 
ATOM     84  F   UNL A   1      37.987  25.283  26.535  1.00  0.00    -0.203 F 
ATOM     85  C   UNL A   1      38.280  23.029  25.973  1.00  0.00     0.198 A 
ATOM     86  C   UNL A   1      40.034  21.739  26.910  1.00  0.00     0.198 A 
ATOM     87  F   UNL A   1      41.431  22.628  28.500  1.00  0.00    -0.203 F 
ATOM     88  F   UNL A   1      37.184  23.100  25.206  1.00  0.00    -0.200 F 
ATOM     89  C   UNL A   1      38.959  21.826  26.062  1.00  0.00     0.200 A 
ATOM     90  F   UNL A   1      40.706  20.586  27.042  1.00  0.00    -0.200 F 
ATOM     91  F   UNL A   1      38.570  20.757  25.355  1.00  0.00    -0.200 F 
ENDBRANCH  57  81
BRANCH  69  92
ATOM     92  C   UNL A   1      44.666  26.832  30.205  1.00  0.00     0.064 A 
ATOM     93  C   UNL A   1      45.438  25.780  30.720  1.00  0.00     0.173 A 
ATOM     94  C   UNL A   1      43.872  27.526  31.134  1.00  0.00     0.173 A 
ATOM     95  F   UNL A   1      46.232  25.075  29.900  1.00  0.00    -0.203 F 
ATOM     96  C   UNL A   1      45.410  25.441  32.075  1.00  0.00     0.198 A 
ATOM     97  C   UNL A   1      43.846  27.195  32.490  1.00  0.00     0.198 A 
ATOM     98  F   UNL A   1      43.100  28.538  30.745  1.00  0.00    -0.203 F 
ATOM     99  F   UNL A   1      46.166  24.430  32.524  1.00  0.00    -0.200 F 
ATOM    100  C   UNL A   1      44.614  26.148  32.961  1.00  0.00     0.200 A 
ATOM    101  F   UNL A   1      43.079  27.898  33.340  1.00  0.00    -0.200 F 
ATOM    102  F   UNL A   1      44.601  25.832  34.263  1.00  0.00    -0.200 F 
ENDBRANCH  69  92
ENDBRANCH  43  44
ENDBRANCH  35  38
ENDBRANCH  33  34
ENDBRANCH  32  33
ENDBRANCH   1  32
TORSDOF 15
ENDMDL
MODEL 3
REMARK VINA RESULT:     -10.9      4.595     10.461
REMARK SMILES N#C/C(=C\c1cccn1-c1cccc(C(=O)NCCCNC(=O)c2ccc(-c3c4nc(c(-c5c(F)c(F)c(F)c(F)c5F)c5ccc([nH]5)c(-c5c(F)c(F)c(F)c(F)c5F)c5nc(c(-c6c(F)c(F)c(F)c(F)c6F)c6ccc3[nH]6)C=C5)C=C4)cc2)c1)C(=O)Nc1cccc(Cl)c1
REMARK SMILES IDX 18 1 17 2 15 3 16 4 14 6 10 7 11 8 87 9 12 10 13 11 9 12
REMARK SMILES IDX 5 13 6 14 7 15 8 16 4 17 3 18 2 19 1 20 88 21 89 22 90 23
REMARK SMILES IDX 91 25 92 26 97 27 93 28 95 29 94 30 96 31 19 32 20 33 21 34
REMARK SMILES IDX 22 35 23 37 24 38 25 39 86 40 26 41 85 42 27 43 28 44 29 45
REMARK SMILES IDX 79 46 30 47 84 48 78 49 80 50 31 51 83 52 77 53 76 54 32 56
REMARK SMILES IDX 64 57 44 58 63 59 45 60 48 61 62 62 81 63 46 64 47 65 61 67
REMARK SMILES IDX 82 68 49 69 33 70 34 71 42 72 35 73 36 74 40 75 43 76 37 77
REMARK SMILES IDX 38 78 41 79 39 80 65 81 66 82 74 83 67 84 68 85 72 86 75 87
REMARK SMILES IDX 69 88 70 89 73 90 71 91 50 92 51 93 59 94 52 95 53 96 57 97
REMARK SMILES IDX 60 98 54 99 55 100 58 101 56 102
REMARK H PARENT 17 5 90 24 21 36 80 55 48 66
REMARK Flexibility Score: inf
ROOT
ATOM      1  C   UNL A   1      46.833  32.789  27.532  1.00  0.00     0.118 C 
ENDROOT
BRANCH   1   2
ATOM      2  N   UNL A   1      46.890  31.766  26.500  1.00  0.00    -0.352 N 
ATOM      3  C   UNL A   1      46.165  30.621  26.263  1.00  0.00     0.251 C 
ATOM      4  O   UNL A   1      46.403  30.017  25.216  1.00  0.00    -0.269 OA
ATOM      5  H   UNL A   1      47.594  31.926  25.831  1.00  0.00     0.163 HD
BRANCH   3   6
ATOM      6  C   UNL A   1      45.110  30.087  27.175  1.00  0.00     0.041 A 
ATOM      7  C   UNL A   1      44.240  28.469  28.768  1.00  0.00     0.046 A 
ATOM      8  C   UNL A   1      43.027  29.149  28.851  1.00  0.00     0.026 A 
ATOM      9  C   UNL A   1      45.235  28.904  27.891  1.00  0.00     0.040 A 
ATOM     10  C   UNL A   1      42.864  30.321  28.112  1.00  0.00     0.003 A 
ATOM     11  C   UNL A   1      43.903  30.794  27.296  1.00  0.00     0.014 A 
BRANCH   7  12
ATOM     12  N   UNL A   1      44.490  27.297  29.526  1.00  0.00    -0.317 N 
ATOM     13  C   UNL A   1      43.868  26.037  29.404  1.00  0.00     0.047 A 
ATOM     14  C   UNL A   1      44.337  25.277  30.472  1.00  0.00     0.028 A 
ATOM     15  C   UNL A   1      45.235  26.056  31.234  1.00  0.00     0.020 A 
ATOM     16  C   UNL A   1      45.356  27.266  30.600  1.00  0.00     0.092 A 
BRANCH  13  17
ATOM     17  C   UNL A   1      43.068  25.700  28.241  1.00  0.00     0.052 C 
ATOM     18  C   UNL A   1      43.524  25.481  26.974  1.00  0.00     0.119 C 
BRANCH  18  19
ATOM     19  C   UNL A   1      44.988  25.071  26.977  1.00  0.00     0.105 C 
ATOM     20  N   UNL A   1      46.202  24.731  26.979  1.00  0.00    -0.192 NA
ENDBRANCH  18  19
BRANCH  18  21
ATOM     21  C   UNL A   1      42.660  25.301  25.777  1.00  0.00     0.266 C 
ATOM     22  O   UNL A   1      42.504  26.247  25.002  1.00  0.00    -0.268 OA
ATOM     23  N   UNL A   1      42.099  24.088  25.436  1.00  0.00    -0.321 N 
ATOM     24  H   UNL A   1      41.649  24.083  24.560  1.00  0.00     0.170 HD
BRANCH  23  25
ATOM     25  C   UNL A   1      42.052  22.853  26.113  1.00  0.00     0.042 A 
ATOM     26  C   UNL A   1      41.081  22.714  27.112  1.00  0.00     0.026 A 
ATOM     27  C   UNL A   1      42.830  21.747  25.751  1.00  0.00     0.046 A 
ATOM     28  C   UNL A   1      40.779  21.451  27.626  1.00  0.00     0.004 A 
ATOM     29  C   UNL A   1      42.515  20.485  26.264  1.00  0.00     0.043 A 
ATOM     30  C   UNL A   1      41.477  20.329  27.181  1.00  0.00     0.020 A 
ATOM     31  Cl  UNL A   1      43.346  19.096  25.680  1.00  0.00    -0.084 Cl
ENDBRANCH  23  25
ENDBRANCH  18  21
ENDBRANCH  13  17
ENDBRANCH   7  12
ENDBRANCH   3   6
ENDBRANCH   1   2
BRANCH   1  32
ATOM     32  C   UNL A   1      47.445  34.121  27.071  1.00  0.00     0.042 C 
BRANCH  32  33
ATOM     33  C   UNL A   1      47.484  35.149  28.193  1.00  0.00     0.118 C 
BRANCH  33  34
ATOM     34  N   UNL A   1      46.810  36.372  27.785  1.00  0.00    -0.352 N 
ATOM     35  C   UNL A   1      45.479  36.703  27.807  1.00  0.00     0.251 C 
ATOM     36  H   UNL A   1      47.405  37.076  27.438  1.00  0.00     0.163 HD
ATOM     37  O   UNL A   1      45.087  37.671  27.174  1.00  0.00    -0.269 OA
BRANCH  35  38
ATOM     38  C   UNL A   1      44.510  35.885  28.557  1.00  0.00     0.039 A 
ATOM     39  C   UNL A   1      43.878  34.843  27.870  1.00  0.00     0.014 A 
ATOM     40  C   UNL A   1      44.181  36.166  29.887  1.00  0.00     0.014 A 
ATOM     41  C   UNL A   1      42.962  34.043  28.537  1.00  0.00     0.010 A 
ATOM     42  C   UNL A   1      43.313  35.334  30.575  1.00  0.00     0.010 A 
ATOM     43  C   UNL A   1      42.708  34.273  29.896  1.00  0.00    -0.014 A 
BRANCH  43  44
ATOM     44  C   UNL A   1      41.882  33.295  30.629  1.00  0.00     0.031 A 
ATOM     45  C   UNL A   1      40.393  33.692  30.591  1.00  0.00     0.074 A 
ATOM     46  C   UNL A   1      42.562  32.273  31.232  1.00  0.00     0.049 A 
ATOM     47  N   UNL A   1      39.462  33.541  31.481  1.00  0.00    -0.248 NA
ATOM     48  C   UNL A   1      39.883  34.457  29.417  1.00  0.00     0.031 C 
ATOM     49  C   UNL A   1      44.016  32.028  31.090  1.00  0.00     0.029 A 
ATOM     50  N   UNL A   1      42.202  31.244  32.079  1.00  0.00    -0.354 N 
ATOM     51  C   UNL A   1      38.249  34.021  30.930  1.00  0.00     0.074 A 
ATOM     52  C   UNL A   1      38.598  34.678  29.708  1.00  0.00     0.031 C 
ATOM     53  C   UNL A   1      44.415  30.999  31.867  1.00  0.00     0.029 A 
ATOM     54  C   UNL A   1      43.280  30.478  32.600  1.00  0.00     0.049 A 
ATOM     55  H   UNL A   1      41.262  31.053  32.306  1.00  0.00     0.167 HD
ATOM     56  C   UNL A   1      37.023  33.722  31.462  1.00  0.00     0.037 A 
ATOM     57  C   UNL A   1      43.270  29.545  33.604  1.00  0.00     0.037 A 
ATOM     58  C   UNL A   1      37.199  32.927  32.630  1.00  0.00     0.049 A 
ATOM     59  C   UNL A   1      41.856  29.425  33.984  1.00  0.00     0.074 A 
ATOM     60  C   UNL A   1      37.646  33.222  33.890  1.00  0.00     0.029 A 
ATOM     61  N   UNL A   1      37.244  31.569  32.440  1.00  0.00    -0.354 N 
ATOM     62  N   UNL A   1      40.946  28.817  33.284  1.00  0.00    -0.248 NA
ATOM     63  C   UNL A   1      41.398  30.149  35.177  1.00  0.00     0.031 C 
ATOM     64  C   UNL A   1      38.412  32.087  34.230  1.00  0.00     0.029 A 
ATOM     65  C   UNL A   1      38.202  31.075  33.286  1.00  0.00     0.049 A 
ATOM     66  H   UNL A   1      36.692  31.047  31.814  1.00  0.00     0.167 HD
ATOM     67  C   UNL A   1      39.790  29.367  33.783  1.00  0.00     0.074 A 
ATOM     68  C   UNL A   1      40.098  29.888  35.094  1.00  0.00     0.031 C 
ATOM     69  C   UNL A   1      38.850  29.838  32.928  1.00  0.00     0.037 A 
BRANCH  56  70
ATOM     70  C   UNL A   1      35.612  33.828  30.938  1.00  0.00     0.064 A 
ATOM     71  C   UNL A   1      35.291  33.126  29.745  1.00  0.00     0.173 A 
ATOM     72  C   UNL A   1      34.720  34.838  31.312  1.00  0.00     0.173 A 
ATOM     73  F   UNL A   1      36.043  32.095  29.327  1.00  0.00    -0.203 F 
ATOM     74  C   UNL A   1      34.253  33.526  28.903  1.00  0.00     0.198 A 
ATOM     75  C   UNL A   1      33.646  35.201  30.491  1.00  0.00     0.198 A 
ATOM     76  F   UNL A   1      34.920  35.565  32.418  1.00  0.00    -0.203 F 
ATOM     77  F   UNL A   1      34.093  32.935  27.710  1.00  0.00    -0.200 F 
ATOM     78  C   UNL A   1      33.443  34.580  29.269  1.00  0.00     0.200 A 
ATOM     79  F   UNL A   1      32.851  36.217  30.853  1.00  0.00    -0.200 F 
ATOM     80  F   UNL A   1      32.495  35.022  28.432  1.00  0.00    -0.200 F 
ENDBRANCH  56  70
BRANCH  57  81
ATOM     81  C   UNL A   1      44.267  28.788  34.459  1.00  0.00     0.064 A 
ATOM     82  C   UNL A   1      45.297  29.347  35.226  1.00  0.00     0.173 A 
ATOM     83  C   UNL A   1      44.166  27.370  34.583  1.00  0.00     0.173 A 
ATOM     84  F   UNL A   1      45.623  30.639  35.107  1.00  0.00    -0.203 F 
ATOM     85  C   UNL A   1      46.056  28.580  36.133  1.00  0.00     0.198 A 
ATOM     86  C   UNL A   1      44.880  26.618  35.514  1.00  0.00     0.198 A 
ATOM     87  F   UNL A   1      43.358  26.649  33.795  1.00  0.00    -0.203 F 
ATOM     88  F   UNL A   1      47.024  29.165  36.851  1.00  0.00    -0.200 F 
ATOM     89  C   UNL A   1      45.817  27.227  36.308  1.00  0.00     0.200 A 
ATOM     90  F   UNL A   1      44.633  25.305  35.636  1.00  0.00    -0.200 F 
ATOM     91  F   UNL A   1      46.496  26.515  37.217  1.00  0.00    -0.200 F 
ENDBRANCH  57  81
BRANCH  69  92
ATOM     92  C   UNL A   1      38.882  29.204  31.553  1.00  0.00     0.064 A 
ATOM     93  C   UNL A   1      38.643  27.828  31.425  1.00  0.00     0.173 A 
ATOM     94  C   UNL A   1      39.249  29.878  30.376  1.00  0.00     0.173 A 
ATOM     95  F   UNL A   1      38.277  27.113  32.500  1.00  0.00    -0.203 F 
ATOM     96  C   UNL A   1      38.769  27.170  30.199  1.00  0.00     0.198 A 
ATOM     97  C   UNL A   1      39.370  29.226  29.147  1.00  0.00     0.198 A 
ATOM     98  F   UNL A   1      39.501  31.185  30.393  1.00  0.00    -0.203 F 
ATOM     99  F   UNL A   1      38.528  25.854  30.122  1.00  0.00    -0.200 F 
ATOM    100  C   UNL A   1      39.133  27.868  29.059  1.00  0.00     0.200 A 
ATOM    101  F   UNL A   1      39.711  29.918  28.048  1.00  0.00    -0.200 F 
ATOM    102  F   UNL A   1      39.239  27.238  27.882  1.00  0.00    -0.200 F 
ENDBRANCH  69  92
ENDBRANCH  43  44
ENDBRANCH  35  38
ENDBRANCH  33  34
ENDBRANCH  32  33
ENDBRANCH   1  32
TORSDOF 15
ENDMDL
