MODEL 1
REMARK VINA RESULT:     -12.2      0.000      0.000
REMARK SMILES CC(C)C[C@H](C(=O)NCCCNC(=O)c1ccc(-c2c3nc(c(-c4c(F)c(F)c(F)c(F)c4F)c4ccc([nH]4)c(-c4c(F)c(F)c(F)c(F)c4F)c4nc(c(-c5c(F)c(F)c(F)c(F)c5F)c5ccc2[nH]5)C=C4)C=C3)cc1)[C@@H]1CCO[C@]2(CCOC2)C1
REMARK SMILES IDX 10 1 9 2 8 3 6 4 7 5 5 7 4 8 2 9 1 10 3 11 78 12 79 13 87 14
REMARK SMILES IDX 80 15 82 16 81 17 83 18 86 19 84 20 85 21 11 22 12 23 13 24
REMARK SMILES IDX 14 26 15 27 16 28 77 29 17 30 76 31 18 32 19 33 20 34 70 35
REMARK SMILES IDX 21 36 75 37 69 38 71 39 22 40 74 41 68 42 67 43 23 45 55 46
REMARK SMILES IDX 35 47 54 48 36 49 39 50 53 51 72 52 37 53 38 54 52 56 73 57
REMARK SMILES IDX 40 58 24 59 25 60 33 61 26 62 27 63 31 64 34 65 28 66 29 67
REMARK SMILES IDX 32 68 30 69 56 70 57 71 65 72 58 73 59 74 63 75 66 76 60 77
REMARK SMILES IDX 61 78 64 79 62 80 41 81 42 82 50 83 43 84 44 85 48 86 51 87
REMARK SMILES IDX 45 88 46 89 49 90 47 91
REMARK H PARENT 8 6 12 25 71 44 39 55
REMARK Flexibility Score: inf
ROOT
ATOM      1  C   UNL A   1      33.126  28.968  24.101  1.00  0.00     0.042 C 
ENDROOT
BRANCH   1   2
ATOM      2  C   UNL A   1      32.220  28.339  23.017  1.00  0.00     0.117 C 
BRANCH   2   3
ATOM      3  N   UNL A   1      32.865  27.546  21.998  1.00  0.00    -0.356 N 
ATOM      4  C   UNL A   1      33.000  26.212  21.808  1.00  0.00     0.223 C 
ATOM      5  O   UNL A   1      33.277  25.917  20.637  1.00  0.00    -0.275 OA
ATOM      6  H   UNL A   1      33.294  28.087  21.297  1.00  0.00     0.163 HD
BRANCH   4   7
ATOM      7  C   UNL A   1      32.823  25.107  22.892  1.00  0.00     0.082 C 
BRANCH   7   8
ATOM      8  C   UNL A   1      31.262  24.991  23.141  1.00  0.00     0.016 C 
BRANCH   8   9
ATOM      9  C   UNL A   1      30.652  25.149  24.554  1.00  0.00    -0.017 C 
ATOM     10  C   UNL A   1      31.687  25.433  25.640  1.00  0.00     0.007 C 
ATOM     11  C   UNL A   1      29.612  26.281  24.538  1.00  0.00     0.007 C 
ENDBRANCH   8   9
ENDBRANCH   7   8
BRANCH   7  12
ATOM     12  C   UNL A   1      33.460  23.706  22.608  1.00  0.00     0.007 C 
ATOM     13  C   UNL A   1      32.515  22.505  22.750  1.00  0.00     0.033 C 
ATOM     14  C   UNL A   1      34.817  23.428  23.278  1.00  0.00     0.042 C 
ATOM     15  C   UNL A   1      32.788  21.655  23.978  1.00  0.00     0.161 C 
ATOM     16  C   UNL A   1      34.709  22.857  24.709  1.00  0.00     0.094 C 
ATOM     17  O   UNL A   1      33.377  22.437  25.007  1.00  0.00    -0.372 OA
ATOM     18  C   UNL A   1      35.203  23.852  25.751  1.00  0.00     0.066 C 
ATOM     19  C   UNL A   1      35.704  21.720  24.977  1.00  0.00     0.195 C 
ATOM     20  C   UNL A   1      36.704  23.658  25.751  1.00  0.00     0.163 C 
ATOM     21  O   UNL A   1      36.960  22.317  25.319  1.00  0.00    -0.378 OA
ENDBRANCH   7  12
ENDBRANCH   4   7
ENDBRANCH   2   3
ENDBRANCH   1   2
BRANCH   1  22
ATOM     22  C   UNL A   1      32.651  29.023  25.561  1.00  0.00     0.118 C 
BRANCH  22  23
ATOM     23  N   UNL A   1      32.479  30.409  25.995  1.00  0.00    -0.352 N 
ATOM     24  C   UNL A   1      33.153  31.200  26.884  1.00  0.00     0.251 C 
ATOM     25  H   UNL A   1      31.724  30.865  25.558  1.00  0.00     0.163 HD
ATOM     26  O   UNL A   1      32.610  32.246  27.251  1.00  0.00    -0.269 OA
BRANCH  24  27
ATOM     27  C   UNL A   1      34.502  30.892  27.417  1.00  0.00     0.039 A 
ATOM     28  C   UNL A   1      34.738  29.578  27.852  1.00  0.00     0.014 A 
ATOM     29  C   UNL A   1      35.450  31.879  27.701  1.00  0.00     0.014 A 
ATOM     30  C   UNL A   1      35.894  29.255  28.573  1.00  0.00     0.010 A 
ATOM     31  C   UNL A   1      36.623  31.551  28.405  1.00  0.00     0.010 A 
ATOM     32  C   UNL A   1      36.846  30.242  28.870  1.00  0.00    -0.014 A 
BRANCH  32  33
ATOM     33  C   UNL A   1      38.031  29.907  29.711  1.00  0.00     0.031 A 
ATOM     34  C   UNL A   1      39.101  28.975  29.200  1.00  0.00     0.074 A 
ATOM     35  C   UNL A   1      38.172  30.450  30.936  1.00  0.00     0.049 A 
ATOM     36  N   UNL A   1      40.192  28.557  29.796  1.00  0.00    -0.248 NA
ATOM     37  C   UNL A   1      38.918  28.443  27.843  1.00  0.00     0.031 C 
ATOM     38  C   UNL A   1      37.229  31.373  31.562  1.00  0.00     0.029 A 
ATOM     39  N   UNL A   1      39.167  30.299  31.874  1.00  0.00    -0.354 N 
ATOM     40  C   UNL A   1      40.815  27.701  28.896  1.00  0.00     0.074 A 
ATOM     41  C   UNL A   1      39.971  27.645  27.720  1.00  0.00     0.031 C 
ATOM     42  C   UNL A   1      37.690  31.711  32.778  1.00  0.00     0.029 A 
ATOM     43  C   UNL A   1      38.950  31.012  33.027  1.00  0.00     0.049 A 
ATOM     44  H   UNL A   1      39.961  29.735  31.732  1.00  0.00     0.167 HD
ATOM     45  C   UNL A   1      41.986  27.029  29.031  1.00  0.00     0.037 A 
ATOM     46  C   UNL A   1      39.673  31.089  34.160  1.00  0.00     0.037 A 
ATOM     47  C   UNL A   1      42.854  27.097  30.178  1.00  0.00     0.049 A 
ATOM     48  C   UNL A   1      40.966  30.331  34.287  1.00  0.00     0.074 A 
ATOM     49  C   UNL A   1      44.078  26.477  30.372  1.00  0.00     0.029 A 
ATOM     50  N   UNL A   1      42.594  27.829  31.324  1.00  0.00    -0.354 N 
ATOM     51  N   UNL A   1      41.554  29.548  33.418  1.00  0.00    -0.248 NA
ATOM     52  C   UNL A   1      41.699  30.472  35.556  1.00  0.00     0.031 C 
ATOM     53  C   UNL A   1      44.545  26.812  31.648  1.00  0.00     0.029 A 
ATOM     54  C   UNL A   1      43.627  27.665  32.235  1.00  0.00     0.049 A 
ATOM     55  H   UNL A   1      41.794  28.384  31.471  1.00  0.00     0.167 HD
ATOM     56  C   UNL A   1      42.728  29.120  34.022  1.00  0.00     0.074 A 
ATOM     57  C   UNL A   1      42.779  29.738  35.329  1.00  0.00     0.031 C 
ATOM     58  C   UNL A   1      43.678  28.287  33.532  1.00  0.00     0.037 A 
BRANCH  45  59
ATOM     59  C   UNL A   1      42.406  26.140  27.899  1.00  0.00     0.064 A 
ATOM     60  C   UNL A   1      41.900  24.840  27.762  1.00  0.00     0.173 A 
ATOM     61  C   UNL A   1      43.276  26.617  26.906  1.00  0.00     0.173 A 
ATOM     62  F   UNL A   1      41.069  24.339  28.688  1.00  0.00    -0.203 F 
ATOM     63  C   UNL A   1      42.266  24.040  26.682  1.00  0.00     0.198 A 
ATOM     64  C   UNL A   1      43.624  25.822  25.817  1.00  0.00     0.198 A 
ATOM     65  F   UNL A   1      43.776  27.859  26.987  1.00  0.00    -0.203 F 
ATOM     66  F   UNL A   1      41.796  22.790  26.586  1.00  0.00    -0.200 F 
ATOM     67  C   UNL A   1      43.122  24.534  25.708  1.00  0.00     0.200 A 
ATOM     68  F   UNL A   1      44.441  26.304  24.871  1.00  0.00    -0.200 F 
ATOM     69  F   UNL A   1      43.467  23.766  24.665  1.00  0.00    -0.200 F 
ENDBRANCH  45  59
BRANCH  46  70
ATOM     70  C   UNL A   1      39.192  31.934  35.281  1.00  0.00     0.064 A 
ATOM     71  C   UNL A   1      39.477  33.306  35.324  1.00  0.00     0.173 A 
ATOM     72  C   UNL A   1      38.444  31.386  36.332  1.00  0.00     0.173 A 
ATOM     73  F   UNL A   1      40.212  33.866  34.352  1.00  0.00    -0.203 F 
ATOM     74  C   UNL A   1      39.039  34.097  36.383  1.00  0.00     0.198 A 
ATOM     75  C   UNL A   1      37.990  32.182  37.381  1.00  0.00     0.198 A 
ATOM     76  F   UNL A   1      38.150  30.078  36.336  1.00  0.00    -0.203 F 
ATOM     77  F   UNL A   1      39.355  35.398  36.419  1.00  0.00    -0.200 F 
ATOM     78  C   UNL A   1      38.293  33.535  37.408  1.00  0.00     0.200 A 
ATOM     79  F   UNL A   1      37.262  31.638  38.365  1.00  0.00    -0.200 F 
ATOM     80  F   UNL A   1      37.869  34.297  38.426  1.00  0.00    -0.200 F 
ENDBRANCH  46  70
BRANCH  58  81
ATOM     81  C   UNL A   1      44.870  28.012  34.400  1.00  0.00     0.064 A 
ATOM     82  C   UNL A   1      46.002  28.838  34.371  1.00  0.00     0.173 A 
ATOM     83  C   UNL A   1      44.864  26.933  35.296  1.00  0.00     0.173 A 
ATOM     84  F   UNL A   1      46.061  29.873  33.519  1.00  0.00    -0.203 F 
ATOM     85  C   UNL A   1      47.095  28.584  35.196  1.00  0.00     0.198 A 
ATOM     86  C   UNL A   1      45.951  26.693  36.133  1.00  0.00     0.198 A 
ATOM     87  F   UNL A   1      43.804  26.115  35.362  1.00  0.00    -0.203 F 
ATOM     88  F   UNL A   1      48.181  29.366  35.128  1.00  0.00    -0.200 F 
ATOM     89  C   UNL A   1      47.066  27.516  36.080  1.00  0.00     0.200 A 
ATOM     90  F   UNL A   1      45.919  25.663  36.991  1.00  0.00    -0.200 F 
ATOM     91  F   UNL A   1      48.117  27.273  36.876  1.00  0.00    -0.200 F 
ENDBRANCH  58  81
ENDBRANCH  32  33
ENDBRANCH  24  27
ENDBRANCH  22  23
ENDBRANCH   1  22
TORSDOF 13
ENDMDL
MODEL 2
REMARK VINA RESULT:     -12.2      0.390      7.277
REMARK SMILES CC(C)C[C@H](C(=O)NCCCNC(=O)c1ccc(-c2c3nc(c(-c4c(F)c(F)c(F)c(F)c4F)c4ccc([nH]4)c(-c4c(F)c(F)c(F)c(F)c4F)c4nc(c(-c5c(F)c(F)c(F)c(F)c5F)c5ccc2[nH]5)C=C4)C=C3)cc1)[C@@H]1CCO[C@]2(CCOC2)C1
REMARK SMILES IDX 10 1 9 2 8 3 6 4 7 5 5 7 4 8 2 9 1 10 3 11 78 12 79 13 87 14
REMARK SMILES IDX 80 15 82 16 81 17 83 18 86 19 84 20 85 21 11 22 12 23 13 24
REMARK SMILES IDX 14 26 15 27 16 28 77 29 17 30 76 31 18 32 19 33 20 34 70 35
REMARK SMILES IDX 21 36 75 37 69 38 71 39 22 40 74 41 68 42 67 43 23 45 55 46
REMARK SMILES IDX 35 47 54 48 36 49 39 50 53 51 72 52 37 53 38 54 52 56 73 57
REMARK SMILES IDX 40 58 24 59 25 60 33 61 26 62 27 63 31 64 34 65 28 66 29 67
REMARK SMILES IDX 32 68 30 69 56 70 57 71 65 72 58 73 59 74 63 75 66 76 60 77
REMARK SMILES IDX 61 78 64 79 62 80 41 81 42 82 50 83 43 84 44 85 48 86 51 87
REMARK SMILES IDX 45 88 46 89 49 90 47 91
REMARK H PARENT 8 6 12 25 71 44 39 55
REMARK Flexibility Score: inf
ROOT
ATOM      1  C   UNL A   1      33.019  29.015  24.528  1.00  0.00     0.042 C 
ENDROOT
BRANCH   1   2
ATOM      2  C   UNL A   1      32.122  28.393  23.432  1.00  0.00     0.117 C 
BRANCH   2   3
ATOM      3  N   UNL A   1      32.783  27.697  22.355  1.00  0.00    -0.356 N 
ATOM      4  C   UNL A   1      33.040  26.389  22.116  1.00  0.00     0.223 C 
ATOM      5  O   UNL A   1      33.278  26.154  20.922  1.00  0.00    -0.275 OA
ATOM      6  H   UNL A   1      33.116  28.297  21.649  1.00  0.00     0.163 HD
BRANCH   4   7
ATOM      7  C   UNL A   1      33.035  25.244  23.172  1.00  0.00     0.082 C 
BRANCH   7   8
ATOM      8  C   UNL A   1      31.526  25.080  23.628  1.00  0.00     0.016 C 
BRANCH   8   9
ATOM      9  C   UNL A   1      31.128  25.058  25.122  1.00  0.00    -0.017 C 
ATOM     10  C   UNL A   1      32.242  25.514  26.061  1.00  0.00     0.007 C 
ATOM     11  C   UNL A   1      29.892  25.947  25.335  1.00  0.00     0.007 C 
ENDBRANCH   8   9
ENDBRANCH   7   8
BRANCH   7  12
ATOM     12  C   UNL A   1      33.655  23.869  22.753  1.00  0.00     0.007 C 
ATOM     13  C   UNL A   1      32.714  22.660  22.840  1.00  0.00     0.033 C 
ATOM     14  C   UNL A   1      35.039  23.540  23.340  1.00  0.00     0.042 C 
ATOM     15  C   UNL A   1      33.036  21.717  23.984  1.00  0.00     0.161 C 
ATOM     16  C   UNL A   1      34.991  22.858  24.724  1.00  0.00     0.094 C 
ATOM     17  O   UNL A   1      33.671  22.416  25.045  1.00  0.00    -0.372 OA
ATOM     18  C   UNL A   1      35.531  23.768  25.819  1.00  0.00     0.066 C 
ATOM     19  C   UNL A   1      35.993  21.704  24.859  1.00  0.00     0.195 C 
ATOM     20  C   UNL A   1      37.031  23.576  25.740  1.00  0.00     0.163 C 
ATOM     21  O   UNL A   1      37.263  22.273  25.194  1.00  0.00    -0.378 OA
ENDBRANCH   7  12
ENDBRANCH   4   7
ENDBRANCH   2   3
ENDBRANCH   1   2
BRANCH   1  22
ATOM     22  C   UNL A   1      32.477  29.195  25.954  1.00  0.00     0.118 C 
BRANCH  22  23
ATOM     23  N   UNL A   1      32.421  30.612  26.309  1.00  0.00    -0.352 N 
ATOM     24  C   UNL A   1      33.193  31.405  27.112  1.00  0.00     0.251 C 
ATOM     25  H   UNL A   1      31.675  31.093  25.883  1.00  0.00     0.163 HD
ATOM     26  O   UNL A   1      32.742  32.506  27.441  1.00  0.00    -0.269 OA
BRANCH  24  27
ATOM     27  C   UNL A   1      34.546  31.035  27.595  1.00  0.00     0.039 A 
ATOM     28  C   UNL A   1      34.749  29.702  27.987  1.00  0.00     0.014 A 
ATOM     29  C   UNL A   1      35.536  31.981  27.875  1.00  0.00     0.014 A 
ATOM     30  C   UNL A   1      35.914  29.320  28.662  1.00  0.00     0.010 A 
ATOM     31  C   UNL A   1      36.718  31.593  28.533  1.00  0.00     0.010 A 
ATOM     32  C   UNL A   1      36.909  30.265  28.956  1.00  0.00    -0.014 A 
BRANCH  32  33
ATOM     33  C   UNL A   1      38.106  29.865  29.750  1.00  0.00     0.031 A 
ATOM     34  C   UNL A   1      38.307  30.379  31.153  1.00  0.00     0.074 A 
ATOM     35  C   UNL A   1      39.018  29.022  29.229  1.00  0.00     0.049 A 
ATOM     36  N   UNL A   1      39.295  30.154  31.987  1.00  0.00    -0.248 NA
ATOM     37  C   UNL A   1      37.263  31.265  31.687  1.00  0.00     0.031 C 
ATOM     38  C   UNL A   1      38.957  28.435  27.893  1.00  0.00     0.029 A 
ATOM     39  N   UNL A   1      40.178  28.513  29.766  1.00  0.00    -0.354 N 
ATOM     40  C   UNL A   1      39.001  30.880  33.134  1.00  0.00     0.074 A 
ATOM     41  C   UNL A   1      37.751  31.569  32.883  1.00  0.00     0.031 C 
ATOM     42  C   UNL A   1      40.028  27.644  27.713  1.00  0.00     0.029 A 
ATOM     43  C   UNL A   1      40.863  27.684  28.912  1.00  0.00     0.049 A 
ATOM     44  H   UNL A   1      40.488  28.723  30.676  1.00  0.00     0.167 HD
ATOM     45  C   UNL A   1      39.700  30.961  34.293  1.00  0.00     0.037 A 
ATOM     46  C   UNL A   1      42.033  27.036  29.069  1.00  0.00     0.037 A 
ATOM     47  C   UNL A   1      40.926  30.259  34.574  1.00  0.00     0.049 A 
ATOM     48  C   UNL A   1      42.792  27.146  30.362  1.00  0.00     0.074 A 
ATOM     49  C   UNL A   1      41.673  30.258  35.741  1.00  0.00     0.029 A 
ATOM     50  N   UNL A   1      41.585  29.432  33.680  1.00  0.00    -0.354 N 
ATOM     51  N   UNL A   1      42.488  27.815  31.446  1.00  0.00    -0.248 NA
ATOM     52  C   UNL A   1      44.060  26.403  30.456  1.00  0.00     0.031 C 
ATOM     53  C   UNL A   1      42.800  29.452  35.543  1.00  0.00     0.029 A 
ATOM     54  C   UNL A   1      42.737  28.927  34.264  1.00  0.00     0.049 A 
ATOM     55  H   UNL A   1      41.281  29.232  32.765  1.00  0.00     0.167 HD
ATOM     56  C   UNL A   1      43.509  27.562  32.352  1.00  0.00     0.074 A 
ATOM     57  C   UNL A   1      44.439  26.667  31.698  1.00  0.00     0.031 C 
ATOM     58  C   UNL A   1      43.657  28.031  33.614  1.00  0.00     0.037 A 
BRANCH  45  59
ATOM     59  C   UNL A   1      39.157  31.858  35.365  1.00  0.00     0.064 A 
ATOM     60  C   UNL A   1      38.334  31.364  36.387  1.00  0.00     0.173 A 
ATOM     61  C   UNL A   1      39.515  33.214  35.406  1.00  0.00     0.173 A 
ATOM     62  F   UNL A   1      37.961  30.075  36.389  1.00  0.00    -0.203 F 
ATOM     63  C   UNL A   1      37.872  32.200  37.400  1.00  0.00     0.198 A 
ATOM     64  C   UNL A   1      39.068  34.043  36.431  1.00  0.00     0.198 A 
ATOM     65  F   UNL A   1      40.310  33.731  34.457  1.00  0.00    -0.203 F 
ATOM     66  F   UNL A   1      37.062  31.715  38.351  1.00  0.00    -0.200 F 
ATOM     67  C   UNL A   1      38.244  33.536  37.425  1.00  0.00     0.200 A 
ATOM     68  F   UNL A   1      39.438  35.330  36.461  1.00  0.00    -0.200 F 
ATOM     69  F   UNL A   1      37.805  34.338  38.406  1.00  0.00    -0.200 F 
ENDBRANCH  45  59
BRANCH  46  70
ATOM     70  C   UNL A   1      42.565  26.205  27.960  1.00  0.00     0.064 A 
ATOM     71  C   UNL A   1      43.413  26.757  26.989  1.00  0.00     0.173 A 
ATOM     72  C   UNL A   1      42.232  24.849  27.846  1.00  0.00     0.173 A 
ATOM     73  F   UNL A   1      43.736  28.057  27.046  1.00  0.00    -0.203 F 
ATOM     74  C   UNL A   1      43.899  25.984  25.939  1.00  0.00     0.198 A 
ATOM     75  C   UNL A   1      42.736  24.071  26.807  1.00  0.00     0.198 A 
ATOM     76  F   UNL A   1      41.421  24.278  28.750  1.00  0.00    -0.203 F 
ATOM     77  F   UNL A   1      44.679  26.542  25.004  1.00  0.00    -0.200 F 
ATOM     78  C   UNL A   1      43.564  24.641  25.851  1.00  0.00     0.200 A 
ATOM     79  F   UNL A   1      42.416  22.773  26.729  1.00  0.00    -0.200 F 
ATOM     80  F   UNL A   1      44.035  23.895  24.842  1.00  0.00    -0.200 F 
ENDBRANCH  46  70
BRANCH  58  81
ATOM     81  C   UNL A   1      44.858  27.570  34.386  1.00  0.00     0.064 A 
ATOM     82  C   UNL A   1      46.055  28.299  34.380  1.00  0.00     0.173 A 
ATOM     83  C   UNL A   1      44.797  26.408  35.170  1.00  0.00     0.173 A 
ATOM     84  F   UNL A   1      46.167  29.408  33.634  1.00  0.00    -0.203 F 
ATOM     85  C   UNL A   1      47.156  27.871  35.117  1.00  0.00     0.198 A 
ATOM     86  C   UNL A   1      45.894  25.994  35.921  1.00  0.00     0.198 A 
ATOM     87  F   UNL A   1      43.673  25.678  35.210  1.00  0.00    -0.203 F 
ATOM     88  F   UNL A   1      48.303  28.564  35.070  1.00  0.00    -0.200 F 
ATOM     89  C   UNL A   1      47.073  26.723  35.891  1.00  0.00     0.200 A 
ATOM     90  F   UNL A   1      45.810  24.887  36.672  1.00  0.00    -0.200 F 
ATOM     91  F   UNL A   1      48.133  26.314  36.603  1.00  0.00    -0.200 F 
ENDBRANCH  58  81
ENDBRANCH  32  33
ENDBRANCH  24  27
ENDBRANCH  22  23
ENDBRANCH   1  22
TORSDOF 13
ENDMDL
MODEL 3
REMARK VINA RESULT:     -12.0      0.366      1.652
REMARK SMILES CC(C)C[C@H](C(=O)NCCCNC(=O)c1ccc(-c2c3nc(c(-c4c(F)c(F)c(F)c(F)c4F)c4ccc([nH]4)c(-c4c(F)c(F)c(F)c(F)c4F)c4nc(c(-c5c(F)c(F)c(F)c(F)c5F)c5ccc2[nH]5)C=C4)C=C3)cc1)[C@@H]1CCO[C@]2(CCOC2)C1
REMARK SMILES IDX 10 1 9 2 8 3 6 4 7 5 5 7 4 8 2 9 1 10 3 11 78 12 79 13 87 14
REMARK SMILES IDX 80 15 82 16 81 17 83 18 86 19 84 20 85 21 11 22 12 23 13 24
REMARK SMILES IDX 14 26 15 27 16 28 77 29 17 30 76 31 18 32 19 33 20 34 70 35
REMARK SMILES IDX 21 36 75 37 69 38 71 39 22 40 74 41 68 42 67 43 23 45 55 46
REMARK SMILES IDX 35 47 54 48 36 49 39 50 53 51 72 52 37 53 38 54 52 56 73 57
REMARK SMILES IDX 40 58 24 59 25 60 33 61 26 62 27 63 31 64 34 65 28 66 29 67
REMARK SMILES IDX 32 68 30 69 56 70 57 71 65 72 58 73 59 74 63 75 66 76 60 77
REMARK SMILES IDX 61 78 64 79 62 80 41 81 42 82 50 83 43 84 44 85 48 86 51 87
REMARK SMILES IDX 45 88 46 89 49 90 47 91
REMARK H PARENT 8 6 12 25 71 44 39 55
REMARK Flexibility Score: inf
ROOT
ATOM      1  C   UNL A   1      32.568  29.023  23.951  1.00  0.00     0.042 C 
ENDROOT
BRANCH   1   2
ATOM      2  C   UNL A   1      31.808  27.926  23.169  1.00  0.00     0.117 C 
BRANCH   2   3
ATOM      3  N   UNL A   1      32.533  27.235  22.130  1.00  0.00    -0.356 N 
ATOM      4  C   UNL A   1      32.936  25.951  21.977  1.00  0.00     0.223 C 
ATOM      5  O   UNL A   1      33.186  25.660  20.798  1.00  0.00    -0.275 OA
ATOM      6  H   UNL A   1      32.786  27.817  21.377  1.00  0.00     0.163 HD
BRANCH   4   7
ATOM      7  C   UNL A   1      33.076  24.891  23.110  1.00  0.00     0.082 C 
BRANCH   7   8
ATOM      8  C   UNL A   1      31.620  24.698  23.705  1.00  0.00     0.016 C 
BRANCH   8   9
ATOM      9  C   UNL A   1      31.340  24.821  25.222  1.00  0.00    -0.017 C 
ATOM     10  C   UNL A   1      32.530  25.342  26.025  1.00  0.00     0.007 C 
ATOM     11  C   UNL A   1      30.134  25.748  25.446  1.00  0.00     0.007 C 
ENDBRANCH   8   9
ENDBRANCH   7   8
BRANCH   7  12
ATOM     12  C   UNL A   1      33.725  23.516  22.740  1.00  0.00     0.007 C 
ATOM     13  C   UNL A   1      32.854  22.278  22.994  1.00  0.00     0.033 C 
ATOM     14  C   UNL A   1      35.167  23.291  23.229  1.00  0.00     0.042 C 
ATOM     15  C   UNL A   1      33.314  21.439  24.171  1.00  0.00     0.161 C 
ATOM     16  C   UNL A   1      35.265  22.715  24.659  1.00  0.00     0.094 C 
ATOM     17  O   UNL A   1      33.999  22.243  25.122  1.00  0.00    -0.372 OA
ATOM     18  C   UNL A   1      35.848  23.728  25.635  1.00  0.00     0.066 C 
ATOM     19  C   UNL A   1      36.330  21.619  24.791  1.00  0.00     0.195 C 
ATOM     20  C   UNL A   1      37.344  23.594  25.442  1.00  0.00     0.163 C 
ATOM     21  O   UNL A   1      37.594  22.265  24.974  1.00  0.00    -0.378 OA
ENDBRANCH   7  12
ENDBRANCH   4   7
ENDBRANCH   2   3
ENDBRANCH   1   2
BRANCH   1  22
ATOM     22  C   UNL A   1      32.513  29.048  25.486  1.00  0.00     0.118 C 
BRANCH  22  23
ATOM     23  N   UNL A   1      32.295  30.410  25.971  1.00  0.00    -0.352 N 
ATOM     24  C   UNL A   1      32.947  31.193  26.882  1.00  0.00     0.251 C 
ATOM     25  H   UNL A   1      31.519  30.853  25.557  1.00  0.00     0.163 HD
ATOM     26  O   UNL A   1      32.370  32.205  27.291  1.00  0.00    -0.269 OA
BRANCH  24  27
ATOM     27  C   UNL A   1      34.312  30.916  27.393  1.00  0.00     0.039 A 
ATOM     28  C   UNL A   1      34.612  29.590  27.744  1.00  0.00     0.014 A 
ATOM     29  C   UNL A   1      35.213  31.927  27.737  1.00  0.00     0.014 A 
ATOM     30  C   UNL A   1      35.785  29.278  28.441  1.00  0.00     0.010 A 
ATOM     31  C   UNL A   1      36.403  31.611  28.417  1.00  0.00     0.010 A 
ATOM     32  C   UNL A   1      36.690  30.288  28.798  1.00  0.00    -0.014 A 
BRANCH  32  33
ATOM     33  C   UNL A   1      37.894  29.957  29.614  1.00  0.00     0.031 A 
ATOM     34  C   UNL A   1      38.948  29.017  29.087  1.00  0.00     0.074 A 
ATOM     35  C   UNL A   1      38.065  30.512  30.831  1.00  0.00     0.049 A 
ATOM     36  N   UNL A   1      40.052  28.600  29.663  1.00  0.00    -0.248 NA
ATOM     37  C   UNL A   1      38.731  28.471  27.741  1.00  0.00     0.031 C 
ATOM     38  C   UNL A   1      37.140  31.444  31.470  1.00  0.00     0.029 A 
ATOM     39  N   UNL A   1      39.081  30.367  31.746  1.00  0.00    -0.354 N 
ATOM     40  C   UNL A   1      40.651  27.733  28.757  1.00  0.00     0.074 A 
ATOM     41  C   UNL A   1      39.779  27.669  27.602  1.00  0.00     0.031 C 
ATOM     42  C   UNL A   1      37.631  31.793  32.671  1.00  0.00     0.029 A 
ATOM     43  C   UNL A   1      38.893  31.092  32.897  1.00  0.00     0.049 A 
ATOM     44  H   UNL A   1      39.870  29.798  31.591  1.00  0.00     0.167 HD
ATOM     45  C   UNL A   1      41.822  27.059  28.870  1.00  0.00     0.037 A 
ATOM     46  C   UNL A   1      39.644  31.178  34.012  1.00  0.00     0.037 A 
ATOM     47  C   UNL A   1      42.717  27.135  29.996  1.00  0.00     0.049 A 
ATOM     48  C   UNL A   1      40.936  30.416  34.116  1.00  0.00     0.074 A 
ATOM     49  C   UNL A   1      43.944  26.513  30.168  1.00  0.00     0.029 A 
ATOM     50  N   UNL A   1      42.486  27.880  31.141  1.00  0.00    -0.354 N 
ATOM     51  N   UNL A   1      41.501  29.622  33.241  1.00  0.00    -0.248 NA
ATOM     52  C   UNL A   1      41.700  30.567  35.366  1.00  0.00     0.031 C 
ATOM     53  C   UNL A   1      44.441  26.859  31.430  1.00  0.00     0.029 A 
ATOM     54  C   UNL A   1      43.540  27.721  32.029  1.00  0.00     0.049 A 
ATOM     55  H   UNL A   1      41.692  28.439  31.301  1.00  0.00     0.167 HD
ATOM     56  C   UNL A   1      42.688  29.196  33.822  1.00  0.00     0.074 A 
ATOM     57  C   UNL A   1      42.772  29.828  35.121  1.00  0.00     0.031 C 
ATOM     58  C   UNL A   1      43.624  28.356  33.318  1.00  0.00     0.037 A 
BRANCH  45  59
ATOM     59  C   UNL A   1      42.212  26.158  27.738  1.00  0.00     0.064 A 
ATOM     60  C   UNL A   1      43.144  26.558  26.770  1.00  0.00     0.173 A 
ATOM     61  C   UNL A   1      41.695  24.856  27.655  1.00  0.00     0.173 A 
ATOM     62  F   UNL A   1      43.664  27.795  26.805  1.00  0.00    -0.203 F 
ATOM     63  C   UNL A   1      43.529  25.695  25.748  1.00  0.00     0.198 A 
ATOM     64  C   UNL A   1      42.097  23.988  26.643  1.00  0.00     0.198 A 
ATOM     65  F   UNL A   1      40.809  24.423  28.564  1.00  0.00    -0.203 F 
ATOM     66  F   UNL A   1      44.399  26.107  24.816  1.00  0.00    -0.200 F 
ATOM     67  C   UNL A   1      43.010  24.409  25.689  1.00  0.00     0.200 A 
ATOM     68  F   UNL A   1      41.604  22.743  26.595  1.00  0.00    -0.200 F 
ATOM     69  F   UNL A   1      43.388  23.577  24.709  1.00  0.00    -0.200 F 
ENDBRANCH  45  59
BRANCH  46  70
ATOM     70  C   UNL A   1      39.191  32.035  35.135  1.00  0.00     0.064 A 
ATOM     71  C   UNL A   1      38.469  31.496  36.209  1.00  0.00     0.173 A 
ATOM     72  C   UNL A   1      39.466  33.410  35.154  1.00  0.00     0.173 A 
ATOM     73  F   UNL A   1      38.161  30.191  36.218  1.00  0.00    -0.203 F 
ATOM     74  C   UNL A   1      38.029  32.302  37.255  1.00  0.00     0.198 A 
ATOM     75  C   UNL A   1      39.043  34.212  36.211  1.00  0.00     0.198 A 
ATOM     76  F   UNL A   1      40.151  33.971  34.147  1.00  0.00    -0.203 F 
ATOM     77  F   UNL A   1      37.309  31.770  38.251  1.00  0.00    -0.200 F 
ATOM     78  C   UNL A   1      38.320  33.658  37.257  1.00  0.00     0.200 A 
ATOM     79  F   UNL A   1      39.333  35.520  36.214  1.00  0.00    -0.200 F 
ATOM     80  F   UNL A   1      37.899  34.434  38.266  1.00  0.00    -0.200 F 
ENDBRANCH  46  70
BRANCH  58  81
ATOM     81  C   UNL A   1      44.835  28.085  34.160  1.00  0.00     0.064 A 
ATOM     82  C   UNL A   1      45.968  28.908  34.098  1.00  0.00     0.173 A 
ATOM     83  C   UNL A   1      44.847  27.014  35.066  1.00  0.00     0.173 A 
ATOM     84  F   UNL A   1      46.009  29.935  33.237  1.00  0.00    -0.203 F 
ATOM     85  C   UNL A   1      47.078  28.658  34.900  1.00  0.00     0.198 A 
ATOM     86  C   UNL A   1      45.952  26.778  35.880  1.00  0.00     0.198 A 
ATOM     87  F   UNL A   1      43.787  26.198  35.164  1.00  0.00    -0.203 F 
ATOM     88  F   UNL A   1      48.165  29.437  34.801  1.00  0.00    -0.200 F 
ATOM     89  C   UNL A   1      47.067  27.598  35.794  1.00  0.00     0.200 A 
ATOM     90  F   UNL A   1      45.938  25.756  36.747  1.00  0.00    -0.200 F 
ATOM     91  F   UNL A   1      48.136  27.359  36.568  1.00  0.00    -0.200 F 
ENDBRANCH  58  81
ENDBRANCH  32  33
ENDBRANCH  24  27
ENDBRANCH  22  23
ENDBRANCH   1  22
TORSDOF 13
ENDMDL
