MODEL 1
REMARK VINA RESULT:     -13.0      0.000      0.000
REMARK SMILES O=C(NCCCNC(=O)c1cc(S[C@H]2CCOC3(CCC3)C2)ccn1)c1ccc(-c2c3nc(c(-c4c(F)c(F)c(F)c(F)c4F)c4ccc([nH]4)c(-c4c(F)c(F)c(F)c(F)c4F)c4nc(c(-c5c(F)c(F)c(F)c(F)c5F)c5ccc2[nH]5)C=C4)C=C3)cc1
REMARK SMILES IDX 5 1 4 2 3 3 1 4 2 5 26 7 27 8 88 9 28 10 87 11 29 12 30 13
REMARK SMILES IDX 31 14 81 15 32 16 86 17 80 18 82 19 33 20 85 21 79 22 78 23
REMARK SMILES IDX 34 25 66 26 46 27 65 28 47 29 50 30 64 31 83 32 48 33 49 34
REMARK SMILES IDX 63 36 84 37 51 38 35 39 36 40 44 41 37 42 38 43 42 44 45 45
REMARK SMILES IDX 39 46 40 47 43 48 41 49 67 50 68 51 76 52 69 53 70 54 74 55
REMARK SMILES IDX 77 56 71 57 72 58 75 59 73 60 52 61 53 62 61 63 54 64 55 65
REMARK SMILES IDX 59 66 62 67 56 68 57 69 60 70 58 71 6 72 7 73 8 74 9 76
REMARK SMILES IDX 10 77 11 78 25 79 12 80 24 81 23 82 13 83 14 84 15 85 22 86
REMARK SMILES IDX 16 87 18 88 17 89 19 90 21 91 20 92
REMARK H PARENT 3 6 82 24 50 35 7 75
REMARK Flexibility Score: inf
ROOT
ATOM      1  C   UNL A   1      31.429  32.415  26.507  1.00  0.00     0.042 C 
ENDROOT
BRANCH   1   2
ATOM      2  C   UNL A   1      32.632  32.960  27.253  1.00  0.00     0.118 C 
BRANCH   2   3
ATOM      3  N   UNL A   1      32.436  34.338  27.689  1.00  0.00    -0.352 N 
ATOM      4  O   UNL A   1      32.592  36.110  29.073  1.00  0.00    -0.269 OA
ATOM      5  C   UNL A   1      33.036  35.022  28.715  1.00  0.00     0.251 C 
ATOM      6  H   UNL A   1      31.777  34.853  27.170  1.00  0.00     0.163 HD
BRANCH   5   7
ATOM      7  C   UNL A   1      34.211  34.439  29.393  1.00  0.00     0.039 A 
ATOM      8  C   UNL A   1      34.046  33.691  30.561  1.00  0.00     0.014 A 
ATOM      9  C   UNL A   1      35.484  34.618  28.847  1.00  0.00     0.014 A 
ATOM     10  C   UNL A   1      35.156  33.252  31.264  1.00  0.00     0.010 A 
ATOM     11  C   UNL A   1      36.595  34.071  29.494  1.00  0.00     0.010 A 
ATOM     12  C   UNL A   1      36.438  33.394  30.713  1.00  0.00    -0.014 A 
BRANCH  12  13
ATOM     13  C   UNL A   1      37.568  32.685  31.358  1.00  0.00     0.031 A 
ATOM     14  C   UNL A   1      38.260  31.537  30.690  1.00  0.00     0.074 A 
ATOM     15  C   UNL A   1      37.958  33.112  32.576  1.00  0.00     0.049 A 
ATOM     16  N   UNL A   1      39.246  30.802  31.139  1.00  0.00    -0.248 NA
ATOM     17  C   UNL A   1      37.790  31.154  29.350  1.00  0.00     0.031 C 
ATOM     18  C   UNL A   1      37.336  34.213  33.320  1.00  0.00     0.029 A 
ATOM     19  N   UNL A   1      38.964  32.686  33.403  1.00  0.00    -0.354 N 
ATOM     20  C   UNL A   1      39.500  29.859  30.154  1.00  0.00     0.074 A 
ATOM     21  C   UNL A   1      38.558  30.104  29.082  1.00  0.00     0.031 C 
ATOM     22  C   UNL A   1      37.992  34.396  34.473  1.00  0.00     0.029 A 
ATOM     23  C   UNL A   1      39.024  33.375  34.590  1.00  0.00     0.049 A 
ATOM     24  H   UNL A   1      39.583  31.957  33.169  1.00  0.00     0.167 HD
ATOM     25  C   UNL A   1      40.438  28.881  30.156  1.00  0.00     0.037 A 
ATOM     26  C   UNL A   1      39.793  33.180  35.675  1.00  0.00     0.037 A 
ATOM     27  C   UNL A   1      41.383  28.669  31.223  1.00  0.00     0.049 A 
ATOM     28  C   UNL A   1      40.794  32.061  35.652  1.00  0.00     0.074 A 
ATOM     29  C   UNL A   1      42.422  27.757  31.283  1.00  0.00     0.029 A 
ATOM     30  N   UNL A   1      41.394  29.366  32.423  1.00  0.00    -0.354 N 
ATOM     31  N   UNL A   1      41.072  31.221  34.685  1.00  0.00    -0.248 NA
ATOM     32  C   UNL A   1      41.580  31.854  36.875  1.00  0.00     0.031 C 
ATOM     33  C   UNL A   1      43.019  27.855  32.543  1.00  0.00     0.029 A 
ATOM     34  C   UNL A   1      42.391  28.868  33.248  1.00  0.00     0.049 A 
ATOM     35  H   UNL A   1      40.786  30.105  32.654  1.00  0.00     0.167 HD
ATOM     36  C   UNL A   1      42.069  30.393  35.177  1.00  0.00     0.074 A 
ATOM     37  C   UNL A   1      42.373  30.855  36.516  1.00  0.00     0.031 C 
ATOM     38  C   UNL A   1      42.672  29.338  34.580  1.00  0.00     0.037 A 
BRANCH  25  39
ATOM     39  C   UNL A   1      40.493  27.941  28.988  1.00  0.00     0.064 A 
ATOM     40  C   UNL A   1      39.708  26.781  28.932  1.00  0.00     0.173 A 
ATOM     41  C   UNL A   1      41.259  28.271  27.857  1.00  0.00     0.173 A 
ATOM     42  F   UNL A   1      38.965  26.417  29.987  1.00  0.00    -0.203 F 
ATOM     43  C   UNL A   1      39.690  25.984  27.789  1.00  0.00     0.198 A 
ATOM     44  C   UNL A   1      41.219  27.487  26.708  1.00  0.00     0.198 A 
ATOM     45  F   UNL A   1      42.021  29.375  27.856  1.00  0.00    -0.203 F 
ATOM     46  F   UNL A   1      38.946  24.869  27.763  1.00  0.00    -0.200 F 
ATOM     47  C   UNL A   1      40.434  26.344  26.675  1.00  0.00     0.200 A 
ATOM     48  F   UNL A   1      41.926  27.846  25.628  1.00  0.00    -0.200 F 
ATOM     49  F   UNL A   1      40.395  25.591  25.567  1.00  0.00    -0.200 F 
ENDBRANCH  25  39
BRANCH  26  50
ATOM     50  C   UNL A   1      39.605  34.022  36.884  1.00  0.00     0.064 A 
ATOM     51  C   UNL A   1      38.831  33.579  37.965  1.00  0.00     0.173 A 
ATOM     52  C   UNL A   1      40.178  35.301  36.974  1.00  0.00     0.173 A 
ATOM     53  F   UNL A   1      38.250  32.371  37.922  1.00  0.00    -0.203 F 
ATOM     54  C   UNL A   1      38.609  34.395  39.072  1.00  0.00     0.198 A 
ATOM     55  C   UNL A   1      39.987  36.100  38.098  1.00  0.00     0.198 A 
ATOM     56  F   UNL A   1      40.934  35.771  35.971  1.00  0.00    -0.203 F 
ATOM     57  F   UNL A   1      37.812  33.973  40.062  1.00  0.00    -0.200 F 
ATOM     58  C   UNL A   1      39.191  35.652  39.139  1.00  0.00     0.200 A 
ATOM     59  F   UNL A   1      40.569  37.304  38.166  1.00  0.00    -0.200 F 
ATOM     60  F   UNL A   1      38.975  36.438  40.203  1.00  0.00    -0.200 F 
ENDBRANCH  26  50
BRANCH  38  61
ATOM     61  C   UNL A   1      43.723  28.618  35.371  1.00  0.00     0.064 A 
ATOM     62  C   UNL A   1      45.075  28.983  35.292  1.00  0.00     0.173 A 
ATOM     63  C   UNL A   1      43.372  27.573  36.239  1.00  0.00     0.173 A 
ATOM     64  F   UNL A   1      45.463  29.961  34.460  1.00  0.00    -0.203 F 
ATOM     65  C   UNL A   1      46.041  28.311  36.036  1.00  0.00     0.198 A 
ATOM     66  C   UNL A   1      44.337  26.927  37.006  1.00  0.00     0.198 A 
ATOM     67  F   UNL A   1      42.093  27.189  36.353  1.00  0.00    -0.203 F 
ATOM     68  F   UNL A   1      47.333  28.642  35.905  1.00  0.00    -0.200 F 
ATOM     69  C   UNL A   1      45.670  27.291  36.898  1.00  0.00     0.200 A 
ATOM     70  F   UNL A   1      43.975  25.950  37.850  1.00  0.00    -0.200 F 
ATOM     71  F   UNL A   1      46.601  26.652  37.621  1.00  0.00    -0.200 F 
ENDBRANCH  38  61
ENDBRANCH  12  13
ENDBRANCH   5   7
ENDBRANCH   2   3
ENDBRANCH   1   2
BRANCH   1  72
ATOM     72  C   UNL A   1      31.390  30.900  26.483  1.00  0.00     0.118 C 
BRANCH  72  73
ATOM     73  N   UNL A   1      32.638  30.317  26.955  1.00  0.00    -0.351 N 
ATOM     74  C   UNL A   1      32.995  28.985  27.024  1.00  0.00     0.269 C 
ATOM     75  H   UNL A   1      33.318  30.958  27.266  1.00  0.00     0.163 HD
ATOM     76  O   UNL A   1      34.015  28.660  27.623  1.00  0.00    -0.268 OA
BRANCH  74  77
ATOM     77  C   UNL A   1      32.154  27.986  26.312  1.00  0.00     0.129 A 
ATOM     78  C   UNL A   1      32.018  28.113  24.935  1.00  0.00     0.049 A 
ATOM     79  N   UNL A   1      31.521  27.053  27.056  1.00  0.00    -0.251 NA
ATOM     80  C   UNL A   1      31.123  27.296  24.267  1.00  0.00     0.011 A 
ATOM     81  C   UNL A   1      30.707  26.221  26.379  1.00  0.00     0.113 A 
ATOM     82  C   UNL A   1      30.468  26.313  25.012  1.00  0.00     0.035 A 
BRANCH  80  83
ATOM     83  S   UNL A   1      30.803  27.400  22.513  1.00  0.00    -0.122 SA
BRANCH  83  84
ATOM     84  C   UNL A   1      29.370  28.570  22.319  1.00  0.00     0.057 C 
ATOM     85  C   UNL A   1      28.154  28.108  23.133  1.00  0.00     0.043 C 
ATOM     86  C   UNL A   1      29.835  29.946  22.842  1.00  0.00     0.050 C 
ATOM     87  C   UNL A   1      27.052  29.149  23.036  1.00  0.00     0.162 C 
ATOM     88  C   UNL A   1      28.682  30.956  22.903  1.00  0.00     0.069 C 
ATOM     89  O   UNL A   1      27.533  30.374  23.567  1.00  0.00    -0.375 OA
ATOM     90  C   UNL A   1      29.125  32.312  23.536  1.00  0.00     0.035 C 
ATOM     91  C   UNL A   1      28.367  31.777  21.613  1.00  0.00     0.035 C 
ATOM     92  C   UNL A   1      28.221  33.020  22.514  1.00  0.00     0.006 C 
ENDBRANCH  83  84
ENDBRANCH  80  83
ENDBRANCH  74  77
ENDBRANCH  72  73
ENDBRANCH   1  72
TORSDOF 12
ENDMDL
MODEL 2
REMARK VINA RESULT:     -12.9      1.819      3.537
REMARK SMILES O=C(NCCCNC(=O)c1cc(S[C@H]2CCOC3(CCC3)C2)ccn1)c1ccc(-c2c3nc(c(-c4c(F)c(F)c(F)c(F)c4F)c4ccc([nH]4)c(-c4c(F)c(F)c(F)c(F)c4F)c4nc(c(-c5c(F)c(F)c(F)c(F)c5F)c5ccc2[nH]5)C=C4)C=C3)cc1
REMARK SMILES IDX 5 1 4 2 3 3 1 4 2 5 26 7 27 8 88 9 28 10 87 11 29 12 30 13
REMARK SMILES IDX 31 14 81 15 32 16 86 17 80 18 82 19 33 20 85 21 79 22 78 23
REMARK SMILES IDX 34 25 66 26 46 27 65 28 47 29 50 30 64 31 83 32 48 33 49 34
REMARK SMILES IDX 63 36 84 37 51 38 35 39 36 40 44 41 37 42 38 43 42 44 45 45
REMARK SMILES IDX 39 46 40 47 43 48 41 49 67 50 68 51 76 52 69 53 70 54 74 55
REMARK SMILES IDX 77 56 71 57 72 58 75 59 73 60 52 61 53 62 61 63 54 64 55 65
REMARK SMILES IDX 59 66 62 67 56 68 57 69 60 70 58 71 6 72 7 73 8 74 9 76
REMARK SMILES IDX 10 77 11 78 25 79 12 80 24 81 23 82 13 83 14 84 15 85 22 86
REMARK SMILES IDX 16 87 18 88 17 89 19 90 21 91 20 92
REMARK H PARENT 3 6 82 24 50 35 7 75
REMARK Flexibility Score: inf
ROOT
ATOM      1  C   UNL A   1      31.403  32.190  26.511  1.00  0.00     0.042 C 
ENDROOT
BRANCH   1   2
ATOM      2  C   UNL A   1      32.606  32.742  27.251  1.00  0.00     0.118 C 
BRANCH   2   3
ATOM      3  N   UNL A   1      32.432  34.141  27.624  1.00  0.00    -0.352 N 
ATOM      4  O   UNL A   1      32.613  35.970  28.929  1.00  0.00    -0.269 OA
ATOM      5  C   UNL A   1      33.039  34.860  28.622  1.00  0.00     0.251 C 
ATOM      6  H   UNL A   1      31.783  34.644  27.080  1.00  0.00     0.163 HD
BRANCH   5   7
ATOM      7  C   UNL A   1      34.202  34.289  29.330  1.00  0.00     0.039 A 
ATOM      8  C   UNL A   1      34.011  33.473  30.447  1.00  0.00     0.014 A 
ATOM      9  C   UNL A   1      35.493  34.547  28.861  1.00  0.00     0.014 A 
ATOM     10  C   UNL A   1      35.101  33.041  31.184  1.00  0.00     0.010 A 
ATOM     11  C   UNL A   1      36.592  34.010  29.536  1.00  0.00     0.010 A 
ATOM     12  C   UNL A   1      36.403  33.263  30.709  1.00  0.00    -0.014 A 
BRANCH  12  13
ATOM     13  C   UNL A   1      37.527  32.566  31.375  1.00  0.00     0.031 A 
ATOM     14  C   UNL A   1      38.225  31.406  30.732  1.00  0.00     0.074 A 
ATOM     15  C   UNL A   1      37.907  33.013  32.589  1.00  0.00     0.049 A 
ATOM     16  N   UNL A   1      39.208  30.679  31.202  1.00  0.00    -0.248 NA
ATOM     17  C   UNL A   1      37.765  31.000  29.396  1.00  0.00     0.031 C 
ATOM     18  C   UNL A   1      37.280  34.128  33.308  1.00  0.00     0.029 A 
ATOM     19  N   UNL A   1      38.907  32.602  33.430  1.00  0.00    -0.354 N 
ATOM     20  C   UNL A   1      39.469  29.719  30.235  1.00  0.00     0.074 A 
ATOM     21  C   UNL A   1      38.535  29.946  29.152  1.00  0.00     0.031 C 
ATOM     22  C   UNL A   1      37.927  34.330  34.463  1.00  0.00     0.029 A 
ATOM     23  C   UNL A   1      38.958  33.312  34.606  1.00  0.00     0.049 A 
ATOM     24  H   UNL A   1      39.528  31.869  33.214  1.00  0.00     0.167 HD
ATOM     25  C   UNL A   1      40.407  28.742  30.261  1.00  0.00     0.037 A 
ATOM     26  C   UNL A   1      39.719  33.136  35.700  1.00  0.00     0.037 A 
ATOM     27  C   UNL A   1      41.343  28.549  31.339  1.00  0.00     0.049 A 
ATOM     28  C   UNL A   1      40.719  32.017  35.705  1.00  0.00     0.074 A 
ATOM     29  C   UNL A   1      42.382  27.638  31.423  1.00  0.00     0.029 A 
ATOM     30  N   UNL A   1      41.345  29.266  32.527  1.00  0.00    -0.354 N 
ATOM     31  N   UNL A   1      41.006  31.160  34.754  1.00  0.00    -0.248 NA
ATOM     32  C   UNL A   1      41.496  31.831  36.937  1.00  0.00     0.031 C 
ATOM     33  C   UNL A   1      42.969  27.757  32.686  1.00  0.00     0.029 A 
ATOM     34  C   UNL A   1      42.335  28.783  33.368  1.00  0.00     0.049 A 
ATOM     35  H   UNL A   1      40.735  30.009  32.740  1.00  0.00     0.167 HD
ATOM     36  C   UNL A   1      41.999  30.341  35.268  1.00  0.00     0.074 A 
ATOM     37  C   UNL A   1      42.292  30.826  36.601  1.00  0.00     0.031 C 
ATOM     38  C   UNL A   1      42.606  29.276  34.694  1.00  0.00     0.037 A 
BRANCH  25  39
ATOM     39  C   UNL A   1      40.471  27.782  29.110  1.00  0.00     0.064 A 
ATOM     40  C   UNL A   1      39.672  26.632  29.059  1.00  0.00     0.173 A 
ATOM     41  C   UNL A   1      41.263  28.083  27.990  1.00  0.00     0.173 A 
ATOM     42  F   UNL A   1      38.903  26.296  30.105  1.00  0.00    -0.203 F 
ATOM     43  C   UNL A   1      39.664  25.816  27.928  1.00  0.00     0.198 A 
ATOM     44  C   UNL A   1      41.234  27.280  26.853  1.00  0.00     0.198 A 
ATOM     45  F   UNL A   1      42.040  29.175  27.985  1.00  0.00    -0.203 F 
ATOM     46  F   UNL A   1      38.905  24.712  27.906  1.00  0.00    -0.200 F 
ATOM     47  C   UNL A   1      40.434  26.147  26.823  1.00  0.00     0.200 A 
ATOM     48  F   UNL A   1      41.967  27.611  25.781  1.00  0.00    -0.200 F 
ATOM     49  F   UNL A   1      40.405  25.376  25.728  1.00  0.00    -0.200 F 
ENDBRANCH  25  39
BRANCH  26  50
ATOM     50  C   UNL A   1      39.521  33.998  36.893  1.00  0.00     0.064 A 
ATOM     51  C   UNL A   1      40.133  35.255  36.992  1.00  0.00     0.173 A 
ATOM     52  C   UNL A   1      38.733  33.571  37.974  1.00  0.00     0.173 A 
ATOM     53  F   UNL A   1      40.909  35.702  35.993  1.00  0.00    -0.203 F 
ATOM     54  C   UNL A   1      39.992  36.035  38.137  1.00  0.00     0.198 A 
ATOM     55  C   UNL A   1      38.561  34.369  39.102  1.00  0.00     0.198 A 
ATOM     56  F   UNL A   1      38.118  32.380  37.929  1.00  0.00    -0.203 F 
ATOM     57  F   UNL A   1      40.641  37.203  38.232  1.00  0.00    -0.200 F 
ATOM     58  C   UNL A   1      39.203  35.594  39.189  1.00  0.00     0.200 A 
ATOM     59  F   UNL A   1      37.781  33.946  40.105  1.00  0.00    -0.200 F 
ATOM     60  F   UNL A   1      39.071  36.343  40.291  1.00  0.00    -0.200 F 
ENDBRANCH  26  50
BRANCH  38  61
ATOM     61  C   UNL A   1      43.651  28.570  35.506  1.00  0.00     0.064 A 
ATOM     62  C   UNL A   1      45.009  28.902  35.396  1.00  0.00     0.173 A 
ATOM     63  C   UNL A   1      43.288  27.572  36.423  1.00  0.00     0.173 A 
ATOM     64  F   UNL A   1      45.408  29.834  34.518  1.00  0.00    -0.203 F 
ATOM     65  C   UNL A   1      45.970  28.244  36.159  1.00  0.00     0.198 A 
ATOM     66  C   UNL A   1      44.248  26.941  37.208  1.00  0.00     0.198 A 
ATOM     67  F   UNL A   1      42.003  27.221  36.568  1.00  0.00    -0.203 F 
ATOM     68  F   UNL A   1      47.266  28.541  36.001  1.00  0.00    -0.200 F 
ATOM     69  C   UNL A   1      45.587  27.271  37.070  1.00  0.00     0.200 A 
ATOM     70  F   UNL A   1      43.876  26.011  38.099  1.00  0.00    -0.200 F 
ATOM     71  F   UNL A   1      46.513  26.646  37.811  1.00  0.00    -0.200 F 
ENDBRANCH  38  61
ENDBRANCH  12  13
ENDBRANCH   5   7
ENDBRANCH   2   3
ENDBRANCH   1   2
BRANCH   1  72
ATOM     72  C   UNL A   1      31.485  30.692  26.293  1.00  0.00     0.118 C 
BRANCH  72  73
ATOM     73  N   UNL A   1      32.558  30.334  25.376  1.00  0.00    -0.351 N 
ATOM     74  C   UNL A   1      32.728  29.165  24.663  1.00  0.00     0.269 C 
ATOM     75  H   UNL A   1      33.256  31.018  25.247  1.00  0.00     0.163 HD
ATOM     76  O   UNL A   1      33.787  28.957  24.080  1.00  0.00    -0.268 OA
BRANCH  74  77
ATOM     77  C   UNL A   1      31.587  28.214  24.575  1.00  0.00     0.129 A 
ATOM     78  C   UNL A   1      31.626  27.076  25.372  1.00  0.00     0.049 A 
ATOM     79  N   UNL A   1      30.614  28.482  23.678  1.00  0.00    -0.251 NA
ATOM     80  C   UNL A   1      30.660  26.100  25.200  1.00  0.00     0.011 A 
ATOM     81  C   UNL A   1      29.644  27.554  23.574  1.00  0.00     0.113 A 
ATOM     82  C   UNL A   1      29.633  26.361  24.290  1.00  0.00     0.035 A 
BRANCH  80  83
ATOM     83  S   UNL A   1      30.631  24.563  26.109  1.00  0.00    -0.122 SA
BRANCH  83  84
ATOM     84  C   UNL A   1      32.409  24.063  26.332  1.00  0.00     0.057 C 
ATOM     85  C   UNL A   1      32.538  22.845  27.256  1.00  0.00     0.043 C 
ATOM     86  C   UNL A   1      32.955  23.698  24.936  1.00  0.00     0.050 C 
ATOM     87  C   UNL A   1      33.990  22.405  27.317  1.00  0.00     0.162 C 
ATOM     88  C   UNL A   1      34.364  23.094  25.010  1.00  0.00     0.069 C 
ATOM     89  O   UNL A   1      34.415  22.048  26.011  1.00  0.00    -0.375 OA
ATOM     90  C   UNL A   1      34.872  22.621  23.612  1.00  0.00     0.035 C 
ATOM     91  C   UNL A   1      35.575  24.078  25.006  1.00  0.00     0.035 C 
ATOM     92  C   UNL A   1      36.269  23.123  24.013  1.00  0.00     0.006 C 
ENDBRANCH  83  84
ENDBRANCH  80  83
ENDBRANCH  74  77
ENDBRANCH  72  73
ENDBRANCH   1  72
TORSDOF 12
ENDMDL
MODEL 3
REMARK VINA RESULT:     -12.9      6.060     11.320
REMARK SMILES O=C(NCCCNC(=O)c1cc(S[C@H]2CCOC3(CCC3)C2)ccn1)c1ccc(-c2c3nc(c(-c4c(F)c(F)c(F)c(F)c4F)c4ccc([nH]4)c(-c4c(F)c(F)c(F)c(F)c4F)c4nc(c(-c5c(F)c(F)c(F)c(F)c5F)c5ccc2[nH]5)C=C4)C=C3)cc1
REMARK SMILES IDX 5 1 4 2 3 3 1 4 2 5 26 7 27 8 88 9 28 10 87 11 29 12 30 13
REMARK SMILES IDX 31 14 81 15 32 16 86 17 80 18 82 19 33 20 85 21 79 22 78 23
REMARK SMILES IDX 34 25 66 26 46 27 65 28 47 29 50 30 64 31 83 32 48 33 49 34
REMARK SMILES IDX 63 36 84 37 51 38 35 39 36 40 44 41 37 42 38 43 42 44 45 45
REMARK SMILES IDX 39 46 40 47 43 48 41 49 67 50 68 51 76 52 69 53 70 54 74 55
REMARK SMILES IDX 77 56 71 57 72 58 75 59 73 60 52 61 53 62 61 63 54 64 55 65
REMARK SMILES IDX 59 66 62 67 56 68 57 69 60 70 58 71 6 72 7 73 8 74 9 76
REMARK SMILES IDX 10 77 11 78 25 79 12 80 24 81 23 82 13 83 14 84 15 85 22 86
REMARK SMILES IDX 16 87 18 88 17 89 19 90 21 91 20 92
REMARK H PARENT 3 6 82 24 50 35 7 75
REMARK Flexibility Score: inf
ROOT
ATOM      1  C   UNL A   1      37.928  19.771  24.995  1.00  0.00     0.042 C 
ENDROOT
BRANCH   1   2
ATOM      2  C   UNL A   1      39.078  20.235  25.869  1.00  0.00     0.118 C 
BRANCH   2   3
ATOM      3  N   UNL A   1      40.138  19.238  25.963  1.00  0.00    -0.352 N 
ATOM      4  O   UNL A   1      42.255  18.463  25.938  1.00  0.00    -0.269 OA
ATOM      5  C   UNL A   1      41.492  19.414  26.090  1.00  0.00     0.251 C 
ATOM      6  H   UNL A   1      39.838  18.300  25.931  1.00  0.00     0.163 HD
BRANCH   5   7
ATOM      7  C   UNL A   1      42.028  20.753  26.402  1.00  0.00     0.039 A 
ATOM      8  C   UNL A   1      42.269  21.668  25.374  1.00  0.00     0.014 A 
ATOM      9  C   UNL A   1      42.270  21.110  27.731  1.00  0.00     0.014 A 
ATOM     10  C   UNL A   1      42.888  22.875  25.653  1.00  0.00     0.010 A 
ATOM     11  C   UNL A   1      42.783  22.377  28.023  1.00  0.00     0.010 A 
ATOM     12  C   UNL A   1      43.106  23.263  26.984  1.00  0.00    -0.014 A 
BRANCH  12  13
ATOM     13  C   UNL A   1      43.523  24.658  27.254  1.00  0.00     0.031 A 
ATOM     14  C   UNL A   1      42.562  25.675  27.791  1.00  0.00     0.074 A 
ATOM     15  C   UNL A   1      44.806  24.986  27.003  1.00  0.00     0.049 A 
ATOM     16  N   UNL A   1      42.773  26.940  28.055  1.00  0.00    -0.248 NA
ATOM     17  C   UNL A   1      41.189  25.227  28.064  1.00  0.00     0.031 C 
ATOM     18  C   UNL A   1      45.817  24.070  26.462  1.00  0.00     0.029 A 
ATOM     19  N   UNL A   1      45.486  26.163  27.168  1.00  0.00    -0.354 N 
ATOM     20  C   UNL A   1      41.560  27.445  28.501  1.00  0.00     0.074 A 
ATOM     21  C   UNL A   1      40.609  26.353  28.464  1.00  0.00     0.031 C 
ATOM     22  C   UNL A   1      46.991  24.709  26.373  1.00  0.00     0.029 A 
ATOM     23  C   UNL A   1      46.798  26.097  26.766  1.00  0.00     0.049 A 
ATOM     24  H   UNL A   1      45.075  26.978  27.539  1.00  0.00     0.167 HD
ATOM     25  C   UNL A   1      41.278  28.707  28.902  1.00  0.00     0.037 A 
ATOM     26  C   UNL A   1      47.735  27.058  26.680  1.00  0.00     0.037 A 
ATOM     27  C   UNL A   1      42.244  29.775  28.954  1.00  0.00     0.049 A 
ATOM     28  C   UNL A   1      47.371  28.453  27.097  1.00  0.00     0.074 A 
ATOM     29  C   UNL A   1      42.076  31.066  29.422  1.00  0.00     0.029 A 
ATOM     30  N   UNL A   1      43.556  29.680  28.511  1.00  0.00    -0.354 N 
ATOM     31  N   UNL A   1      46.239  28.901  27.585  1.00  0.00    -0.248 NA
ATOM     32  C   UNL A   1      48.409  29.481  26.942  1.00  0.00     0.031 C 
ATOM     33  C   UNL A   1      43.261  31.772  29.198  1.00  0.00     0.029 A 
ATOM     34  C   UNL A   1      44.190  30.905  28.647  1.00  0.00     0.049 A 
ATOM     35  H   UNL A   1      43.974  28.863  28.153  1.00  0.00     0.167 HD
ATOM     36  C   UNL A   1      46.431  30.256  27.804  1.00  0.00     0.074 A 
ATOM     37  C   UNL A   1      47.798  30.551  27.429  1.00  0.00     0.031 C 
ATOM     38  C   UNL A   1      45.551  31.178  28.262  1.00  0.00     0.037 A 
BRANCH  25  39
ATOM     39  C   UNL A   1      39.868  29.033  29.301  1.00  0.00     0.064 A 
ATOM     40  C   UNL A   1      38.886  29.355  28.355  1.00  0.00     0.173 A 
ATOM     41  C   UNL A   1      39.472  28.906  30.643  1.00  0.00     0.173 A 
ATOM     42  F   UNL A   1      39.213  29.495  27.062  1.00  0.00    -0.203 F 
ATOM     43  C   UNL A   1      37.558  29.540  28.737  1.00  0.00     0.198 A 
ATOM     44  C   UNL A   1      38.141  29.067  31.017  1.00  0.00     0.198 A 
ATOM     45  F   UNL A   1      40.372  28.592  31.586  1.00  0.00    -0.203 F 
ATOM     46  F   UNL A   1      36.637  29.865  27.818  1.00  0.00    -0.200 F 
ATOM     47  C   UNL A   1      37.185  29.384  30.064  1.00  0.00     0.200 A 
ATOM     48  F   UNL A   1      37.781  28.900  32.297  1.00  0.00    -0.200 F 
ATOM     49  F   UNL A   1      35.904  29.537  30.425  1.00  0.00    -0.200 F 
ENDBRANCH  25  39
BRANCH  26  50
ATOM     50  C   UNL A   1      49.077  26.745  26.125  1.00  0.00     0.064 A 
ATOM     51  C   UNL A   1      49.378  26.976  24.777  1.00  0.00     0.173 A 
ATOM     52  C   UNL A   1      50.081  26.182  26.930  1.00  0.00     0.173 A 
ATOM     53  F   UNL A   1      48.448  27.497  23.963  1.00  0.00    -0.203 F 
ATOM     54  C   UNL A   1      50.618  26.626  24.247  1.00  0.00     0.198 A 
ATOM     55  C   UNL A   1      51.333  25.870  26.408  1.00  0.00     0.198 A 
ATOM     56  F   UNL A   1      49.848  25.947  28.230  1.00  0.00    -0.203 F 
ATOM     57  F   UNL A   1      50.857  26.798  22.941  1.00  0.00    -0.200 F 
ATOM     58  C   UNL A   1      51.596  26.078  25.064  1.00  0.00     0.200 A 
ATOM     59  F   UNL A   1      52.280  25.360  27.207  1.00  0.00    -0.200 F 
ATOM     60  F   UNL A   1      52.787  25.739  24.554  1.00  0.00    -0.200 F 
ENDBRANCH  26  50
BRANCH  38  61
ATOM     61  C   UNL A   1      46.046  32.588  28.387  1.00  0.00     0.064 A 
ATOM     62  C   UNL A   1      45.892  33.511  27.341  1.00  0.00     0.173 A 
ATOM     63  C   UNL A   1      46.653  33.030  29.572  1.00  0.00     0.173 A 
ATOM     64  F   UNL A   1      45.337  33.130  26.181  1.00  0.00    -0.203 F 
ATOM     65  C   UNL A   1      46.350  34.819  27.470  1.00  0.00     0.198 A 
ATOM     66  C   UNL A   1      47.079  34.347  29.708  1.00  0.00     0.198 A 
ATOM     67  F   UNL A   1      46.819  32.187  30.601  1.00  0.00    -0.203 F 
ATOM     68  F   UNL A   1      46.240  35.669  26.440  1.00  0.00    -0.200 F 
ATOM     69  C   UNL A   1      46.934  35.238  28.656  1.00  0.00     0.200 A 
ATOM     70  F   UNL A   1      47.630  34.755  30.860  1.00  0.00    -0.200 F 
ATOM     71  F   UNL A   1      47.366  36.501  28.781  1.00  0.00    -0.200 F 
ENDBRANCH  38  61
ENDBRANCH  12  13
ENDBRANCH   5   7
ENDBRANCH   2   3
ENDBRANCH   1   2
BRANCH   1  72
ATOM     72  C   UNL A   1      36.858  20.831  24.823  1.00  0.00     0.118 C 
BRANCH  72  73
ATOM     73  N   UNL A   1      36.105  21.048  26.051  1.00  0.00    -0.351 N 
ATOM     74  C   UNL A   1      34.830  21.554  26.202  1.00  0.00     0.269 C 
ATOM     75  H   UNL A   1      36.568  20.800  26.885  1.00  0.00     0.163 HD
ATOM     76  O   UNL A   1      34.420  21.843  27.322  1.00  0.00    -0.268 OA
BRANCH  74  77
ATOM     77  C   UNL A   1      33.966  21.675  24.997  1.00  0.00     0.129 A 
ATOM     78  C   UNL A   1      33.834  22.930  24.416  1.00  0.00     0.049 A 
ATOM     79  N   UNL A   1      33.312  20.570  24.580  1.00  0.00    -0.251 NA
ATOM     80  C   UNL A   1      32.919  23.106  23.392  1.00  0.00     0.011 A 
ATOM     81  C   UNL A   1      32.478  20.745  23.536  1.00  0.00     0.113 A 
ATOM     82  C   UNL A   1      32.241  21.975  22.931  1.00  0.00     0.035 A 
BRANCH  80  83
ATOM     83  S   UNL A   1      32.603  24.677  22.604  1.00  0.00    -0.122 SA
BRANCH  83  84
ATOM     84  C   UNL A   1      31.614  25.675  23.824  1.00  0.00     0.057 C 
ATOM     85  C   UNL A   1      30.721  24.776  24.690  1.00  0.00     0.043 C 
ATOM     86  C   UNL A   1      32.622  26.410  24.731  1.00  0.00     0.050 C 
ATOM     87  C   UNL A   1      30.021  25.619  25.743  1.00  0.00     0.162 C 
ATOM     88  C   UNL A   1      31.929  27.128  25.897  1.00  0.00     0.069 C 
ATOM     89  O   UNL A   1      31.003  26.234  26.563  1.00  0.00    -0.375 OA
ATOM     90  C   UNL A   1      32.955  27.778  26.877  1.00  0.00     0.035 C 
ATOM     91  C   UNL A   1      31.402  28.575  25.647  1.00  0.00     0.035 C 
ATOM     92  C   UNL A   1      31.980  28.957  27.025  1.00  0.00     0.006 C 
ENDBRANCH  83  84
ENDBRANCH  80  83
ENDBRANCH  74  77
ENDBRANCH  72  73
ENDBRANCH   1  72
TORSDOF 12
ENDMDL
