MODEL 1
REMARK VINA RESULT:     -11.8      0.000      0.000
REMARK SMILES COC(=O)Cc1nc(NC(=O)[C@H]2CC[C@@H]2C(=O)NCCCNC(=O)c2ccc(-c3c4nc(c(-c5c(F)c(F)c(F)c(F)c5F)c5ccc([nH]5)c(-c5c(F)c(F)c(F)c(F)c5F)c5nc(c(-c6c(F)c(F)c(F)c(F)c6F)c6ccc3[nH]6)C=C5)C=C4)cc2)sc1C
REMARK SMILES IDX 16 1 17 2 18 3 15 5 12 6 13 7 14 8 10 9 9 10 11 12 8 13 6 14
REMARK SMILES IDX 7 15 89 16 88 17 90 18 5 19 3 20 4 21 2 22 1 23 19 24 20 25
REMARK SMILES IDX 21 26 22 27 23 28 24 30 25 31 26 32 87 33 27 34 86 35 28 36
REMARK SMILES IDX 29 37 30 38 80 39 31 40 85 41 79 42 81 43 32 44 84 45 78 46
REMARK SMILES IDX 77 47 33 49 65 50 45 51 64 52 46 53 49 54 63 55 82 56 47 57
REMARK SMILES IDX 48 58 62 60 83 61 50 62 34 63 35 64 43 65 36 66 37 67 41 68
REMARK SMILES IDX 44 69 38 70 39 71 42 72 40 73 66 74 67 75 75 76 68 77 69 78
REMARK SMILES IDX 73 79 76 80 70 81 71 82 74 83 72 84 51 85 52 86 60 87 53 88
REMARK SMILES IDX 54 89 58 90 61 91 55 92 56 93 59 94 57 95
REMARK H PARENT 18 4 9 11 22 29 81 48 49 59
REMARK Flexibility Score: inf
ROOT
ATOM      1  C   UNL A   1      31.610  27.185  23.728  1.00  0.00     0.223 C 
ATOM      2  O   UNL A   1      32.057  27.097  22.578  1.00  0.00    -0.275 OA
ATOM      3  N   UNL A   1      32.019  28.281  24.455  1.00  0.00    -0.356 N 
ATOM      4  H   UNL A   1      32.681  28.853  24.005  1.00  0.00     0.163 HD
ENDROOT
BRANCH   1   5
ATOM      5  C   UNL A   1      30.665  26.131  24.374  1.00  0.00     0.091 C 
ATOM      6  C   UNL A   1      31.299  24.723  24.713  1.00  0.00     0.091 C 
ATOM      7  C   UNL A   1      30.598  24.174  23.445  1.00  0.00     0.015 C 
ATOM      8  C   UNL A   1      29.674  25.396  23.443  1.00  0.00     0.015 C 
BRANCH   6   9
ATOM      9  C   UNL A   1      30.925  24.094  26.089  1.00  0.00     0.230 C 
ATOM     10  N   UNL A   1      31.557  22.948  26.522  1.00  0.00    -0.302 N 
ATOM     11  H   UNL A   1      31.411  22.711  27.467  1.00  0.00     0.172 HD
ATOM     12  O   UNL A   1      30.155  24.643  26.890  1.00  0.00    -0.274 OA
BRANCH  10  13
ATOM     13  C   UNL A   1      32.359  22.099  25.815  1.00  0.00     0.189 A 
ATOM     14  C   UNL A   1      32.935  20.337  24.604  1.00  0.00     0.068 A 
ATOM     15  N   UNL A   1      31.891  21.141  25.058  1.00  0.00    -0.224 NA
ATOM     16  C   UNL A   1      34.190  20.764  25.015  1.00  0.00     0.027 A 
ATOM     17  S   UNL A   1      34.044  22.292  25.773  1.00  0.00    -0.102 S 
ATOM     18  C   UNL A   1      35.531  20.129  24.933  1.00  0.00     0.058 C 
BRANCH  14  19
ATOM     19  C   UNL A   1      32.593  19.079  23.876  1.00  0.00     0.180 C 
BRANCH  19  20
ATOM     20  C   UNL A   1      32.615  17.875  24.776  1.00  0.00     0.311 C 
ATOM     21  O   UNL A   1      32.361  17.911  25.976  1.00  0.00    -0.252 OA
BRANCH  20  22
ATOM     22  O   UNL A   1      32.939  16.754  24.072  1.00  0.00    -0.469 OA
ATOM     23  C   UNL A   1      34.139  16.864  23.307  1.00  0.00     0.282 C 
ENDBRANCH  20  22
ENDBRANCH  19  20
ENDBRANCH  14  19
ENDBRANCH  10  13
ENDBRANCH   6   9
ENDBRANCH   1   5
BRANCH   3  24
ATOM     24  C   UNL A   1      31.628  28.727  25.781  1.00  0.00     0.117 C 
BRANCH  24  25
ATOM     25  C   UNL A   1      32.367  28.002  26.907  1.00  0.00     0.042 C 
BRANCH  25  26
ATOM     26  C   UNL A   1      33.747  28.563  27.271  1.00  0.00     0.118 C 
BRANCH  26  27
ATOM     27  N   UNL A   1      33.727  29.956  27.681  1.00  0.00    -0.352 N 
ATOM     28  C   UNL A   1      34.700  30.730  28.271  1.00  0.00     0.251 C 
ATOM     29  H   UNL A   1      32.878  30.424  27.510  1.00  0.00     0.163 HD
ATOM     30  O   UNL A   1      34.431  31.887  28.586  1.00  0.00    -0.269 OA
BRANCH  28  31
ATOM     31  C   UNL A   1      36.052  30.199  28.582  1.00  0.00     0.039 A 
ATOM     32  C   UNL A   1      37.026  30.268  27.578  1.00  0.00     0.014 A 
ATOM     33  C   UNL A   1      36.366  29.582  29.797  1.00  0.00     0.014 A 
ATOM     34  C   UNL A   1      38.321  29.791  27.811  1.00  0.00     0.010 A 
ATOM     35  C   UNL A   1      37.676  29.141  30.045  1.00  0.00     0.010 A 
ATOM     36  C   UNL A   1      38.672  29.256  29.062  1.00  0.00    -0.014 A 
BRANCH  36  37
ATOM     37  C   UNL A   1      40.087  28.881  29.349  1.00  0.00     0.031 A 
ATOM     38  C   UNL A   1      40.999  29.792  30.125  1.00  0.00     0.074 A 
ATOM     39  C   UNL A   1      40.561  27.703  28.893  1.00  0.00     0.049 A 
ATOM     40  N   UNL A   1      42.264  29.632  30.430  1.00  0.00    -0.248 NA
ATOM     41  C   UNL A   1      40.418  31.047  30.622  1.00  0.00     0.031 C 
ATOM     42  C   UNL A   1      39.789  26.725  28.125  1.00  0.00     0.029 A 
ATOM     43  N   UNL A   1      41.805  27.129  29.002  1.00  0.00    -0.354 N 
ATOM     44  C   UNL A   1      42.629  30.758  31.157  1.00  0.00     0.074 A 
ATOM     45  C   UNL A   1      41.462  31.614  31.213  1.00  0.00     0.031 C 
ATOM     46  C   UNL A   1      40.569  25.671  27.841  1.00  0.00     0.029 A 
ATOM     47  C   UNL A   1      41.911  25.915  28.364  1.00  0.00     0.049 A 
ATOM     48  H   UNL A   1      42.550  27.547  29.490  1.00  0.00     0.167 HD
ATOM     49  C   UNL A   1      43.821  31.042  31.739  1.00  0.00     0.037 A 
ATOM     50  C   UNL A   1      42.971  25.100  28.197  1.00  0.00     0.037 A 
ATOM     51  C   UNL A   1      44.986  30.193  31.687  1.00  0.00     0.049 A 
ATOM     52  C   UNL A   1      44.302  25.485  28.787  1.00  0.00     0.074 A 
ATOM     53  C   UNL A   1      46.224  30.392  32.275  1.00  0.00     0.029 A 
ATOM     54  N   UNL A   1      45.062  28.991  31.002  1.00  0.00    -0.354 N 
ATOM     55  N   UNL A   1      44.616  26.524  29.520  1.00  0.00    -0.248 NA
ATOM     56  C   UNL A   1      45.431  24.579  28.522  1.00  0.00     0.031 C 
ATOM     57  C   UNL A   1      47.065  29.339  31.900  1.00  0.00     0.029 A 
ATOM     58  C   UNL A   1      46.336  28.454  31.125  1.00  0.00     0.049 A 
ATOM     59  H   UNL A   1      44.321  28.578  30.501  1.00  0.00     0.167 HD
ATOM     60  C   UNL A   1      45.964  26.385  29.821  1.00  0.00     0.074 A 
ATOM     61  C   UNL A   1      46.405  25.147  29.219  1.00  0.00     0.031 C 
ATOM     62  C   UNL A   1      46.767  27.217  30.529  1.00  0.00     0.037 A 
BRANCH  49  63
ATOM     63  C   UNL A   1      43.944  32.335  32.497  1.00  0.00     0.064 A 
ATOM     64  C   UNL A   1      44.339  33.521  31.859  1.00  0.00     0.173 A 
ATOM     65  C   UNL A   1      43.573  32.409  33.848  1.00  0.00     0.173 A 
ATOM     66  F   UNL A   1      44.706  33.504  30.569  1.00  0.00    -0.203 F 
ATOM     67  C   UNL A   1      44.371  34.729  32.550  1.00  0.00     0.198 A 
ATOM     68  C   UNL A   1      43.581  33.624  34.529  1.00  0.00     0.198 A 
ATOM     69  F   UNL A   1      43.176  31.308  34.502  1.00  0.00    -0.203 F 
ATOM     70  F   UNL A   1      44.779  35.844  31.928  1.00  0.00    -0.200 F 
ATOM     71  C   UNL A   1      43.983  34.782  33.881  1.00  0.00     0.200 A 
ATOM     72  F   UNL A   1      43.187  33.676  35.809  1.00  0.00    -0.200 F 
ATOM     73  F   UNL A   1      43.997  35.949  34.538  1.00  0.00    -0.200 F 
ENDBRANCH  49  63
BRANCH  50  74
ATOM     74  C   UNL A   1      42.836  23.842  27.413  1.00  0.00     0.064 A 
ATOM     75  C   UNL A   1      42.465  22.638  28.028  1.00  0.00     0.173 A 
ATOM     76  C   UNL A   1      43.127  23.807  26.041  1.00  0.00     0.173 A 
ATOM     77  F   UNL A   1      42.200  22.613  29.343  1.00  0.00    -0.203 F 
ATOM     78  C   UNL A   1      42.421  21.445  27.310  1.00  0.00     0.198 A 
ATOM     79  C   UNL A   1      43.045  22.621  25.316  1.00  0.00     0.198 A 
ATOM     80  F   UNL A   1      43.492  24.928  25.402  1.00  0.00    -0.203 F 
ATOM     81  F   UNL A   1      42.128  20.298  27.938  1.00  0.00    -0.200 F 
ATOM     82  C   UNL A   1      42.706  21.438  25.952  1.00  0.00     0.200 A 
ATOM     83  F   UNL A   1      43.301  22.626  23.999  1.00  0.00    -0.200 F 
ATOM     84  F   UNL A   1      42.666  20.291  25.262  1.00  0.00    -0.200 F 
ENDBRANCH  50  74
BRANCH  62  85
ATOM     85  C   UNL A   1      48.200  26.803  30.714  1.00  0.00     0.064 A 
ATOM     86  C   UNL A   1      48.588  25.934  31.745  1.00  0.00     0.173 A 
ATOM     87  C   UNL A   1      49.193  27.253  29.829  1.00  0.00     0.173 A 
ATOM     88  F   UNL A   1      47.682  25.489  32.629  1.00  0.00    -0.203 F 
ATOM     89  C   UNL A   1      49.918  25.553  31.900  1.00  0.00     0.198 A 
ATOM     90  C   UNL A   1      50.516  26.843  29.967  1.00  0.00     0.198 A 
ATOM     91  F   UNL A   1      48.877  28.081  28.822  1.00  0.00    -0.203 F 
ATOM     92  F   UNL A   1      50.273  24.763  32.922  1.00  0.00    -0.200 F 
ATOM     93  C   UNL A   1      50.879  26.000  31.005  1.00  0.00     0.200 A 
ATOM     94  F   UNL A   1      51.441  27.265  29.093  1.00  0.00    -0.200 F 
ATOM     95  F   UNL A   1      52.158  25.624  31.150  1.00  0.00    -0.200 F 
ENDBRANCH  62  85
ENDBRANCH  36  37
ENDBRANCH  28  31
ENDBRANCH  26  27
ENDBRANCH  25  26
ENDBRANCH  24  25
ENDBRANCH   3  24
TORSDOF 15
ENDMDL
MODEL 2
REMARK VINA RESULT:     -11.8      4.018      8.830
REMARK SMILES COC(=O)Cc1nc(NC(=O)[C@H]2CC[C@@H]2C(=O)NCCCNC(=O)c2ccc(-c3c4nc(c(-c5c(F)c(F)c(F)c(F)c5F)c5ccc([nH]5)c(-c5c(F)c(F)c(F)c(F)c5F)c5nc(c(-c6c(F)c(F)c(F)c(F)c6F)c6ccc3[nH]6)C=C5)C=C4)cc2)sc1C
REMARK SMILES IDX 16 1 17 2 18 3 15 5 12 6 13 7 14 8 10 9 9 10 11 12 8 13 6 14
REMARK SMILES IDX 7 15 89 16 88 17 90 18 5 19 3 20 4 21 2 22 1 23 19 24 20 25
REMARK SMILES IDX 21 26 22 27 23 28 24 30 25 31 26 32 87 33 27 34 86 35 28 36
REMARK SMILES IDX 29 37 30 38 80 39 31 40 85 41 79 42 81 43 32 44 84 45 78 46
REMARK SMILES IDX 77 47 33 49 65 50 45 51 64 52 46 53 49 54 63 55 82 56 47 57
REMARK SMILES IDX 48 58 62 60 83 61 50 62 34 63 35 64 43 65 36 66 37 67 41 68
REMARK SMILES IDX 44 69 38 70 39 71 42 72 40 73 66 74 67 75 75 76 68 77 69 78
REMARK SMILES IDX 73 79 76 80 70 81 71 82 74 83 72 84 51 85 52 86 60 87 53 88
REMARK SMILES IDX 54 89 58 90 61 91 55 92 56 93 59 94 57 95
REMARK H PARENT 18 4 9 11 22 29 81 48 49 59
REMARK Flexibility Score: inf
ROOT
ATOM      1  C   UNL A   1      32.161  29.293  24.632  1.00  0.00     0.223 C 
ATOM      2  O   UNL A   1      33.070  28.992  23.850  1.00  0.00    -0.275 OA
ATOM      3  N   UNL A   1      32.544  29.932  25.791  1.00  0.00    -0.356 N 
ATOM      4  H   UNL A   1      33.517  30.027  25.908  1.00  0.00     0.163 HD
ENDROOT
BRANCH   1   5
ATOM      5  C   UNL A   1      30.660  28.964  24.387  1.00  0.00     0.091 C 
ATOM      6  C   UNL A   1      30.349  27.760  23.411  1.00  0.00     0.091 C 
ATOM      7  C   UNL A   1      30.015  28.811  22.324  1.00  0.00     0.015 C 
ATOM      8  C   UNL A   1      29.880  29.877  23.415  1.00  0.00     0.015 C 
BRANCH   6   9
ATOM      9  C   UNL A   1      29.225  26.771  23.846  1.00  0.00     0.230 C 
ATOM     10  N   UNL A   1      29.550  25.529  24.348  1.00  0.00    -0.302 N 
ATOM     11  H   UNL A   1      28.812  25.033  24.771  1.00  0.00     0.172 HD
ATOM     12  O   UNL A   1      28.027  27.089  23.876  1.00  0.00    -0.274 OA
BRANCH  10  13
ATOM     13  C   UNL A   1      30.760  24.897  24.336  1.00  0.00     0.189 A 
ATOM     14  C   UNL A   1      32.846  24.427  24.911  1.00  0.00     0.068 A 
ATOM     15  N   UNL A   1      31.657  25.055  25.275  1.00  0.00    -0.224 NA
ATOM     16  C   UNL A   1      32.779  23.761  23.695  1.00  0.00     0.027 A 
ATOM     17  S   UNL A   1      31.156  23.753  23.147  1.00  0.00    -0.102 S 
ATOM     18  C   UNL A   1      33.825  23.135  22.846  1.00  0.00     0.058 C 
BRANCH  14  19
ATOM     19  C   UNL A   1      34.052  24.649  25.763  1.00  0.00     0.180 C 
BRANCH  19  20
ATOM     20  C   UNL A   1      34.468  23.406  26.498  1.00  0.00     0.311 C 
ATOM     21  O   UNL A   1      33.727  22.769  27.241  1.00  0.00    -0.252 OA
BRANCH  20  22
ATOM     22  O   UNL A   1      35.762  23.089  26.213  1.00  0.00    -0.469 OA
ATOM     23  C   UNL A   1      35.945  21.777  25.682  1.00  0.00     0.282 C 
ENDBRANCH  20  22
ENDBRANCH  19  20
ENDBRANCH  14  19
ENDBRANCH  10  13
ENDBRANCH   6   9
ENDBRANCH   1   5
BRANCH   3  24
ATOM     24  C   UNL A   1      31.743  30.488  26.867  1.00  0.00     0.117 C 
BRANCH  24  25
ATOM     25  C   UNL A   1      31.490  31.989  26.720  1.00  0.00     0.042 C 
BRANCH  25  26
ATOM     26  C   UNL A   1      32.705  32.897  26.946  1.00  0.00     0.118 C 
BRANCH  26  27
ATOM     27  N   UNL A   1      32.383  34.169  27.569  1.00  0.00    -0.352 N 
ATOM     28  C   UNL A   1      32.994  34.837  28.605  1.00  0.00     0.251 C 
ATOM     29  H   UNL A   1      31.600  34.627  27.188  1.00  0.00     0.163 HD
ATOM     30  O   UNL A   1      32.500  35.889  29.007  1.00  0.00    -0.269 OA
BRANCH  28  31
ATOM     31  C   UNL A   1      34.203  34.307  29.285  1.00  0.00     0.039 A 
ATOM     32  C   UNL A   1      34.029  33.674  30.523  1.00  0.00     0.014 A 
ATOM     33  C   UNL A   1      35.495  34.472  28.777  1.00  0.00     0.014 A 
ATOM     34  C   UNL A   1      35.128  33.148  31.211  1.00  0.00     0.010 A 
ATOM     35  C   UNL A   1      36.593  33.908  29.448  1.00  0.00     0.010 A 
ATOM     36  C   UNL A   1      36.419  33.224  30.663  1.00  0.00    -0.014 A 
BRANCH  36  37
ATOM     37  C   UNL A   1      37.562  32.538  31.332  1.00  0.00     0.031 A 
ATOM     38  C   UNL A   1      38.283  31.391  30.677  1.00  0.00     0.074 A 
ATOM     39  C   UNL A   1      37.951  32.950  32.557  1.00  0.00     0.049 A 
ATOM     40  N   UNL A   1      39.272  30.664  31.136  1.00  0.00    -0.248 NA
ATOM     41  C   UNL A   1      37.834  31.008  29.330  1.00  0.00     0.031 C 
ATOM     42  C   UNL A   1      37.341  34.047  33.309  1.00  0.00     0.029 A 
ATOM     43  N   UNL A   1      38.946  32.493  33.387  1.00  0.00    -0.354 N 
ATOM     44  C   UNL A   1      39.568  29.743  30.139  1.00  0.00     0.074 A 
ATOM     45  C   UNL A   1      38.626  29.977  29.063  1.00  0.00     0.031 C 
ATOM     46  C   UNL A   1      37.978  34.184  34.482  1.00  0.00     0.029 A 
ATOM     47  C   UNL A   1      39.011  33.158  34.590  1.00  0.00     0.049 A 
ATOM     48  H   UNL A   1      39.555  31.758  33.145  1.00  0.00     0.167 HD
ATOM     49  C   UNL A   1      40.546  28.804  30.116  1.00  0.00     0.037 A 
ATOM     50  C   UNL A   1      39.795  32.953  35.666  1.00  0.00     0.037 A 
ATOM     51  C   UNL A   1      41.486  28.567  31.183  1.00  0.00     0.049 A 
ATOM     52  C   UNL A   1      40.817  31.847  35.638  1.00  0.00     0.074 A 
ATOM     53  C   UNL A   1      42.528  27.655  31.228  1.00  0.00     0.029 A 
ATOM     54  N   UNL A   1      41.496  29.238  32.396  1.00  0.00    -0.354 N 
ATOM     55  N   UNL A   1      41.123  31.024  34.666  1.00  0.00    -0.248 NA
ATOM     56  C   UNL A   1      41.604  31.641  36.865  1.00  0.00     0.031 C 
ATOM     57  C   UNL A   1      43.131  27.735  32.487  1.00  0.00     0.029 A 
ATOM     58  C   UNL A   1      42.503  28.736  33.208  1.00  0.00     0.049 A 
ATOM     59  H   UNL A   1      40.877  29.963  32.645  1.00  0.00     0.167 HD
ATOM     60  C   UNL A   1      42.148  30.222  35.153  1.00  0.00     0.074 A 
ATOM     61  C   UNL A   1      42.434  30.675  36.496  1.00  0.00     0.031 C 
ATOM     62  C   UNL A   1      42.788  29.197  34.542  1.00  0.00     0.037 A 
BRANCH  49  63
ATOM     63  C   UNL A   1      40.666  27.943  28.889  1.00  0.00     0.064 A 
ATOM     64  C   UNL A   1      39.918  26.764  28.749  1.00  0.00     0.173 A 
ATOM     65  C   UNL A   1      41.461  28.348  27.806  1.00  0.00     0.173 A 
ATOM     66  F   UNL A   1      39.144  26.331  29.755  1.00  0.00    -0.203 F 
ATOM     67  C   UNL A   1      39.974  26.016  27.575  1.00  0.00     0.198 A 
ATOM     68  C   UNL A   1      41.493  27.612  26.625  1.00  0.00     0.198 A 
ATOM     69  F   UNL A   1      42.186  29.473  27.883  1.00  0.00    -0.203 F 
ATOM     70  F   UNL A   1      39.272  24.878  27.474  1.00  0.00    -0.200 F 
ATOM     71  C   UNL A   1      40.753  26.445  26.511  1.00  0.00     0.200 A 
ATOM     72  F   UNL A   1      42.232  28.038  25.591  1.00  0.00    -0.200 F 
ATOM     73  F   UNL A   1      40.790  25.734  25.376  1.00  0.00    -0.200 F 
ENDBRANCH  49  63
BRANCH  50  74
ATOM     74  C   UNL A   1      39.636  33.794  36.883  1.00  0.00     0.064 A 
ATOM     75  C   UNL A   1      38.825  33.383  37.950  1.00  0.00     0.173 A 
ATOM     76  C   UNL A   1      40.252  35.051  36.983  1.00  0.00     0.173 A 
ATOM     77  F   UNL A   1      38.194  32.200  37.894  1.00  0.00    -0.203 F 
ATOM     78  C   UNL A   1      38.610  34.208  39.052  1.00  0.00     0.198 A 
ATOM     79  C   UNL A   1      40.068  35.858  38.103  1.00  0.00     0.198 A 
ATOM     80  F   UNL A   1      41.035  35.496  35.990  1.00  0.00    -0.203 F 
ATOM     81  F   UNL A   1      37.777  33.817  40.026  1.00  0.00    -0.200 F 
ATOM     82  C   UNL A   1      39.236  35.443  39.130  1.00  0.00     0.200 A 
ATOM     83  F   UNL A   1      40.693  37.041  38.181  1.00  0.00    -0.200 F 
ATOM     84  F   UNL A   1      39.027  36.237  40.188  1.00  0.00    -0.200 F 
ENDBRANCH  50  74
BRANCH  62  85
ATOM     85  C   UNL A   1      43.881  28.507  35.310  1.00  0.00     0.064 A 
ATOM     86  C   UNL A   1      43.615  27.411  36.145  1.00  0.00     0.173 A 
ATOM     87  C   UNL A   1      45.216  28.925  35.184  1.00  0.00     0.173 A 
ATOM     88  F   UNL A   1      42.356  26.983  36.315  1.00  0.00    -0.203 F 
ATOM     89  C   UNL A   1      44.639  26.777  36.844  1.00  0.00     0.198 A 
ATOM     90  C   UNL A   1      46.241  28.267  35.858  1.00  0.00     0.198 A 
ATOM     91  F   UNL A   1      45.528  29.964  34.395  1.00  0.00    -0.203 F 
ATOM     92  F   UNL A   1      44.353  25.765  37.675  1.00  0.00    -0.200 F 
ATOM     93  C   UNL A   1      45.951  27.200  36.693  1.00  0.00     0.200 A 
ATOM     94  F   UNL A   1      47.510  28.668  35.701  1.00  0.00    -0.200 F 
ATOM     95  F   UNL A   1      46.936  26.582  37.360  1.00  0.00    -0.200 F 
ENDBRANCH  62  85
ENDBRANCH  36  37
ENDBRANCH  28  31
ENDBRANCH  26  27
ENDBRANCH  25  26
ENDBRANCH  24  25
ENDBRANCH   3  24
TORSDOF 15
ENDMDL
MODEL 3
REMARK VINA RESULT:     -11.8      3.803      8.779
REMARK SMILES COC(=O)Cc1nc(NC(=O)[C@H]2CC[C@@H]2C(=O)NCCCNC(=O)c2ccc(-c3c4nc(c(-c5c(F)c(F)c(F)c(F)c5F)c5ccc([nH]5)c(-c5c(F)c(F)c(F)c(F)c5F)c5nc(c(-c6c(F)c(F)c(F)c(F)c6F)c6ccc3[nH]6)C=C5)C=C4)cc2)sc1C
REMARK SMILES IDX 16 1 17 2 18 3 15 5 12 6 13 7 14 8 10 9 9 10 11 12 8 13 6 14
REMARK SMILES IDX 7 15 89 16 88 17 90 18 5 19 3 20 4 21 2 22 1 23 19 24 20 25
REMARK SMILES IDX 21 26 22 27 23 28 24 30 25 31 26 32 87 33 27 34 86 35 28 36
REMARK SMILES IDX 29 37 30 38 80 39 31 40 85 41 79 42 81 43 32 44 84 45 78 46
REMARK SMILES IDX 77 47 33 49 65 50 45 51 64 52 46 53 49 54 63 55 82 56 47 57
REMARK SMILES IDX 48 58 62 60 83 61 50 62 34 63 35 64 43 65 36 66 37 67 41 68
REMARK SMILES IDX 44 69 38 70 39 71 42 72 40 73 66 74 67 75 75 76 68 77 69 78
REMARK SMILES IDX 73 79 76 80 70 81 71 82 74 83 72 84 51 85 52 86 60 87 53 88
REMARK SMILES IDX 54 89 58 90 61 91 55 92 56 93 59 94 57 95
REMARK H PARENT 18 4 9 11 22 29 81 48 49 59
REMARK Flexibility Score: inf
ROOT
ATOM      1  C   UNL A   1      33.199  29.300  25.482  1.00  0.00     0.223 C 
ATOM      2  O   UNL A   1      34.164  28.839  26.104  1.00  0.00    -0.275 OA
ATOM      3  N   UNL A   1      32.393  30.176  26.176  1.00  0.00    -0.356 N 
ATOM      4  H   UNL A   1      32.632  30.297  27.123  1.00  0.00     0.163 HD
ENDROOT
BRANCH   1   5
ATOM      5  C   UNL A   1      32.853  28.922  24.013  1.00  0.00     0.091 C 
ATOM      6  C   UNL A   1      32.574  27.393  23.722  1.00  0.00     0.091 C 
ATOM      7  C   UNL A   1      33.999  27.314  23.120  1.00  0.00     0.015 C 
ATOM      8  C   UNL A   1      34.020  28.841  23.004  1.00  0.00     0.015 C 
BRANCH   6   9
ATOM      9  C   UNL A   1      31.365  27.060  22.796  1.00  0.00     0.230 C 
ATOM     10  N   UNL A   1      30.864  25.777  22.744  1.00  0.00    -0.302 N 
ATOM     11  H   UNL A   1      29.997  25.676  22.288  1.00  0.00     0.172 HD
ATOM     12  O   UNL A   1      30.738  27.930  22.174  1.00  0.00    -0.274 OA
BRANCH  10  13
ATOM     13  C   UNL A   1      31.410  24.629  23.241  1.00  0.00     0.189 A 
ATOM     14  C   UNL A   1      31.784  22.969  24.659  1.00  0.00     0.068 A 
ATOM     15  N   UNL A   1      30.926  24.001  24.281  1.00  0.00    -0.224 NA
ATOM     16  C   UNL A   1      32.891  22.830  23.833  1.00  0.00     0.027 A 
ATOM     17  S   UNL A   1      32.710  23.855  22.472  1.00  0.00    -0.102 S 
ATOM     18  C   UNL A   1      34.129  22.018  23.959  1.00  0.00     0.058 C 
BRANCH  14  19
ATOM     19  C   UNL A   1      31.504  22.250  25.937  1.00  0.00     0.180 C 
BRANCH  19  20
ATOM     20  C   UNL A   1      31.757  23.109  27.143  1.00  0.00     0.311 C 
ATOM     21  O   UNL A   1      31.255  24.217  27.313  1.00  0.00    -0.252 OA
BRANCH  20  22
ATOM     22  O   UNL A   1      32.600  22.484  28.012  1.00  0.00    -0.469 OA
ATOM     23  C   UNL A   1      33.978  22.547  27.647  1.00  0.00     0.282 C 
ENDBRANCH  20  22
ENDBRANCH  19  20
ENDBRANCH  14  19
ENDBRANCH  10  13
ENDBRANCH   6   9
ENDBRANCH   1   5
BRANCH   3  24
ATOM     24  C   UNL A   1      31.247  30.950  25.732  1.00  0.00     0.117 C 
BRANCH  24  25
ATOM     25  C   UNL A   1      31.058  32.253  26.511  1.00  0.00     0.042 C 
BRANCH  25  26
ATOM     26  C   UNL A   1      32.326  32.851  27.131  1.00  0.00     0.118 C 
BRANCH  26  27
ATOM     27  N   UNL A   1      32.163  34.212  27.610  1.00  0.00    -0.352 N 
ATOM     28  C   UNL A   1      32.917  34.945  28.497  1.00  0.00     0.251 C 
ATOM     29  H   UNL A   1      31.385  34.688  27.240  1.00  0.00     0.163 HD
ATOM     30  O   UNL A   1      32.545  36.077  28.801  1.00  0.00    -0.269 OA
BRANCH  28  31
ATOM     31  C   UNL A   1      34.140  34.397  29.137  1.00  0.00     0.039 A 
ATOM     32  C   UNL A   1      34.007  33.814  30.404  1.00  0.00     0.014 A 
ATOM     33  C   UNL A   1      35.410  34.498  28.562  1.00  0.00     0.014 A 
ATOM     34  C   UNL A   1      35.120  33.274  31.057  1.00  0.00     0.010 A 
ATOM     35  C   UNL A   1      36.520  33.920  29.199  1.00  0.00     0.010 A 
ATOM     36  C   UNL A   1      36.384  33.286  30.445  1.00  0.00    -0.014 A 
BRANCH  36  37
ATOM     37  C   UNL A   1      37.536  32.584  31.083  1.00  0.00     0.031 A 
ATOM     38  C   UNL A   1      38.226  31.431  30.406  1.00  0.00     0.074 A 
ATOM     39  C   UNL A   1      37.959  32.986  32.299  1.00  0.00     0.049 A 
ATOM     40  N   UNL A   1      39.218  30.691  30.838  1.00  0.00    -0.248 NA
ATOM     41  C   UNL A   1      37.740  31.058  29.070  1.00  0.00     0.031 C 
ATOM     42  C   UNL A   1      37.381  34.087  33.071  1.00  0.00     0.029 A 
ATOM     43  N   UNL A   1      38.970  32.514  33.103  1.00  0.00    -0.354 N 
ATOM     44  C   UNL A   1      39.479  29.771  29.830  1.00  0.00     0.074 A 
ATOM     45  C   UNL A   1      38.513  30.020  28.779  1.00  0.00     0.031 C 
ATOM     46  C   UNL A   1      38.048  34.212  34.229  1.00  0.00     0.029 A 
ATOM     47  C   UNL A   1      39.072  33.174  34.306  1.00  0.00     0.049 A 
ATOM     48  H   UNL A   1      39.563  31.773  32.843  1.00  0.00     0.167 HD
ATOM     49  C   UNL A   1      40.444  28.820  29.779  1.00  0.00     0.037 A 
ATOM     50  C   UNL A   1      39.880  32.955  35.362  1.00  0.00     0.037 A 
ATOM     51  C   UNL A   1      41.408  28.569  30.822  1.00  0.00     0.049 A 
ATOM     52  C   UNL A   1      40.888  31.837  35.305  1.00  0.00     0.074 A 
ATOM     53  C   UNL A   1      42.440  27.644  30.838  1.00  0.00     0.029 A 
ATOM     54  N   UNL A   1      41.456  29.234  32.037  1.00  0.00    -0.354 N 
ATOM     55  N   UNL A   1      41.161  31.015  34.322  1.00  0.00    -0.248 NA
ATOM     56  C   UNL A   1      41.703  31.617  36.511  1.00  0.00     0.031 C 
ATOM     57  C   UNL A   1      43.075  27.713  32.082  1.00  0.00     0.029 A 
ATOM     58  C   UNL A   1      42.477  28.718  32.822  1.00  0.00     0.049 A 
ATOM     59  H   UNL A   1      40.852  29.965  32.304  1.00  0.00     0.167 HD
ATOM     60  C   UNL A   1      42.188  30.200  34.781  1.00  0.00     0.074 A 
ATOM     61  C   UNL A   1      42.512  30.644  36.118  1.00  0.00     0.031 C 
ATOM     62  C   UNL A   1      42.800  29.169  34.150  1.00  0.00     0.037 A 
BRANCH  49  63
ATOM     63  C   UNL A   1      40.524  27.963  28.547  1.00  0.00     0.064 A 
ATOM     64  C   UNL A   1      41.287  28.350  27.436  1.00  0.00     0.173 A 
ATOM     65  C   UNL A   1      39.910  26.701  28.513  1.00  0.00     0.173 A 
ATOM     66  F   UNL A   1      41.892  29.547  27.416  1.00  0.00    -0.203 F 
ATOM     67  C   UNL A   1      41.421  27.513  26.331  1.00  0.00     0.198 A 
ATOM     68  C   UNL A   1      40.068  25.855  27.419  1.00  0.00     0.198 A 
ATOM     69  F   UNL A   1      39.179  26.276  29.554  1.00  0.00    -0.203 F 
ATOM     70  F   UNL A   1      42.132  27.916  25.269  1.00  0.00    -0.200 F 
ATOM     71  C   UNL A   1      40.820  26.262  26.327  1.00  0.00     0.200 A 
ATOM     72  F   UNL A   1      39.502  24.640  27.425  1.00  0.00    -0.200 F 
ATOM     73  F   UNL A   1      40.966  25.451  25.271  1.00  0.00    -0.200 F 
ENDBRANCH  49  63
BRANCH  50  74
ATOM     74  C   UNL A   1      39.761  33.793  36.586  1.00  0.00     0.064 A 
ATOM     75  C   UNL A   1      38.930  33.413  37.649  1.00  0.00     0.173 A 
ATOM     76  C   UNL A   1      40.437  35.018  36.696  1.00  0.00     0.173 A 
ATOM     77  F   UNL A   1      38.243  32.263  37.583  1.00  0.00    -0.203 F 
ATOM     78  C   UNL A   1      38.755  34.239  38.758  1.00  0.00     0.198 A 
ATOM     79  C   UNL A   1      40.292  35.824  37.822  1.00  0.00     0.198 A 
ATOM     80  F   UNL A   1      41.242  35.432  35.707  1.00  0.00    -0.203 F 
ATOM     81  F   UNL A   1      37.903  33.881  39.728  1.00  0.00    -0.200 F 
ATOM     82  C   UNL A   1      39.440  35.441  38.846  1.00  0.00     0.200 A 
ATOM     83  F   UNL A   1      40.973  36.975  37.910  1.00  0.00    -0.200 F 
ATOM     84  F   UNL A   1      39.269  36.236  39.911  1.00  0.00    -0.200 F 
ENDBRANCH  50  74
BRANCH  62  85
ATOM     85  C   UNL A   1      43.904  28.464  34.888  1.00  0.00     0.064 A 
ATOM     86  C   UNL A   1      45.231  28.918  34.834  1.00  0.00     0.173 A 
ATOM     87  C   UNL A   1      43.627  27.344  35.687  1.00  0.00     0.173 A 
ATOM     88  F   UNL A   1      45.554  29.973  34.071  1.00  0.00    -0.203 F 
ATOM     89  C   UNL A   1      46.243  28.260  35.529  1.00  0.00     0.198 A 
ATOM     90  C   UNL A   1      44.636  26.709  36.408  1.00  0.00     0.198 A 
ATOM     91  F   UNL A   1      42.375  26.872  35.779  1.00  0.00    -0.203 F 
ATOM     92  F   UNL A   1      47.510  28.680  35.421  1.00  0.00    -0.200 F 
ATOM     93  C   UNL A   1      45.943  27.162  36.322  1.00  0.00     0.200 A 
ATOM     94  F   UNL A   1      44.341  25.657  37.184  1.00  0.00    -0.200 F 
ATOM     95  F   UNL A   1      46.916  26.536  36.999  1.00  0.00    -0.200 F 
ENDBRANCH  62  85
ENDBRANCH  36  37
ENDBRANCH  28  31
ENDBRANCH  26  27
ENDBRANCH  25  26
ENDBRANCH  24  25
ENDBRANCH   3  24
TORSDOF 15
ENDMDL
