MODEL 1
REMARK VINA RESULT:     -13.7      0.000      0.000
REMARK SMILES Cc1ccc(NC(=O)CN2C(=O)S/C(=C\c3cc(Cl)c(OCC(=O)NCCCNC(=O)c4ccc(-c5c6nc(c(-c7c(F)c(F)c(F)c(F)c7F)c7ccc([nH]7)c(-c7c(F)c(F)c(F)c(F)c7F)c7nc(c(-c8c(F)c(F)c(F)c(F)c8F)c8ccc5[nH]8)C=C7)C=C6)cc4)c(Cl)c3)C2=O)cc1
REMARK SMILES IDX 23 1 24 2 25 3 22 5 21 6 20 7 16 8 17 9 97 10 18 11 95 12
REMARK SMILES IDX 19 13 96 14 15 15 10 16 11 17 98 18 12 19 13 20 14 21 99 22
REMARK SMILES IDX 9 23 7 24 6 25 8 27 5 28 1 29 2 30 3 31 101 32 4 33 100 34
REMARK SMILES IDX 26 35 27 36 28 37 29 38 30 39 31 41 32 42 33 43 94 44 34 45
REMARK SMILES IDX 93 46 35 47 36 48 37 49 87 50 38 51 92 52 86 53 88 54 39 55
REMARK SMILES IDX 91 56 85 57 84 58 40 60 72 61 52 62 71 63 53 64 56 65 70 66
REMARK SMILES IDX 89 67 54 68 55 69 69 71 90 72 57 73 41 74 42 75 50 76 43 77
REMARK SMILES IDX 44 78 48 79 51 80 45 81 46 82 49 83 47 84 73 85 74 86 82 87
REMARK SMILES IDX 75 88 76 89 80 90 83 91 77 92 78 93 81 94 79 95 58 96 59 97
REMARK SMILES IDX 67 98 60 99 61 100 65 101 68 102 62 103 63 104 66 105 64 106
REMARK H PARENT 25 4 6 26 29 40 88 59 56 70
REMARK Flexibility Score: inf
ROOT
ATOM      1  C   UNL A   1      33.754  36.666  29.134  1.00  0.00     0.257 C 
ATOM      2  O   UNL A   1      33.949  37.218  28.051  1.00  0.00    -0.271 OA
ATOM      3  N   UNL A   1      33.323  37.457  30.160  1.00  0.00    -0.353 N 
ATOM      4  H   UNL A   1      33.285  38.421  29.961  1.00  0.00     0.163 HD
ENDROOT
BRANCH   1   5
ATOM      5  C   UNL A   1      33.950  35.153  29.347  1.00  0.00     0.329 C 
BRANCH   5   6
ATOM      6  O   UNL A   1      34.903  34.493  28.532  1.00  0.00    -0.481 OA
BRANCH   6   7
ATOM      7  C   UNL A   1      34.837  33.162  28.219  1.00  0.00     0.157 A 
ATOM      8  C   UNL A   1      34.302  30.440  27.491  1.00  0.00    -0.021 A 
ATOM      9  C   UNL A   1      33.317  31.407  27.333  1.00  0.00     0.032 A 
ATOM     10  C   UNL A   1      35.525  30.842  28.041  1.00  0.00     0.032 A 
ATOM     11  C   UNL A   1      33.581  32.742  27.704  1.00  0.00     0.085 A 
ATOM     12  C   UNL A   1      35.826  32.183  28.329  1.00  0.00     0.085 A 
ATOM     13  Cl  UNL A   1      32.284  33.877  27.489  1.00  0.00    -0.080 Cl
ATOM     14  Cl  UNL A   1      37.494  32.434  28.686  1.00  0.00    -0.080 Cl
BRANCH   8  15
ATOM     15  C   UNL A   1      34.093  29.011  27.178  1.00  0.00     0.029 C 
ATOM     16  N   UNL A   1      33.196  27.307  24.186  1.00  0.00    -0.259 N 
ATOM     17  C   UNL A   1      32.735  28.530  23.768  1.00  0.00     0.294 C 
ATOM     18  C   UNL A   1      33.568  27.233  25.515  1.00  0.00     0.268 C 
ATOM     19  O   UNL A   1      32.701  28.971  22.634  1.00  0.00    -0.261 OA
ATOM     20  S   UNL A   1      32.280  29.486  25.156  1.00  0.00    -0.022 SA
ATOM     21  C   UNL A   1      33.332  28.562  26.163  1.00  0.00     0.083 C 
ATOM     22  O   UNL A   1      34.156  26.306  26.054  1.00  0.00    -0.268 OA
BRANCH  16  23
ATOM     23  C   UNL A   1      33.703  26.359  23.206  1.00  0.00     0.230 C 
BRANCH  23  24
ATOM     24  C   UNL A   1      32.888  25.065  23.140  1.00  0.00     0.244 C 
ATOM     25  N   UNL A   1      33.268  23.953  23.835  1.00  0.00    -0.325 N 
ATOM     26  H   UNL A   1      32.523  23.374  24.118  1.00  0.00     0.169 HD
ATOM     27  O   UNL A   1      31.851  25.016  22.473  1.00  0.00    -0.273 OA
BRANCH  25  28
ATOM     28  C   UNL A   1      34.535  23.492  24.216  1.00  0.00     0.041 A 
ATOM     29  C   UNL A   1      38.245  21.708  25.515  1.00  0.00     0.044 C 
ATOM     30  C   UNL A   1      36.954  22.336  25.080  1.00  0.00    -0.051 A 
ATOM     31  C   UNL A   1      36.757  22.657  23.734  1.00  0.00     0.005 A 
ATOM     32  C   UNL A   1      35.928  22.596  25.993  1.00  0.00     0.005 A 
ATOM     33  C   UNL A   1      35.556  23.229  23.304  1.00  0.00     0.026 A 
ATOM     34  C   UNL A   1      34.722  23.156  25.561  1.00  0.00     0.026 A 
ENDBRANCH  25  28
ENDBRANCH  23  24
ENDBRANCH  16  23
ENDBRANCH   8  15
ENDBRANCH   6   7
ENDBRANCH   5   6
ENDBRANCH   1   5
BRANCH   3  35
ATOM     35  C   UNL A   1      32.912  37.083  31.499  1.00  0.00     0.117 C 
BRANCH  35  36
ATOM     36  C   UNL A   1      33.914  37.509  32.554  1.00  0.00     0.042 C 
BRANCH  36  37
ATOM     37  C   UNL A   1      34.038  36.530  33.714  1.00  0.00     0.118 C 
BRANCH  37  38
ATOM     38  N   UNL A   1      33.663  35.155  33.384  1.00  0.00    -0.352 N 
ATOM     39  C   UNL A   1      34.454  34.038  33.159  1.00  0.00     0.251 C 
ATOM     40  H   UNL A   1      32.695  34.996  33.312  1.00  0.00     0.163 HD
ATOM     41  O   UNL A   1      33.932  32.961  32.887  1.00  0.00    -0.269 OA
BRANCH  39  42
ATOM     42  C   UNL A   1      35.911  34.102  33.420  1.00  0.00     0.039 A 
ATOM     43  C   UNL A   1      36.729  34.611  32.401  1.00  0.00     0.014 A 
ATOM     44  C   UNL A   1      36.463  33.376  34.464  1.00  0.00     0.014 A 
ATOM     45  C   UNL A   1      38.014  34.105  32.255  1.00  0.00     0.010 A 
ATOM     46  C   UNL A   1      37.660  32.747  34.233  1.00  0.00     0.010 A 
ATOM     47  C   UNL A   1      38.394  33.059  33.083  1.00  0.00    -0.014 A 
BRANCH  47  48
ATOM     48  C   UNL A   1      39.520  32.180  32.834  1.00  0.00     0.031 A 
ATOM     49  C   UNL A   1      39.275  30.923  32.107  1.00  0.00     0.074 A 
ATOM     50  C   UNL A   1      40.768  32.643  33.075  1.00  0.00     0.049 A 
ATOM     51  N   UNL A   1      40.152  29.998  31.948  1.00  0.00    -0.248 NA
ATOM     52  C   UNL A   1      37.972  30.575  31.544  1.00  0.00     0.031 C 
ATOM     53  C   UNL A   1      42.028  32.140  32.534  1.00  0.00     0.029 A 
ATOM     54  N   UNL A   1      41.163  33.594  34.034  1.00  0.00    -0.354 N 
ATOM     55  C   UNL A   1      39.651  29.096  31.039  1.00  0.00     0.074 A 
ATOM     56  C   UNL A   1      38.257  29.429  30.920  1.00  0.00     0.031 C 
ATOM     57  C   UNL A   1      43.034  32.529  33.334  1.00  0.00     0.029 A 
ATOM     58  C   UNL A   1      42.425  33.144  34.499  1.00  0.00     0.049 A 
ATOM     59  H   UNL A   1      40.671  34.397  34.320  1.00  0.00     0.167 HD
ATOM     60  C   UNL A   1      40.536  28.273  30.413  1.00  0.00     0.037 A 
ATOM     61  C   UNL A   1      42.586  32.695  35.779  1.00  0.00     0.037 A 
ATOM     62  C   UNL A   1      41.827  28.319  31.105  1.00  0.00     0.049 A 
ATOM     63  C   UNL A   1      43.037  31.254  35.847  1.00  0.00     0.074 A 
ATOM     64  C   UNL A   1      43.028  28.950  30.837  1.00  0.00     0.029 A 
ATOM     65  N   UNL A   1      41.881  27.915  32.439  1.00  0.00    -0.354 N 
ATOM     66  N   UNL A   1      42.816  30.377  34.905  1.00  0.00    -0.248 NA
ATOM     67  C   UNL A   1      43.786  30.697  36.968  1.00  0.00     0.031 C 
ATOM     68  C   UNL A   1      43.769  29.005  32.050  1.00  0.00     0.029 A 
ATOM     69  C   UNL A   1      43.038  28.368  33.041  1.00  0.00     0.049 A 
ATOM     70  H   UNL A   1      41.189  27.380  32.890  1.00  0.00     0.167 HD
ATOM     71  C   UNL A   1      43.384  29.179  35.255  1.00  0.00     0.074 A 
ATOM     72  C   UNL A   1      43.981  29.434  36.553  1.00  0.00     0.031 C 
ATOM     73  C   UNL A   1      43.317  28.080  34.443  1.00  0.00     0.037 A 
BRANCH  60  74
ATOM     74  C   UNL A   1      40.334  27.590  29.071  1.00  0.00     0.064 A 
ATOM     75  C   UNL A   1      39.522  26.433  28.988  1.00  0.00     0.173 A 
ATOM     76  C   UNL A   1      40.987  27.921  27.864  1.00  0.00     0.173 A 
ATOM     77  F   UNL A   1      38.825  25.996  30.046  1.00  0.00    -0.203 F 
ATOM     78  C   UNL A   1      39.413  25.665  27.822  1.00  0.00     0.198 A 
ATOM     79  C   UNL A   1      40.852  27.171  26.692  1.00  0.00     0.198 A 
ATOM     80  F   UNL A   1      41.816  28.959  27.755  1.00  0.00    -0.203 F 
ATOM     81  F   UNL A   1      38.669  24.550  27.827  1.00  0.00    -0.200 F 
ATOM     82  C   UNL A   1      40.078  26.035  26.673  1.00  0.00     0.200 A 
ATOM     83  F   UNL A   1      41.509  27.553  25.586  1.00  0.00    -0.200 F 
ATOM     84  F   UNL A   1      39.984  25.297  25.559  1.00  0.00    -0.200 F 
ENDBRANCH  60  74
BRANCH  61  85
ATOM     85  C   UNL A   1      41.672  33.376  36.738  1.00  0.00     0.064 A 
ATOM     86  C   UNL A   1      42.015  34.682  37.142  1.00  0.00     0.173 A 
ATOM     87  C   UNL A   1      40.335  32.986  36.874  1.00  0.00     0.173 A 
ATOM     88  F   UNL A   1      43.288  35.099  37.048  1.00  0.00    -0.203 F 
ATOM     89  C   UNL A   1      41.038  35.609  37.497  1.00  0.00     0.198 A 
ATOM     90  C   UNL A   1      39.362  33.912  37.261  1.00  0.00     0.198 A 
ATOM     91  F   UNL A   1      39.943  31.758  36.506  1.00  0.00    -0.203 F 
ATOM     92  F   UNL A   1      41.379  36.887  37.724  1.00  0.00    -0.200 F 
ATOM     93  C   UNL A   1      39.707  35.233  37.521  1.00  0.00     0.200 A 
ATOM     94  F   UNL A   1      38.069  33.556  37.271  1.00  0.00    -0.200 F 
ATOM     95  F   UNL A   1      38.753  36.148  37.745  1.00  0.00    -0.200 F 
ENDBRANCH  61  85
BRANCH  73  96
ATOM     96  C   UNL A   1      43.602  26.647  34.851  1.00  0.00     0.064 A 
ATOM     97  C   UNL A   1      42.611  25.699  35.157  1.00  0.00     0.173 A 
ATOM     98  C   UNL A   1      44.924  26.132  34.794  1.00  0.00     0.173 A 
ATOM     99  F   UNL A   1      41.308  26.004  35.109  1.00  0.00    -0.203 F 
ATOM    100  C   UNL A   1      42.919  24.369  35.460  1.00  0.00     0.198 A 
ATOM    101  C   UNL A   1      45.220  24.789  35.025  1.00  0.00     0.198 A 
ATOM    102  F   UNL A   1      45.971  26.905  34.475  1.00  0.00    -0.203 F 
ATOM    103  F   UNL A   1      41.937  23.523  35.796  1.00  0.00    -0.200 F 
ATOM    104  C   UNL A   1      44.220  23.911  35.381  1.00  0.00     0.200 A 
ATOM    105  F   UNL A   1      46.478  24.349  34.877  1.00  0.00    -0.200 F 
ATOM    106  F   UNL A   1      44.504  22.623  35.620  1.00  0.00    -0.200 F 
ENDBRANCH  73  96
ENDBRANCH  47  48
ENDBRANCH  39  42
ENDBRANCH  37  38
ENDBRANCH  36  37
ENDBRANCH  35  36
ENDBRANCH   3  35
TORSDOF 16
ENDMDL
MODEL 2
REMARK VINA RESULT:     -13.2      3.538      9.643
REMARK SMILES Cc1ccc(NC(=O)CN2C(=O)S/C(=C\c3cc(Cl)c(OCC(=O)NCCCNC(=O)c4ccc(-c5c6nc(c(-c7c(F)c(F)c(F)c(F)c7F)c7ccc([nH]7)c(-c7c(F)c(F)c(F)c(F)c7F)c7nc(c(-c8c(F)c(F)c(F)c(F)c8F)c8ccc5[nH]8)C=C7)C=C6)cc4)c(Cl)c3)C2=O)cc1
REMARK SMILES IDX 23 1 24 2 25 3 22 5 21 6 20 7 16 8 17 9 97 10 18 11 95 12
REMARK SMILES IDX 19 13 96 14 15 15 10 16 11 17 98 18 12 19 13 20 14 21 99 22
REMARK SMILES IDX 9 23 7 24 6 25 8 27 5 28 1 29 2 30 3 31 101 32 4 33 100 34
REMARK SMILES IDX 26 35 27 36 28 37 29 38 30 39 31 41 32 42 33 43 94 44 34 45
REMARK SMILES IDX 93 46 35 47 36 48 37 49 87 50 38 51 92 52 86 53 88 54 39 55
REMARK SMILES IDX 91 56 85 57 84 58 40 60 72 61 52 62 71 63 53 64 56 65 70 66
REMARK SMILES IDX 89 67 54 68 55 69 69 71 90 72 57 73 41 74 42 75 50 76 43 77
REMARK SMILES IDX 44 78 48 79 51 80 45 81 46 82 49 83 47 84 73 85 74 86 82 87
REMARK SMILES IDX 75 88 76 89 80 90 83 91 77 92 78 93 81 94 79 95 58 96 59 97
REMARK SMILES IDX 67 98 60 99 61 100 65 101 68 102 62 103 63 104 66 105 64 106
REMARK H PARENT 25 4 6 26 29 40 88 59 56 70
REMARK Flexibility Score: inf
ROOT
ATOM      1  C   UNL A   1      41.643  21.330  27.420  1.00  0.00     0.257 C 
ATOM      2  O   UNL A   1      41.677  20.127  27.683  1.00  0.00    -0.271 OA
ATOM      3  N   UNL A   1      42.501  22.136  28.111  1.00  0.00    -0.353 N 
ATOM      4  H   UNL A   1      43.016  21.691  28.823  1.00  0.00     0.163 HD
ENDROOT
BRANCH   1   5
ATOM      5  C   UNL A   1      40.711  21.923  26.347  1.00  0.00     0.329 C 
BRANCH   5   6
ATOM      6  O   UNL A   1      39.451  21.303  26.157  1.00  0.00    -0.481 OA
BRANCH   6   7
ATOM      7  C   UNL A   1      38.335  21.974  25.733  1.00  0.00     0.157 A 
ATOM      8  C   UNL A   1      35.907  23.038  24.639  1.00  0.00    -0.021 A 
ATOM      9  C   UNL A   1      36.224  21.699  24.452  1.00  0.00     0.032 A 
ATOM     10  C   UNL A   1      36.824  23.831  25.340  1.00  0.00     0.032 A 
ATOM     11  C   UNL A   1      37.425  21.183  24.982  1.00  0.00     0.085 A 
ATOM     12  C   UNL A   1      37.977  23.306  25.946  1.00  0.00     0.085 A 
ATOM     13  Cl  UNL A   1      37.746  19.502  24.681  1.00  0.00    -0.080 Cl
ATOM     14  Cl  UNL A   1      38.747  24.428  27.006  1.00  0.00    -0.080 Cl
BRANCH   8  15
ATOM     15  C   UNL A   1      34.697  23.672  24.075  1.00  0.00     0.029 C 
ATOM     16  N   UNL A   1      31.534  24.498  25.480  1.00  0.00    -0.259 N 
ATOM     17  C   UNL A   1      31.859  23.586  26.452  1.00  0.00     0.294 C 
ATOM     18  C   UNL A   1      32.383  24.536  24.390  1.00  0.00     0.268 C 
ATOM     19  O   UNL A   1      31.538  23.594  27.626  1.00  0.00    -0.261 OA
ATOM     20  S   UNL A   1      32.955  22.399  25.791  1.00  0.00    -0.022 SA
ATOM     21  C   UNL A   1      33.456  23.509  24.571  1.00  0.00     0.083 C 
ATOM     22  O   UNL A   1      32.383  25.374  23.499  1.00  0.00    -0.268 OA
BRANCH  16  23
ATOM     23  C   UNL A   1      30.685  25.631  25.816  1.00  0.00     0.230 C 
BRANCH  23  24
ATOM     24  C   UNL A   1      30.558  26.648  24.679  1.00  0.00     0.244 C 
ATOM     25  N   UNL A   1      31.469  27.652  24.522  1.00  0.00    -0.325 N 
ATOM     26  H   UNL A   1      31.601  27.941  23.590  1.00  0.00     0.169 HD
ATOM     27  O   UNL A   1      29.635  26.557  23.863  1.00  0.00    -0.273 OA
BRANCH  25  28
ATOM     28  C   UNL A   1      32.249  28.343  25.457  1.00  0.00     0.041 A 
ATOM     29  C   UNL A   1      34.899  30.600  28.009  1.00  0.00     0.044 C 
ATOM     30  C   UNL A   1      33.989  29.800  27.126  1.00  0.00    -0.051 A 
ATOM     31  C   UNL A   1      32.641  30.155  27.017  1.00  0.00     0.005 A 
ATOM     32  C   UNL A   1      34.462  28.710  26.391  1.00  0.00     0.005 A 
ATOM     33  C   UNL A   1      31.778  29.432  26.188  1.00  0.00     0.026 A 
ATOM     34  C   UNL A   1      33.601  27.996  25.551  1.00  0.00     0.026 A 
ENDBRANCH  25  28
ENDBRANCH  23  24
ENDBRANCH  16  23
ENDBRANCH   8  15
ENDBRANCH   6   7
ENDBRANCH   5   6
ENDBRANCH   1   5
BRANCH   3  35
ATOM     35  C   UNL A   1      42.764  23.552  27.948  1.00  0.00     0.117 C 
BRANCH  35  36
ATOM     36  C   UNL A   1      41.894  24.411  28.847  1.00  0.00     0.042 C 
BRANCH  36  37
ATOM     37  C   UNL A   1      41.755  25.851  28.372  1.00  0.00     0.118 C 
BRANCH  37  38
ATOM     38  N   UNL A   1      42.118  26.061  26.970  1.00  0.00    -0.352 N 
ATOM     39  C   UNL A   1      41.886  27.143  26.135  1.00  0.00     0.251 C 
ATOM     40  H   UNL A   1      42.607  25.316  26.553  1.00  0.00     0.163 HD
ATOM     41  O   UNL A   1      42.276  27.115  24.972  1.00  0.00    -0.269 OA
BRANCH  39  42
ATOM     42  C   UNL A   1      41.327  28.397  26.692  1.00  0.00     0.039 A 
ATOM     43  C   UNL A   1      42.206  29.252  27.371  1.00  0.00     0.014 A 
ATOM     44  C   UNL A   1      39.956  28.541  26.840  1.00  0.00     0.014 A 
ATOM     45  C   UNL A   1      41.726  30.001  28.437  1.00  0.00     0.010 A 
ATOM     46  C   UNL A   1      39.504  29.140  27.988  1.00  0.00     0.010 A 
ATOM     47  C   UNL A   1      40.409  29.801  28.825  1.00  0.00    -0.014 A 
BRANCH  47  48
ATOM     48  C   UNL A   1      39.860  30.199  30.107  1.00  0.00     0.031 A 
ATOM     49  C   UNL A   1      39.139  31.480  30.189  1.00  0.00     0.074 A 
ATOM     50  C   UNL A   1      39.835  29.292  31.110  1.00  0.00     0.049 A 
ATOM     51  N   UNL A   1      38.732  32.012  31.285  1.00  0.00    -0.248 NA
ATOM     52  C   UNL A   1      38.869  32.313  29.018  1.00  0.00     0.031 C 
ATOM     53  C   UNL A   1      38.992  29.302  32.304  1.00  0.00     0.029 A 
ATOM     54  N   UNL A   1      40.730  28.229  31.332  1.00  0.00    -0.354 N 
ATOM     55  C   UNL A   1      37.913  33.068  30.961  1.00  0.00     0.074 A 
ATOM     56  C   UNL A   1      38.134  33.289  29.557  1.00  0.00     0.031 C 
ATOM     57  C   UNL A   1      39.563  28.535  33.247  1.00  0.00     0.029 A 
ATOM     58  C   UNL A   1      40.868  28.154  32.741  1.00  0.00     0.049 A 
ATOM     59  H   UNL A   1      41.165  27.661  30.656  1.00  0.00     0.167 HD
ATOM     60  C   UNL A   1      37.055  33.518  31.918  1.00  0.00     0.037 A 
ATOM     61  C   UNL A   1      42.050  28.464  33.352  1.00  0.00     0.037 A 
ATOM     62  C   UNL A   1      37.436  32.966  33.220  1.00  0.00     0.049 A 
ATOM     63  C   UNL A   1      41.933  29.626  34.312  1.00  0.00     0.074 A 
ATOM     64  C   UNL A   1      36.936  31.938  34.000  1.00  0.00     0.029 A 
ATOM     65  N   UNL A   1      38.697  33.271  33.731  1.00  0.00    -0.354 N 
ATOM     66  N   UNL A   1      41.019  30.553  34.223  1.00  0.00    -0.248 NA
ATOM     67  C   UNL A   1      42.820  29.819  35.454  1.00  0.00     0.031 C 
ATOM     68  C   UNL A   1      37.949  31.565  34.927  1.00  0.00     0.029 A 
ATOM     69  C   UNL A   1      39.043  32.395  34.739  1.00  0.00     0.049 A 
ATOM     70  H   UNL A   1      39.264  34.012  33.415  1.00  0.00     0.167 HD
ATOM     71  C   UNL A   1      41.161  31.436  35.262  1.00  0.00     0.074 A 
ATOM     72  C   UNL A   1      42.301  30.929  36.005  1.00  0.00     0.031 C 
ATOM     73  C   UNL A   1      40.326  32.507  35.425  1.00  0.00     0.037 A 
BRANCH  60  74
ATOM     74  C   UNL A   1      35.759  34.274  31.680  1.00  0.00     0.064 A 
ATOM     75  C   UNL A   1      35.251  35.129  32.687  1.00  0.00     0.173 A 
ATOM     76  C   UNL A   1      34.903  34.124  30.568  1.00  0.00     0.173 A 
ATOM     77  F   UNL A   1      35.952  35.385  33.801  1.00  0.00    -0.203 F 
ATOM     78  C   UNL A   1      33.992  35.736  32.603  1.00  0.00     0.198 A 
ATOM     79  C   UNL A   1      33.659  34.756  30.471  1.00  0.00     0.198 A 
ATOM     80  F   UNL A   1      35.197  33.337  29.533  1.00  0.00    -0.203 F 
ATOM     81  F   UNL A   1      33.548  36.491  33.617  1.00  0.00    -0.200 F 
ATOM     82  C   UNL A   1      33.196  35.550  31.494  1.00  0.00     0.200 A 
ATOM     83  F   UNL A   1      32.904  34.561  29.379  1.00  0.00    -0.200 F 
ATOM     84  F   UNL A   1      31.986  36.121  31.413  1.00  0.00    -0.200 F 
ENDBRANCH  60  74
BRANCH  61  85
ATOM     85  C   UNL A   1      43.230  28.144  32.500  1.00  0.00     0.064 A 
ATOM     86  C   UNL A   1      43.583  26.786  32.369  1.00  0.00     0.173 A 
ATOM     87  C   UNL A   1      43.677  29.028  31.512  1.00  0.00     0.173 A 
ATOM     88  F   UNL A   1      43.193  25.900  33.299  1.00  0.00    -0.203 F 
ATOM     89  C   UNL A   1      44.202  26.308  31.216  1.00  0.00     0.198 A 
ATOM     90  C   UNL A   1      44.326  28.547  30.371  1.00  0.00     0.198 A 
ATOM     91  F   UNL A   1      43.373  30.332  31.576  1.00  0.00    -0.203 F 
ATOM     92  F   UNL A   1      44.384  24.989  31.052  1.00  0.00    -0.200 F 
ATOM     93  C   UNL A   1      44.540  27.185  30.201  1.00  0.00     0.200 A 
ATOM     94  F   UNL A   1      44.642  29.392  29.377  1.00  0.00    -0.200 F 
ATOM     95  F   UNL A   1      45.026  26.718  29.042  1.00  0.00    -0.200 F 
ENDBRANCH  61  85
BRANCH  73  96
ATOM     96  C   UNL A   1      40.578  33.711  36.311  1.00  0.00     0.064 A 
ATOM     97  C   UNL A   1      41.521  34.716  36.034  1.00  0.00     0.173 A 
ATOM     98  C   UNL A   1      39.736  33.974  37.424  1.00  0.00     0.173 A 
ATOM     99  F   UNL A   1      42.287  34.677  34.937  1.00  0.00    -0.203 F 
ATOM    100  C   UNL A   1      41.669  35.845  36.846  1.00  0.00     0.198 A 
ATOM    101  C   UNL A   1      39.838  35.136  38.189  1.00  0.00     0.198 A 
ATOM    102  F   UNL A   1      38.762  33.129  37.789  1.00  0.00    -0.203 F 
ATOM    103  F   UNL A   1      42.621  36.743  36.562  1.00  0.00    -0.200 F 
ATOM    104  C   UNL A   1      40.820  36.062  37.914  1.00  0.00     0.200 A 
ATOM    105  F   UNL A   1      38.961  35.361  39.177  1.00  0.00    -0.200 F 
ATOM    106  F   UNL A   1      40.930  37.172  38.656  1.00  0.00    -0.200 F 
ENDBRANCH  73  96
ENDBRANCH  47  48
ENDBRANCH  39  42
ENDBRANCH  37  38
ENDBRANCH  36  37
ENDBRANCH  35  36
ENDBRANCH   3  35
TORSDOF 16
ENDMDL
MODEL 3
REMARK VINA RESULT:     -13.2      4.678      7.039
REMARK SMILES Cc1ccc(NC(=O)CN2C(=O)S/C(=C\c3cc(Cl)c(OCC(=O)NCCCNC(=O)c4ccc(-c5c6nc(c(-c7c(F)c(F)c(F)c(F)c7F)c7ccc([nH]7)c(-c7c(F)c(F)c(F)c(F)c7F)c7nc(c(-c8c(F)c(F)c(F)c(F)c8F)c8ccc5[nH]8)C=C7)C=C6)cc4)c(Cl)c3)C2=O)cc1
REMARK SMILES IDX 23 1 24 2 25 3 22 5 21 6 20 7 16 8 17 9 97 10 18 11 95 12
REMARK SMILES IDX 19 13 96 14 15 15 10 16 11 17 98 18 12 19 13 20 14 21 99 22
REMARK SMILES IDX 9 23 7 24 6 25 8 27 5 28 1 29 2 30 3 31 101 32 4 33 100 34
REMARK SMILES IDX 26 35 27 36 28 37 29 38 30 39 31 41 32 42 33 43 94 44 34 45
REMARK SMILES IDX 93 46 35 47 36 48 37 49 87 50 38 51 92 52 86 53 88 54 39 55
REMARK SMILES IDX 91 56 85 57 84 58 40 60 72 61 52 62 71 63 53 64 56 65 70 66
REMARK SMILES IDX 89 67 54 68 55 69 69 71 90 72 57 73 41 74 42 75 50 76 43 77
REMARK SMILES IDX 44 78 48 79 51 80 45 81 46 82 49 83 47 84 73 85 74 86 82 87
REMARK SMILES IDX 75 88 76 89 80 90 83 91 77 92 78 93 81 94 79 95 58 96 59 97
REMARK SMILES IDX 67 98 60 99 61 100 65 101 68 102 62 103 63 104 66 105 64 106
REMARK H PARENT 25 4 6 26 29 40 88 59 56 70
REMARK Flexibility Score: inf
ROOT
ATOM      1  C   UNL A   1      35.350  34.018  28.649  1.00  0.00     0.257 C 
ATOM      2  O   UNL A   1      34.839  35.010  28.128  1.00  0.00    -0.271 OA
ATOM      3  N   UNL A   1      36.574  34.189  29.230  1.00  0.00    -0.353 N 
ATOM      4  H   UNL A   1      36.978  35.078  29.107  1.00  0.00     0.163 HD
ENDROOT
BRANCH   1   5
ATOM      5  C   UNL A   1      34.656  32.644  28.686  1.00  0.00     0.329 C 
BRANCH   5   6
ATOM      6  O   UNL A   1      34.621  31.894  27.485  1.00  0.00    -0.481 OA
BRANCH   6   7
ATOM      7  C   UNL A   1      33.746  30.864  27.262  1.00  0.00     0.157 A 
ATOM      8  C   UNL A   1      32.234  28.462  26.852  1.00  0.00    -0.021 A 
ATOM      9  C   UNL A   1      33.553  28.387  27.280  1.00  0.00     0.032 A 
ATOM     10  C   UNL A   1      31.703  29.733  26.603  1.00  0.00     0.032 A 
ATOM     11  C   UNL A   1      34.296  29.571  27.469  1.00  0.00     0.085 A 
ATOM     12  C   UNL A   1      32.406  30.918  26.874  1.00  0.00     0.085 A 
ATOM     13  Cl  UNL A   1      35.943  29.378  27.987  1.00  0.00    -0.080 Cl
ATOM     14  Cl  UNL A   1      31.411  32.324  26.784  1.00  0.00    -0.080 Cl
BRANCH   8  15
ATOM     15  C   UNL A   1      31.400  27.272  26.579  1.00  0.00     0.029 C 
ATOM     16  N   UNL A   1      32.029  24.242  24.823  1.00  0.00    -0.259 N 
ATOM     17  C   UNL A   1      33.058  24.934  24.235  1.00  0.00     0.294 C 
ATOM     18  C   UNL A   1      31.164  24.999  25.591  1.00  0.00     0.268 C 
ATOM     19  O   UNL A   1      34.126  24.501  23.844  1.00  0.00    -0.261 OA
ATOM     20  S   UNL A   1      32.678  26.638  24.220  1.00  0.00    -0.022 SA
ATOM     21  C   UNL A   1      31.597  26.431  25.547  1.00  0.00     0.083 C 
ATOM     22  O   UNL A   1      30.290  24.573  26.333  1.00  0.00    -0.268 OA
BRANCH  16  23
ATOM     23  C   UNL A   1      32.149  22.805  25.016  1.00  0.00     0.230 C 
BRANCH  23  24
ATOM     24  C   UNL A   1      33.029  22.427  26.210  1.00  0.00     0.244 C 
ATOM     25  N   UNL A   1      33.905  21.383  26.141  1.00  0.00    -0.325 N 
ATOM     26  H   UNL A   1      34.708  21.487  26.702  1.00  0.00     0.169 HD
ATOM     27  O   UNL A   1      32.978  23.086  27.254  1.00  0.00    -0.273 OA
BRANCH  25  28
ATOM     28  C   UNL A   1      33.861  20.189  25.411  1.00  0.00     0.041 A 
ATOM     29  C   UNL A   1      33.959  16.332  23.475  1.00  0.00     0.044 C 
ATOM     30  C   UNL A   1      33.940  17.678  24.138  1.00  0.00    -0.051 A 
ATOM     31  C   UNL A   1      32.725  18.224  24.564  1.00  0.00     0.005 A 
ATOM     32  C   UNL A   1      35.118  18.397  24.356  1.00  0.00     0.005 A 
ATOM     33  C   UNL A   1      32.686  19.470  25.197  1.00  0.00     0.026 A 
ATOM     34  C   UNL A   1      35.079  19.637  25.001  1.00  0.00     0.026 A 
ENDBRANCH  25  28
ENDBRANCH  23  24
ENDBRANCH  16  23
ENDBRANCH   8  15
ENDBRANCH   6   7
ENDBRANCH   5   6
ENDBRANCH   1   5
BRANCH   3  35
ATOM     35  C   UNL A   1      37.364  33.250  30.002  1.00  0.00     0.117 C 
BRANCH  35  36
ATOM     36  C   UNL A   1      38.283  32.412  29.133  1.00  0.00     0.042 C 
BRANCH  36  37
ATOM     37  C   UNL A   1      38.705  31.097  29.776  1.00  0.00     0.118 C 
BRANCH  37  38
ATOM     38  N   UNL A   1      37.895  30.703  30.930  1.00  0.00    -0.352 N 
ATOM     39  C   UNL A   1      37.781  29.478  31.570  1.00  0.00     0.251 C 
ATOM     40  H   UNL A   1      37.343  31.422  31.313  1.00  0.00     0.163 HD
ATOM     41  O   UNL A   1      37.030  29.357  32.532  1.00  0.00    -0.269 OA
BRANCH  39  42
ATOM     42  C   UNL A   1      38.694  28.369  31.207  1.00  0.00     0.039 A 
ATOM     43  C   UNL A   1      39.957  28.346  31.814  1.00  0.00     0.014 A 
ATOM     44  C   UNL A   1      38.448  27.609  30.074  1.00  0.00     0.014 A 
ATOM     45  C   UNL A   1      41.038  27.844  31.100  1.00  0.00     0.010 A 
ATOM     46  C   UNL A   1      39.524  27.269  29.295  1.00  0.00     0.010 A 
ATOM     47  C   UNL A   1      40.821  27.463  29.783  1.00  0.00    -0.014 A 
BRANCH  47  48
ATOM     48  C   UNL A   1      41.868  27.278  28.797  1.00  0.00     0.031 A 
ATOM     49  C   UNL A   1      42.425  25.927  28.619  1.00  0.00     0.074 A 
ATOM     50  C   UNL A   1      42.132  28.287  27.937  1.00  0.00     0.049 A 
ATOM     51  N   UNL A   1      43.446  25.657  27.888  1.00  0.00    -0.248 NA
ATOM     52  C   UNL A   1      41.901  24.755  29.319  1.00  0.00     0.031 C 
ATOM     53  C   UNL A   1      42.806  28.204  26.643  1.00  0.00     0.029 A 
ATOM     54  N   UNL A   1      41.984  29.669  28.158  1.00  0.00    -0.354 N 
ATOM     55  C   UNL A   1      43.534  24.289  27.778  1.00  0.00     0.074 A 
ATOM     56  C   UNL A   1      42.638  23.780  28.781  1.00  0.00     0.031 C 
ATOM     57  C   UNL A   1      43.283  29.418  26.321  1.00  0.00     0.029 A 
ATOM     58  C   UNL A   1      43.074  30.268  27.478  1.00  0.00     0.049 A 
ATOM     59  H   UNL A   1      41.277  30.121  28.672  1.00  0.00     0.167 HD
ATOM     60  C   UNL A   1      44.266  23.785  26.747  1.00  0.00     0.037 A 
ATOM     61  C   UNL A   1      44.078  30.891  28.165  1.00  0.00     0.037 A 
ATOM     62  C   UNL A   1      45.082  24.848  26.155  1.00  0.00     0.049 A 
ATOM     63  C   UNL A   1      45.431  30.257  27.940  1.00  0.00     0.074 A 
ATOM     64  C   UNL A   1      44.963  25.610  25.006  1.00  0.00     0.029 A 
ATOM     65  N   UNL A   1      46.029  25.485  26.956  1.00  0.00    -0.354 N 
ATOM     66  N   UNL A   1      45.601  29.012  27.587  1.00  0.00    -0.248 NA
ATOM     67  C   UNL A   1      46.691  30.980  28.073  1.00  0.00     0.031 C 
ATOM     68  C   UNL A   1      45.779  26.765  25.167  1.00  0.00     0.029 A 
ATOM     69  C   UNL A   1      46.427  26.678  26.389  1.00  0.00     0.049 A 
ATOM     70  H   UNL A   1      46.368  25.131  27.810  1.00  0.00     0.167 HD
ATOM     71  C   UNL A   1      46.940  28.761  27.428  1.00  0.00     0.074 A 
ATOM     72  C   UNL A   1      47.578  30.027  27.742  1.00  0.00     0.031 C 
ATOM     73  C   UNL A   1      47.408  27.533  27.049  1.00  0.00     0.037 A 
BRANCH  60  74
ATOM     74  C   UNL A   1      44.109  22.409  26.122  1.00  0.00     0.064 A 
ATOM     75  C   UNL A   1      42.852  21.761  26.161  1.00  0.00     0.173 A 
ATOM     76  C   UNL A   1      45.148  21.616  25.588  1.00  0.00     0.173 A 
ATOM     77  F   UNL A   1      41.761  22.385  26.627  1.00  0.00    -0.203 F 
ATOM     78  C   UNL A   1      42.668  20.436  25.745  1.00  0.00     0.198 A 
ATOM     79  C   UNL A   1      44.956  20.304  25.144  1.00  0.00     0.198 A 
ATOM     80  F   UNL A   1      46.407  22.044  25.497  1.00  0.00    -0.203 F 
ATOM     81  F   UNL A   1      41.461  19.864  25.859  1.00  0.00    -0.200 F 
ATOM     82  C   UNL A   1      43.721  19.708  25.236  1.00  0.00     0.200 A 
ATOM     83  F   UNL A   1      45.997  19.617  24.650  1.00  0.00    -0.200 F 
ATOM     84  F   UNL A   1      43.551  18.437  24.845  1.00  0.00    -0.200 F 
ENDBRANCH  60  74
BRANCH  61  85
ATOM     85  C   UNL A   1      43.598  31.510  29.433  1.00  0.00     0.064 A 
ATOM     86  C   UNL A   1      42.887  32.724  29.331  1.00  0.00     0.173 A 
ATOM     87  C   UNL A   1      43.418  30.750  30.594  1.00  0.00     0.173 A 
ATOM     88  F   UNL A   1      43.038  33.498  28.245  1.00  0.00    -0.203 F 
ATOM     89  C   UNL A   1      41.913  33.071  30.264  1.00  0.00     0.198 A 
ATOM     90  C   UNL A   1      42.460  31.120  31.543  1.00  0.00     0.198 A 
ATOM     91  F   UNL A   1      44.062  29.585  30.751  1.00  0.00    -0.203 F 
ATOM     92  F   UNL A   1      41.145  34.152  30.058  1.00  0.00    -0.200 F 
ATOM     93  C   UNL A   1      41.675  32.249  31.350  1.00  0.00     0.200 A 
ATOM     94  F   UNL A   1      42.215  30.318  32.590  1.00  0.00    -0.200 F 
ATOM     95  F   UNL A   1      40.660  32.515  32.186  1.00  0.00    -0.200 F 
ENDBRANCH  61  85
BRANCH  73  96
ATOM     96  C   UNL A   1      48.840  27.048  27.162  1.00  0.00     0.064 A 
ATOM     97  C   UNL A   1      49.374  26.414  28.297  1.00  0.00     0.173 A 
ATOM     98  C   UNL A   1      49.700  27.071  26.033  1.00  0.00     0.173 A 
ATOM     99  F   UNL A   1      48.633  26.190  29.390  1.00  0.00    -0.203 F 
ATOM    100  C   UNL A   1      50.682  25.919  28.330  1.00  0.00     0.198 A 
ATOM    101  C   UNL A   1      50.978  26.512  26.045  1.00  0.00     0.198 A 
ATOM    102  F   UNL A   1      49.318  27.605  24.864  1.00  0.00    -0.203 F 
ATOM    103  F   UNL A   1      51.154  25.373  29.458  1.00  0.00    -0.200 F 
ATOM    104  C   UNL A   1      51.478  25.956  27.202  1.00  0.00     0.200 A 
ATOM    105  F   UNL A   1      51.709  26.495  24.922  1.00  0.00    -0.200 F 
ATOM    106  F   UNL A   1      52.711  25.432  27.222  1.00  0.00    -0.200 F 
ENDBRANCH  73  96
ENDBRANCH  47  48
ENDBRANCH  39  42
ENDBRANCH  37  38
ENDBRANCH  36  37
ENDBRANCH  35  36
ENDBRANCH   3  35
TORSDOF 16
ENDMDL
