MODEL 1
REMARK VINA RESULT:     -13.4      0.000      0.000
REMARK SMILES O=C(NCCCNC(=O)c1cc(N2CCCCC2)ccc1NC(=O)c1ccccc1)c1ccc(-c2c3nc(c(-c4c(F)c(F)c(F)c(F)c4F)c4ccc([nH]4)c(-c4c(F)c(F)c(F)c(F)c4F)c4nc(c(-c5c(F)c(F)c(F)c(F)c5F)c5ccc2[nH]5)C=C4)C=C3)cc1
REMARK SMILES IDX 5 1 4 2 3 3 1 4 2 5 31 7 32 8 93 9 33 10 92 11 34 12 35 13
REMARK SMILES IDX 36 14 86 15 37 16 91 17 85 18 87 19 38 20 90 21 84 22 83 23
REMARK SMILES IDX 39 25 71 26 51 27 70 28 52 29 55 30 69 31 88 32 53 33 54 34
REMARK SMILES IDX 68 36 89 37 56 38 40 39 41 40 49 41 42 42 43 43 47 44 50 45
REMARK SMILES IDX 44 46 45 47 48 48 46 49 72 50 73 51 81 52 74 53 75 54 79 55
REMARK SMILES IDX 82 56 76 57 77 58 80 59 78 60 57 61 58 62 66 63 59 64 60 65
REMARK SMILES IDX 64 66 67 67 61 68 62 69 65 70 63 71 6 72 7 73 8 74 9 76
REMARK SMILES IDX 10 77 11 78 21 79 12 80 20 81 19 82 22 83 23 84 24 86 25 87
REMARK SMILES IDX 26 88 30 89 27 90 29 91 28 92 13 93 14 94 18 95 15 96 17 97
REMARK SMILES IDX 16 98
REMARK H PARENT 3 6 87 24 55 35 7 75 22 85
REMARK Flexibility Score: inf
ROOT
ATOM      1  C   UNL A   1      38.018  19.958  25.001  1.00  0.00     0.042 C 
ENDROOT
BRANCH   1   2
ATOM      2  C   UNL A   1      39.032  20.129  26.122  1.00  0.00     0.118 C 
BRANCH   2   3
ATOM      3  N   UNL A   1      40.152  19.202  26.030  1.00  0.00    -0.352 N 
ATOM      4  O   UNL A   1      42.306  18.553  25.830  1.00  0.00    -0.269 OA
ATOM      5  C   UNL A   1      41.503  19.449  26.072  1.00  0.00     0.251 C 
ATOM      6  H   UNL A   1      39.904  18.256  25.921  1.00  0.00     0.163 HD
BRANCH   5   7
ATOM      7  C   UNL A   1      41.993  20.805  26.388  1.00  0.00     0.039 A 
ATOM      8  C   UNL A   1      42.155  21.752  25.377  1.00  0.00     0.014 A 
ATOM      9  C   UNL A   1      42.277  21.137  27.716  1.00  0.00     0.014 A 
ATOM     10  C   UNL A   1      42.751  22.973  25.662  1.00  0.00     0.010 A 
ATOM     11  C   UNL A   1      42.768  22.410  28.019  1.00  0.00     0.010 A 
ATOM     12  C   UNL A   1      43.025  23.330  26.991  1.00  0.00    -0.014 A 
BRANCH  12  13
ATOM     13  C   UNL A   1      43.451  24.718  27.287  1.00  0.00     0.031 A 
ATOM     14  C   UNL A   1      42.493  25.730  27.840  1.00  0.00     0.074 A 
ATOM     15  C   UNL A   1      44.733  25.049  27.035  1.00  0.00     0.049 A 
ATOM     16  N   UNL A   1      42.703  26.995  28.111  1.00  0.00    -0.248 NA
ATOM     17  C   UNL A   1      41.122  25.277  28.121  1.00  0.00     0.031 C 
ATOM     18  C   UNL A   1      45.742  24.141  26.481  1.00  0.00     0.029 A 
ATOM     19  N   UNL A   1      45.412  26.227  27.208  1.00  0.00    -0.354 N 
ATOM     20  C   UNL A   1      41.490  27.494  28.566  1.00  0.00     0.074 A 
ATOM     21  C   UNL A   1      40.542  26.400  28.528  1.00  0.00     0.031 C 
ATOM     22  C   UNL A   1      46.912  24.784  26.385  1.00  0.00     0.029 A 
ATOM     23  C   UNL A   1      46.719  26.169  26.791  1.00  0.00     0.049 A 
ATOM     24  H   UNL A   1      45.001  27.035  27.592  1.00  0.00     0.167 HD
ATOM     25  C   UNL A   1      41.205  28.753  28.974  1.00  0.00     0.037 A 
ATOM     26  C   UNL A   1      47.650  27.136  26.699  1.00  0.00     0.037 A 
ATOM     27  C   UNL A   1      42.170  29.821  29.030  1.00  0.00     0.049 A 
ATOM     28  C   UNL A   1      47.287  28.527  27.125  1.00  0.00     0.074 A 
ATOM     29  C   UNL A   1      42.002  31.108  29.511  1.00  0.00     0.029 A 
ATOM     30  N   UNL A   1      43.478  29.733  28.574  1.00  0.00    -0.354 N 
ATOM     31  N   UNL A   1      46.158  28.969  27.623  1.00  0.00    -0.248 NA
ATOM     32  C   UNL A   1      48.320  29.558  26.969  1.00  0.00     0.031 C 
ATOM     33  C   UNL A   1      43.185  31.818  29.286  1.00  0.00     0.029 A 
ATOM     34  C   UNL A   1      44.110  30.959  28.717  1.00  0.00     0.049 A 
ATOM     35  H   UNL A   1      43.894  28.921  28.206  1.00  0.00     0.167 HD
ATOM     36  C   UNL A   1      46.345  30.325  27.846  1.00  0.00     0.074 A 
ATOM     37  C   UNL A   1      47.709  30.627  27.458  1.00  0.00     0.031 C 
ATOM     38  C   UNL A   1      45.466  31.239  28.320  1.00  0.00     0.037 A 
BRANCH  25  39
ATOM     39  C   UNL A   1      39.794  29.072  29.374  1.00  0.00     0.064 A 
ATOM     40  C   UNL A   1      38.834  29.485  28.440  1.00  0.00     0.173 A 
ATOM     41  C   UNL A   1      39.375  28.863  30.698  1.00  0.00     0.173 A 
ATOM     42  F   UNL A   1      39.183  29.705  27.164  1.00  0.00    -0.203 F 
ATOM     43  C   UNL A   1      37.507  29.685  28.818  1.00  0.00     0.198 A 
ATOM     44  C   UNL A   1      38.044  29.038  31.066  1.00  0.00     0.198 A 
ATOM     45  F   UNL A   1      40.252  28.460  31.629  1.00  0.00    -0.203 F 
ATOM     46  F   UNL A   1      36.610  30.100  27.914  1.00  0.00    -0.200 F 
ATOM     47  C   UNL A   1      37.111  29.450  30.127  1.00  0.00     0.200 A 
ATOM     48  F   UNL A   1      37.661  28.797  32.328  1.00  0.00    -0.200 F 
ATOM     49  F   UNL A   1      35.830  29.621  30.483  1.00  0.00    -0.200 F 
ENDBRANCH  25  39
BRANCH  26  50
ATOM     50  C   UNL A   1      48.987  26.825  26.132  1.00  0.00     0.064 A 
ATOM     51  C   UNL A   1      49.265  27.023  24.773  1.00  0.00     0.173 A 
ATOM     52  C   UNL A   1      50.016  26.314  26.939  1.00  0.00     0.173 A 
ATOM     53  F   UNL A   1      48.310  27.494  23.958  1.00  0.00    -0.203 F 
ATOM     54  C   UNL A   1      50.509  26.699  24.239  1.00  0.00     0.198 A 
ATOM     55  C   UNL A   1      51.271  26.025  26.412  1.00  0.00     0.198 A 
ATOM     56  F   UNL A   1      49.806  26.111  28.248  1.00  0.00    -0.203 F 
ATOM     57  F   UNL A   1      50.731  26.847  22.925  1.00  0.00    -0.200 F 
ATOM     58  C   UNL A   1      51.514  26.206  25.059  1.00  0.00     0.200 A 
ATOM     59  F   UNL A   1      52.244  25.568  27.212  1.00  0.00    -0.200 F 
ATOM     60  F   UNL A   1      52.712  25.897  24.545  1.00  0.00    -0.200 F 
ENDBRANCH  26  50
BRANCH  38  61
ATOM     61  C   UNL A   1      45.956  32.650  28.453  1.00  0.00     0.064 A 
ATOM     62  C   UNL A   1      45.780  33.583  27.420  1.00  0.00     0.173 A 
ATOM     63  C   UNL A   1      46.566  33.085  29.637  1.00  0.00     0.173 A 
ATOM     64  F   UNL A   1      45.220  33.209  26.259  1.00  0.00    -0.203 F 
ATOM     65  C   UNL A   1      46.215  34.897  27.564  1.00  0.00     0.198 A 
ATOM     66  C   UNL A   1      46.971  34.408  29.790  1.00  0.00     0.198 A 
ATOM     67  F   UNL A   1      46.753  32.232  30.656  1.00  0.00    -0.203 F 
ATOM     68  F   UNL A   1      46.076  35.761  26.548  1.00  0.00    -0.200 F 
ATOM     69  C   UNL A   1      46.799  35.311  28.751  1.00  0.00     0.200 A 
ATOM     70  F   UNL A   1      47.523  34.809  30.943  1.00  0.00    -0.200 F 
ATOM     71  F   UNL A   1      47.205  36.580  28.893  1.00  0.00    -0.200 F 
ENDBRANCH  38  61
ENDBRANCH  12  13
ENDBRANCH   5   7
ENDBRANCH   2   3
ENDBRANCH   1   2
BRANCH   1  72
ATOM     72  C   UNL A   1      37.403  21.263  24.531  1.00  0.00     0.118 C 
BRANCH  72  73
ATOM     73  N   UNL A   1      36.817  22.020  25.627  1.00  0.00    -0.352 N 
ATOM     74  C   UNL A   1      35.550  22.518  25.780  1.00  0.00     0.253 C 
ATOM     75  H   UNL A   1      37.427  22.202  26.378  1.00  0.00     0.163 HD
ATOM     76  O   UNL A   1      35.340  23.333  26.677  1.00  0.00    -0.269 OA
BRANCH  74  77
ATOM     77  C   UNL A   1      34.429  22.081  24.917  1.00  0.00     0.065 A 
ATOM     78  C   UNL A   1      34.004  20.747  25.081  1.00  0.00     0.042 A 
ATOM     79  C   UNL A   1      33.877  22.893  23.907  1.00  0.00     0.054 A 
ATOM     80  C   UNL A   1      33.047  20.181  24.237  1.00  0.00     0.038 A 
ATOM     81  C   UNL A   1      32.953  22.309  23.044  1.00  0.00     0.029 A 
ATOM     82  C   UNL A   1      32.528  20.994  23.226  1.00  0.00     0.028 A 
BRANCH  79  83
ATOM     83  N   UNL A   1      34.281  24.239  23.762  1.00  0.00    -0.321 N 
ATOM     84  C   UNL A   1      33.599  25.429  23.904  1.00  0.00     0.255 C 
ATOM     85  H   UNL A   1      35.227  24.348  23.513  1.00  0.00     0.170 HD
ATOM     86  O   UNL A   1      34.183  26.494  23.712  1.00  0.00    -0.269 OA
BRANCH  84  87
ATOM     87  C   UNL A   1      32.185  25.466  24.325  1.00  0.00     0.040 A 
ATOM     88  C   UNL A   1      31.923  25.573  25.694  1.00  0.00     0.014 A 
ATOM     89  C   UNL A   1      31.137  25.479  23.396  1.00  0.00     0.014 A 
ATOM     90  C   UNL A   1      30.618  25.795  26.129  1.00  0.00     0.001 A 
ATOM     91  C   UNL A   1      29.833  25.714  23.838  1.00  0.00     0.001 A 
ATOM     92  C   UNL A   1      29.580  25.888  25.201  1.00  0.00     0.000 A 
ENDBRANCH  84  87
ENDBRANCH  79  83
BRANCH  80  93
ATOM     93  N   UNL A   1      32.662  18.862  24.321  1.00  0.00    -0.372 N 
ATOM     94  C   UNL A   1      32.526  18.144  25.584  1.00  0.00     0.116 C 
ATOM     95  C   UNL A   1      32.528  18.082  23.090  1.00  0.00     0.116 C 
ATOM     96  C   UNL A   1      33.475  16.945  25.624  1.00  0.00     0.021 C 
ATOM     97  C   UNL A   1      33.550  16.951  23.108  1.00  0.00     0.021 C 
ATOM     98  C   UNL A   1      33.375  16.093  24.358  1.00  0.00     0.004 C 
ENDBRANCH  80  93
ENDBRANCH  74  77
ENDBRANCH  72  73
ENDBRANCH   1  72
TORSDOF 13
ENDMDL
MODEL 2
REMARK VINA RESULT:     -13.2      5.717     11.428
REMARK SMILES O=C(NCCCNC(=O)c1cc(N2CCCCC2)ccc1NC(=O)c1ccccc1)c1ccc(-c2c3nc(c(-c4c(F)c(F)c(F)c(F)c4F)c4ccc([nH]4)c(-c4c(F)c(F)c(F)c(F)c4F)c4nc(c(-c5c(F)c(F)c(F)c(F)c5F)c5ccc2[nH]5)C=C4)C=C3)cc1
REMARK SMILES IDX 5 1 4 2 3 3 1 4 2 5 31 7 32 8 93 9 33 10 92 11 34 12 35 13
REMARK SMILES IDX 36 14 86 15 37 16 91 17 85 18 87 19 38 20 90 21 84 22 83 23
REMARK SMILES IDX 39 25 71 26 51 27 70 28 52 29 55 30 69 31 88 32 53 33 54 34
REMARK SMILES IDX 68 36 89 37 56 38 40 39 41 40 49 41 42 42 43 43 47 44 50 45
REMARK SMILES IDX 44 46 45 47 48 48 46 49 72 50 73 51 81 52 74 53 75 54 79 55
REMARK SMILES IDX 82 56 76 57 77 58 80 59 78 60 57 61 58 62 66 63 59 64 60 65
REMARK SMILES IDX 64 66 67 67 61 68 62 69 65 70 63 71 6 72 7 73 8 74 9 76
REMARK SMILES IDX 10 77 11 78 21 79 12 80 20 81 19 82 22 83 23 84 24 86 25 87
REMARK SMILES IDX 26 88 30 89 27 90 29 91 28 92 13 93 14 94 18 95 15 96 17 97
REMARK SMILES IDX 16 98
REMARK H PARENT 3 6 87 24 55 35 7 75 22 85
REMARK Flexibility Score: inf
ROOT
ATOM      1  C   UNL A   1      31.475  32.118  26.635  1.00  0.00     0.042 C 
ENDROOT
BRANCH   1   2
ATOM      2  C   UNL A   1      32.736  32.846  27.076  1.00  0.00     0.118 C 
BRANCH   2   3
ATOM      3  N   UNL A   1      32.473  34.169  27.626  1.00  0.00    -0.352 N 
ATOM      4  O   UNL A   1      32.594  35.871  29.105  1.00  0.00    -0.269 OA
ATOM      5  C   UNL A   1      33.050  34.806  28.697  1.00  0.00     0.251 C 
ATOM      6  H   UNL A   1      31.776  34.685  27.158  1.00  0.00     0.163 HD
BRANCH   5   7
ATOM      7  C   UNL A   1      34.211  34.199  29.375  1.00  0.00     0.039 A 
ATOM      8  C   UNL A   1      34.027  33.325  30.446  1.00  0.00     0.014 A 
ATOM      9  C   UNL A   1      35.500  34.495  28.923  1.00  0.00     0.014 A 
ATOM     10  C   UNL A   1      35.123  32.874  31.168  1.00  0.00     0.010 A 
ATOM     11  C   UNL A   1      36.606  33.945  29.578  1.00  0.00     0.010 A 
ATOM     12  C   UNL A   1      36.423  33.146  30.716  1.00  0.00    -0.014 A 
BRANCH  12  13
ATOM     13  C   UNL A   1      37.567  32.469  31.374  1.00  0.00     0.031 A 
ATOM     14  C   UNL A   1      38.269  31.312  30.728  1.00  0.00     0.074 A 
ATOM     15  C   UNL A   1      37.954  32.922  32.583  1.00  0.00     0.049 A 
ATOM     16  N   UNL A   1      39.256  30.589  31.194  1.00  0.00    -0.248 NA
ATOM     17  C   UNL A   1      37.807  30.905  29.392  1.00  0.00     0.031 C 
ATOM     18  C   UNL A   1      37.325  34.032  33.305  1.00  0.00     0.029 A 
ATOM     19  N   UNL A   1      38.961  32.515  33.418  1.00  0.00    -0.354 N 
ATOM     20  C   UNL A   1      39.515  29.627  30.227  1.00  0.00     0.074 A 
ATOM     21  C   UNL A   1      38.577  29.851  29.147  1.00  0.00     0.031 C 
ATOM     22  C   UNL A   1      37.974  34.234  34.458  1.00  0.00     0.029 A 
ATOM     23  C   UNL A   1      39.010  33.220  34.596  1.00  0.00     0.049 A 
ATOM     24  H   UNL A   1      39.587  31.788  33.196  1.00  0.00     0.167 HD
ATOM     25  C   UNL A   1      40.453  28.651  30.250  1.00  0.00     0.037 A 
ATOM     26  C   UNL A   1      39.772  33.041  35.690  1.00  0.00     0.037 A 
ATOM     27  C   UNL A   1      41.397  28.462  31.323  1.00  0.00     0.049 A 
ATOM     28  C   UNL A   1      40.775  31.926  35.694  1.00  0.00     0.074 A 
ATOM     29  C   UNL A   1      42.442  27.559  31.400  1.00  0.00     0.029 A 
ATOM     30  N   UNL A   1      41.399  29.178  32.512  1.00  0.00    -0.354 N 
ATOM     31  N   UNL A   1      41.059  31.070  34.743  1.00  0.00    -0.248 NA
ATOM     32  C   UNL A   1      41.555  31.741  36.923  1.00  0.00     0.031 C 
ATOM     33  C   UNL A   1      43.034  27.680  32.661  1.00  0.00     0.029 A 
ATOM     34  C   UNL A   1      42.396  28.700  33.348  1.00  0.00     0.049 A 
ATOM     35  H   UNL A   1      40.785  29.916  32.728  1.00  0.00     0.167 HD
ATOM     36  C   UNL A   1      42.055  30.251  35.254  1.00  0.00     0.074 A 
ATOM     37  C   UNL A   1      42.347  30.733  36.589  1.00  0.00     0.031 C 
ATOM     38  C   UNL A   1      42.666  29.190  34.675  1.00  0.00     0.037 A 
BRANCH  25  39
ATOM     39  C   UNL A   1      40.507  27.686  29.102  1.00  0.00     0.064 A 
ATOM     40  C   UNL A   1      39.692  26.547  29.051  1.00  0.00     0.173 A 
ATOM     41  C   UNL A   1      41.318  27.963  27.989  1.00  0.00     0.173 A 
ATOM     42  F   UNL A   1      38.903  26.234  30.090  1.00  0.00    -0.203 F 
ATOM     43  C   UNL A   1      39.691  25.716  27.932  1.00  0.00     0.198 A 
ATOM     44  C   UNL A   1      41.296  27.145  26.863  1.00  0.00     0.198 A 
ATOM     45  F   UNL A   1      42.111  29.044  27.984  1.00  0.00    -0.203 F 
ATOM     46  F   UNL A   1      38.919  24.621  27.913  1.00  0.00    -0.200 F 
ATOM     47  C   UNL A   1      40.484  26.023  26.835  1.00  0.00     0.200 A 
ATOM     48  F   UNL A   1      42.052  27.451  25.798  1.00  0.00    -0.200 F 
ATOM     49  F   UNL A   1      40.465  25.234  25.751  1.00  0.00    -0.200 F 
ENDBRANCH  25  39
BRANCH  26  50
ATOM     50  C   UNL A   1      39.572  33.905  36.882  1.00  0.00     0.064 A 
ATOM     51  C   UNL A   1      40.183  35.161  36.980  1.00  0.00     0.173 A 
ATOM     52  C   UNL A   1      38.768  33.486  37.954  1.00  0.00     0.173 A 
ATOM     53  F   UNL A   1      40.973  35.600  35.989  1.00  0.00    -0.203 F 
ATOM     54  C   UNL A   1      40.019  35.953  38.114  1.00  0.00     0.198 A 
ATOM     55  C   UNL A   1      38.575  34.294  39.071  1.00  0.00     0.198 A 
ATOM     56  F   UNL A   1      38.154  32.294  37.909  1.00  0.00    -0.203 F 
ATOM     57  F   UNL A   1      40.660  37.127  38.206  1.00  0.00    -0.200 F 
ATOM     58  C   UNL A   1      39.211  35.522  39.156  1.00  0.00     0.200 A 
ATOM     59  F   UNL A   1      37.777  33.881  40.065  1.00  0.00    -0.200 F 
ATOM     60  F   UNL A   1      39.052  36.286  40.245  1.00  0.00    -0.200 F 
ENDBRANCH  26  50
BRANCH  38  61
ATOM     61  C   UNL A   1      43.716  28.486  35.479  1.00  0.00     0.064 A 
ATOM     62  C   UNL A   1      45.071  28.835  35.374  1.00  0.00     0.173 A 
ATOM     63  C   UNL A   1      43.364  27.484  36.395  1.00  0.00     0.173 A 
ATOM     64  F   UNL A   1      45.462  29.772  34.497  1.00  0.00    -0.203 F 
ATOM     65  C   UNL A   1      46.036  28.192  36.144  1.00  0.00     0.198 A 
ATOM     66  C   UNL A   1      44.327  26.866  37.187  1.00  0.00     0.198 A 
ATOM     67  F   UNL A   1      42.080  27.117  36.535  1.00  0.00    -0.203 F 
ATOM     68  F   UNL A   1      47.330  28.511  35.996  1.00  0.00    -0.200 F 
ATOM     69  C   UNL A   1      45.662  27.217  37.057  1.00  0.00     0.200 A 
ATOM     70  F   UNL A   1      43.962  25.933  38.077  1.00  0.00    -0.200 F 
ATOM     71  F   UNL A   1      46.591  26.609  37.807  1.00  0.00    -0.200 F 
ENDBRANCH  38  61
ENDBRANCH  12  13
ENDBRANCH   5   7
ENDBRANCH   2   3
ENDBRANCH   1   2
BRANCH   1  72
ATOM     72  C   UNL A   1      31.520  30.620  26.876  1.00  0.00     0.118 C 
BRANCH  72  73
ATOM     73  N   UNL A   1      32.731  30.014  26.343  1.00  0.00    -0.352 N 
ATOM     74  C   UNL A   1      32.897  28.873  25.603  1.00  0.00     0.253 C 
ATOM     75  H   UNL A   1      33.562  30.502  26.545  1.00  0.00     0.163 HD
ATOM     76  O   UNL A   1      34.031  28.420  25.464  1.00  0.00    -0.269 OA
BRANCH  74  77
ATOM     77  C   UNL A   1      31.756  28.194  24.948  1.00  0.00     0.065 A 
ATOM     78  C   UNL A   1      30.968  28.991  24.092  1.00  0.00     0.042 A 
ATOM     79  C   UNL A   1      31.389  26.864  25.232  1.00  0.00     0.054 A 
ATOM     80  C   UNL A   1      29.793  28.500  23.521  1.00  0.00     0.038 A 
ATOM     81  C   UNL A   1      30.195  26.396  24.691  1.00  0.00     0.029 A 
ATOM     82  C   UNL A   1      29.433  27.187  23.833  1.00  0.00     0.028 A 
BRANCH  79  83
ATOM     83  N   UNL A   1      32.194  26.056  26.066  1.00  0.00    -0.321 N 
ATOM     84  C   UNL A   1      32.802  24.835  25.862  1.00  0.00     0.255 C 
ATOM     85  H   UNL A   1      32.351  26.435  26.960  1.00  0.00     0.170 HD
ATOM     86  O   UNL A   1      33.460  24.322  26.766  1.00  0.00    -0.269 OA
BRANCH  84  87
ATOM     87  C   UNL A   1      32.723  24.138  24.564  1.00  0.00     0.040 A 
ATOM     88  C   UNL A   1      33.593  24.557  23.553  1.00  0.00     0.014 A 
ATOM     89  C   UNL A   1      31.874  23.041  24.364  1.00  0.00     0.014 A 
ATOM     90  C   UNL A   1      33.687  23.818  22.376  1.00  0.00     0.001 A 
ATOM     91  C   UNL A   1      31.982  22.297  23.187  1.00  0.00     0.001 A 
ATOM     92  C   UNL A   1      32.900  22.677  22.204  1.00  0.00     0.000 A 
ENDBRANCH  84  87
ENDBRANCH  79  83
BRANCH  80  93
ATOM     93  N   UNL A   1      28.962  29.272  22.740  1.00  0.00    -0.372 N 
ATOM     94  C   UNL A   1      29.435  30.087  21.626  1.00  0.00     0.116 C 
ATOM     95  C   UNL A   1      27.558  29.416  23.126  1.00  0.00     0.116 C 
ATOM     96  C   UNL A   1      29.113  31.562  21.866  1.00  0.00     0.021 C 
ATOM     97  C   UNL A   1      27.283  30.879  23.454  1.00  0.00     0.021 C 
ATOM     98  C   UNL A   1      27.653  31.770  22.273  1.00  0.00     0.004 C 
ENDBRANCH  80  93
ENDBRANCH  74  77
ENDBRANCH  72  73
ENDBRANCH   1  72
TORSDOF 13
ENDMDL
MODEL 3
REMARK VINA RESULT:     -13.1      5.565     11.272
REMARK SMILES O=C(NCCCNC(=O)c1cc(N2CCCCC2)ccc1NC(=O)c1ccccc1)c1ccc(-c2c3nc(c(-c4c(F)c(F)c(F)c(F)c4F)c4ccc([nH]4)c(-c4c(F)c(F)c(F)c(F)c4F)c4nc(c(-c5c(F)c(F)c(F)c(F)c5F)c5ccc2[nH]5)C=C4)C=C3)cc1
REMARK SMILES IDX 5 1 4 2 3 3 1 4 2 5 31 7 32 8 93 9 33 10 92 11 34 12 35 13
REMARK SMILES IDX 36 14 86 15 37 16 91 17 85 18 87 19 38 20 90 21 84 22 83 23
REMARK SMILES IDX 39 25 71 26 51 27 70 28 52 29 55 30 69 31 88 32 53 33 54 34
REMARK SMILES IDX 68 36 89 37 56 38 40 39 41 40 49 41 42 42 43 43 47 44 50 45
REMARK SMILES IDX 44 46 45 47 48 48 46 49 72 50 73 51 81 52 74 53 75 54 79 55
REMARK SMILES IDX 82 56 76 57 77 58 80 59 78 60 57 61 58 62 66 63 59 64 60 65
REMARK SMILES IDX 64 66 67 67 61 68 62 69 65 70 63 71 6 72 7 73 8 74 9 76
REMARK SMILES IDX 10 77 11 78 21 79 12 80 20 81 19 82 22 83 23 84 24 86 25 87
REMARK SMILES IDX 26 88 30 89 27 90 29 91 28 92 13 93 14 94 18 95 15 96 17 97
REMARK SMILES IDX 16 98
REMARK H PARENT 3 6 87 24 55 35 7 75 22 85
REMARK Flexibility Score: inf
ROOT
ATOM      1  C   UNL A   1      31.496  31.647  26.725  1.00  0.00     0.042 C 
ENDROOT
BRANCH   1   2
ATOM      2  C   UNL A   1      32.739  32.511  26.875  1.00  0.00     0.118 C 
BRANCH   2   3
ATOM      3  N   UNL A   1      32.458  33.833  27.420  1.00  0.00    -0.352 N 
ATOM      4  O   UNL A   1      32.564  35.546  28.887  1.00  0.00    -0.269 OA
ATOM      5  C   UNL A   1      33.035  34.487  28.480  1.00  0.00     0.251 C 
ATOM      6  H   UNL A   1      31.747  34.334  26.957  1.00  0.00     0.163 HD
BRANCH   5   7
ATOM      7  C   UNL A   1      34.214  33.905  29.150  1.00  0.00     0.039 A 
ATOM      8  C   UNL A   1      34.060  32.905  30.110  1.00  0.00     0.014 A 
ATOM      9  C   UNL A   1      35.490  34.354  28.800  1.00  0.00     0.014 A 
ATOM     10  C   UNL A   1      35.160  32.468  30.836  1.00  0.00     0.010 A 
ATOM     11  C   UNL A   1      36.610  33.828  29.449  1.00  0.00     0.010 A 
ATOM     12  C   UNL A   1      36.450  32.894  30.484  1.00  0.00    -0.014 A 
BRANCH  12  13
ATOM     13  C   UNL A   1      37.618  32.244  31.125  1.00  0.00     0.031 A 
ATOM     14  C   UNL A   1      38.353  31.121  30.457  1.00  0.00     0.074 A 
ATOM     15  C   UNL A   1      37.999  32.691  32.338  1.00  0.00     0.049 A 
ATOM     16  N   UNL A   1      39.366  30.422  30.907  1.00  0.00    -0.248 NA
ATOM     17  C   UNL A   1      37.895  30.719  29.118  1.00  0.00     0.031 C 
ATOM     18  C   UNL A   1      37.339  33.769  33.082  1.00  0.00     0.029 A 
ATOM     19  N   UNL A   1      39.023  32.303  33.162  1.00  0.00    -0.354 N 
ATOM     20  C   UNL A   1      39.649  29.484  29.923  1.00  0.00     0.074 A 
ATOM     21  C   UNL A   1      38.697  29.694  28.852  1.00  0.00     0.031 C 
ATOM     22  C   UNL A   1      37.989  33.974  34.234  1.00  0.00     0.029 A 
ATOM     23  C   UNL A   1      39.057  32.992  34.350  1.00  0.00     0.049 A 
ATOM     24  H   UNL A   1      39.671  31.601  32.924  1.00  0.00     0.167 HD
ATOM     25  C   UNL A   1      40.618  28.538  29.925  1.00  0.00     0.037 A 
ATOM     26  C   UNL A   1      39.832  32.821  35.436  1.00  0.00     0.037 A 
ATOM     27  C   UNL A   1      41.573  28.363  30.989  1.00  0.00     0.049 A 
ATOM     28  C   UNL A   1      40.869  31.738  35.417  1.00  0.00     0.074 A 
ATOM     29  C   UNL A   1      42.647  27.492  31.047  1.00  0.00     0.029 A 
ATOM     30  N   UNL A   1      41.560  29.061  32.189  1.00  0.00    -0.354 N 
ATOM     31  N   UNL A   1      41.175  30.906  34.451  1.00  0.00    -0.248 NA
ATOM     32  C   UNL A   1      41.663  31.560  36.639  1.00  0.00     0.031 C 
ATOM     33  C   UNL A   1      43.243  27.614  32.305  1.00  0.00     0.029 A 
ATOM     34  C   UNL A   1      42.577  28.602  33.012  1.00  0.00     0.049 A 
ATOM     35  H   UNL A   1      40.924  29.775  32.421  1.00  0.00     0.167 HD
ATOM     36  C   UNL A   1      42.200  30.112  34.944  1.00  0.00     0.074 A 
ATOM     37  C   UNL A   1      42.484  30.583  36.285  1.00  0.00     0.031 C 
ATOM     38  C   UNL A   1      42.840  29.080  34.345  1.00  0.00     0.037 A 
BRANCH  25  39
ATOM     39  C   UNL A   1      40.695  27.593  28.762  1.00  0.00     0.064 A 
ATOM     40  C   UNL A   1      39.905  26.437  28.691  1.00  0.00     0.173 A 
ATOM     41  C   UNL A   1      41.502  27.905  27.656  1.00  0.00     0.173 A 
ATOM     42  F   UNL A   1      39.120  26.091  29.723  1.00  0.00    -0.203 F 
ATOM     43  C   UNL A   1      39.924  25.625  27.559  1.00  0.00     0.198 A 
ATOM     44  C   UNL A   1      41.500  27.105  26.517  1.00  0.00     0.198 A 
ATOM     45  F   UNL A   1      42.272  29.003  27.670  1.00  0.00    -0.203 F 
ATOM     46  F   UNL A   1      39.176  24.514  27.520  1.00  0.00    -0.200 F 
ATOM     47  C   UNL A   1      40.713  25.966  26.469  1.00  0.00     0.200 A 
ATOM     48  F   UNL A   1      42.252  27.444  25.459  1.00  0.00    -0.200 F 
ATOM     49  F   UNL A   1      40.713  25.194  25.373  1.00  0.00    -0.200 F 
ENDBRANCH  25  39
BRANCH  26  50
ATOM     50  C   UNL A   1      39.612  33.659  36.642  1.00  0.00     0.064 A 
ATOM     51  C   UNL A   1      38.757  33.244  37.671  1.00  0.00     0.173 A 
ATOM     52  C   UNL A   1      40.249  34.902  36.787  1.00  0.00     0.173 A 
ATOM     53  F   UNL A   1      38.112  32.072  37.572  1.00  0.00    -0.203 F 
ATOM     54  C   UNL A   1      38.528  34.048  38.784  1.00  0.00     0.198 A 
ATOM     55  C   UNL A   1      40.048  35.689  37.918  1.00  0.00     0.198 A 
ATOM     56  F   UNL A   1      41.083  35.345  35.835  1.00  0.00    -0.203 F 
ATOM     57  F   UNL A   1      37.662  33.651  39.728  1.00  0.00    -0.200 F 
ATOM     58  C   UNL A   1      39.178  35.267  38.911  1.00  0.00     0.200 A 
ATOM     59  F   UNL A   1      40.694  36.856  38.043  1.00  0.00    -0.200 F 
ATOM     60  F   UNL A   1      38.958  36.039  39.984  1.00  0.00    -0.200 F 
ENDBRANCH  26  50
BRANCH  38  61
ATOM     61  C   UNL A   1      43.918  28.398  35.132  1.00  0.00     0.064 A 
ATOM     62  C   UNL A   1      43.649  27.249  35.893  1.00  0.00     0.173 A 
ATOM     63  C   UNL A   1      45.238  28.868  35.094  1.00  0.00     0.173 A 
ATOM     64  F   UNL A   1      42.397  26.773  35.979  1.00  0.00    -0.203 F 
ATOM     65  C   UNL A   1      44.662  26.608  36.599  1.00  0.00     0.198 A 
ATOM     66  C   UNL A   1      46.254  28.205  35.775  1.00  0.00     0.198 A 
ATOM     67  F   UNL A   1      45.546  29.960  34.378  1.00  0.00    -0.203 F 
ATOM     68  F   UNL A   1      44.375  25.538  37.355  1.00  0.00    -0.200 F 
ATOM     69  C   UNL A   1      45.964  27.080  36.532  1.00  0.00     0.200 A 
ATOM     70  F   UNL A   1      47.514  28.655  35.698  1.00  0.00    -0.200 F 
ATOM     71  F   UNL A   1      46.940  26.453  37.202  1.00  0.00    -0.200 F 
ENDBRANCH  38  61
ENDBRANCH  12  13
ENDBRANCH   5   7
ENDBRANCH   2   3
ENDBRANCH   1   2
BRANCH   1  72
ATOM     72  C   UNL A   1      31.729  30.183  27.048  1.00  0.00     0.118 C 
BRANCH  72  73
ATOM     73  N   UNL A   1      32.867  29.635  26.324  1.00  0.00    -0.352 N 
ATOM     74  C   UNL A   1      32.939  28.575  25.460  1.00  0.00     0.253 C 
ATOM     75  H   UNL A   1      33.720  30.102  26.479  1.00  0.00     0.163 HD
ATOM     76  O   UNL A   1      34.046  28.140  25.150  1.00  0.00    -0.269 OA
BRANCH  74  77
ATOM     77  C   UNL A   1      31.726  27.962  24.873  1.00  0.00     0.065 A 
ATOM     78  C   UNL A   1      30.965  28.788  24.019  1.00  0.00     0.042 A 
ATOM     79  C   UNL A   1      31.273  26.674  25.217  1.00  0.00     0.054 A 
ATOM     80  C   UNL A   1      29.735  28.368  23.510  1.00  0.00     0.038 A 
ATOM     81  C   UNL A   1      30.027  26.279  24.738  1.00  0.00     0.029 A 
ATOM     82  C   UNL A   1      29.292  27.097  23.881  1.00  0.00     0.028 A 
BRANCH  79  83
ATOM     83  N   UNL A   1      32.049  25.834  26.048  1.00  0.00    -0.321 N 
ATOM     84  C   UNL A   1      32.669  24.625  25.819  1.00  0.00     0.255 C 
ATOM     85  H   UNL A   1      32.170  26.178  26.962  1.00  0.00     0.170 HD
ATOM     86  O   UNL A   1      33.294  24.077  26.726  1.00  0.00    -0.269 OA
BRANCH  84  87
ATOM     87  C   UNL A   1      32.643  23.980  24.492  1.00  0.00     0.040 A 
ATOM     88  C   UNL A   1      33.625  24.358  23.572  1.00  0.00     0.014 A 
ATOM     89  C   UNL A   1      31.728  22.966  24.180  1.00  0.00     0.014 A 
ATOM     90  C   UNL A   1      33.757  23.653  22.377  1.00  0.00     0.001 A 
ATOM     91  C   UNL A   1      31.873  22.255  22.987  1.00  0.00     0.001 A 
ATOM     92  C   UNL A   1      32.897  22.589  22.097  1.00  0.00     0.000 A 
ENDBRANCH  84  87
ENDBRANCH  79  83
BRANCH  80  93
ATOM     93  N   UNL A   1      28.933  29.175  22.734  1.00  0.00    -0.372 N 
ATOM     94  C   UNL A   1      29.439  29.997  21.640  1.00  0.00     0.116 C 
ATOM     95  C   UNL A   1      27.529  29.349  23.108  1.00  0.00     0.116 C 
ATOM     96  C   UNL A   1      29.152  31.475  21.902  1.00  0.00     0.021 C 
ATOM     97  C   UNL A   1      27.288  30.813  23.459  1.00  0.00     0.021 C 
ATOM     98  C   UNL A   1      27.694  31.715  22.297  1.00  0.00     0.004 C 
ENDBRANCH  80  93
ENDBRANCH  74  77
ENDBRANCH  72  73
ENDBRANCH   1  72
TORSDOF 13
ENDMDL
