MODEL 1
REMARK VINA RESULT:     -12.8      0.000      0.000
REMARK SMILES O=C(NCCCNC(=O)c1cccc2c(=O)oc(=O)[nH]c12)c1ccc(-c2c3nc(c(-c4c(F)c(F)c(F)c(F)c4F)c4ccc([nH]4)c(-c4c(F)c(F)c(F)c(F)c4F)c4nc(c(-c5c(F)c(F)c(F)c(F)c5F)c5ccc2[nH]5)C=C4)C=C3)cc1
REMARK SMILES IDX 4 1 3 2 1 3 2 4 22 6 23 7 84 8 24 9 83 10 25 11 26 12 27 13
REMARK SMILES IDX 77 14 28 15 82 16 76 17 78 18 29 19 81 20 75 21 74 22 30 24
REMARK SMILES IDX 62 25 42 26 61 27 43 28 46 29 60 30 79 31 44 32 45 33 59 35
REMARK SMILES IDX 80 36 47 37 31 38 32 39 40 40 33 41 34 42 38 43 41 44 35 45
REMARK SMILES IDX 36 46 39 47 37 48 63 49 64 50 72 51 65 52 66 53 70 54 73 55
REMARK SMILES IDX 67 56 68 57 71 58 69 59 48 60 49 61 57 62 50 63 51 64 55 65
REMARK SMILES IDX 58 66 52 67 53 68 56 69 54 70 5 71 6 72 7 73 8 74 9 76 10 77
REMARK SMILES IDX 11 78 21 79 12 80 14 81 20 82 13 83 15 84 18 85 16 87 17 88
REMARK SMILES IDX 19 89
REMARK H PARENT 3 5 78 23 46 34 7 75 20 86
REMARK Flexibility Score: inf
ROOT
ATOM      1  C   UNL A   1      38.979  20.226  26.027  1.00  0.00     0.118 C 
ENDROOT
BRANCH   1   2
ATOM      2  N   UNL A   1      40.069  19.262  26.004  1.00  0.00    -0.352 N 
ATOM      3  O   UNL A   1      42.167  18.493  25.798  1.00  0.00    -0.269 OA
ATOM      4  C   UNL A   1      41.428  19.446  26.028  1.00  0.00     0.251 C 
ATOM      5  H   UNL A   1      39.783  18.321  25.966  1.00  0.00     0.163 HD
BRANCH   4   6
ATOM      6  C   UNL A   1      42.015  20.773  26.320  1.00  0.00     0.039 A 
ATOM      7  C   UNL A   1      42.319  21.098  27.645  1.00  0.00     0.014 A 
ATOM      8  C   UNL A   1      42.205  21.723  25.314  1.00  0.00     0.014 A 
ATOM      9  C   UNL A   1      42.836  22.358  27.953  1.00  0.00     0.010 A 
ATOM     10  C   UNL A   1      42.823  22.935  25.605  1.00  0.00     0.010 A 
ATOM     11  C   UNL A   1      43.107  23.283  26.933  1.00  0.00    -0.014 A 
BRANCH  11  12
ATOM     12  C   UNL A   1      43.598  24.652  27.239  1.00  0.00     0.031 A 
ATOM     13  C   UNL A   1      42.646  25.673  27.808  1.00  0.00     0.074 A 
ATOM     14  C   UNL A   1      44.878  24.988  26.986  1.00  0.00     0.049 A 
ATOM     15  N   UNL A   1      42.851  26.936  28.079  1.00  0.00    -0.248 NA
ATOM     16  C   UNL A   1      41.269  25.222  28.082  1.00  0.00     0.031 C 
ATOM     17  C   UNL A   1      45.888  24.099  26.412  1.00  0.00     0.029 A 
ATOM     18  N   UNL A   1      45.548  26.171  27.179  1.00  0.00    -0.354 N 
ATOM     19  C   UNL A   1      41.633  27.428  28.534  1.00  0.00     0.074 A 
ATOM     20  C   UNL A   1      40.677  26.350  28.444  1.00  0.00     0.031 C 
ATOM     21  C   UNL A   1      47.056  24.756  26.329  1.00  0.00     0.029 A 
ATOM     22  C   UNL A   1      46.868  26.126  26.801  1.00  0.00     0.049 A 
ATOM     23  H   UNL A   1      45.123  26.976  27.553  1.00  0.00     0.167 HD
ATOM     24  C   UNL A   1      41.348  28.658  29.019  1.00  0.00     0.037 A 
ATOM     25  C   UNL A   1      47.816  27.084  26.825  1.00  0.00     0.037 A 
ATOM     26  C   UNL A   1      42.315  29.712  29.159  1.00  0.00     0.049 A 
ATOM     27  C   UNL A   1      47.465  28.450  27.353  1.00  0.00     0.074 A 
ATOM     28  C   UNL A   1      42.137  30.973  29.698  1.00  0.00     0.029 A 
ATOM     29  N   UNL A   1      43.641  29.625  28.763  1.00  0.00    -0.354 N 
ATOM     30  N   UNL A   1      46.326  28.883  27.835  1.00  0.00    -0.248 NA
ATOM     31  C   UNL A   1      48.532  29.461  27.345  1.00  0.00     0.031 C 
ATOM     32  C   UNL A   1      43.341  31.670  29.580  1.00  0.00     0.029 A 
ATOM     33  C   UNL A   1      44.285  30.823  29.023  1.00  0.00     0.049 A 
ATOM     34  H   UNL A   1      44.061  28.832  28.359  1.00  0.00     0.167 HD
ATOM     35  C   UNL A   1      46.544  30.203  28.208  1.00  0.00     0.074 A 
ATOM     36  C   UNL A   1      47.930  30.496  27.915  1.00  0.00     0.031 C 
ATOM     37  C   UNL A   1      45.671  31.094  28.739  1.00  0.00     0.037 A 
BRANCH  24  38
ATOM     38  C   UNL A   1      39.943  28.937  29.465  1.00  0.00     0.064 A 
ATOM     39  C   UNL A   1      38.965  29.390  28.568  1.00  0.00     0.173 A 
ATOM     40  C   UNL A   1      39.546  28.653  30.781  1.00  0.00     0.173 A 
ATOM     41  F   UNL A   1      39.295  29.689  27.302  1.00  0.00    -0.203 F 
ATOM     42  C   UNL A   1      37.643  29.554  28.973  1.00  0.00     0.198 A 
ATOM     43  C   UNL A   1      38.218  28.789  31.174  1.00  0.00     0.198 A 
ATOM     44  F   UNL A   1      40.443  28.213  31.678  1.00  0.00    -0.203 F 
ATOM     45  F   UNL A   1      36.730  30.015  28.106  1.00  0.00    -0.200 F 
ATOM     46  C   UNL A   1      37.268  29.241  30.270  1.00  0.00     0.200 A 
ATOM     47  F   UNL A   1      37.854  28.468  32.423  1.00  0.00    -0.200 F 
ATOM     48  F   UNL A   1      35.990  29.372  30.650  1.00  0.00    -0.200 F 
ENDBRANCH  24  38
BRANCH  25  49
ATOM     49  C   UNL A   1      49.193  26.777  26.351  1.00  0.00     0.064 A 
ATOM     50  C   UNL A   1      49.561  26.994  25.016  1.00  0.00     0.173 A 
ATOM     51  C   UNL A   1      50.168  26.263  27.219  1.00  0.00     0.173 A 
ATOM     52  F   UNL A   1      48.660  27.465  24.141  1.00  0.00    -0.203 F 
ATOM     53  C   UNL A   1      50.845  26.693  24.563  1.00  0.00     0.198 A 
ATOM     54  C   UNL A   1      51.460  25.993  26.772  1.00  0.00     0.198 A 
ATOM     55  F   UNL A   1      49.871  26.039  28.506  1.00  0.00    -0.203 F 
ATOM     56  F   UNL A   1      51.156  26.868  23.272  1.00  0.00    -0.200 F 
ATOM     57  C   UNL A   1      51.796  26.201  25.443  1.00  0.00     0.200 A 
ATOM     58  F   UNL A   1      52.382  25.534  27.631  1.00  0.00    -0.200 F 
ATOM     59  F   UNL A   1      53.032  25.921  25.011  1.00  0.00    -0.200 F 
ENDBRANCH  25  49
BRANCH  37  60
ATOM     60  C   UNL A   1      46.180  32.467  29.064  1.00  0.00     0.064 A 
ATOM     61  C   UNL A   1      46.083  33.520  28.144  1.00  0.00     0.173 A 
ATOM     62  C   UNL A   1      46.673  32.757  30.346  1.00  0.00     0.173 A 
ATOM     63  F   UNL A   1      45.627  33.291  26.902  1.00  0.00    -0.203 F 
ATOM     64  C   UNL A   1      46.468  34.812  28.492  1.00  0.00     0.198 A 
ATOM     65  C   UNL A   1      47.026  34.056  30.701  1.00  0.00     0.198 A 
ATOM     66  F   UNL A   1      46.774  31.787  31.268  1.00  0.00    -0.203 F 
ATOM     67  F   UNL A   1      46.394  35.796  27.586  1.00  0.00    -0.200 F 
ATOM     68  C   UNL A   1      46.926  35.081  29.773  1.00  0.00     0.200 A 
ATOM     69  F   UNL A   1      47.447  34.318  31.946  1.00  0.00    -0.200 F 
ATOM     70  F   UNL A   1      47.272  36.330  30.113  1.00  0.00    -0.200 F 
ENDBRANCH  37  60
ENDBRANCH  11  12
ENDBRANCH   4   6
ENDBRANCH   1   2
BRANCH   1  71
ATOM     71  C   UNL A   1      37.964  19.992  24.916  1.00  0.00     0.042 C 
BRANCH  71  72
ATOM     72  C   UNL A   1      36.888  21.066  24.823  1.00  0.00     0.118 C 
BRANCH  72  73
ATOM     73  N   UNL A   1      36.036  21.086  26.002  1.00  0.00    -0.352 N 
ATOM     74  C   UNL A   1      34.670  21.136  26.098  1.00  0.00     0.253 C 
ATOM     75  H   UNL A   1      36.514  21.062  26.863  1.00  0.00     0.163 HD
ATOM     76  O   UNL A   1      34.145  21.459  27.159  1.00  0.00    -0.269 OA
BRANCH  74  77
ATOM     77  C   UNL A   1      33.817  20.843  24.925  1.00  0.00     0.064 A 
ATOM     78  C   UNL A   1      33.177  21.890  24.248  1.00  0.00     0.016 A 
ATOM     79  C   UNL A   1      33.688  19.528  24.456  1.00  0.00     0.071 A 
ATOM     80  C   UNL A   1      32.338  21.617  23.168  1.00  0.00     0.002 A 
ATOM     81  C   UNL A   1      32.870  19.265  23.374  1.00  0.00     0.085 A 
ATOM     82  N   UNL A   1      34.356  18.457  25.034  1.00  0.00    -0.289 N 
ATOM     83  C   UNL A   1      32.177  20.302  22.735  1.00  0.00     0.018 A 
ATOM     84  C   UNL A   1      32.750  17.877  22.905  1.00  0.00     0.349 A 
ATOM     85  C   UNL A   1      34.231  17.168  24.614  1.00  0.00     0.419 A 
ATOM     86  H   UNL A   1      34.956  18.641  25.793  1.00  0.00     0.173 HD
ATOM     87  O   UNL A   1      32.044  17.630  21.933  1.00  0.00    -0.246 OA
ATOM     88  O   UNL A   1      33.418  16.905  23.561  1.00  0.00    -0.372 OA
ATOM     89  O   UNL A   1      34.842  16.268  25.187  1.00  0.00    -0.224 OA
ENDBRANCH  74  77
ENDBRANCH  72  73
ENDBRANCH  71  72
ENDBRANCH   1  71
TORSDOF 10
ENDMDL
MODEL 2
REMARK VINA RESULT:     -12.8      0.132      1.644
REMARK SMILES O=C(NCCCNC(=O)c1cccc2c(=O)oc(=O)[nH]c12)c1ccc(-c2c3nc(c(-c4c(F)c(F)c(F)c(F)c4F)c4ccc([nH]4)c(-c4c(F)c(F)c(F)c(F)c4F)c4nc(c(-c5c(F)c(F)c(F)c(F)c5F)c5ccc2[nH]5)C=C4)C=C3)cc1
REMARK SMILES IDX 4 1 3 2 1 3 2 4 22 6 23 7 84 8 24 9 83 10 25 11 26 12 27 13
REMARK SMILES IDX 77 14 28 15 82 16 76 17 78 18 29 19 81 20 75 21 74 22 30 24
REMARK SMILES IDX 62 25 42 26 61 27 43 28 46 29 60 30 79 31 44 32 45 33 59 35
REMARK SMILES IDX 80 36 47 37 31 38 32 39 40 40 33 41 34 42 38 43 41 44 35 45
REMARK SMILES IDX 36 46 39 47 37 48 63 49 64 50 72 51 65 52 66 53 70 54 73 55
REMARK SMILES IDX 67 56 68 57 71 58 69 59 48 60 49 61 57 62 50 63 51 64 55 65
REMARK SMILES IDX 58 66 52 67 53 68 56 69 54 70 5 71 6 72 7 73 8 74 9 76 10 77
REMARK SMILES IDX 11 78 21 79 12 80 14 81 20 82 13 83 15 84 18 85 16 87 17 88
REMARK SMILES IDX 19 89
REMARK H PARENT 3 5 78 23 46 34 7 75 20 86
REMARK Flexibility Score: inf
ROOT
ATOM      1  C   UNL A   1      38.980  20.239  26.015  1.00  0.00     0.118 C 
ENDROOT
BRANCH   1   2
ATOM      2  N   UNL A   1      40.073  19.279  25.985  1.00  0.00    -0.352 N 
ATOM      3  O   UNL A   1      42.174  18.519  25.774  1.00  0.00    -0.269 OA
ATOM      4  C   UNL A   1      41.432  19.468  26.012  1.00  0.00     0.251 C 
ATOM      5  H   UNL A   1      39.791  18.337  25.939  1.00  0.00     0.163 HD
BRANCH   4   6
ATOM      6  C   UNL A   1      42.013  20.794  26.315  1.00  0.00     0.039 A 
ATOM      7  C   UNL A   1      42.315  21.109  27.643  1.00  0.00     0.014 A 
ATOM      8  C   UNL A   1      42.202  21.753  25.318  1.00  0.00     0.014 A 
ATOM      9  C   UNL A   1      42.827  22.369  27.962  1.00  0.00     0.010 A 
ATOM     10  C   UNL A   1      42.815  22.965  25.619  1.00  0.00     0.010 A 
ATOM     11  C   UNL A   1      43.096  23.303  26.950  1.00  0.00    -0.014 A 
BRANCH  11  12
ATOM     12  C   UNL A   1      43.583  24.671  27.268  1.00  0.00     0.031 A 
ATOM     13  C   UNL A   1      42.621  25.689  27.826  1.00  0.00     0.074 A 
ATOM     14  C   UNL A   1      44.865  25.007  27.036  1.00  0.00     0.049 A 
ATOM     15  N   UNL A   1      42.822  26.952  28.104  1.00  0.00    -0.248 NA
ATOM     16  C   UNL A   1      41.241  25.238  28.078  1.00  0.00     0.031 C 
ATOM     17  C   UNL A   1      45.884  24.121  26.474  1.00  0.00     0.029 A 
ATOM     18  N   UNL A   1      45.533  26.190  27.243  1.00  0.00    -0.354 N 
ATOM     19  C   UNL A   1      41.597  27.441  28.543  1.00  0.00     0.074 A 
ATOM     20  C   UNL A   1      40.642  26.364  28.435  1.00  0.00     0.031 C 
ATOM     21  C   UNL A   1      47.054  24.778  26.411  1.00  0.00     0.029 A 
ATOM     22  C   UNL A   1      46.858  26.147  26.884  1.00  0.00     0.049 A 
ATOM     23  H   UNL A   1      45.101  26.994  27.614  1.00  0.00     0.167 HD
ATOM     24  C   UNL A   1      41.304  28.670  29.027  1.00  0.00     0.037 A 
ATOM     25  C   UNL A   1      47.806  27.105  26.926  1.00  0.00     0.037 A 
ATOM     26  C   UNL A   1      42.269  29.724  29.185  1.00  0.00     0.049 A 
ATOM     27  C   UNL A   1      47.446  28.469  27.454  1.00  0.00     0.074 A 
ATOM     28  C   UNL A   1      42.083  30.983  29.727  1.00  0.00     0.029 A 
ATOM     29  N   UNL A   1      43.601  29.639  28.810  1.00  0.00    -0.354 N 
ATOM     30  N   UNL A   1      46.299  28.900  27.920  1.00  0.00    -0.248 NA
ATOM     31  C   UNL A   1      48.513  29.480  27.465  1.00  0.00     0.031 C 
ATOM     32  C   UNL A   1      43.288  31.680  29.629  1.00  0.00     0.029 A 
ATOM     33  C   UNL A   1      44.241  30.836  29.083  1.00  0.00     0.049 A 
ATOM     34  H   UNL A   1      44.027  28.847  28.409  1.00  0.00     0.167 HD
ATOM     35  C   UNL A   1      46.512  30.219  28.301  1.00  0.00     0.074 A 
ATOM     36  C   UNL A   1      47.902  30.513  28.030  1.00  0.00     0.031 C 
ATOM     37  C   UNL A   1      45.631  31.108  28.821  1.00  0.00     0.037 A 
BRANCH  24  38
ATOM     38  C   UNL A   1      39.893  28.947  29.453  1.00  0.00     0.064 A 
ATOM     39  C   UNL A   1      38.928  29.404  28.543  1.00  0.00     0.173 A 
ATOM     40  C   UNL A   1      39.476  28.658  30.762  1.00  0.00     0.173 A 
ATOM     41  F   UNL A   1      39.277  29.706  27.284  1.00  0.00    -0.203 F 
ATOM     42  C   UNL A   1      37.600  29.566  28.929  1.00  0.00     0.198 A 
ATOM     43  C   UNL A   1      38.143  28.793  31.135  1.00  0.00     0.198 A 
ATOM     44  F   UNL A   1      40.359  28.216  31.671  1.00  0.00    -0.203 F 
ATOM     45  F   UNL A   1      36.701  30.029  28.050  1.00  0.00    -0.200 F 
ATOM     46  C   UNL A   1      37.206  29.248  30.219  1.00  0.00     0.200 A 
ATOM     47  F   UNL A   1      37.760  28.468  32.378  1.00  0.00    -0.200 F 
ATOM     48  F   UNL A   1      35.922  29.377  30.580  1.00  0.00    -0.200 F 
ENDBRANCH  24  38
BRANCH  25  49
ATOM     49  C   UNL A   1      49.189  26.800  26.472  1.00  0.00     0.064 A 
ATOM     50  C   UNL A   1      50.155  26.324  27.370  1.00  0.00     0.173 A 
ATOM     51  C   UNL A   1      49.576  26.976  25.135  1.00  0.00     0.173 A 
ATOM     52  F   UNL A   1      49.842  26.158  28.663  1.00  0.00    -0.203 F 
ATOM     53  C   UNL A   1      51.457  26.052  26.953  1.00  0.00     0.198 A 
ATOM     54  C   UNL A   1      50.869  26.673  24.713  1.00  0.00     0.198 A 
ATOM     55  F   UNL A   1      48.693  27.426  24.233  1.00  0.00    -0.203 F 
ATOM     56  F   UNL A   1      52.371  25.641  27.842  1.00  0.00    -0.200 F 
ATOM     57  C   UNL A   1      51.811  26.220  25.623  1.00  0.00     0.200 A 
ATOM     58  F   UNL A   1      51.202  26.820  23.422  1.00  0.00    -0.200 F 
ATOM     59  F   UNL A   1      53.060  25.949  25.220  1.00  0.00    -0.200 F 
ENDBRANCH  25  49
BRANCH  37  60
ATOM     60  C   UNL A   1      46.134  32.480  29.159  1.00  0.00     0.064 A 
ATOM     61  C   UNL A   1      46.716  32.760  30.403  1.00  0.00     0.173 A 
ATOM     62  C   UNL A   1      46.128  33.497  28.190  1.00  0.00     0.173 A 
ATOM     63  F   UNL A   1      46.736  31.825  31.365  1.00  0.00    -0.203 F 
ATOM     64  C   UNL A   1      47.267  34.011  30.669  1.00  0.00     0.198 A 
ATOM     65  C   UNL A   1      46.710  34.734  28.449  1.00  0.00     0.198 A 
ATOM     66  F   UNL A   1      45.595  33.275  26.980  1.00  0.00    -0.203 F 
ATOM     67  F   UNL A   1      47.792  34.265  31.876  1.00  0.00    -0.200 F 
ATOM     68  C   UNL A   1      47.276  34.991  29.688  1.00  0.00     0.200 A 
ATOM     69  F   UNL A   1      46.737  35.673  27.492  1.00  0.00    -0.200 F 
ATOM     70  F   UNL A   1      47.831  36.185  29.938  1.00  0.00    -0.200 F 
ENDBRANCH  37  60
ENDBRANCH  11  12
ENDBRANCH   4   6
ENDBRANCH   1   2
BRANCH   1  71
ATOM     71  C   UNL A   1      37.964  20.007  24.905  1.00  0.00     0.042 C 
BRANCH  71  72
ATOM     72  C   UNL A   1      36.882  21.076  24.821  1.00  0.00     0.118 C 
BRANCH  72  73
ATOM     73  N   UNL A   1      36.033  21.085  26.003  1.00  0.00    -0.352 N 
ATOM     74  C   UNL A   1      34.666  21.127  26.102  1.00  0.00     0.253 C 
ATOM     75  H   UNL A   1      36.512  21.057  26.863  1.00  0.00     0.163 HD
ATOM     76  O   UNL A   1      34.142  21.441  27.166  1.00  0.00    -0.269 OA
BRANCH  74  77
ATOM     77  C   UNL A   1      33.812  20.839  24.929  1.00  0.00     0.064 A 
ATOM     78  C   UNL A   1      33.176  21.889  24.252  1.00  0.00     0.016 A 
ATOM     79  C   UNL A   1      33.678  19.524  24.459  1.00  0.00     0.071 A 
ATOM     80  C   UNL A   1      32.336  21.619  23.172  1.00  0.00     0.002 A 
ATOM     81  C   UNL A   1      32.858  19.265  23.377  1.00  0.00     0.085 A 
ATOM     82  N   UNL A   1      34.341  18.450  25.037  1.00  0.00    -0.289 N 
ATOM     83  C   UNL A   1      32.170  20.305  22.738  1.00  0.00     0.018 A 
ATOM     84  C   UNL A   1      32.733  17.878  22.907  1.00  0.00     0.349 A 
ATOM     85  C   UNL A   1      34.211  17.162  24.616  1.00  0.00     0.419 A 
ATOM     86  H   UNL A   1      34.942  18.632  25.796  1.00  0.00     0.173 HD
ATOM     87  O   UNL A   1      32.026  17.634  21.936  1.00  0.00    -0.246 OA
ATOM     88  O   UNL A   1      33.397  16.902  23.563  1.00  0.00    -0.372 OA
ATOM     89  O   UNL A   1      34.818  16.260  25.189  1.00  0.00    -0.224 OA
ENDBRANCH  74  77
ENDBRANCH  72  73
ENDBRANCH  71  72
ENDBRANCH   1  71
TORSDOF 10
ENDMDL
MODEL 3
REMARK VINA RESULT:     -12.7      6.846     11.856
REMARK SMILES O=C(NCCCNC(=O)c1cccc2c(=O)oc(=O)[nH]c12)c1ccc(-c2c3nc(c(-c4c(F)c(F)c(F)c(F)c4F)c4ccc([nH]4)c(-c4c(F)c(F)c(F)c(F)c4F)c4nc(c(-c5c(F)c(F)c(F)c(F)c5F)c5ccc2[nH]5)C=C4)C=C3)cc1
REMARK SMILES IDX 4 1 3 2 1 3 2 4 22 6 23 7 84 8 24 9 83 10 25 11 26 12 27 13
REMARK SMILES IDX 77 14 28 15 82 16 76 17 78 18 29 19 81 20 75 21 74 22 30 24
REMARK SMILES IDX 62 25 42 26 61 27 43 28 46 29 60 30 79 31 44 32 45 33 59 35
REMARK SMILES IDX 80 36 47 37 31 38 32 39 40 40 33 41 34 42 38 43 41 44 35 45
REMARK SMILES IDX 36 46 39 47 37 48 63 49 64 50 72 51 65 52 66 53 70 54 73 55
REMARK SMILES IDX 67 56 68 57 71 58 69 59 48 60 49 61 57 62 50 63 51 64 55 65
REMARK SMILES IDX 58 66 52 67 53 68 56 69 54 70 5 71 6 72 7 73 8 74 9 76 10 77
REMARK SMILES IDX 11 78 21 79 12 80 14 81 20 82 13 83 15 84 18 85 16 87 17 88
REMARK SMILES IDX 19 89
REMARK H PARENT 3 5 78 23 46 34 7 75 20 86
REMARK Flexibility Score: inf
ROOT
ATOM      1  C   UNL A   1      32.764  32.478  26.881  1.00  0.00     0.118 C 
ENDROOT
BRANCH   1   2
ATOM      2  N   UNL A   1      32.516  33.834  27.350  1.00  0.00    -0.352 N 
ATOM      3  O   UNL A   1      32.529  35.590  28.747  1.00  0.00    -0.269 OA
ATOM      4  C   UNL A   1      33.033  34.518  28.421  1.00  0.00     0.251 C 
ATOM      5  H   UNL A   1      31.873  34.344  26.809  1.00  0.00     0.163 HD
BRANCH   4   6
ATOM      6  C   UNL A   1      34.177  33.984  29.191  1.00  0.00     0.039 A 
ATOM      7  C   UNL A   1      35.472  34.350  28.814  1.00  0.00     0.014 A 
ATOM      8  C   UNL A   1      33.993  33.074  30.235  1.00  0.00     0.014 A 
ATOM      9  C   UNL A   1      36.572  33.828  29.497  1.00  0.00     0.010 A 
ATOM     10  C   UNL A   1      35.081  32.642  30.986  1.00  0.00     0.010 A 
ATOM     11  C   UNL A   1      36.386  32.981  30.601  1.00  0.00    -0.014 A 
BRANCH  11  12
ATOM     12  C   UNL A   1      37.539  32.362  31.306  1.00  0.00     0.031 A 
ATOM     13  C   UNL A   1      38.301  31.243  30.644  1.00  0.00     0.074 A 
ATOM     14  C   UNL A   1      37.885  32.780  32.538  1.00  0.00     0.049 A 
ATOM     15  N   UNL A   1      39.288  30.523  31.112  1.00  0.00    -0.248 NA
ATOM     16  C   UNL A   1      37.879  30.860  29.284  1.00  0.00     0.031 C 
ATOM     17  C   UNL A   1      37.210  33.834  33.295  1.00  0.00     0.029 A 
ATOM     18  N   UNL A   1      38.893  32.366  33.374  1.00  0.00    -0.354 N 
ATOM     19  C   UNL A   1      39.587  29.600  30.117  1.00  0.00     0.074 A 
ATOM     20  C   UNL A   1      38.641  29.803  29.046  1.00  0.00     0.031 C 
ATOM     21  C   UNL A   1      37.840  34.007  34.468  1.00  0.00     0.029 A 
ATOM     22  C   UNL A   1      38.936  33.045  34.568  1.00  0.00     0.049 A 
ATOM     23  H   UNL A   1      39.526  31.649  33.140  1.00  0.00     0.167 HD
ATOM     24  C   UNL A   1      40.587  28.689  30.085  1.00  0.00     0.037 A 
ATOM     25  C   UNL A   1      39.761  32.904  35.624  1.00  0.00     0.037 A 
ATOM     26  C   UNL A   1      41.562  28.526  31.128  1.00  0.00     0.049 A 
ATOM     27  C   UNL A   1      40.853  31.868  35.567  1.00  0.00     0.074 A 
ATOM     28  C   UNL A   1      42.651  27.674  31.159  1.00  0.00     0.029 A 
ATOM     29  N   UNL A   1      41.569  29.234  32.320  1.00  0.00    -0.354 N 
ATOM     30  N   UNL A   1      41.162  31.043  34.596  1.00  0.00    -0.248 NA
ATOM     31  C   UNL A   1      41.716  31.746  36.751  1.00  0.00     0.031 C 
ATOM     32  C   UNL A   1      43.286  27.826  32.393  1.00  0.00     0.029 A 
ATOM     33  C   UNL A   1      42.630  28.816  33.106  1.00  0.00     0.049 A 
ATOM     34  H   UNL A   1      40.918  29.929  32.571  1.00  0.00     0.167 HD
ATOM     35  C   UNL A   1      42.264  30.324  35.040  1.00  0.00     0.074 A 
ATOM     36  C   UNL A   1      42.584  30.823  36.361  1.00  0.00     0.031 C 
ATOM     37  C   UNL A   1      42.944  29.334  34.412  1.00  0.00     0.037 A 
BRANCH  24  38
ATOM     38  C   UNL A   1      40.707  27.810  28.875  1.00  0.00     0.064 A 
ATOM     39  C   UNL A   1      39.961  26.629  28.750  1.00  0.00     0.173 A 
ATOM     40  C   UNL A   1      41.501  28.203  27.786  1.00  0.00     0.173 A 
ATOM     41  F   UNL A   1      39.197  26.201  29.766  1.00  0.00    -0.203 F 
ATOM     42  C   UNL A   1      40.010  25.871  27.582  1.00  0.00     0.198 A 
ATOM     43  C   UNL A   1      41.524  27.461  26.611  1.00  0.00     0.198 A 
ATOM     44  F   UNL A   1      42.232  29.327  27.854  1.00  0.00    -0.203 F 
ATOM     45  F   UNL A   1      39.309  24.732  27.495  1.00  0.00    -0.200 F 
ATOM     46  C   UNL A   1      40.779  26.295  26.509  1.00  0.00     0.200 A 
ATOM     47  F   UNL A   1      42.254  27.881  25.568  1.00  0.00    -0.200 F 
ATOM     48  F   UNL A   1      40.802  25.580  25.377  1.00  0.00    -0.200 F 
ENDBRANCH  24  38
BRANCH  25  49
ATOM     49  C   UNL A   1      39.596  33.777  36.817  1.00  0.00     0.064 A 
ATOM     50  C   UNL A   1      38.802  33.376  37.901  1.00  0.00     0.173 A 
ATOM     51  C   UNL A   1      40.226  35.028  36.901  1.00  0.00     0.173 A 
ATOM     52  F   UNL A   1      38.161  32.199  37.862  1.00  0.00    -0.203 F 
ATOM     53  C   UNL A   1      38.631  34.198  39.014  1.00  0.00     0.198 A 
ATOM     54  C   UNL A   1      40.080  35.835  38.028  1.00  0.00     0.198 A 
ATOM     55  F   UNL A   1      40.998  35.460  35.894  1.00  0.00    -0.203 F 
ATOM     56  F   UNL A   1      37.831  33.808  40.015  1.00  0.00    -0.200 F 
ATOM     57  C   UNL A   1      39.276  35.423  39.080  1.00  0.00     0.200 A 
ATOM     58  F   UNL A   1      40.721  37.010  38.095  1.00  0.00    -0.200 F 
ATOM     59  F   UNL A   1      39.121  36.208  40.154  1.00  0.00    -0.200 F 
ENDBRANCH  25  49
BRANCH  37  60
ATOM     60  C   UNL A   1      44.119  28.729  35.122  1.00  0.00     0.064 A 
ATOM     61  C   UNL A   1      43.975  27.607  35.951  1.00  0.00     0.173 A 
ATOM     62  C   UNL A   1      45.416  29.212  34.889  1.00  0.00     0.173 A 
ATOM     63  F   UNL A   1      42.755  27.114  36.213  1.00  0.00    -0.203 F 
ATOM     64  C   UNL A   1      45.085  26.996  36.527  1.00  0.00     0.198 A 
ATOM     65  C   UNL A   1      46.526  28.579  35.439  1.00  0.00     0.198 A 
ATOM     66  F   UNL A   1      45.610  30.275  34.094  1.00  0.00    -0.203 F 
ATOM     67  F   UNL A   1      44.921  25.943  37.339  1.00  0.00    -0.200 F 
ATOM     68  C   UNL A   1      46.360  27.474  36.260  1.00  0.00     0.200 A 
ATOM     69  F   UNL A   1      47.759  29.028  35.162  1.00  0.00    -0.200 F 
ATOM     70  F   UNL A   1      47.429  26.867  36.793  1.00  0.00    -0.200 F 
ENDBRANCH  37  60
ENDBRANCH  11  12
ENDBRANCH   4   6
ENDBRANCH   1   2
BRANCH   1  71
ATOM     71  C   UNL A   1      31.479  31.711  26.601  1.00  0.00     0.042 C 
BRANCH  71  72
ATOM     72  C   UNL A   1      31.696  30.241  26.265  1.00  0.00     0.118 C 
BRANCH  72  73
ATOM     73  N   UNL A   1      32.394  30.070  24.999  1.00  0.00    -0.352 N 
ATOM     74  C   UNL A   1      32.153  29.191  23.975  1.00  0.00     0.253 C 
ATOM     75  H   UNL A   1      33.155  30.677  24.856  1.00  0.00     0.163 HD
ATOM     76  O   UNL A   1      33.023  28.981  23.135  1.00  0.00    -0.269 OA
BRANCH  74  77
ATOM     77  C   UNL A   1      30.870  28.459  23.890  1.00  0.00     0.064 A 
ATOM     78  C   UNL A   1      30.826  27.089  24.184  1.00  0.00     0.016 A 
ATOM     79  C   UNL A   1      29.687  29.141  23.569  1.00  0.00     0.071 A 
ATOM     80  C   UNL A   1      29.628  26.385  24.065  1.00  0.00     0.002 A 
ATOM     81  C   UNL A   1      28.500  28.442  23.470  1.00  0.00     0.085 A 
ATOM     82  N   UNL A   1      29.650  30.510  23.342  1.00  0.00    -0.289 N 
ATOM     83  C   UNL A   1      28.465  27.060  23.700  1.00  0.00     0.018 A 
ATOM     84  C   UNL A   1      27.276  29.180  23.129  1.00  0.00     0.349 A 
ATOM     85  C   UNL A   1      28.521  31.194  23.006  1.00  0.00     0.419 A 
ATOM     86  H   UNL A   1      30.489  31.017  23.431  1.00  0.00     0.173 HD
ATOM     87  O   UNL A   1      26.210  28.578  23.057  1.00  0.00    -0.246 OA
ATOM     88  O   UNL A   1      27.356  30.508  22.895  1.00  0.00    -0.372 OA
ATOM     89  O   UNL A   1      28.568  32.405  22.804  1.00  0.00    -0.224 OA
ENDBRANCH  74  77
ENDBRANCH  72  73
ENDBRANCH  71  72
ENDBRANCH   1  71
TORSDOF 10
ENDMDL
