MODEL 1
REMARK VINA RESULT:     -13.0      0.000      0.000
REMARK SMILES O=C(NCCCNC(=O)c1cc(-c2cc(Cl)ccc2Cl)cc([N+](=O)[O-])c1)c1ccc(-c2c3nc(c(-c4c(F)c(F)c(F)c(F)c4F)c4ccc([nH]4)c(-c4c(F)c(F)c(F)c(F)c4F)c4nc(c(-c5c(F)c(F)c(F)c(F)c5F)c5ccc2[nH]5)C=C4)C=C3)cc1
REMARK SMILES IDX 4 1 3 2 1 3 2 4 27 6 28 7 89 8 29 9 88 10 30 11 31 12 32 13
REMARK SMILES IDX 82 14 33 15 87 16 81 17 83 18 34 19 86 20 80 21 79 22 35 24
REMARK SMILES IDX 67 25 47 26 66 27 48 28 51 29 65 30 84 31 49 32 50 33 64 35
REMARK SMILES IDX 85 36 52 37 36 38 37 39 45 40 38 41 39 42 43 43 46 44 40 45
REMARK SMILES IDX 41 46 44 47 42 48 68 49 69 50 77 51 70 52 71 53 75 54 78 55
REMARK SMILES IDX 72 56 73 57 76 58 74 59 53 60 54 61 62 62 55 63 56 64 60 65
REMARK SMILES IDX 63 66 57 67 58 68 61 69 59 70 5 71 6 72 7 73 8 74 9 76 10 77
REMARK SMILES IDX 11 78 26 79 12 80 22 81 21 82 13 83 14 84 19 85 15 86 18 87
REMARK SMILES IDX 20 88 16 89 17 90 23 91 24 92 25 93
REMARK H PARENT 3 5 83 23 51 34 7 75
REMARK Flexibility Score: inf
ROOT
ATOM      1  C   UNL A   1      33.664  28.932  25.211  1.00  0.00     0.118 C 
ENDROOT
BRANCH   1   2
ATOM      2  N   UNL A   1      33.029  30.142  25.722  1.00  0.00    -0.352 N 
ATOM      3  O   UNL A   1      32.546  31.783  27.188  1.00  0.00    -0.269 OA
ATOM      4  C   UNL A   1      33.327  30.902  26.823  1.00  0.00     0.251 C 
ATOM      5  H   UNL A   1      32.265  30.463  25.191  1.00  0.00     0.163 HD
BRANCH   4   6
ATOM      6  C   UNL A   1      34.569  30.664  27.588  1.00  0.00     0.039 A 
ATOM      7  C   UNL A   1      34.803  29.431  28.196  1.00  0.00     0.014 A 
ATOM      8  C   UNL A   1      35.529  31.676  27.675  1.00  0.00     0.014 A 
ATOM      9  C   UNL A   1      35.901  29.267  29.027  1.00  0.00     0.010 A 
ATOM     10  C   UNL A   1      36.696  31.469  28.417  1.00  0.00     0.010 A 
ATOM     11  C   UNL A   1      36.876  30.271  29.125  1.00  0.00    -0.014 A 
BRANCH  11  12
ATOM     12  C   UNL A   1      38.109  29.993  29.903  1.00  0.00     0.031 A 
ATOM     13  C   UNL A   1      38.280  30.494  31.308  1.00  0.00     0.074 A 
ATOM     14  C   UNL A   1      39.063  29.233  29.330  1.00  0.00     0.049 A 
ATOM     15  N   UNL A   1      39.279  30.303  32.133  1.00  0.00    -0.248 NA
ATOM     16  C   UNL A   1      37.199  31.324  31.860  1.00  0.00     0.031 C 
ATOM     17  C   UNL A   1      39.009  28.706  27.964  1.00  0.00     0.029 A 
ATOM     18  N   UNL A   1      40.245  28.746  29.824  1.00  0.00    -0.354 N 
ATOM     19  C   UNL A   1      38.957  30.997  33.291  1.00  0.00     0.074 A 
ATOM     20  C   UNL A   1      37.680  31.638  33.056  1.00  0.00     0.031 C 
ATOM     21  C   UNL A   1      40.075  27.924  27.749  1.00  0.00     0.029 A 
ATOM     22  C   UNL A   1      40.923  27.950  28.934  1.00  0.00     0.049 A 
ATOM     23  H   UNL A   1      40.576  28.948  30.729  1.00  0.00     0.167 HD
ATOM     24  C   UNL A   1      39.663  31.084  34.444  1.00  0.00     0.037 A 
ATOM     25  C   UNL A   1      42.107  27.322  29.051  1.00  0.00     0.037 A 
ATOM     26  C   UNL A   1      40.927  30.429  34.674  1.00  0.00     0.049 A 
ATOM     27  C   UNL A   1      42.870  27.450  30.336  1.00  0.00     0.074 A 
ATOM     28  C   UNL A   1      41.703  30.429  35.820  1.00  0.00     0.029 A 
ATOM     29  N   UNL A   1      41.599  29.658  33.736  1.00  0.00    -0.354 N 
ATOM     30  N   UNL A   1      42.539  28.087  31.433  1.00  0.00    -0.248 NA
ATOM     31  C   UNL A   1      44.176  26.781  30.397  1.00  0.00     0.031 C 
ATOM     32  C   UNL A   1      42.866  29.695  35.562  1.00  0.00     0.029 A 
ATOM     33  C   UNL A   1      42.793  29.197  34.270  1.00  0.00     0.049 A 
ATOM     34  H   UNL A   1      41.277  29.467  32.826  1.00  0.00     0.167 HD
ATOM     35  C   UNL A   1      43.587  27.887  32.319  1.00  0.00     0.074 A 
ATOM     36  C   UNL A   1      44.552  27.045  31.639  1.00  0.00     0.031 C 
ATOM     37  C   UNL A   1      43.742  28.364  33.577  1.00  0.00     0.037 A 
BRANCH  24  38
ATOM     38  C   UNL A   1      39.097  31.926  35.551  1.00  0.00     0.064 A 
ATOM     39  C   UNL A   1      38.294  31.374  36.560  1.00  0.00     0.173 A 
ATOM     40  C   UNL A   1      39.416  33.289  35.639  1.00  0.00     0.173 A 
ATOM     41  F   UNL A   1      37.951  30.078  36.517  1.00  0.00    -0.203 F 
ATOM     42  C   UNL A   1      37.818  32.160  37.607  1.00  0.00     0.198 A 
ATOM     43  C   UNL A   1      38.960  34.067  36.701  1.00  0.00     0.198 A 
ATOM     44  F   UNL A   1      40.185  33.866  34.703  1.00  0.00    -0.203 F 
ATOM     45  F   UNL A   1      37.025  31.619  38.542  1.00  0.00    -0.200 F 
ATOM     46  C   UNL A   1      38.158  33.503  37.682  1.00  0.00     0.200 A 
ATOM     47  F   UNL A   1      39.299  35.362  36.777  1.00  0.00    -0.200 F 
ATOM     48  F   UNL A   1      37.710  34.254  38.697  1.00  0.00    -0.200 F 
ENDBRANCH  24  38
BRANCH  25  49
ATOM     49  C   UNL A   1      42.639  26.531  27.912  1.00  0.00     0.064 A 
ATOM     50  C   UNL A   1      43.408  27.134  26.909  1.00  0.00     0.173 A 
ATOM     51  C   UNL A   1      42.398  25.153  27.812  1.00  0.00     0.173 A 
ATOM     52  F   UNL A   1      43.651  28.453  26.952  1.00  0.00    -0.203 F 
ATOM     53  C   UNL A   1      43.902  26.391  25.838  1.00  0.00     0.198 A 
ATOM     54  C   UNL A   1      42.919  24.406  26.759  1.00  0.00     0.198 A 
ATOM     55  F   UNL A   1      41.673  24.526  28.751  1.00  0.00    -0.203 F 
ATOM     56  F   UNL A   1      44.599  27.000  24.869  1.00  0.00    -0.200 F 
ATOM     57  C   UNL A   1      43.664  25.027  25.768  1.00  0.00     0.200 A 
ATOM     58  F   UNL A   1      42.702  23.085  26.705  1.00  0.00    -0.200 F 
ATOM     59  F   UNL A   1      44.146  24.313  24.743  1.00  0.00    -0.200 F 
ENDBRANCH  25  49
BRANCH  37  60
ATOM     60  C   UNL A   1      44.994  27.968  34.301  1.00  0.00     0.064 A 
ATOM     61  C   UNL A   1      46.149  28.764  34.254  1.00  0.00     0.173 A 
ATOM     62  C   UNL A   1      45.036  26.789  35.058  1.00  0.00     0.173 A 
ATOM     63  F   UNL A   1      46.163  29.892  33.527  1.00  0.00    -0.203 F 
ATOM     64  C   UNL A   1      47.310  28.376  34.915  1.00  0.00     0.198 A 
ATOM     65  C   UNL A   1      46.190  26.420  35.742  1.00  0.00     0.198 A 
ATOM     66  F   UNL A   1      43.956  25.997  35.138  1.00  0.00    -0.203 F 
ATOM     67  F   UNL A   1      48.418  29.123  34.813  1.00  0.00    -0.200 F 
ATOM     68  C   UNL A   1      47.328  27.209  35.663  1.00  0.00     0.200 A 
ATOM     69  F   UNL A   1      46.204  25.296  36.472  1.00  0.00    -0.200 F 
ATOM     70  F   UNL A   1      48.448  26.837  36.299  1.00  0.00    -0.200 F 
ENDBRANCH  37  60
ENDBRANCH  11  12
ENDBRANCH   4   6
ENDBRANCH   1   2
BRANCH   1  71
ATOM     71  C   UNL A   1      33.733  28.901  23.695  1.00  0.00     0.042 C 
BRANCH  71  72
ATOM     72  C   UNL A   1      32.417  28.532  23.030  1.00  0.00     0.118 C 
BRANCH  72  73
ATOM     73  N   UNL A   1      32.586  27.508  22.005  1.00  0.00    -0.352 N 
ATOM     74  C   UNL A   1      32.985  26.203  22.105  1.00  0.00     0.251 C 
ATOM     75  H   UNL A   1      32.379  27.806  21.090  1.00  0.00     0.163 HD
ATOM     76  O   UNL A   1      33.278  25.581  21.082  1.00  0.00    -0.269 OA
BRANCH  74  77
ATOM     77  C   UNL A   1      33.079  25.530  23.417  1.00  0.00     0.047 A 
ATOM     78  C   UNL A   1      34.272  24.876  23.755  1.00  0.00     0.023 A 
ATOM     79  C   UNL A   1      31.985  25.469  24.278  1.00  0.00     0.099 A 
ATOM     80  C   UNL A   1      34.405  24.206  24.983  1.00  0.00    -0.009 A 
ATOM     81  C   UNL A   1      32.138  24.892  25.540  1.00  0.00     0.270 A 
ATOM     82  C   UNL A   1      33.343  24.277  25.902  1.00  0.00     0.094 A 
BRANCH  80  83
ATOM     83  C   UNL A   1      35.600  23.393  25.266  1.00  0.00     0.002 A 
ATOM     84  C   UNL A   1      36.770  24.006  25.751  1.00  0.00     0.030 A 
ATOM     85  C   UNL A   1      35.637  22.001  25.024  1.00  0.00     0.048 A 
ATOM     86  C   UNL A   1      37.925  23.257  25.986  1.00  0.00     0.041 A 
ATOM     87  C   UNL A   1      36.794  21.256  25.271  1.00  0.00     0.023 A 
ATOM     88  Cl  UNL A   1      34.282  21.142  24.366  1.00  0.00    -0.084 Cl
ATOM     89  Cl  UNL A   1      39.347  24.035  26.562  1.00  0.00    -0.084 Cl
ATOM     90  C   UNL A   1      37.942  21.884  25.751  1.00  0.00     0.022 A 
ENDBRANCH  80  83
BRANCH  81  91
ATOM     91  N   UNL A   1      31.021  24.938  26.488  1.00  0.00     0.062 N 
ATOM     92  O   UNL A   1      30.871  23.975  27.251  1.00  0.00    -0.258 OA
ATOM     93  O   UNL A   1      30.310  25.953  26.486  1.00  0.00    -0.258 OA
ENDBRANCH  81  91
ENDBRANCH  74  77
ENDBRANCH  72  73
ENDBRANCH  71  72
ENDBRANCH   1  71
TORSDOF 12
ENDMDL
MODEL 2
REMARK VINA RESULT:     -12.9      0.087      1.175
REMARK SMILES O=C(NCCCNC(=O)c1cc(-c2cc(Cl)ccc2Cl)cc([N+](=O)[O-])c1)c1ccc(-c2c3nc(c(-c4c(F)c(F)c(F)c(F)c4F)c4ccc([nH]4)c(-c4c(F)c(F)c(F)c(F)c4F)c4nc(c(-c5c(F)c(F)c(F)c(F)c5F)c5ccc2[nH]5)C=C4)C=C3)cc1
REMARK SMILES IDX 4 1 3 2 1 3 2 4 27 6 28 7 89 8 29 9 88 10 30 11 31 12 32 13
REMARK SMILES IDX 82 14 33 15 87 16 81 17 83 18 34 19 86 20 80 21 79 22 35 24
REMARK SMILES IDX 67 25 47 26 66 27 48 28 51 29 65 30 84 31 49 32 50 33 64 35
REMARK SMILES IDX 85 36 52 37 36 38 37 39 45 40 38 41 39 42 43 43 46 44 40 45
REMARK SMILES IDX 41 46 44 47 42 48 68 49 69 50 77 51 70 52 71 53 75 54 78 55
REMARK SMILES IDX 72 56 73 57 76 58 74 59 53 60 54 61 62 62 55 63 56 64 60 65
REMARK SMILES IDX 63 66 57 67 58 68 61 69 59 70 5 71 6 72 7 73 8 74 9 76 10 77
REMARK SMILES IDX 11 78 26 79 12 80 22 81 21 82 13 83 14 84 19 85 15 86 18 87
REMARK SMILES IDX 20 88 16 89 17 90 23 91 24 92 25 93
REMARK H PARENT 3 5 83 23 51 34 7 75
REMARK Flexibility Score: inf
ROOT
ATOM      1  C   UNL A   1      33.656  28.971  25.127  1.00  0.00     0.118 C 
ENDROOT
BRANCH   1   2
ATOM      2  N   UNL A   1      33.000  30.157  25.665  1.00  0.00    -0.352 N 
ATOM      3  O   UNL A   1      32.487  31.754  27.170  1.00  0.00    -0.269 OA
ATOM      4  C   UNL A   1      33.284  30.896  26.785  1.00  0.00     0.251 C 
ATOM      5  H   UNL A   1      32.230  30.478  25.143  1.00  0.00     0.163 HD
BRANCH   4   6
ATOM      6  C   UNL A   1      34.530  30.662  27.545  1.00  0.00     0.039 A 
ATOM      7  C   UNL A   1      34.775  29.426  28.143  1.00  0.00     0.014 A 
ATOM      8  C   UNL A   1      35.483  31.681  27.635  1.00  0.00     0.014 A 
ATOM      9  C   UNL A   1      35.877  29.265  28.970  1.00  0.00     0.010 A 
ATOM     10  C   UNL A   1      36.653  31.478  28.373  1.00  0.00     0.010 A 
ATOM     11  C   UNL A   1      36.845  30.276  29.072  1.00  0.00    -0.014 A 
BRANCH  11  12
ATOM     12  C   UNL A   1      38.082  30.002  29.844  1.00  0.00     0.031 A 
ATOM     13  C   UNL A   1      38.257  30.502  31.249  1.00  0.00     0.074 A 
ATOM     14  C   UNL A   1      39.036  29.246  29.267  1.00  0.00     0.049 A 
ATOM     15  N   UNL A   1      39.261  30.314  32.070  1.00  0.00    -0.248 NA
ATOM     16  C   UNL A   1      37.175  31.327  31.807  1.00  0.00     0.031 C 
ATOM     17  C   UNL A   1      38.979  28.720  27.900  1.00  0.00     0.029 A 
ATOM     18  N   UNL A   1      40.222  28.764  29.755  1.00  0.00    -0.354 N 
ATOM     19  C   UNL A   1      38.940  31.006  33.230  1.00  0.00     0.074 A 
ATOM     20  C   UNL A   1      37.660  31.641  33.001  1.00  0.00     0.031 C 
ATOM     21  C   UNL A   1      40.047  27.943  27.680  1.00  0.00     0.029 A 
ATOM     22  C   UNL A   1      40.900  27.971  28.861  1.00  0.00     0.049 A 
ATOM     23  H   UNL A   1      40.557  28.966  30.659  1.00  0.00     0.167 HD
ATOM     24  C   UNL A   1      39.651  31.093  34.380  1.00  0.00     0.037 A 
ATOM     25  C   UNL A   1      42.087  27.348  28.972  1.00  0.00     0.037 A 
ATOM     26  C   UNL A   1      40.918  30.443  34.603  1.00  0.00     0.049 A 
ATOM     27  C   UNL A   1      42.855  27.478  30.254  1.00  0.00     0.074 A 
ATOM     28  C   UNL A   1      41.700  30.445  35.747  1.00  0.00     0.029 A 
ATOM     29  N   UNL A   1      41.590  29.677  33.662  1.00  0.00    -0.354 N 
ATOM     30  N   UNL A   1      42.526  28.111  31.353  1.00  0.00    -0.248 NA
ATOM     31  C   UNL A   1      44.163  26.813  30.309  1.00  0.00     0.031 C 
ATOM     32  C   UNL A   1      42.864  29.716  35.482  1.00  0.00     0.029 A 
ATOM     33  C   UNL A   1      42.787  29.219  34.191  1.00  0.00     0.049 A 
ATOM     34  H   UNL A   1      41.265  29.485  32.753  1.00  0.00     0.167 HD
ATOM     35  C   UNL A   1      43.579  27.915  32.234  1.00  0.00     0.074 A 
ATOM     36  C   UNL A   1      44.544  27.078  31.549  1.00  0.00     0.031 C 
ATOM     37  C   UNL A   1      43.737  28.391  33.492  1.00  0.00     0.037 A 
BRANCH  24  38
ATOM     38  C   UNL A   1      39.086  31.932  35.491  1.00  0.00     0.064 A 
ATOM     39  C   UNL A   1      38.291  31.375  36.503  1.00  0.00     0.173 A 
ATOM     40  C   UNL A   1      39.399  33.297  35.578  1.00  0.00     0.173 A 
ATOM     41  F   UNL A   1      37.955  30.078  36.461  1.00  0.00    -0.203 F 
ATOM     42  C   UNL A   1      37.817  32.158  37.553  1.00  0.00     0.198 A 
ATOM     43  C   UNL A   1      38.944  34.072  36.643  1.00  0.00     0.198 A 
ATOM     44  F   UNL A   1      40.161  33.879  34.638  1.00  0.00    -0.203 F 
ATOM     45  F   UNL A   1      37.032  31.612  38.492  1.00  0.00    -0.200 F 
ATOM     46  C   UNL A   1      38.150  33.503  37.627  1.00  0.00     0.200 A 
ATOM     47  F   UNL A   1      39.277  35.368  36.717  1.00  0.00    -0.200 F 
ATOM     48  F   UNL A   1      37.704  34.251  38.645  1.00  0.00    -0.200 F 
ENDBRANCH  24  38
BRANCH  25  49
ATOM     49  C   UNL A   1      42.617  26.560  27.830  1.00  0.00     0.064 A 
ATOM     50  C   UNL A   1      42.406  25.178  27.745  1.00  0.00     0.173 A 
ATOM     51  C   UNL A   1      43.335  27.176  26.795  1.00  0.00     0.173 A 
ATOM     52  F   UNL A   1      41.739  24.541  28.720  1.00  0.00    -0.203 F 
ATOM     53  C   UNL A   1      42.908  24.439  26.677  1.00  0.00     0.198 A 
ATOM     54  C   UNL A   1      43.809  26.442  25.711  1.00  0.00     0.198 A 
ATOM     55  F   UNL A   1      43.558  28.499  26.826  1.00  0.00    -0.203 F 
ATOM     56  F   UNL A   1      42.729  23.111  26.641  1.00  0.00    -0.200 F 
ATOM     57  C   UNL A   1      43.602  25.073  25.657  1.00  0.00     0.200 A 
ATOM     58  F   UNL A   1      44.463  27.062  24.719  1.00  0.00    -0.200 F 
ATOM     59  F   UNL A   1      44.078  24.362  24.625  1.00  0.00    -0.200 F 
ENDBRANCH  25  49
BRANCH  37  60
ATOM     60  C   UNL A   1      44.994  28.000  34.210  1.00  0.00     0.064 A 
ATOM     61  C   UNL A   1      46.148  28.796  34.153  1.00  0.00     0.173 A 
ATOM     62  C   UNL A   1      45.041  26.824  34.972  1.00  0.00     0.173 A 
ATOM     63  F   UNL A   1      46.157  29.920  33.420  1.00  0.00    -0.203 F 
ATOM     64  C   UNL A   1      47.313  28.412  34.809  1.00  0.00     0.198 A 
ATOM     65  C   UNL A   1      46.200  26.459  35.651  1.00  0.00     0.198 A 
ATOM     66  F   UNL A   1      43.963  26.031  35.062  1.00  0.00    -0.203 F 
ATOM     67  F   UNL A   1      48.420  29.159  34.696  1.00  0.00    -0.200 F 
ATOM     68  C   UNL A   1      47.337  27.248  35.562  1.00  0.00     0.200 A 
ATOM     69  F   UNL A   1      46.219  25.338  36.386  1.00  0.00    -0.200 F 
ATOM     70  F   UNL A   1      48.461  26.879  36.192  1.00  0.00    -0.200 F 
ENDBRANCH  37  60
ENDBRANCH  11  12
ENDBRANCH   4   6
ENDBRANCH   1   2
BRANCH   1  71
ATOM     71  C   UNL A   1      33.686  28.956  23.609  1.00  0.00     0.042 C 
BRANCH  71  72
ATOM     72  C   UNL A   1      32.371  28.531  22.975  1.00  0.00     0.118 C 
BRANCH  72  73
ATOM     73  N   UNL A   1      32.555  27.497  21.965  1.00  0.00    -0.352 N 
ATOM     74  C   UNL A   1      32.977  26.201  22.081  1.00  0.00     0.251 C 
ATOM     75  H   UNL A   1      32.341  27.778  21.046  1.00  0.00     0.163 HD
ATOM     76  O   UNL A   1      33.278  25.569  21.067  1.00  0.00    -0.269 OA
BRANCH  74  77
ATOM     77  C   UNL A   1      33.085  25.548  23.403  1.00  0.00     0.047 A 
ATOM     78  C   UNL A   1      34.285  24.906  23.741  1.00  0.00     0.023 A 
ATOM     79  C   UNL A   1      31.998  25.492  24.273  1.00  0.00     0.099 A 
ATOM     80  C   UNL A   1      34.432  24.256  24.978  1.00  0.00    -0.009 A 
ATOM     81  C   UNL A   1      32.164  24.935  25.542  1.00  0.00     0.270 A 
ATOM     82  C   UNL A   1      33.376  24.333  25.904  1.00  0.00     0.094 A 
BRANCH  80  83
ATOM     83  C   UNL A   1      35.634  23.454  25.263  1.00  0.00     0.002 A 
ATOM     84  C   UNL A   1      36.784  24.072  25.791  1.00  0.00     0.030 A 
ATOM     85  C   UNL A   1      35.700  22.070  24.984  1.00  0.00     0.048 A 
ATOM     86  C   UNL A   1      37.946  23.336  26.029  1.00  0.00     0.041 A 
ATOM     87  C   UNL A   1      36.864  21.338  25.234  1.00  0.00     0.023 A 
ATOM     88  Cl  UNL A   1      34.373  21.208  24.274  1.00  0.00    -0.084 Cl
ATOM     89  Cl  UNL A   1      39.342  24.121  26.657  1.00  0.00    -0.084 Cl
ATOM     90  C   UNL A   1      37.990  21.971  25.756  1.00  0.00     0.022 A 
ENDBRANCH  80  83
BRANCH  81  91
ATOM     91  N   UNL A   1      31.054  24.988  26.498  1.00  0.00     0.062 N 
ATOM     92  O   UNL A   1      30.343  26.001  26.502  1.00  0.00    -0.258 OA
ATOM     93  O   UNL A   1      30.880  24.000  27.226  1.00  0.00    -0.258 OA
ENDBRANCH  81  91
ENDBRANCH  74  77
ENDBRANCH  72  73
ENDBRANCH  71  72
ENDBRANCH   1  71
TORSDOF 12
ENDMDL
MODEL 3
REMARK VINA RESULT:     -12.7      0.332      7.331
REMARK SMILES O=C(NCCCNC(=O)c1cc(-c2cc(Cl)ccc2Cl)cc([N+](=O)[O-])c1)c1ccc(-c2c3nc(c(-c4c(F)c(F)c(F)c(F)c4F)c4ccc([nH]4)c(-c4c(F)c(F)c(F)c(F)c4F)c4nc(c(-c5c(F)c(F)c(F)c(F)c5F)c5ccc2[nH]5)C=C4)C=C3)cc1
REMARK SMILES IDX 4 1 3 2 1 3 2 4 27 6 28 7 89 8 29 9 88 10 30 11 31 12 32 13
REMARK SMILES IDX 82 14 33 15 87 16 81 17 83 18 34 19 86 20 80 21 79 22 35 24
REMARK SMILES IDX 67 25 47 26 66 27 48 28 51 29 65 30 84 31 49 32 50 33 64 35
REMARK SMILES IDX 85 36 52 37 36 38 37 39 45 40 38 41 39 42 43 43 46 44 40 45
REMARK SMILES IDX 41 46 44 47 42 48 68 49 69 50 77 51 70 52 71 53 75 54 78 55
REMARK SMILES IDX 72 56 73 57 76 58 74 59 53 60 54 61 62 62 55 63 56 64 60 65
REMARK SMILES IDX 63 66 57 67 58 68 61 69 59 70 5 71 6 72 7 73 8 74 9 76 10 77
REMARK SMILES IDX 11 78 26 79 12 80 22 81 21 82 13 83 14 84 19 85 15 86 18 87
REMARK SMILES IDX 20 88 16 89 17 90 23 91 24 92 25 93
REMARK H PARENT 3 5 83 23 51 34 7 75
REMARK Flexibility Score: inf
ROOT
ATOM      1  C   UNL A   1      33.648  28.925  25.085  1.00  0.00     0.118 C 
ENDROOT
BRANCH   1   2
ATOM      2  N   UNL A   1      33.047  30.147  25.609  1.00  0.00    -0.352 N 
ATOM      3  O   UNL A   1      32.599  31.778  27.097  1.00  0.00    -0.269 OA
ATOM      4  C   UNL A   1      33.356  30.878  26.727  1.00  0.00     0.251 C 
ATOM      5  H   UNL A   1      32.300  30.502  25.075  1.00  0.00     0.163 HD
BRANCH   4   6
ATOM      6  C   UNL A   1      34.580  30.587  27.502  1.00  0.00     0.039 A 
ATOM      7  C   UNL A   1      34.778  29.329  28.070  1.00  0.00     0.014 A 
ATOM      8  C   UNL A   1      35.560  31.575  27.638  1.00  0.00     0.014 A 
ATOM      9  C   UNL A   1      35.859  29.113  28.912  1.00  0.00     0.010 A 
ATOM     10  C   UNL A   1      36.710  31.317  28.391  1.00  0.00     0.010 A 
ATOM     11  C   UNL A   1      36.854  30.091  29.059  1.00  0.00    -0.014 A 
BRANCH  11  12
ATOM     12  C   UNL A   1      38.068  29.759  29.845  1.00  0.00     0.031 A 
ATOM     13  C   UNL A   1      39.162  28.904  29.275  1.00  0.00     0.074 A 
ATOM     14  C   UNL A   1      38.188  30.286  31.080  1.00  0.00     0.049 A 
ATOM     15  N   UNL A   1      40.302  28.556  29.820  1.00  0.00    -0.248 NA
ATOM     16  C   UNL A   1      38.953  28.359  27.926  1.00  0.00     0.031 C 
ATOM     17  C   UNL A   1      37.178  31.118  31.740  1.00  0.00     0.029 A 
ATOM     18  N   UNL A   1      39.213  30.230  31.987  1.00  0.00    -0.354 N 
ATOM     19  C   UNL A   1      40.937  27.743  28.891  1.00  0.00     0.074 A 
ATOM     20  C   UNL A   1      40.046  27.626  27.756  1.00  0.00     0.031 C 
ATOM     21  C   UNL A   1      37.656  31.542  32.918  1.00  0.00     0.029 A 
ATOM     22  C   UNL A   1      38.973  30.957  33.128  1.00  0.00     0.049 A 
ATOM     23  H   UNL A   1      40.041  29.719  31.837  1.00  0.00     0.167 HD
ATOM     24  C   UNL A   1      42.154  27.156  28.980  1.00  0.00     0.037 A 
ATOM     25  C   UNL A   1      39.724  31.121  34.232  1.00  0.00     0.037 A 
ATOM     26  C   UNL A   1      43.041  27.292  30.109  1.00  0.00     0.049 A 
ATOM     27  C   UNL A   1      41.062  30.445  34.305  1.00  0.00     0.074 A 
ATOM     28  C   UNL A   1      44.310  26.763  30.279  1.00  0.00     0.029 A 
ATOM     29  N   UNL A   1      42.749  28.008  31.261  1.00  0.00    -0.354 N 
ATOM     30  N   UNL A   1      41.662  29.703  33.406  1.00  0.00    -0.248 NA
ATOM     31  C   UNL A   1      41.823  30.622  35.548  1.00  0.00     0.031 C 
ATOM     32  C   UNL A   1      44.767  27.123  31.551  1.00  0.00     0.029 A 
ATOM     33  C   UNL A   1      43.804  27.916  32.156  1.00  0.00     0.049 A 
ATOM     34  H   UNL A   1      41.916  28.509  31.420  1.00  0.00     0.167 HD
ATOM     35  C   UNL A   1      42.874  29.333  33.968  1.00  0.00     0.074 A 
ATOM     36  C   UNL A   1      42.936  29.957  35.275  1.00  0.00     0.031 C 
ATOM     37  C   UNL A   1      43.845  28.540  33.454  1.00  0.00     0.037 A 
BRANCH  24  38
ATOM     38  C   UNL A   1      42.606  26.299  27.832  1.00  0.00     0.064 A 
ATOM     39  C   UNL A   1      43.411  26.809  26.803  1.00  0.00     0.173 A 
ATOM     40  C   UNL A   1      42.281  24.934  27.796  1.00  0.00     0.173 A 
ATOM     41  F   UNL A   1      43.740  28.109  26.786  1.00  0.00    -0.203 F 
ATOM     42  C   UNL A   1      43.861  25.988  25.773  1.00  0.00     0.198 A 
ATOM     43  C   UNL A   1      42.754  24.110  26.777  1.00  0.00     0.198 A 
ATOM     44  F   UNL A   1      41.518  24.394  28.759  1.00  0.00    -0.203 F 
ATOM     45  F   UNL A   1      44.603  26.504  24.782  1.00  0.00    -0.200 F 
ATOM     46  C   UNL A   1      43.540  24.638  25.764  1.00  0.00     0.200 A 
ATOM     47  F   UNL A   1      42.452  22.804  26.778  1.00  0.00    -0.200 F 
ATOM     48  F   UNL A   1      43.985  23.848  24.779  1.00  0.00    -0.200 F 
ENDBRANCH  24  38
BRANCH  25  49
ATOM     49  C   UNL A   1      39.216  31.950  35.354  1.00  0.00     0.064 A 
ATOM     50  C   UNL A   1      39.484  33.324  35.418  1.00  0.00     0.173 A 
ATOM     51  C   UNL A   1      38.442  31.387  36.380  1.00  0.00     0.173 A 
ATOM     52  F   UNL A   1      40.234  33.905  34.469  1.00  0.00    -0.203 F 
ATOM     53  C   UNL A   1      39.011  34.100  36.474  1.00  0.00     0.198 A 
ATOM     54  C   UNL A   1      37.943  32.170  37.417  1.00  0.00     0.198 A 
ATOM     55  F   UNL A   1      38.151  30.078  36.361  1.00  0.00    -0.203 F 
ATOM     56  F   UNL A   1      39.317  35.403  36.534  1.00  0.00    -0.200 F 
ATOM     57  C   UNL A   1      38.235  33.524  37.468  1.00  0.00     0.200 A 
ATOM     58  F   UNL A   1      37.178  31.613  38.366  1.00  0.00    -0.200 F 
ATOM     59  F   UNL A   1      37.774  34.273  38.479  1.00  0.00    -0.200 F 
ENDBRANCH  25  49
BRANCH  37  60
ATOM     60  C   UNL A   1      45.061  28.323  34.303  1.00  0.00     0.064 A 
ATOM     61  C   UNL A   1      46.167  29.184  34.232  1.00  0.00     0.173 A 
ATOM     62  C   UNL A   1      45.117  27.251  35.205  1.00  0.00     0.173 A 
ATOM     63  F   UNL A   1      46.168  30.212  33.370  1.00  0.00    -0.203 F 
ATOM     64  C   UNL A   1      47.297  28.961  35.012  1.00  0.00     0.198 A 
ATOM     65  C   UNL A   1      46.238  27.048  36.005  1.00  0.00     0.198 A 
ATOM     66  F   UNL A   1      44.084  26.402  35.313  1.00  0.00    -0.203 F 
ATOM     67  F   UNL A   1      48.363  29.764  34.889  1.00  0.00    -0.200 F 
ATOM     68  C   UNL A   1      47.329  27.897  35.902  1.00  0.00     0.200 A 
ATOM     69  F   UNL A   1      46.264  26.026  36.871  1.00  0.00    -0.200 F 
ATOM     70  F   UNL A   1      48.419  27.684  36.652  1.00  0.00    -0.200 F 
ENDBRANCH  37  60
ENDBRANCH  11  12
ENDBRANCH   4   6
ENDBRANCH   1   2
BRANCH   1  71
ATOM     71  C   UNL A   1      33.597  28.850  23.569  1.00  0.00     0.042 C 
BRANCH  71  72
ATOM     72  C   UNL A   1      32.245  28.421  23.023  1.00  0.00     0.118 C 
BRANCH  72  73
ATOM     73  N   UNL A   1      32.367  27.398  21.992  1.00  0.00    -0.352 N 
ATOM     74  C   UNL A   1      32.742  26.085  22.078  1.00  0.00     0.251 C 
ATOM     75  H   UNL A   1      32.142  27.703  21.083  1.00  0.00     0.163 HD
ATOM     76  O   UNL A   1      32.995  25.460  21.046  1.00  0.00    -0.269 OA
BRANCH  74  77
ATOM     77  C   UNL A   1      32.856  25.406  23.385  1.00  0.00     0.047 A 
ATOM     78  C   UNL A   1      34.079  24.815  23.733  1.00  0.00     0.023 A 
ATOM     79  C   UNL A   1      31.756  25.277  24.231  1.00  0.00     0.099 A 
ATOM     80  C   UNL A   1      34.233  24.143  24.957  1.00  0.00    -0.009 A 
ATOM     81  C   UNL A   1      31.924  24.698  25.490  1.00  0.00     0.270 A 
ATOM     82  C   UNL A   1      33.157  24.146  25.862  1.00  0.00     0.094 A 
BRANCH  80  83
ATOM     83  C   UNL A   1      35.468  23.393  25.249  1.00  0.00     0.002 A 
ATOM     84  C   UNL A   1      36.608  24.071  25.720  1.00  0.00     0.030 A 
ATOM     85  C   UNL A   1      35.572  22.001  25.029  1.00  0.00     0.048 A 
ATOM     86  C   UNL A   1      37.799  23.383  25.963  1.00  0.00     0.041 A 
ATOM     87  C   UNL A   1      36.765  21.319  25.283  1.00  0.00     0.023 A 
ATOM     88  Cl  UNL A   1      34.259  21.066  24.390  1.00  0.00    -0.084 Cl
ATOM     89  Cl  UNL A   1      39.182  24.240  26.521  1.00  0.00    -0.084 Cl
ATOM     90  C   UNL A   1      37.882  22.010  25.750  1.00  0.00     0.022 A 
ENDBRANCH  80  83
BRANCH  81  91
ATOM     91  N   UNL A   1      30.795  24.673  26.424  1.00  0.00     0.062 N 
ATOM     92  O   UNL A   1      29.934  25.557  26.313  1.00  0.00    -0.258 OA
ATOM     93  O   UNL A   1      30.757  23.751  27.251  1.00  0.00    -0.258 OA
ENDBRANCH  81  91
ENDBRANCH  74  77
ENDBRANCH  72  73
ENDBRANCH  71  72
ENDBRANCH   1  71
TORSDOF 12
ENDMDL
