MODEL 1
REMARK VINA RESULT:     -12.0      0.000      0.000
REMARK SMILES CN(C)Nc1ncnc(Nc2ccc(C(=O)NCCCNC(=O)c3ccc(-c4c5nc(c(-c6c(F)c(F)c(F)c(F)c6F)c6ccc([nH]6)c(-c6c(F)c(F)c(F)c(F)c6F)c6nc(c(-c7c(F)c(F)c(F)c(F)c7F)c7ccc4[nH]7)C=C6)C=C5)cc3)cc2)c1[N+](=O)[O-]
REMARK SMILES IDX 18 1 17 2 15 3 16 4 14 6 11 7 12 8 88 9 13 10 87 11 10 12
REMARK SMILES IDX 9 14 5 15 6 16 89 17 7 18 8 19 4 20 2 22 1 23 3 24 90 25
REMARK SMILES IDX 91 26 92 27 19 28 20 29 21 30 22 31 23 33 24 34 25 35 86 36
REMARK SMILES IDX 26 37 85 38 27 39 28 40 29 41 79 42 30 43 84 44 78 45 80 46
REMARK SMILES IDX 31 47 83 48 77 49 76 50 32 52 64 53 44 54 63 55 45 56 48 57
REMARK SMILES IDX 62 58 81 59 46 60 47 61 61 63 82 64 49 65 33 66 34 67 42 68
REMARK SMILES IDX 35 69 36 70 40 71 43 72 37 73 38 74 41 75 39 76 65 77 66 78
REMARK SMILES IDX 74 79 67 80 68 81 72 82 75 83 69 84 70 85 73 86 71 87 50 88
REMARK SMILES IDX 51 89 59 90 52 91 53 92 57 93 60 94 54 95 55 96 58 97 56 98
REMARK H PARENT 17 5 10 13 4 21 21 32 80 51 48 62
REMARK Flexibility Score: inf
ROOT
ATOM      1  C   UNL A   1      37.627  20.836  24.743  1.00  0.00     0.118 C 
ENDROOT
BRANCH   1   2
ATOM      2  N   UNL A   1      38.188  21.994  25.416  1.00  0.00    -0.352 N 
ATOM      3  C   UNL A   1      37.673  23.230  25.713  1.00  0.00     0.251 C 
ATOM      4  O   UNL A   1      38.380  24.004  26.359  1.00  0.00    -0.269 OA
ATOM      5  H   UNL A   1      39.117  21.867  25.717  1.00  0.00     0.163 HD
BRANCH   3   6
ATOM      6  C   UNL A   1      36.295  23.647  25.341  1.00  0.00     0.039 A 
ATOM      7  C   UNL A   1      33.768  24.563  24.480  1.00  0.00     0.040 A 
ATOM      8  C   UNL A   1      34.774  24.301  23.552  1.00  0.00     0.027 A 
ATOM      9  C   UNL A   1      34.003  24.261  25.828  1.00  0.00     0.027 A 
ATOM     10  C   UNL A   1      36.033  23.867  23.980  1.00  0.00     0.016 A 
ATOM     11  C   UNL A   1      35.249  23.790  26.253  1.00  0.00     0.016 A 
BRANCH   7  12
ATOM     12  N   UNL A   1      32.513  25.035  24.048  1.00  0.00    -0.334 N 
ATOM     13  H   UNL A   1      31.873  24.369  23.706  1.00  0.00     0.168 HD
BRANCH  12  14
ATOM     14  C   UNL A   1      32.101  26.382  24.065  1.00  0.00     0.215 A 
ATOM     15  C   UNL A   1      31.409  28.416  23.047  1.00  0.00     0.225 A 
ATOM     16  N   UNL A   1      31.236  28.978  24.262  1.00  0.00    -0.212 NA
ATOM     17  C   UNL A   1      31.933  27.145  22.920  1.00  0.00     0.354 A 
ATOM     18  C   UNL A   1      31.505  28.218  25.324  1.00  0.00     0.227 A 
ATOM     19  N   UNL A   1      31.887  26.940  25.280  1.00  0.00    -0.212 NA
BRANCH  15  20
ATOM     20  N   UNL A   1      30.882  29.203  22.018  1.00  0.00    -0.298 N 
ATOM     21  H   UNL A   1      31.510  29.737  21.480  1.00  0.00     0.184 HD
BRANCH  20  22
ATOM     22  N   UNL A   1      29.507  29.279  21.698  1.00  0.00    -0.228 NA
ATOM     23  C   UNL A   1      28.686  28.651  22.748  1.00  0.00     0.130 C 
ATOM     24  C   UNL A   1      29.152  30.707  21.625  1.00  0.00     0.130 C 
ENDBRANCH  20  22
ENDBRANCH  15  20
BRANCH  17  25
ATOM     25  N   UNL A   1      32.320  26.626  21.645  1.00  0.00     0.070 N 
ATOM     26  O   UNL A   1      31.407  26.278  20.878  1.00  0.00    -0.258 OA
ATOM     27  O   UNL A   1      33.528  26.441  21.442  1.00  0.00    -0.258 OA
ENDBRANCH  17  25
ENDBRANCH  12  14
ENDBRANCH   7  12
ENDBRANCH   3   6
ENDBRANCH   1   2
BRANCH   1  28
ATOM     28  C   UNL A   1      38.445  19.577  25.035  1.00  0.00     0.042 C 
BRANCH  28  29
ATOM     29  C   UNL A   1      39.384  19.721  26.231  1.00  0.00     0.118 C 
BRANCH  29  30
ATOM     30  N   UNL A   1      40.541  18.845  26.125  1.00  0.00    -0.352 N 
ATOM     31  C   UNL A   1      41.875  19.144  26.027  1.00  0.00     0.251 C 
ATOM     32  H   UNL A   1      40.332  17.883  26.125  1.00  0.00     0.163 HD
ATOM     33  O   UNL A   1      42.669  18.251  25.743  1.00  0.00    -0.269 OA
BRANCH  31  34
ATOM     34  C   UNL A   1      42.378  20.520  26.250  1.00  0.00     0.039 A 
ATOM     35  C   UNL A   1      42.547  20.956  27.568  1.00  0.00     0.014 A 
ATOM     36  C   UNL A   1      42.600  21.409  25.193  1.00  0.00     0.014 A 
ATOM     37  C   UNL A   1      42.960  22.265  27.827  1.00  0.00     0.010 A 
ATOM     38  C   UNL A   1      43.071  22.697  25.449  1.00  0.00     0.010 A 
ATOM     39  C   UNL A   1      43.237  23.143  26.769  1.00  0.00    -0.014 A 
BRANCH  39  40
ATOM     40  C   UNL A   1      43.669  24.539  27.037  1.00  0.00     0.031 A 
ATOM     41  C   UNL A   1      42.683  25.553  27.549  1.00  0.00     0.074 A 
ATOM     42  C   UNL A   1      44.942  24.902  26.792  1.00  0.00     0.049 A 
ATOM     43  N   UNL A   1      42.866  26.821  27.827  1.00  0.00    -0.248 NA
ATOM     44  C   UNL A   1      41.303  25.090  27.754  1.00  0.00     0.031 C 
ATOM     45  C   UNL A   1      45.979  24.023  26.250  1.00  0.00     0.029 A 
ATOM     46  N   UNL A   1      45.579  26.105  26.961  1.00  0.00    -0.354 N 
ATOM     47  C   UNL A   1      41.626  27.306  28.219  1.00  0.00     0.074 A 
ATOM     48  C   UNL A   1      40.688  26.211  28.102  1.00  0.00     0.031 C 
ATOM     49  C   UNL A   1      47.128  24.710  26.150  1.00  0.00     0.029 A 
ATOM     50  C   UNL A   1      46.903  26.082  26.598  1.00  0.00     0.049 A 
ATOM     51  H   UNL A   1      45.129  26.909  27.309  1.00  0.00     0.167 HD
ATOM     52  C   UNL A   1      41.303  28.547  28.659  1.00  0.00     0.037 A 
ATOM     53  C   UNL A   1      47.830  27.057  26.624  1.00  0.00     0.037 A 
ATOM     54  C   UNL A   1      42.245  29.626  28.806  1.00  0.00     0.049 A 
ATOM     55  C   UNL A   1      47.454  28.417  27.144  1.00  0.00     0.074 A 
ATOM     56  C   UNL A   1      42.029  30.900  29.301  1.00  0.00     0.029 A 
ATOM     57  N   UNL A   1      43.585  29.555  28.457  1.00  0.00    -0.354 N 
ATOM     58  N   UNL A   1      46.293  28.844  27.580  1.00  0.00    -0.248 NA
ATOM     59  C   UNL A   1      48.520  29.427  27.190  1.00  0.00     0.031 C 
ATOM     60  C   UNL A   1      43.231  31.611  29.219  1.00  0.00     0.029 A 
ATOM     61  C   UNL A   1      44.205  30.768  28.712  1.00  0.00     0.049 A 
ATOM     62  H   UNL A   1      44.029  28.760  28.083  1.00  0.00     0.167 HD
ATOM     63  C   UNL A   1      46.494  30.159  27.973  1.00  0.00     0.074 A 
ATOM     64  C   UNL A   1      47.892  30.456  27.741  1.00  0.00     0.031 C 
ATOM     65  C   UNL A   1      45.599  31.043  28.481  1.00  0.00     0.037 A 
BRANCH  52  66
ATOM     66  C   UNL A   1      39.868  28.802  29.017  1.00  0.00     0.064 A 
ATOM     67  C   UNL A   1      39.392  28.622  30.324  1.00  0.00     0.173 A 
ATOM     68  C   UNL A   1      38.963  29.265  28.049  1.00  0.00     0.173 A 
ATOM     69  F   UNL A   1      40.213  28.171  31.285  1.00  0.00    -0.203 F 
ATOM     70  C   UNL A   1      38.059  28.865  30.642  1.00  0.00     0.198 A 
ATOM     71  C   UNL A   1      37.636  29.535  28.377  1.00  0.00     0.198 A 
ATOM     72  F   UNL A   1      39.367  29.461  26.784  1.00  0.00    -0.203 F 
ATOM     73  F   UNL A   1      37.617  28.639  31.888  1.00  0.00    -0.200 F 
ATOM     74  C   UNL A   1      37.184  29.328  29.671  1.00  0.00     0.200 A 
ATOM     75  F   UNL A   1      36.796  29.993  27.439  1.00  0.00    -0.200 F 
ATOM     76  F   UNL A   1      35.901  29.566  29.980  1.00  0.00    -0.200 F 
ENDBRANCH  52  66
BRANCH  53  77
ATOM     77  C   UNL A   1      49.217  26.769  26.179  1.00  0.00     0.064 A 
ATOM     78  C   UNL A   1      50.172  26.273  27.077  1.00  0.00     0.173 A 
ATOM     79  C   UNL A   1      49.614  26.973  24.850  1.00  0.00     0.173 A 
ATOM     80  F   UNL A   1      49.844  26.079  28.363  1.00  0.00    -0.203 F 
ATOM     81  C   UNL A   1      51.477  26.010  26.668  1.00  0.00     0.198 A 
ATOM     82  C   UNL A   1      50.912  26.685  24.435  1.00  0.00     0.198 A 
ATOM     83  F   UNL A   1      48.735  27.439  23.950  1.00  0.00    -0.203 F 
ATOM     84  F   UNL A   1      52.381  25.575  27.555  1.00  0.00    -0.200 F 
ATOM     85  C   UNL A   1      51.845  26.211  25.346  1.00  0.00     0.200 A 
ATOM     86  F   UNL A   1      51.261  26.866  23.154  1.00  0.00    -0.200 F 
ATOM     87  F   UNL A   1      53.099  25.951  24.950  1.00  0.00    -0.200 F 
ENDBRANCH  53  77
BRANCH  65  88
ATOM     88  C   UNL A   1      46.115  32.404  28.846  1.00  0.00     0.064 A 
ATOM     89  C   UNL A   1      46.635  32.676  30.119  1.00  0.00     0.173 A 
ATOM     90  C   UNL A   1      46.114  33.440  27.900  1.00  0.00     0.173 A 
ATOM     91  F   UNL A   1      46.643  31.722  31.063  1.00  0.00    -0.203 F 
ATOM     92  C   UNL A   1      47.110  33.944  30.441  1.00  0.00     0.198 A 
ATOM     93  C   UNL A   1      46.615  34.699  28.217  1.00  0.00     0.198 A 
ATOM     94  F   UNL A   1      45.633  33.229  26.665  1.00  0.00    -0.203 F 
ATOM     95  F   UNL A   1      47.557  34.195  31.680  1.00  0.00    -0.200 F 
ATOM     96  C   UNL A   1      47.105  34.953  29.489  1.00  0.00     0.200 A 
ATOM     97  F   UNL A   1      46.619  35.670  27.293  1.00  0.00    -0.200 F 
ATOM     98  F   UNL A   1      47.565  36.172  29.801  1.00  0.00    -0.200 F 
ENDBRANCH  65  88
ENDBRANCH  39  40
ENDBRANCH  31  34
ENDBRANCH  29  30
ENDBRANCH  28  29
ENDBRANCH   1  28
TORSDOF 15
ENDMDL
MODEL 2
REMARK VINA RESULT:     -12.0      5.412     10.089
REMARK SMILES CN(C)Nc1ncnc(Nc2ccc(C(=O)NCCCNC(=O)c3ccc(-c4c5nc(c(-c6c(F)c(F)c(F)c(F)c6F)c6ccc([nH]6)c(-c6c(F)c(F)c(F)c(F)c6F)c6nc(c(-c7c(F)c(F)c(F)c(F)c7F)c7ccc4[nH]7)C=C6)C=C5)cc3)cc2)c1[N+](=O)[O-]
REMARK SMILES IDX 18 1 17 2 15 3 16 4 14 6 11 7 12 8 88 9 13 10 87 11 10 12
REMARK SMILES IDX 9 14 5 15 6 16 89 17 7 18 8 19 4 20 2 22 1 23 3 24 90 25
REMARK SMILES IDX 91 26 92 27 19 28 20 29 21 30 22 31 23 33 24 34 25 35 86 36
REMARK SMILES IDX 26 37 85 38 27 39 28 40 29 41 79 42 30 43 84 44 78 45 80 46
REMARK SMILES IDX 31 47 83 48 77 49 76 50 32 52 64 53 44 54 63 55 45 56 48 57
REMARK SMILES IDX 62 58 81 59 46 60 47 61 61 63 82 64 49 65 33 66 34 67 42 68
REMARK SMILES IDX 35 69 36 70 40 71 43 72 37 73 38 74 41 75 39 76 65 77 66 78
REMARK SMILES IDX 74 79 67 80 68 81 72 82 75 83 69 84 70 85 73 86 71 87 50 88
REMARK SMILES IDX 51 89 59 90 52 91 53 92 57 93 60 94 54 95 55 96 58 97 56 98
REMARK H PARENT 17 5 10 13 4 21 21 32 80 51 48 62
REMARK Flexibility Score: inf
ROOT
ATOM      1  C   UNL A   1      31.484  30.757  26.233  1.00  0.00     0.118 C 
ENDROOT
BRANCH   1   2
ATOM      2  N   UNL A   1      31.036  30.456  24.885  1.00  0.00    -0.352 N 
ATOM      3  C   UNL A   1      30.974  29.286  24.171  1.00  0.00     0.251 C 
ATOM      4  O   UNL A   1      30.481  29.329  23.044  1.00  0.00    -0.269 OA
ATOM      5  H   UNL A   1      30.715  31.242  24.387  1.00  0.00     0.163 HD
BRANCH   3   6
ATOM      6  C   UNL A   1      31.418  27.976  24.717  1.00  0.00     0.039 A 
ATOM      7  C   UNL A   1      32.406  25.480  25.589  1.00  0.00     0.040 A 
ATOM      8  C   UNL A   1      33.276  26.435  25.066  1.00  0.00     0.027 A 
ATOM      9  C   UNL A   1      31.060  25.825  25.771  1.00  0.00     0.027 A 
ATOM     10  C   UNL A   1      32.783  27.665  24.615  1.00  0.00     0.016 A 
ATOM     11  C   UNL A   1      30.573  27.068  25.355  1.00  0.00     0.016 A 
BRANCH   7  12
ATOM     12  N   UNL A   1      32.901  24.230  26.010  1.00  0.00    -0.334 N 
ATOM     13  H   UNL A   1      33.240  24.165  26.932  1.00  0.00     0.168 HD
BRANCH  12  14
ATOM     14  C   UNL A   1      32.948  23.066  25.217  1.00  0.00     0.215 A 
ATOM     15  C   UNL A   1      33.627  20.840  24.731  1.00  0.00     0.225 A 
ATOM     16  N   UNL A   1      32.885  20.848  23.604  1.00  0.00    -0.212 NA
ATOM     17  C   UNL A   1      33.751  21.975  25.509  1.00  0.00     0.354 A 
ATOM     18  C   UNL A   1      32.208  21.965  23.334  1.00  0.00     0.227 A 
ATOM     19  N   UNL A   1      32.174  23.052  24.106  1.00  0.00    -0.212 NA
BRANCH  15  20
ATOM     20  N   UNL A   1      34.103  19.563  25.046  1.00  0.00    -0.298 N 
ATOM     21  H   UNL A   1      34.804  19.490  25.733  1.00  0.00     0.184 HD
BRANCH  20  22
ATOM     22  N   UNL A   1      33.641  18.370  24.444  1.00  0.00    -0.228 NA
ATOM     23  C   UNL A   1      34.746  17.416  24.250  1.00  0.00     0.130 C 
ATOM     24  C   UNL A   1      32.662  17.765  25.364  1.00  0.00     0.130 C 
ENDBRANCH  20  22
ENDBRANCH  15  20
BRANCH  17  25
ATOM     25  N   UNL A   1      34.700  22.043  26.577  1.00  0.00     0.070 N 
ATOM     26  O   UNL A   1      34.403  21.457  27.631  1.00  0.00    -0.258 OA
ATOM     27  O   UNL A   1      35.686  22.778  26.425  1.00  0.00    -0.258 OA
ENDBRANCH  17  25
ENDBRANCH  12  14
ENDBRANCH   7  12
ENDBRANCH   3   6
ENDBRANCH   1   2
BRANCH   1  28
ATOM     28  C   UNL A   1      31.373  32.253  26.530  1.00  0.00     0.042 C 
BRANCH  28  29
ATOM     29  C   UNL A   1      32.697  32.898  26.933  1.00  0.00     0.118 C 
BRANCH  29  30
ATOM     30  N   UNL A   1      32.503  34.189  27.576  1.00  0.00    -0.352 N 
ATOM     31  C   UNL A   1      33.065  34.707  28.713  1.00  0.00     0.251 C 
ATOM     32  H   UNL A   1      31.866  34.785  27.121  1.00  0.00     0.163 HD
ATOM     33  O   UNL A   1      32.606  35.742  29.189  1.00  0.00    -0.269 OA
BRANCH  31  34
ATOM     34  C   UNL A   1      34.209  34.045  29.382  1.00  0.00     0.039 A 
ATOM     35  C   UNL A   1      35.503  34.387  28.971  1.00  0.00     0.014 A 
ATOM     36  C   UNL A   1      34.030  33.040  30.337  1.00  0.00     0.014 A 
ATOM     37  C   UNL A   1      36.609  33.743  29.530  1.00  0.00     0.010 A 
ATOM     38  C   UNL A   1      35.136  32.440  30.940  1.00  0.00     0.010 A 
ATOM     39  C   UNL A   1      36.435  32.772  30.528  1.00  0.00    -0.014 A 
BRANCH  39  40
ATOM     40  C   UNL A   1      37.608  32.079  31.122  1.00  0.00     0.031 A 
ATOM     41  C   UNL A   1      38.075  32.431  32.508  1.00  0.00     0.074 A 
ATOM     42  C   UNL A   1      38.271  31.155  30.402  1.00  0.00     0.049 A 
ATOM     43  N   UNL A   1      39.086  31.950  33.189  1.00  0.00    -0.248 NA
ATOM     44  C   UNL A   1      37.323  33.480  33.213  1.00  0.00     0.031 C 
ATOM     45  C   UNL A   1      37.945  30.761  29.031  1.00  0.00     0.029 A 
ATOM     46  N   UNL A   1      39.360  30.384  30.721  1.00  0.00    -0.354 N 
ATOM     47  C   UNL A   1      39.100  32.648  34.390  1.00  0.00     0.074 A 
ATOM     48  C   UNL A   1      38.026  33.615  34.329  1.00  0.00     0.031 C 
ATOM     49  C   UNL A   1      38.802  29.807  28.634  1.00  0.00     0.029 A 
ATOM     50  C   UNL A   1      39.751  29.539  29.711  1.00  0.00     0.049 A 
ATOM     51  H   UNL A   1      39.818  30.430  31.592  1.00  0.00     0.167 HD
ATOM     52  C   UNL A   1      39.920  32.481  35.456  1.00  0.00     0.037 A 
ATOM     53  C   UNL A   1      40.759  28.650  29.661  1.00  0.00     0.037 A 
ATOM     54  C   UNL A   1      40.966  31.495  35.528  1.00  0.00     0.049 A 
ATOM     55  C   UNL A   1      41.636  28.462  30.869  1.00  0.00     0.074 A 
ATOM     56  C   UNL A   1      41.810  31.205  36.587  1.00  0.00     0.029 A 
ATOM     57  N   UNL A   1      41.312  30.636  34.495  1.00  0.00    -0.354 N 
ATOM     58  N   UNL A   1      41.594  29.078  32.025  1.00  0.00    -0.248 NA
ATOM     59  C   UNL A   1      42.692  27.445  30.768  1.00  0.00     0.031 C 
ATOM     60  C   UNL A   1      42.689  30.195  36.182  1.00  0.00     0.029 A 
ATOM     61  C   UNL A   1      42.366  29.826  34.887  1.00  0.00     0.049 A 
ATOM     62  H   UNL A   1      40.873  30.607  33.615  1.00  0.00     0.167 HD
ATOM     63  C   UNL A   1      42.597  28.509  32.797  1.00  0.00     0.074 A 
ATOM     64  C   UNL A   1      43.220  27.486  31.983  1.00  0.00     0.031 C 
ATOM     65  C   UNL A   1      42.970  28.808  34.066  1.00  0.00     0.037 A 
BRANCH  52  66
ATOM     66  C   UNL A   1      39.713  33.385  36.636  1.00  0.00     0.064 A 
ATOM     67  C   UNL A   1      40.378  34.616  36.746  1.00  0.00     0.173 A 
ATOM     68  C   UNL A   1      38.816  33.033  37.656  1.00  0.00     0.173 A 
ATOM     69  F   UNL A   1      41.255  34.995  35.805  1.00  0.00    -0.203 F 
ATOM     70  C   UNL A   1      40.175  35.445  37.845  1.00  0.00     0.198 A 
ATOM     71  C   UNL A   1      38.593  33.879  38.740  1.00  0.00     0.198 A 
ATOM     72  F   UNL A   1      38.148  31.870  37.598  1.00  0.00    -0.203 F 
ATOM     73  F   UNL A   1      40.859  36.594  37.951  1.00  0.00    -0.200 F 
ATOM     74  C   UNL A   1      39.278  35.080  38.838  1.00  0.00     0.200 A 
ATOM     75  F   UNL A   1      37.717  33.528  39.692  1.00  0.00    -0.200 F 
ATOM     76  F   UNL A   1      39.080  35.882  39.894  1.00  0.00    -0.200 F 
ENDBRANCH  52  66
BRANCH  53  77
ATOM     77  C   UNL A   1      40.968  27.839  28.435  1.00  0.00     0.064 A 
ATOM     78  C   UNL A   1      41.847  28.268  27.430  1.00  0.00     0.173 A 
ATOM     79  C   UNL A   1      40.303  26.620  28.244  1.00  0.00     0.173 A 
ATOM     80  F   UNL A   1      42.492  29.436  27.560  1.00  0.00    -0.203 F 
ATOM     81  C   UNL A   1      42.039  27.517  26.273  1.00  0.00     0.198 A 
ATOM     82  C   UNL A   1      40.515  25.856  27.099  1.00  0.00     0.198 A 
ATOM     83  F   UNL A   1      39.456  26.164  29.179  1.00  0.00    -0.203 F 
ATOM     84  F   UNL A   1      42.855  27.968  25.311  1.00  0.00    -0.200 F 
ATOM     85  C   UNL A   1      41.378  26.309  26.111  1.00  0.00     0.200 A 
ATOM     86  F   UNL A   1      39.885  24.683  26.951  1.00  0.00    -0.200 F 
ATOM     87  F   UNL A   1      41.568  25.582  25.001  1.00  0.00    -0.200 F 
ENDBRANCH  53  77
BRANCH  65  88
ATOM     88  C   UNL A   1      44.083  27.997  34.660  1.00  0.00     0.064 A 
ATOM     89  C   UNL A   1      43.837  26.789  35.328  1.00  0.00     0.173 A 
ATOM     90  C   UNL A   1      45.415  28.422  34.536  1.00  0.00     0.173 A 
ATOM     91  F   UNL A   1      42.580  26.349  35.487  1.00  0.00    -0.203 F 
ATOM     92  C   UNL A   1      44.883  26.049  35.873  1.00  0.00     0.198 A 
ATOM     93  C   UNL A   1      46.459  27.665  35.058  1.00  0.00     0.198 A 
ATOM     94  F   UNL A   1      45.702  29.568  33.900  1.00  0.00    -0.203 F 
ATOM     95  F   UNL A   1      44.621  24.922  36.550  1.00  0.00    -0.200 F 
ATOM     96  C   UNL A   1      46.192  26.484  35.733  1.00  0.00     0.200 A 
ATOM     97  F   UNL A   1      47.725  28.082  34.913  1.00  0.00    -0.200 F 
ATOM     98  F   UNL A   1      47.197  25.768  36.257  1.00  0.00    -0.200 F 
ENDBRANCH  65  88
ENDBRANCH  39  40
ENDBRANCH  31  34
ENDBRANCH  29  30
ENDBRANCH  28  29
ENDBRANCH   1  28
TORSDOF 15
ENDMDL
MODEL 3
REMARK VINA RESULT:     -12.0      5.604     10.059
REMARK SMILES CN(C)Nc1ncnc(Nc2ccc(C(=O)NCCCNC(=O)c3ccc(-c4c5nc(c(-c6c(F)c(F)c(F)c(F)c6F)c6ccc([nH]6)c(-c6c(F)c(F)c(F)c(F)c6F)c6nc(c(-c7c(F)c(F)c(F)c(F)c7F)c7ccc4[nH]7)C=C6)C=C5)cc3)cc2)c1[N+](=O)[O-]
REMARK SMILES IDX 18 1 17 2 15 3 16 4 14 6 11 7 12 8 88 9 13 10 87 11 10 12
REMARK SMILES IDX 9 14 5 15 6 16 89 17 7 18 8 19 4 20 2 22 1 23 3 24 90 25
REMARK SMILES IDX 91 26 92 27 19 28 20 29 21 30 22 31 23 33 24 34 25 35 86 36
REMARK SMILES IDX 26 37 85 38 27 39 28 40 29 41 79 42 30 43 84 44 78 45 80 46
REMARK SMILES IDX 31 47 83 48 77 49 76 50 32 52 64 53 44 54 63 55 45 56 48 57
REMARK SMILES IDX 62 58 81 59 46 60 47 61 61 63 82 64 49 65 33 66 34 67 42 68
REMARK SMILES IDX 35 69 36 70 40 71 43 72 37 73 38 74 41 75 39 76 65 77 66 78
REMARK SMILES IDX 74 79 67 80 68 81 72 82 75 83 69 84 70 85 73 86 71 87 50 88
REMARK SMILES IDX 51 89 59 90 52 91 53 92 57 93 60 94 54 95 55 96 58 97 56 98
REMARK H PARENT 17 5 10 13 4 21 21 32 80 51 48 62
REMARK Flexibility Score: inf
ROOT
ATOM      1  C   UNL A   1      31.744  30.773  26.885  1.00  0.00     0.118 C 
ENDROOT
BRANCH   1   2
ATOM      2  N   UNL A   1      33.049  30.483  27.454  1.00  0.00    -0.352 N 
ATOM      3  C   UNL A   1      33.819  29.348  27.469  1.00  0.00     0.251 C 
ATOM      4  O   UNL A   1      34.932  29.420  27.989  1.00  0.00    -0.269 OA
ATOM      5  H   UNL A   1      33.459  31.249  27.918  1.00  0.00     0.163 HD
BRANCH   3   6
ATOM      6  C   UNL A   1      33.393  28.068  26.842  1.00  0.00     0.039 A 
ATOM      7  C   UNL A   1      32.710  25.692  25.482  1.00  0.00     0.040 A 
ATOM      8  C   UNL A   1      34.007  26.197  25.405  1.00  0.00     0.027 A 
ATOM      9  C   UNL A   1      31.792  26.326  26.329  1.00  0.00     0.027 A 
ATOM     10  C   UNL A   1      34.340  27.386  26.063  1.00  0.00     0.016 A 
ATOM     11  C   UNL A   1      32.135  27.493  27.018  1.00  0.00     0.016 A 
BRANCH   7  12
ATOM     12  N   UNL A   1      32.370  24.513  24.790  1.00  0.00    -0.334 N 
ATOM     13  H   UNL A   1      31.567  24.538  24.221  1.00  0.00     0.168 HD
BRANCH  12  14
ATOM     14  C   UNL A   1      33.086  23.301  24.847  1.00  0.00     0.215 A 
ATOM     15  C   UNL A   1      33.406  21.039  25.507  1.00  0.00     0.225 A 
ATOM     16  N   UNL A   1      34.560  20.987  24.808  1.00  0.00    -0.212 NA
ATOM     17  C   UNL A   1      32.696  22.219  25.620  1.00  0.00     0.354 A 
ATOM     18  C   UNL A   1      34.926  22.095  24.162  1.00  0.00     0.227 A 
ATOM     19  N   UNL A   1      34.224  23.229  24.117  1.00  0.00    -0.212 NA
BRANCH  15  20
ATOM     20  N   UNL A   1      32.994  19.777  25.948  1.00  0.00    -0.298 N 
ATOM     21  H   UNL A   1      33.281  19.487  26.843  1.00  0.00     0.184 HD
BRANCH  20  22
ATOM     22  N   UNL A   1      32.190  18.893  25.192  1.00  0.00    -0.228 NA
ATOM     23  C   UNL A   1      32.461  19.036  23.751  1.00  0.00     0.130 C 
ATOM     24  C   UNL A   1      32.546  17.522  25.596  1.00  0.00     0.130 C 
ENDBRANCH  20  22
ENDBRANCH  15  20
BRANCH  17  25
ATOM     25  N   UNL A   1      31.598  22.340  26.528  1.00  0.00     0.070 N 
ATOM     26  O   UNL A   1      30.489  21.949  26.125  1.00  0.00    -0.258 OA
ATOM     27  O   UNL A   1      31.797  22.934  27.596  1.00  0.00    -0.258 OA
ENDBRANCH  17  25
ENDBRANCH  12  14
ENDBRANCH   7  12
ENDBRANCH   3   6
ENDBRANCH   1   2
BRANCH   1  28
ATOM     28  C   UNL A   1      31.466  32.277  26.882  1.00  0.00     0.042 C 
BRANCH  28  29
ATOM     29  C   UNL A   1      32.727  33.134  26.973  1.00  0.00     0.118 C 
BRANCH  29  30
ATOM     30  N   UNL A   1      32.485  34.389  27.668  1.00  0.00    -0.352 N 
ATOM     31  C   UNL A   1      33.017  34.874  28.834  1.00  0.00     0.251 C 
ATOM     32  H   UNL A   1      31.836  34.985  27.231  1.00  0.00     0.163 HD
ATOM     33  O   UNL A   1      32.520  35.872  29.349  1.00  0.00    -0.269 OA
BRANCH  31  34
ATOM     34  C   UNL A   1      34.172  34.218  29.490  1.00  0.00     0.039 A 
ATOM     35  C   UNL A   1      35.459  34.560  29.060  1.00  0.00     0.014 A 
ATOM     36  C   UNL A   1      34.009  33.215  30.452  1.00  0.00     0.014 A 
ATOM     37  C   UNL A   1      36.575  33.922  29.605  1.00  0.00     0.010 A 
ATOM     38  C   UNL A   1      35.125  32.621  31.042  1.00  0.00     0.010 A 
ATOM     39  C   UNL A   1      36.418  32.955  30.610  1.00  0.00    -0.014 A 
BRANCH  39  40
ATOM     40  C   UNL A   1      37.600  32.268  31.190  1.00  0.00     0.031 A 
ATOM     41  C   UNL A   1      38.098  32.640  32.560  1.00  0.00     0.074 A 
ATOM     42  C   UNL A   1      38.245  31.330  30.471  1.00  0.00     0.049 A 
ATOM     43  N   UNL A   1      39.121  32.167  33.227  1.00  0.00    -0.248 NA
ATOM     44  C   UNL A   1      37.363  33.702  33.264  1.00  0.00     0.031 C 
ATOM     45  C   UNL A   1      37.889  30.916  29.114  1.00  0.00     0.029 A 
ATOM     46  N   UNL A   1      39.338  30.560  30.779  1.00  0.00    -0.354 N 
ATOM     47  C   UNL A   1      39.162  32.883  34.416  1.00  0.00     0.074 A 
ATOM     48  C   UNL A   1      38.091  33.853  34.362  1.00  0.00     0.031 C 
ATOM     49  C   UNL A   1      38.734  29.952  28.713  1.00  0.00     0.029 A 
ATOM     50  C   UNL A   1      39.705  29.698  29.775  1.00  0.00     0.049 A 
ATOM     51  H   UNL A   1      39.814  30.619  31.639  1.00  0.00     0.167 HD
ATOM     52  C   UNL A   1      40.004  32.730  35.467  1.00  0.00     0.037 A 
ATOM     53  C   UNL A   1      40.710  28.805  29.718  1.00  0.00     0.037 A 
ATOM     54  C   UNL A   1      41.049  31.742  35.533  1.00  0.00     0.049 A 
ATOM     55  C   UNL A   1      41.611  28.633  30.909  1.00  0.00     0.074 A 
ATOM     56  C   UNL A   1      41.914  31.466  36.578  1.00  0.00     0.029 A 
ATOM     57  N   UNL A   1      41.370  30.866  34.507  1.00  0.00    -0.354 N 
ATOM     58  N   UNL A   1      41.595  29.268  32.057  1.00  0.00    -0.248 NA
ATOM     59  C   UNL A   1      42.661  27.611  30.803  1.00  0.00     0.031 C 
ATOM     60  C   UNL A   1      42.781  30.446  36.171  1.00  0.00     0.029 A 
ATOM     61  C   UNL A   1      42.429  30.058  34.889  1.00  0.00     0.049 A 
ATOM     62  H   UNL A   1      40.912  30.824  33.637  1.00  0.00     0.167 HD
ATOM     63  C   UNL A   1      42.613  28.707  32.816  1.00  0.00     0.074 A 
ATOM     64  C   UNL A   1      43.215  27.670  32.006  1.00  0.00     0.031 C 
ATOM     65  C   UNL A   1      43.013  29.025  34.072  1.00  0.00     0.037 A 
BRANCH  52  66
ATOM     66  C   UNL A   1      39.825  33.654  36.637  1.00  0.00     0.064 A 
ATOM     67  C   UNL A   1      40.497  34.882  36.714  1.00  0.00     0.173 A 
ATOM     68  C   UNL A   1      38.946  33.321  37.680  1.00  0.00     0.173 A 
ATOM     69  F   UNL A   1      41.357  35.242  35.750  1.00  0.00    -0.203 F 
ATOM     70  C   UNL A   1      40.320  35.730  37.805  1.00  0.00     0.198 A 
ATOM     71  C   UNL A   1      38.749  34.185  38.755  1.00  0.00     0.198 A 
ATOM     72  F   UNL A   1      38.272  32.161  37.653  1.00  0.00    -0.203 F 
ATOM     73  F   UNL A   1      41.011  36.877  37.879  1.00  0.00    -0.200 F 
ATOM     74  C   UNL A   1      39.442  35.384  38.820  1.00  0.00     0.200 A 
ATOM     75  F   UNL A   1      37.890  33.854  39.730  1.00  0.00    -0.200 F 
ATOM     76  F   UNL A   1      39.268  36.203  39.867  1.00  0.00    -0.200 F 
ENDBRANCH  52  66
BRANCH  53  77
ATOM     77  C   UNL A   1      40.890  27.974  28.500  1.00  0.00     0.064 A 
ATOM     78  C   UNL A   1      41.685  28.422  27.436  1.00  0.00     0.173 A 
ATOM     79  C   UNL A   1      40.281  26.718  28.378  1.00  0.00     0.173 A 
ATOM     80  F   UNL A   1      42.273  29.625  27.500  1.00  0.00    -0.203 F 
ATOM     81  C   UNL A   1      41.850  27.651  26.287  1.00  0.00     0.198 A 
ATOM     82  C   UNL A   1      40.467  25.936  27.240  1.00  0.00     0.198 A 
ATOM     83  F   UNL A   1      39.515  26.243  29.371  1.00  0.00    -0.203 F 
ATOM     84  F   UNL A   1      42.584  28.119  25.268  1.00  0.00    -0.200 F 
ATOM     85  C   UNL A   1      41.246  26.407  26.192  1.00  0.00     0.200 A 
ATOM     86  F   UNL A   1      39.893  24.728  27.157  1.00  0.00    -0.200 F 
ATOM     87  F   UNL A   1      41.410  25.662  25.090  1.00  0.00    -0.200 F 
ENDBRANCH  53  77
BRANCH  65  88
ATOM     88  C   UNL A   1      44.136  28.220  34.656  1.00  0.00     0.064 A 
ATOM     89  C   UNL A   1      45.471  28.633  34.544  1.00  0.00     0.173 A 
ATOM     90  C   UNL A   1      43.869  27.036  35.359  1.00  0.00     0.173 A 
ATOM     91  F   UNL A   1      45.779  29.750  33.867  1.00  0.00    -0.203 F 
ATOM     92  C   UNL A   1      46.502  27.874  35.092  1.00  0.00     0.198 A 
ATOM     93  C   UNL A   1      44.900  26.294  35.929  1.00  0.00     0.198 A 
ATOM     94  F   UNL A   1      42.607  26.602  35.499  1.00  0.00    -0.203 F 
ATOM     95  F   UNL A   1      47.775  28.262  34.931  1.00  0.00    -0.200 F 
ATOM     96  C   UNL A   1      46.215  26.709  35.789  1.00  0.00     0.200 A 
ATOM     97  F   UNL A   1      44.620  25.175  36.611  1.00  0.00    -0.200 F 
ATOM     98  F   UNL A   1      47.208  25.982  36.317  1.00  0.00    -0.200 F 
ENDBRANCH  65  88
ENDBRANCH  39  40
ENDBRANCH  31  34
ENDBRANCH  29  30
ENDBRANCH  28  29
ENDBRANCH   1  28
TORSDOF 15
ENDMDL
