MODEL 1
REMARK VINA RESULT:     -12.1      0.000      0.000
REMARK SMILES O=C(COc1ccc(-c2cc3cc(Br)ccc3oc2=O)cc1)NCCCNC(=O)c1ccc(-c2c3nc(c(-c4c(F)c(F)c(F)c(F)c4F)c4ccc([nH]4)c(-c4c(F)c(F)c(F)c(F)c4F)c4nc(c(-c5c(F)c(F)c(F)c(F)c5F)c5ccc2[nH]5)C=C4)C=C3)cc1
REMARK SMILES IDX 24 1 23 2 1 3 2 4 3 6 4 7 5 8 6 9 22 10 7 11 21 12 8 13 9 14
REMARK SMILES IDX 10 15 19 16 11 17 18 18 20 19 12 20 17 21 13 22 16 23 14 24
REMARK SMILES IDX 15 25 25 26 26 27 27 28 28 29 29 31 30 32 31 33 92 34 32 35
REMARK SMILES IDX 91 36 33 37 34 38 35 39 85 40 36 41 90 42 84 43 86 44 37 45
REMARK SMILES IDX 89 46 83 47 82 48 38 50 70 51 50 52 69 53 51 54 54 55 68 56
REMARK SMILES IDX 87 57 52 58 53 59 67 61 88 62 55 63 39 64 40 65 48 66 41 67
REMARK SMILES IDX 42 68 46 69 49 70 43 71 44 72 47 73 45 74 71 75 72 76 80 77
REMARK SMILES IDX 73 78 74 79 78 80 81 81 75 82 76 83 79 84 77 85 56 86 57 87
REMARK SMILES IDX 65 88 58 89 59 90 63 91 66 92 60 93 61 94 64 95 62 96
REMARK H PARENT 23 5 27 30 86 49 54 60
REMARK Flexibility Score: inf
ROOT
ATOM      1  C   UNL A   1      34.519  34.705  27.958  1.00  0.00     0.117 C 
ENDROOT
BRANCH   1   2
ATOM      2  N   UNL A   1      34.397  35.358  29.246  1.00  0.00    -0.353 N 
ATOM      3  O   UNL A   1      32.266  36.128  28.897  1.00  0.00    -0.271 OA
ATOM      4  C   UNL A   1      33.220  35.950  29.652  1.00  0.00     0.257 C 
ATOM      5  H   UNL A   1      35.175  35.380  29.849  1.00  0.00     0.163 HD
BRANCH   4   6
ATOM      6  C   UNL A   1      33.171  36.368  31.130  1.00  0.00     0.329 C 
BRANCH   6   7
ATOM      7  O   UNL A   1      32.907  35.374  32.109  1.00  0.00    -0.484 OA
BRANCH   7   8
ATOM      8  C   UNL A   1      33.970  34.754  32.707  1.00  0.00     0.120 A 
ATOM      9  C   UNL A   1      35.150  35.497  32.733  1.00  0.00     0.047 A 
ATOM     10  C   UNL A   1      33.986  33.452  33.195  1.00  0.00     0.047 A 
ATOM     11  C   UNL A   1      36.359  34.903  33.112  1.00  0.00     0.013 A 
ATOM     12  C   UNL A   1      35.193  32.859  33.581  1.00  0.00     0.013 A 
ATOM     13  C   UNL A   1      36.408  33.546  33.457  1.00  0.00    -0.011 A 
BRANCH  13  14
ATOM     14  C   UNL A   1      37.747  32.872  33.450  1.00  0.00     0.068 A 
ATOM     15  C   UNL A   1      38.903  33.414  33.904  1.00  0.00     0.028 A 
ATOM     16  C   UNL A   1      37.672  31.486  34.054  1.00  0.00     0.344 A 
ATOM     17  C   UNL A   1      38.880  33.599  35.373  1.00  0.00     0.019 A 
ATOM     18  O   UNL A   1      37.632  31.513  35.459  1.00  0.00    -0.422 OA
ATOM     19  O   UNL A   1      37.550  30.469  33.387  1.00  0.00    -0.246 OA
ATOM     20  C   UNL A   1      39.441  34.701  36.006  1.00  0.00     0.027 A 
ATOM     21  C   UNL A   1      38.126  32.670  36.108  1.00  0.00     0.138 A 
ATOM     22  C   UNL A   1      39.158  34.907  37.358  1.00  0.00     0.018 A 
ATOM     23  C   UNL A   1      37.829  32.879  37.447  1.00  0.00     0.049 A 
ATOM     24  Br  UNL A   1      39.859  36.433  38.230  1.00  0.00    -0.051 Br
ATOM     25  C   UNL A   1      38.336  34.022  38.069  1.00  0.00     0.019 A 
ENDBRANCH  13  14
ENDBRANCH   7   8
ENDBRANCH   6   7
ENDBRANCH   4   6
ENDBRANCH   1   2
BRANCH   1  26
ATOM     26  C   UNL A   1      35.070  33.286  28.034  1.00  0.00     0.042 C 
BRANCH  26  27
ATOM     27  C   UNL A   1      34.202  32.315  28.827  1.00  0.00     0.118 C 
BRANCH  27  28
ATOM     28  N   UNL A   1      33.844  31.118  28.077  1.00  0.00    -0.352 N 
ATOM     29  C   UNL A   1      34.594  30.021  27.723  1.00  0.00     0.251 C 
ATOM     30  H   UNL A   1      32.908  31.089  27.772  1.00  0.00     0.163 HD
ATOM     31  O   UNL A   1      34.121  29.184  26.965  1.00  0.00    -0.269 OA
BRANCH  29  32
ATOM     32  C   UNL A   1      35.980  29.857  28.221  1.00  0.00     0.039 A 
ATOM     33  C   UNL A   1      36.170  29.446  29.545  1.00  0.00     0.014 A 
ATOM     34  C   UNL A   1      37.086  30.117  27.411  1.00  0.00     0.014 A 
ATOM     35  C   UNL A   1      37.460  29.204  30.022  1.00  0.00     0.010 A 
ATOM     36  C   UNL A   1      38.368  29.804  27.862  1.00  0.00     0.010 A 
ATOM     37  C   UNL A   1      38.567  29.330  29.167  1.00  0.00    -0.014 A 
BRANCH  37  38
ATOM     38  C   UNL A   1      39.929  28.923  29.603  1.00  0.00     0.031 A 
ATOM     39  C   UNL A   1      40.745  29.812  30.498  1.00  0.00     0.074 A 
ATOM     40  C   UNL A   1      40.461  27.781  29.126  1.00  0.00     0.049 A 
ATOM     41  N   UNL A   1      41.982  29.667  30.906  1.00  0.00    -0.248 NA
ATOM     42  C   UNL A   1      40.094  31.039  30.982  1.00  0.00     0.031 C 
ATOM     43  C   UNL A   1      39.787  26.849  28.220  1.00  0.00     0.029 A 
ATOM     44  N   UNL A   1      41.697  27.215  29.322  1.00  0.00    -0.354 N 
ATOM     45  C   UNL A   1      42.258  30.784  31.683  1.00  0.00     0.074 A 
ATOM     46  C   UNL A   1      41.078  31.623  31.650  1.00  0.00     0.031 C 
ATOM     47  C   UNL A   1      40.608  25.822  27.952  1.00  0.00     0.029 A 
ATOM     48  C   UNL A   1      41.884  26.045  28.626  1.00  0.00     0.049 A 
ATOM     49  H   UNL A   1      42.385  27.609  29.906  1.00  0.00     0.167 HD
ATOM     50  C   UNL A   1      43.386  31.074  32.375  1.00  0.00     0.037 A 
ATOM     51  C   UNL A   1      42.967  25.250  28.523  1.00  0.00     0.037 A 
ATOM     52  C   UNL A   1      44.555  30.232  32.413  1.00  0.00     0.049 A 
ATOM     53  C   UNL A   1      44.220  25.617  29.271  1.00  0.00     0.074 A 
ATOM     54  C   UNL A   1      45.724  30.411  33.132  1.00  0.00     0.029 A 
ATOM     55  N   UNL A   1      44.708  29.056  31.692  1.00  0.00    -0.354 N 
ATOM     56  N   UNL A   1      44.446  26.640  30.058  1.00  0.00    -0.248 NA
ATOM     57  C   UNL A   1      45.371  24.716  29.113  1.00  0.00     0.031 C 
ATOM     58  C   UNL A   1      46.606  29.379  32.800  1.00  0.00     0.029 A 
ATOM     59  C   UNL A   1      45.966  28.519  31.922  1.00  0.00     0.049 A 
ATOM     60  H   UNL A   1      44.024  28.661  31.104  1.00  0.00     0.167 HD
ATOM     61  C   UNL A   1      45.751  26.494  30.510  1.00  0.00     0.074 A 
ATOM     62  C   UNL A   1      46.260  25.271  29.925  1.00  0.00     0.031 C 
ATOM     63  C   UNL A   1      46.463  27.302  31.332  1.00  0.00     0.037 A 
BRANCH  50  64
ATOM     64  C   UNL A   1      43.418  32.362  33.148  1.00  0.00     0.064 A 
ATOM     65  C   UNL A   1      43.889  33.555  32.577  1.00  0.00     0.173 A 
ATOM     66  C   UNL A   1      42.929  32.414  34.463  1.00  0.00     0.173 A 
ATOM     67  F   UNL A   1      44.376  33.558  31.327  1.00  0.00    -0.203 F 
ATOM     68  C   UNL A   1      43.897  34.743  33.304  1.00  0.00     0.198 A 
ATOM     69  C   UNL A   1      42.907  33.612  35.173  1.00  0.00     0.198 A 
ATOM     70  F   UNL A   1      42.459  31.306  35.055  1.00  0.00    -0.203 F 
ATOM     71  F   UNL A   1      44.398  35.858  32.754  1.00  0.00    -0.200 F 
ATOM     72  C   UNL A   1      43.399  34.773  34.597  1.00  0.00     0.200 A 
ATOM     73  F   UNL A   1      42.411  33.642  36.418  1.00  0.00    -0.200 F 
ATOM     74  F   UNL A   1      43.398  35.920  35.290  1.00  0.00    -0.200 F 
ENDBRANCH  50  64
BRANCH  51  75
ATOM     75  C   UNL A   1      42.915  24.027  27.679  1.00  0.00     0.064 A 
ATOM     76  C   UNL A   1      43.244  24.077  26.317  1.00  0.00     0.173 A 
ATOM     77  C   UNL A   1      42.529  22.788  28.211  1.00  0.00     0.173 A 
ATOM     78  F   UNL A   1      43.598  25.243  25.757  1.00  0.00    -0.203 F 
ATOM     79  C   UNL A   1      43.164  22.941  25.515  1.00  0.00     0.198 A 
ATOM     80  C   UNL A   1      42.480  21.645  27.415  1.00  0.00     0.198 A 
ATOM     81  F   UNL A   1      42.207  22.684  29.509  1.00  0.00    -0.203 F 
ATOM     82  F   UNL A   1      43.433  23.028  24.205  1.00  0.00    -0.200 F 
ATOM     83  C   UNL A   1      42.790  21.725  26.066  1.00  0.00     0.200 A 
ATOM     84  F   UNL A   1      42.133  20.469  27.955  1.00  0.00    -0.200 F 
ATOM     85  F   UNL A   1      42.717  20.631  25.294  1.00  0.00    -0.200 F 
ENDBRANCH  51  75
BRANCH  63  86
ATOM     86  C   UNL A   1      47.866  26.878  31.670  1.00  0.00     0.064 A 
ATOM     87  C   UNL A   1      48.131  25.969  32.706  1.00  0.00     0.173 A 
ATOM     88  C   UNL A   1      48.953  27.360  30.926  1.00  0.00     0.173 A 
ATOM     89  F   UNL A   1      47.128  25.491  33.458  1.00  0.00    -0.203 F 
ATOM     90  C   UNL A   1      49.436  25.583  33.002  1.00  0.00     0.198 A 
ATOM     91  C   UNL A   1      50.253  26.944  31.203  1.00  0.00     0.198 A 
ATOM     92  F   UNL A   1      48.755  28.226  29.921  1.00  0.00    -0.203 F 
ATOM     93  F   UNL A   1      49.669  24.755  34.031  1.00  0.00    -0.200 F 
ATOM     94  C   UNL A   1      50.494  26.063  32.246  1.00  0.00     0.200 A 
ATOM     95  F   UNL A   1      51.273  27.397  30.461  1.00  0.00    -0.200 F 
ATOM     96  F   UNL A   1      51.748  25.682  32.527  1.00  0.00    -0.200 F 
ENDBRANCH  63  86
ENDBRANCH  37  38
ENDBRANCH  29  32
ENDBRANCH  27  28
ENDBRANCH  26  27
ENDBRANCH   1  26
TORSDOF 13
ENDMDL
MODEL 2
REMARK VINA RESULT:     -12.1      4.772     10.936
REMARK SMILES O=C(COc1ccc(-c2cc3cc(Br)ccc3oc2=O)cc1)NCCCNC(=O)c1ccc(-c2c3nc(c(-c4c(F)c(F)c(F)c(F)c4F)c4ccc([nH]4)c(-c4c(F)c(F)c(F)c(F)c4F)c4nc(c(-c5c(F)c(F)c(F)c(F)c5F)c5ccc2[nH]5)C=C4)C=C3)cc1
REMARK SMILES IDX 24 1 23 2 1 3 2 4 3 6 4 7 5 8 6 9 22 10 7 11 21 12 8 13 9 14
REMARK SMILES IDX 10 15 19 16 11 17 18 18 20 19 12 20 17 21 13 22 16 23 14 24
REMARK SMILES IDX 15 25 25 26 26 27 27 28 28 29 29 31 30 32 31 33 92 34 32 35
REMARK SMILES IDX 91 36 33 37 34 38 35 39 85 40 36 41 90 42 84 43 86 44 37 45
REMARK SMILES IDX 89 46 83 47 82 48 38 50 70 51 50 52 69 53 51 54 54 55 68 56
REMARK SMILES IDX 87 57 52 58 53 59 67 61 88 62 55 63 39 64 40 65 48 66 41 67
REMARK SMILES IDX 42 68 46 69 49 70 43 71 44 72 47 73 45 74 71 75 72 76 80 77
REMARK SMILES IDX 73 78 74 79 78 80 81 81 75 82 76 83 79 84 77 85 56 86 57 87
REMARK SMILES IDX 65 88 58 89 59 90 63 91 66 92 60 93 61 94 64 95 62 96
REMARK H PARENT 23 5 27 30 86 49 54 60
REMARK Flexibility Score: inf
ROOT
ATOM      1  C   UNL A   1      31.825  30.437  25.887  1.00  0.00     0.117 C 
ENDROOT
BRANCH   1   2
ATOM      2  N   UNL A   1      31.041  30.111  24.714  1.00  0.00    -0.353 N 
ATOM      3  O   UNL A   1      32.751  29.080  23.588  1.00  0.00    -0.271 OA
ATOM      4  C   UNL A   1      31.558  29.363  23.678  1.00  0.00     0.257 C 
ATOM      5  H   UNL A   1      30.112  30.432  24.653  1.00  0.00     0.163 HD
BRANCH   4   6
ATOM      6  C   UNL A   1      30.533  28.888  22.636  1.00  0.00     0.329 C 
BRANCH   6   7
ATOM      7  O   UNL A   1      30.535  27.520  22.255  1.00  0.00    -0.484 OA
BRANCH   7   8
ATOM      8  C   UNL A   1      30.727  26.577  23.227  1.00  0.00     0.120 A 
ATOM      9  C   UNL A   1      31.579  25.530  22.874  1.00  0.00     0.047 A 
ATOM     10  C   UNL A   1      30.091  26.537  24.463  1.00  0.00     0.047 A 
ATOM     11  C   UNL A   1      31.688  24.394  23.684  1.00  0.00     0.013 A 
ATOM     12  C   UNL A   1      30.204  25.405  25.277  1.00  0.00     0.013 A 
ATOM     13  C   UNL A   1      30.929  24.281  24.856  1.00  0.00    -0.011 A 
BRANCH  13  14
ATOM     14  C   UNL A   1      30.765  22.916  25.453  1.00  0.00     0.068 A 
ATOM     15  C   UNL A   1      31.535  21.837  25.171  1.00  0.00     0.028 A 
ATOM     16  C   UNL A   1      30.672  22.978  26.962  1.00  0.00     0.344 A 
ATOM     17  C   UNL A   1      32.919  22.009  25.669  1.00  0.00     0.019 A 
ATOM     18  O   UNL A   1      31.926  23.153  27.572  1.00  0.00    -0.422 OA
ATOM     19  O   UNL A   1      29.611  22.985  27.569  1.00  0.00    -0.246 OA
ATOM     20  C   UNL A   1      34.036  21.567  24.969  1.00  0.00     0.027 A 
ATOM     21  C   UNL A   1      33.074  22.782  26.831  1.00  0.00     0.138 A 
ATOM     22  C   UNL A   1      35.297  21.987  25.396  1.00  0.00     0.018 A 
ATOM     23  C   UNL A   1      34.324  23.216  27.248  1.00  0.00     0.049 A 
ATOM     24  Br  UNL A   1      36.830  21.450  24.425  1.00  0.00    -0.051 Br
ATOM     25  C   UNL A   1      35.443  22.829  26.507  1.00  0.00     0.019 A 
ENDBRANCH  13  14
ENDBRANCH   7   8
ENDBRANCH   6   7
ENDBRANCH   4   6
ENDBRANCH   1   2
BRANCH   1  26
ATOM     26  C   UNL A   1      31.470  31.779  26.517  1.00  0.00     0.042 C 
BRANCH  26  27
ATOM     27  C   UNL A   1      32.626  32.460  27.240  1.00  0.00     0.118 C 
BRANCH  27  28
ATOM     28  N   UNL A   1      32.373  33.866  27.533  1.00  0.00    -0.352 N 
ATOM     29  C   UNL A   1      32.986  34.725  28.415  1.00  0.00     0.251 C 
ATOM     30  H   UNL A   1      31.641  34.268  27.012  1.00  0.00     0.163 HD
ATOM     31  O   UNL A   1      32.516  35.840  28.598  1.00  0.00    -0.269 OA
BRANCH  29  32
ATOM     32  C   UNL A   1      34.188  34.303  29.173  1.00  0.00     0.039 A 
ATOM     33  C   UNL A   1      34.011  33.689  30.418  1.00  0.00     0.014 A 
ATOM     34  C   UNL A   1      35.476  34.515  28.682  1.00  0.00     0.014 A 
ATOM     35  C   UNL A   1      35.117  33.206  31.121  1.00  0.00     0.010 A 
ATOM     36  C   UNL A   1      36.574  33.968  29.346  1.00  0.00     0.010 A 
ATOM     37  C   UNL A   1      36.403  33.295  30.565  1.00  0.00    -0.014 A 
BRANCH  37  38
ATOM     38  C   UNL A   1      37.572  32.646  31.217  1.00  0.00     0.031 A 
ATOM     39  C   UNL A   1      38.275  31.494  30.556  1.00  0.00     0.074 A 
ATOM     40  C   UNL A   1      37.951  33.048  32.445  1.00  0.00     0.049 A 
ATOM     41  N   UNL A   1      39.250  30.747  31.012  1.00  0.00    -0.248 NA
ATOM     42  C   UNL A   1      37.808  31.116  29.214  1.00  0.00     0.031 C 
ATOM     43  C   UNL A   1      37.325  34.128  33.211  1.00  0.00     0.029 A 
ATOM     44  N   UNL A   1      38.942  32.586  33.276  1.00  0.00    -0.354 N 
ATOM     45  C   UNL A   1      39.505  29.809  30.021  1.00  0.00     0.074 A 
ATOM     46  C   UNL A   1      38.550  30.048  28.959  1.00  0.00     0.031 C 
ATOM     47  C   UNL A   1      37.956  34.258  34.388  1.00  0.00     0.029 A 
ATOM     48  C   UNL A   1      38.996  33.239  34.484  1.00  0.00     0.049 A 
ATOM     49  H   UNL A   1      39.555  31.856  33.031  1.00  0.00     0.167 HD
ATOM     50  C   UNL A   1      40.459  28.848  29.992  1.00  0.00     0.037 A 
ATOM     51  C   UNL A   1      39.782  33.029  35.559  1.00  0.00     0.037 A 
ATOM     52  C   UNL A   1      41.415  28.619  31.046  1.00  0.00     0.049 A 
ATOM     53  C   UNL A   1      40.808  31.928  35.514  1.00  0.00     0.074 A 
ATOM     54  C   UNL A   1      42.457  27.709  31.084  1.00  0.00     0.029 A 
ATOM     55  N   UNL A   1      41.437  29.299  32.256  1.00  0.00    -0.354 N 
ATOM     56  N   UNL A   1      41.086  31.093  34.544  1.00  0.00    -0.248 NA
ATOM     57  C   UNL A   1      41.630  31.743  36.719  1.00  0.00     0.031 C 
ATOM     58  C   UNL A   1      43.070  27.795  32.337  1.00  0.00     0.029 A 
ATOM     59  C   UNL A   1      42.453  28.803  33.060  1.00  0.00     0.049 A 
ATOM     60  H   UNL A   1      40.822  30.026  32.507  1.00  0.00     0.167 HD
ATOM     61  C   UNL A   1      42.127  30.301  35.007  1.00  0.00     0.074 A 
ATOM     62  C   UNL A   1      42.447  30.771  36.339  1.00  0.00     0.031 C 
ATOM     63  C   UNL A   1      42.760  29.276  34.386  1.00  0.00     0.037 A 
BRANCH  50  64
ATOM     64  C   UNL A   1      40.520  27.962  28.780  1.00  0.00     0.064 A 
ATOM     65  C   UNL A   1      39.799  26.759  28.708  1.00  0.00     0.173 A 
ATOM     66  C   UNL A   1      41.273  28.342  27.658  1.00  0.00     0.173 A 
ATOM     67  F   UNL A   1      39.071  26.345  29.755  1.00  0.00    -0.203 F 
ATOM     68  C   UNL A   1      39.854  25.958  27.570  1.00  0.00     0.198 A 
ATOM     69  C   UNL A   1      41.298  27.554  26.510  1.00  0.00     0.198 A 
ATOM     70  F   UNL A   1      41.974  29.485  27.668  1.00  0.00    -0.203 F 
ATOM     71  F   UNL A   1      39.197  24.790  27.544  1.00  0.00    -0.200 F 
ATOM     72  C   UNL A   1      40.596  26.358  26.470  1.00  0.00     0.200 A 
ATOM     73  F   UNL A   1      42.002  27.951  25.441  1.00  0.00    -0.200 F 
ATOM     74  F   UNL A   1      40.639  25.590  25.373  1.00  0.00    -0.200 F 
ENDBRANCH  50  64
BRANCH  51  75
ATOM     75  C   UNL A   1      39.631  33.879  36.769  1.00  0.00     0.064 A 
ATOM     76  C   UNL A   1      38.827  33.470  37.842  1.00  0.00     0.173 A 
ATOM     77  C   UNL A   1      40.277  35.120  36.875  1.00  0.00     0.173 A 
ATOM     78  F   UNL A   1      38.171  32.301  37.778  1.00  0.00    -0.203 F 
ATOM     79  C   UNL A   1      38.655  34.278  38.963  1.00  0.00     0.198 A 
ATOM     80  C   UNL A   1      40.130  35.914  38.012  1.00  0.00     0.198 A 
ATOM     81  F   UNL A   1      41.060  35.558  35.879  1.00  0.00    -0.203 F 
ATOM     82  F   UNL A   1      37.839  33.885  39.951  1.00  0.00    -0.200 F 
ATOM     83  C   UNL A   1      39.313  35.496  39.050  1.00  0.00     0.200 A 
ATOM     84  F   UNL A   1      40.779  37.082  38.099  1.00  0.00    -0.200 F 
ATOM     85  F   UNL A   1      39.149  36.271  40.131  1.00  0.00    -0.200 F 
ENDBRANCH  51  75
BRANCH  63  86
ATOM     86  C   UNL A   1      43.880  28.605  35.131  1.00  0.00     0.064 A 
ATOM     87  C   UNL A   1      43.652  27.500  35.966  1.00  0.00     0.173 A 
ATOM     88  C   UNL A   1      45.202  29.051  34.981  1.00  0.00     0.173 A 
ATOM     89  F   UNL A   1      42.405  27.044  36.155  1.00  0.00    -0.203 F 
ATOM     90  C   UNL A   1      44.702  26.886  36.644  1.00  0.00     0.198 A 
ATOM     91  C   UNL A   1      46.254  28.413  35.634  1.00  0.00     0.198 A 
ATOM     92  F   UNL A   1      45.477  30.100  34.191  1.00  0.00    -0.203 F 
ATOM     93  F   UNL A   1      44.452  25.866  37.477  1.00  0.00    -0.200 F 
ATOM     94  C   UNL A   1      46.002  27.337  36.472  1.00  0.00     0.200 A 
ATOM     95  F   UNL A   1      47.511  28.840  35.453  1.00  0.00    -0.200 F 
ATOM     96  F   UNL A   1      47.012  26.739  37.118  1.00  0.00    -0.200 F 
ENDBRANCH  63  86
ENDBRANCH  37  38
ENDBRANCH  29  32
ENDBRANCH  27  28
ENDBRANCH  26  27
ENDBRANCH   1  26
TORSDOF 13
ENDMDL
MODEL 3
REMARK VINA RESULT:     -11.9      4.794     11.064
REMARK SMILES O=C(COc1ccc(-c2cc3cc(Br)ccc3oc2=O)cc1)NCCCNC(=O)c1ccc(-c2c3nc(c(-c4c(F)c(F)c(F)c(F)c4F)c4ccc([nH]4)c(-c4c(F)c(F)c(F)c(F)c4F)c4nc(c(-c5c(F)c(F)c(F)c(F)c5F)c5ccc2[nH]5)C=C4)C=C3)cc1
REMARK SMILES IDX 24 1 23 2 1 3 2 4 3 6 4 7 5 8 6 9 22 10 7 11 21 12 8 13 9 14
REMARK SMILES IDX 10 15 19 16 11 17 18 18 20 19 12 20 17 21 13 22 16 23 14 24
REMARK SMILES IDX 15 25 25 26 26 27 27 28 28 29 29 31 30 32 31 33 92 34 32 35
REMARK SMILES IDX 91 36 33 37 34 38 35 39 85 40 36 41 90 42 84 43 86 44 37 45
REMARK SMILES IDX 89 46 83 47 82 48 38 50 70 51 50 52 69 53 51 54 54 55 68 56
REMARK SMILES IDX 87 57 52 58 53 59 67 61 88 62 55 63 39 64 40 65 48 66 41 67
REMARK SMILES IDX 42 68 46 69 49 70 43 71 44 72 47 73 45 74 71 75 72 76 80 77
REMARK SMILES IDX 73 78 74 79 78 80 81 81 75 82 76 83 79 84 77 85 56 86 57 87
REMARK SMILES IDX 65 88 58 89 59 90 63 91 66 92 60 93 61 94 64 95 62 96
REMARK H PARENT 23 5 27 30 86 49 54 60
REMARK Flexibility Score: inf
ROOT
ATOM      1  C   UNL A   1      31.775  30.463  26.313  1.00  0.00     0.117 C 
ENDROOT
BRANCH   1   2
ATOM      2  N   UNL A   1      31.392  29.989  24.998  1.00  0.00    -0.353 N 
ATOM      3  O   UNL A   1      33.334  28.834  24.610  1.00  0.00    -0.271 OA
ATOM      4  C   UNL A   1      32.184  29.120  24.280  1.00  0.00     0.257 C 
ATOM      5  H   UNL A   1      30.542  30.296  24.606  1.00  0.00     0.163 HD
BRANCH   4   6
ATOM      6  C   UNL A   1      31.527  28.513  23.030  1.00  0.00     0.329 C 
BRANCH   6   7
ATOM      7  O   UNL A   1      32.127  27.374  22.432  1.00  0.00    -0.484 OA
BRANCH   7   8
ATOM      8  C   UNL A   1      31.735  26.135  22.859  1.00  0.00     0.120 A 
ATOM      9  C   UNL A   1      30.723  26.132  23.818  1.00  0.00     0.047 A 
ATOM     10  C   UNL A   1      32.312  24.924  22.489  1.00  0.00     0.047 A 
ATOM     11  C   UNL A   1      30.384  24.956  24.496  1.00  0.00     0.013 A 
ATOM     12  C   UNL A   1      31.970  23.746  23.161  1.00  0.00     0.013 A 
ATOM     13  C   UNL A   1      31.070  23.763  24.236  1.00  0.00    -0.011 A 
BRANCH  13  14
ATOM     14  C   UNL A   1      30.967  22.662  25.249  1.00  0.00     0.068 A 
ATOM     15  C   UNL A   1      31.778  21.579  25.319  1.00  0.00     0.028 A 
ATOM     16  C   UNL A   1      30.884  23.212  26.656  1.00  0.00     0.344 A 
ATOM     17  C   UNL A   1      33.158  21.954  25.703  1.00  0.00     0.019 A 
ATOM     18  O   UNL A   1      32.136  23.621  27.149  1.00  0.00    -0.422 OA
ATOM     19  O   UNL A   1      29.830  23.379  27.251  1.00  0.00    -0.246 OA
ATOM     20  C   UNL A   1      34.286  21.347  25.162  1.00  0.00     0.027 A 
ATOM     21  C   UNL A   1      33.291  23.069  26.545  1.00  0.00     0.138 A 
ATOM     22  C   UNL A   1      35.532  21.929  25.401  1.00  0.00     0.018 A 
ATOM     23  C   UNL A   1      34.526  23.660  26.771  1.00  0.00     0.049 A 
ATOM     24  Br  UNL A   1      37.077  21.159  24.626  1.00  0.00    -0.051 Br
ATOM     25  C   UNL A   1      35.654  23.092  26.173  1.00  0.00     0.019 A 
ENDBRANCH  13  14
ENDBRANCH   7   8
ENDBRANCH   6   7
ENDBRANCH   4   6
ENDBRANCH   1   2
BRANCH   1  26
ATOM     26  C   UNL A   1      31.593  31.964  26.507  1.00  0.00     0.042 C 
BRANCH  26  27
ATOM     27  C   UNL A   1      32.735  32.646  27.251  1.00  0.00     0.118 C 
BRANCH  27  28
ATOM     28  N   UNL A   1      32.451  34.032  27.598  1.00  0.00    -0.352 N 
ATOM     29  C   UNL A   1      33.022  34.860  28.536  1.00  0.00     0.251 C 
ATOM     30  H   UNL A   1      31.729  34.447  27.073  1.00  0.00     0.163 HD
ATOM     31  O   UNL A   1      32.529  35.959  28.753  1.00  0.00    -0.269 OA
BRANCH  29  32
ATOM     32  C   UNL A   1      34.207  34.423  29.311  1.00  0.00     0.039 A 
ATOM     33  C   UNL A   1      34.007  33.856  30.574  1.00  0.00     0.014 A 
ATOM     34  C   UNL A   1      35.504  34.578  28.818  1.00  0.00     0.014 A 
ATOM     35  C   UNL A   1      35.095  33.359  31.296  1.00  0.00     0.010 A 
ATOM     36  C   UNL A   1      36.580  34.016  29.504  1.00  0.00     0.010 A 
ATOM     37  C   UNL A   1      36.385  33.388  30.743  1.00  0.00    -0.014 A 
BRANCH  37  38
ATOM     38  C   UNL A   1      37.529  32.722  31.419  1.00  0.00     0.031 A 
ATOM     39  C   UNL A   1      38.208  31.538  30.789  1.00  0.00     0.074 A 
ATOM     40  C   UNL A   1      37.907  33.139  32.643  1.00  0.00     0.049 A 
ATOM     41  N   UNL A   1      39.159  30.775  31.270  1.00  0.00    -0.248 NA
ATOM     42  C   UNL A   1      37.744  31.146  29.450  1.00  0.00     0.031 C 
ATOM     43  C   UNL A   1      37.304  34.251  33.380  1.00  0.00     0.029 A 
ATOM     44  N   UNL A   1      38.878  32.668  33.493  1.00  0.00    -0.354 N 
ATOM     45  C   UNL A   1      39.398  29.811  30.300  1.00  0.00     0.074 A 
ATOM     46  C   UNL A   1      38.459  30.053  29.224  1.00  0.00     0.031 C 
ATOM     47  C   UNL A   1      37.926  34.387  34.560  1.00  0.00     0.029 A 
ATOM     48  C   UNL A   1      38.939  33.344  34.687  1.00  0.00     0.049 A 
ATOM     49  H   UNL A   1      39.474  31.918  33.268  1.00  0.00     0.167 HD
ATOM     50  C   UNL A   1      40.327  28.824  30.299  1.00  0.00     0.037 A 
ATOM     51  C   UNL A   1      39.708  33.135  35.774  1.00  0.00     0.037 A 
ATOM     52  C   UNL A   1      41.266  28.592  31.368  1.00  0.00     0.049 A 
ATOM     53  C   UNL A   1      40.705  32.007  35.762  1.00  0.00     0.074 A 
ATOM     54  C   UNL A   1      42.283  27.656  31.434  1.00  0.00     0.029 A 
ATOM     55  N   UNL A   1      41.295  29.296  32.564  1.00  0.00    -0.354 N 
ATOM     56  N   UNL A   1      40.970  31.146  34.811  1.00  0.00    -0.248 NA
ATOM     57  C   UNL A   1      41.510  31.825  36.978  1.00  0.00     0.031 C 
ATOM     58  C   UNL A   1      42.887  27.752  32.692  1.00  0.00     0.029 A 
ATOM     59  C   UNL A   1      42.289  28.790  33.388  1.00  0.00     0.049 A 
ATOM     60  H   UNL A   1      40.697  30.044  32.794  1.00  0.00     0.167 HD
ATOM     61  C   UNL A   1      41.985  30.336  35.301  1.00  0.00     0.074 A 
ATOM     62  C   UNL A   1      42.305  30.824  36.626  1.00  0.00     0.031 C 
ATOM     63  C   UNL A   1      42.596  29.282  34.707  1.00  0.00     0.037 A 
BRANCH  50  64
ATOM     64  C   UNL A   1      40.375  27.913  29.107  1.00  0.00     0.064 A 
ATOM     65  C   UNL A   1      39.637  26.719  29.059  1.00  0.00     0.173 A 
ATOM     66  C   UNL A   1      41.133  28.259  27.977  1.00  0.00     0.173 A 
ATOM     67  F   UNL A   1      38.903  26.338  30.115  1.00  0.00    -0.203 F 
ATOM     68  C   UNL A   1      39.682  25.893  27.939  1.00  0.00     0.198 A 
ATOM     69  C   UNL A   1      41.147  27.447  26.846  1.00  0.00     0.198 A 
ATOM     70  F   UNL A   1      41.851  29.392  27.964  1.00  0.00    -0.203 F 
ATOM     71  F   UNL A   1      39.008  24.735  27.937  1.00  0.00    -0.200 F 
ATOM     72  C   UNL A   1      40.429  26.260  26.830  1.00  0.00     0.200 A 
ATOM     73  F   UNL A   1      41.858  27.811  25.769  1.00  0.00    -0.200 F 
ATOM     74  F   UNL A   1      40.461  25.469  25.750  1.00  0.00    -0.200 F 
ENDBRANCH  50  64
BRANCH  51  75
ATOM     75  C   UNL A   1      39.569  34.014  36.965  1.00  0.00     0.064 A 
ATOM     76  C   UNL A   1      40.236  35.245  37.034  1.00  0.00     0.173 A 
ATOM     77  C   UNL A   1      38.777  33.640  38.060  1.00  0.00     0.173 A 
ATOM     78  F   UNL A   1      41.024  35.636  36.021  1.00  0.00    -0.203 F 
ATOM     79  C   UNL A   1      40.137  36.056  38.162  1.00  0.00     0.198 A 
ATOM     80  C   UNL A   1      38.651  34.468  39.175  1.00  0.00     0.198 A 
ATOM     81  F   UNL A   1      38.114  32.475  38.045  1.00  0.00    -0.203 F 
ATOM     82  F   UNL A   1      40.828  37.203  38.223  1.00  0.00    -0.200 F 
ATOM     83  C   UNL A   1      39.339  35.670  39.228  1.00  0.00     0.200 A 
ATOM     84  F   UNL A   1      37.867  34.098  40.196  1.00  0.00    -0.200 F 
ATOM     85  F   UNL A   1      39.240  36.453  40.312  1.00  0.00    -0.200 F 
ENDBRANCH  51  75
BRANCH  63  86
ATOM     86  C   UNL A   1      43.691  28.597  35.476  1.00  0.00     0.064 A 
ATOM     87  C   UNL A   1      45.038  28.964  35.327  1.00  0.00     0.173 A 
ATOM     88  C   UNL A   1      43.387  27.585  36.399  1.00  0.00     0.173 A 
ATOM     89  F   UNL A   1      45.384  29.915  34.446  1.00  0.00    -0.203 F 
ATOM     90  C   UNL A   1      46.039  28.322  36.051  1.00  0.00     0.198 A 
ATOM     91  C   UNL A   1      44.387  26.969  37.147  1.00  0.00     0.198 A 
ATOM     92  F   UNL A   1      42.115  27.199  36.585  1.00  0.00    -0.203 F 
ATOM     93  F   UNL A   1      47.323  28.654  35.853  1.00  0.00    -0.200 F 
ATOM     94  C   UNL A   1      45.713  27.333  36.966  1.00  0.00     0.200 A 
ATOM     95  F   UNL A   1      44.068  26.025  38.042  1.00  0.00    -0.200 F 
ATOM     96  F   UNL A   1      46.678  26.724  37.669  1.00  0.00    -0.200 F 
ENDBRANCH  63  86
ENDBRANCH  37  38
ENDBRANCH  29  32
ENDBRANCH  27  28
ENDBRANCH  26  27
ENDBRANCH   1  26
TORSDOF 13
ENDMDL
