MODEL 1
REMARK VINA RESULT:     -12.0      0.000      0.000
REMARK SMILES CC(C)(C)c1ccc(NC(=O)CCC(=O)NCCCNC(=O)c2ccc(-c3c4nc(c(-c5c(F)c(F)c(F)c(F)c5F)c5ccc([nH]5)c(-c5c(F)c(F)c(F)c(F)c5F)c5nc(c(-c6c(F)c(F)c(F)c(F)c6F)c6ccc3[nH]6)C=C5)C=C4)cc2)cc1
REMARK SMILES IDX 17 1 16 2 14 3 15 4 13 6 12 7 10 8 9 9 11 11 8 12 5 13 6 14
REMARK SMILES IDX 87 15 7 16 86 17 2 18 1 19 3 20 4 21 18 22 19 23 20 24 21 25
REMARK SMILES IDX 22 27 23 28 24 29 85 30 25 31 84 32 26 33 27 34 28 35 78 36
REMARK SMILES IDX 29 37 83 38 77 39 79 40 30 41 82 42 76 43 75 44 31 46 63 47
REMARK SMILES IDX 43 48 62 49 44 50 47 51 61 52 80 53 45 54 46 55 60 57 81 58
REMARK SMILES IDX 48 59 32 60 33 61 41 62 34 63 35 64 39 65 42 66 36 67 37 68
REMARK SMILES IDX 40 69 38 70 64 71 65 72 73 73 66 74 67 75 71 76 74 77 68 78
REMARK SMILES IDX 69 79 72 80 70 81 49 82 50 83 58 84 51 85 52 86 56 87 59 88
REMARK SMILES IDX 53 89 54 90 57 91 55 92
REMARK H PARENT 16 5 9 10 20 26 79 45 47 56
REMARK Flexibility Score: inf
ROOT
ATOM      1  C   UNL A   1      37.407  20.903  24.746  1.00  0.00     0.117 C 
ENDROOT
BRANCH   1   2
ATOM      2  N   UNL A   1      38.033  22.174  25.080  1.00  0.00    -0.356 N 
ATOM      3  C   UNL A   1      37.537  23.253  25.747  1.00  0.00     0.220 C 
ATOM      4  O   UNL A   1      38.327  24.120  26.123  1.00  0.00    -0.275 OA
ATOM      5  H   UNL A   1      38.962  22.269  24.773  1.00  0.00     0.163 HD
BRANCH   3   6
ATOM      6  C   UNL A   1      36.056  23.391  26.011  1.00  0.00     0.110 C 
BRANCH   6   7
ATOM      7  C   UNL A   1      35.301  24.112  24.900  1.00  0.00     0.110 C 
BRANCH   7   8
ATOM      8  C   UNL A   1      33.901  24.539  25.290  1.00  0.00     0.224 C 
ATOM      9  N   UNL A   1      32.849  23.671  25.351  1.00  0.00    -0.326 N 
ATOM     10  H   UNL A   1      32.004  24.075  25.657  1.00  0.00     0.169 HD
ATOM     11  O   UNL A   1      33.709  25.696  25.685  1.00  0.00    -0.275 OA
BRANCH   9  12
ATOM     12  C   UNL A   1      32.764  22.304  25.052  1.00  0.00     0.041 A 
ATOM     13  C   UNL A   1      33.002  19.535  24.495  1.00  0.00    -0.042 A 
ATOM     14  C   UNL A   1      32.527  20.438  23.532  1.00  0.00     0.006 A 
ATOM     15  C   UNL A   1      33.254  20.046  25.780  1.00  0.00     0.006 A 
ATOM     16  C   UNL A   1      32.401  21.804  23.811  1.00  0.00     0.026 A 
ATOM     17  C   UNL A   1      33.098  21.407  26.065  1.00  0.00     0.026 A 
BRANCH  13  18
ATOM     18  C   UNL A   1      33.282  18.059  24.169  1.00  0.00    -0.013 C 
ATOM     19  C   UNL A   1      34.778  17.681  24.248  1.00  0.00     0.016 C 
ATOM     20  C   UNL A   1      32.800  17.723  22.743  1.00  0.00     0.016 C 
ATOM     21  C   UNL A   1      32.528  17.172  25.184  1.00  0.00     0.016 C 
ENDBRANCH  13  18
ENDBRANCH   9  12
ENDBRANCH   7   8
ENDBRANCH   6   7
ENDBRANCH   3   6
ENDBRANCH   1   2
BRANCH   1  22
ATOM     22  C   UNL A   1      38.289  19.687  25.008  1.00  0.00     0.042 C 
BRANCH  22  23
ATOM     23  C   UNL A   1      39.317  19.858  26.121  1.00  0.00     0.118 C 
BRANCH  23  24
ATOM     24  N   UNL A   1      40.437  18.941  26.022  1.00  0.00    -0.352 N 
ATOM     25  C   UNL A   1      41.786  19.198  26.103  1.00  0.00     0.251 C 
ATOM     26  H   UNL A   1      40.198  17.998  25.874  1.00  0.00     0.163 HD
ATOM     27  O   UNL A   1      42.594  18.299  25.908  1.00  0.00    -0.269 OA
BRANCH  25  28
ATOM     28  C   UNL A   1      42.274  20.567  26.394  1.00  0.00     0.039 A 
ATOM     29  C   UNL A   1      42.639  21.381  25.318  1.00  0.00     0.014 A 
ATOM     30  C   UNL A   1      42.403  21.040  27.703  1.00  0.00     0.014 A 
ATOM     31  C   UNL A   1      43.086  22.685  25.549  1.00  0.00     0.010 A 
ATOM     32  C   UNL A   1      42.800  22.361  27.930  1.00  0.00     0.010 A 
ATOM     33  C   UNL A   1      43.150  23.196  26.856  1.00  0.00    -0.014 A 
BRANCH  33  34
ATOM     34  C   UNL A   1      43.598  24.594  27.101  1.00  0.00     0.031 A 
ATOM     35  C   UNL A   1      42.629  25.624  27.614  1.00  0.00     0.074 A 
ATOM     36  C   UNL A   1      44.871  24.949  26.836  1.00  0.00     0.049 A 
ATOM     37  N   UNL A   1      42.827  26.895  27.869  1.00  0.00    -0.248 NA
ATOM     38  C   UNL A   1      41.250  25.174  27.858  1.00  0.00     0.031 C 
ATOM     39  C   UNL A   1      45.902  24.060  26.299  1.00  0.00     0.029 A 
ATOM     40  N   UNL A   1      45.513  26.156  26.976  1.00  0.00    -0.354 N 
ATOM     41  C   UNL A   1      41.601  27.394  28.287  1.00  0.00     0.074 A 
ATOM     42  C   UNL A   1      40.653  26.303  28.215  1.00  0.00     0.031 C 
ATOM     43  C   UNL A   1      47.049  24.747  26.167  1.00  0.00     0.029 A 
ATOM     44  C   UNL A   1      46.830  26.130  26.583  1.00  0.00     0.049 A 
ATOM     45  H   UNL A   1      45.072  26.963  27.326  1.00  0.00     0.167 HD
ATOM     46  C   UNL A   1      41.297  28.644  28.715  1.00  0.00     0.037 A 
ATOM     47  C   UNL A   1      47.755  27.110  26.556  1.00  0.00     0.037 A 
ATOM     48  C   UNL A   1      42.244  29.722  28.824  1.00  0.00     0.049 A 
ATOM     49  C   UNL A   1      47.389  28.488  27.042  1.00  0.00     0.074 A 
ATOM     50  C   UNL A   1      42.040  31.001  29.314  1.00  0.00     0.029 A 
ATOM     51  N   UNL A   1      43.573  29.649  28.437  1.00  0.00    -0.354 N 
ATOM     52  N   UNL A   1      46.245  28.925  27.511  1.00  0.00    -0.248 NA
ATOM     53  C   UNL A   1      48.446  29.510  27.003  1.00  0.00     0.031 C 
ATOM     54  C   UNL A   1      43.234  31.717  29.182  1.00  0.00     0.029 A 
ATOM     55  C   UNL A   1      44.195  30.869  28.655  1.00  0.00     0.049 A 
ATOM     56  H   UNL A   1      44.010  28.851  28.061  1.00  0.00     0.167 HD
ATOM     57  C   UNL A   1      46.455  30.254  27.851  1.00  0.00     0.074 A 
ATOM     58  C   UNL A   1      47.837  30.553  27.548  1.00  0.00     0.031 C 
ATOM     59  C   UNL A   1      45.577  31.149  28.367  1.00  0.00     0.037 A 
BRANCH  46  60
ATOM     60  C   UNL A   1      39.876  28.921  29.111  1.00  0.00     0.064 A 
ATOM     61  C   UNL A   1      38.924  29.346  28.173  1.00  0.00     0.173 A 
ATOM     62  C   UNL A   1      39.447  28.692  30.426  1.00  0.00     0.173 A 
ATOM     63  F   UNL A   1      39.286  29.588  26.905  1.00  0.00    -0.203 F 
ATOM     64  C   UNL A   1      37.597  29.549  28.544  1.00  0.00     0.198 A 
ATOM     65  C   UNL A   1      38.115  28.869  30.787  1.00  0.00     0.198 A 
ATOM     66  F   UNL A   1      40.318  28.276  31.359  1.00  0.00    -0.203 F 
ATOM     67  F   UNL A   1      36.711  29.989  27.639  1.00  0.00    -0.200 F 
ATOM     68  C   UNL A   1      37.191  29.302  29.847  1.00  0.00     0.200 A 
ATOM     69  F   UNL A   1      37.722  28.617  32.043  1.00  0.00    -0.200 F 
ATOM     70  F   UNL A   1      35.911  29.484  30.198  1.00  0.00    -0.200 F 
ENDBRANCH  46  60
BRANCH  47  71
ATOM     71  C   UNL A   1      49.128  26.828  26.061  1.00  0.00     0.064 A 
ATOM     72  C   UNL A   1      49.467  27.030  24.715  1.00  0.00     0.173 A 
ATOM     73  C   UNL A   1      50.118  26.318  26.914  1.00  0.00     0.173 A 
ATOM     74  F   UNL A   1      48.547  27.493  23.856  1.00  0.00    -0.203 F 
ATOM     75  C   UNL A   1      50.734  26.704  24.236  1.00  0.00     0.198 A 
ATOM     76  C   UNL A   1      51.394  26.021  26.439  1.00  0.00     0.198 A 
ATOM     77  F   UNL A   1      49.845  26.108  28.210  1.00  0.00    -0.203 F 
ATOM     78  F   UNL A   1      51.013  26.851  22.933  1.00  0.00    -0.200 F 
ATOM     79  C   UNL A   1      51.698  26.203  25.098  1.00  0.00     0.200 A 
ATOM     80  F   UNL A   1      52.325  25.546  27.278  1.00  0.00    -0.200 F 
ATOM     81  F   UNL A   1      52.914  25.885  24.636  1.00  0.00    -0.200 F 
ENDBRANCH  47  71
BRANCH  59  82
ATOM     82  C   UNL A   1      46.091  32.525  28.678  1.00  0.00     0.064 A 
ATOM     83  C   UNL A   1      46.017  33.567  27.742  1.00  0.00     0.173 A 
ATOM     84  C   UNL A   1      46.616  32.816  29.946  1.00  0.00     0.173 A 
ATOM     85  F   UNL A   1      45.535  33.337  26.512  1.00  0.00    -0.203 F 
ATOM     86  C   UNL A   1      46.470  34.846  28.059  1.00  0.00     0.198 A 
ATOM     87  C   UNL A   1      47.042  34.101  30.269  1.00  0.00     0.198 A 
ATOM     88  F   UNL A   1      46.702  31.855  30.879  1.00  0.00    -0.203 F 
ATOM     89  F   UNL A   1      46.428  35.816  27.136  1.00  0.00    -0.200 F 
ATOM     90  C   UNL A   1      46.974  35.113  29.322  1.00  0.00     0.200 A 
ATOM     91  F   UNL A   1      47.516  34.361  31.494  1.00  0.00    -0.200 F 
ATOM     92  F   UNL A   1      47.400  36.347  29.628  1.00  0.00    -0.200 F 
ENDBRANCH  59  82
ENDBRANCH  33  34
ENDBRANCH  25  28
ENDBRANCH  23  24
ENDBRANCH  22  23
ENDBRANCH   1  22
TORSDOF 14
ENDMDL
MODEL 2
REMARK VINA RESULT:     -12.0      5.989     10.247
REMARK SMILES CC(C)(C)c1ccc(NC(=O)CCC(=O)NCCCNC(=O)c2ccc(-c3c4nc(c(-c5c(F)c(F)c(F)c(F)c5F)c5ccc([nH]5)c(-c5c(F)c(F)c(F)c(F)c5F)c5nc(c(-c6c(F)c(F)c(F)c(F)c6F)c6ccc3[nH]6)C=C5)C=C4)cc2)cc1
REMARK SMILES IDX 17 1 16 2 14 3 15 4 13 6 12 7 10 8 9 9 11 11 8 12 5 13 6 14
REMARK SMILES IDX 87 15 7 16 86 17 2 18 1 19 3 20 4 21 18 22 19 23 20 24 21 25
REMARK SMILES IDX 22 27 23 28 24 29 85 30 25 31 84 32 26 33 27 34 28 35 78 36
REMARK SMILES IDX 29 37 83 38 77 39 79 40 30 41 82 42 76 43 75 44 31 46 63 47
REMARK SMILES IDX 43 48 62 49 44 50 47 51 61 52 80 53 45 54 46 55 60 57 81 58
REMARK SMILES IDX 48 59 32 60 33 61 41 62 34 63 35 64 39 65 42 66 36 67 37 68
REMARK SMILES IDX 40 69 38 70 64 71 65 72 73 73 66 74 67 75 71 76 74 77 68 78
REMARK SMILES IDX 69 79 72 80 70 81 49 82 50 83 58 84 51 85 52 86 56 87 59 88
REMARK SMILES IDX 53 89 54 90 57 91 55 92
REMARK H PARENT 16 5 9 10 20 26 79 45 47 56
REMARK Flexibility Score: inf
ROOT
ATOM      1  C   UNL A   1      31.791  30.547  26.722  1.00  0.00     0.117 C 
ENDROOT
BRANCH   1   2
ATOM      2  N   UNL A   1      32.943  30.109  27.494  1.00  0.00    -0.356 N 
ATOM      3  C   UNL A   1      33.981  29.298  27.148  1.00  0.00     0.220 C 
ATOM      4  O   UNL A   1      34.967  29.263  27.886  1.00  0.00    -0.275 OA
ATOM      5  H   UNL A   1      32.977  30.452  28.416  1.00  0.00     0.163 HD
BRANCH   3   6
ATOM      6  C   UNL A   1      33.924  28.454  25.896  1.00  0.00     0.110 C 
BRANCH   6   7
ATOM      7  C   UNL A   1      33.391  27.046  26.131  1.00  0.00     0.110 C 
BRANCH   7   8
ATOM      8  C   UNL A   1      33.631  26.100  24.971  1.00  0.00     0.224 C 
ATOM      9  N   UNL A   1      32.897  26.134  23.820  1.00  0.00    -0.326 N 
ATOM     10  H   UNL A   1      33.185  25.490  23.133  1.00  0.00     0.169 HD
ATOM     11  O   UNL A   1      34.602  25.335  25.005  1.00  0.00    -0.275 OA
BRANCH   9  12
ATOM     12  C   UNL A   1      31.803  26.929  23.448  1.00  0.00     0.041 A 
ATOM     13  C   UNL A   1      29.762  28.827  22.935  1.00  0.00    -0.042 A 
ATOM     14  C   UNL A   1      29.487  27.613  23.583  1.00  0.00     0.006 A 
ATOM     15  C   UNL A   1      31.070  29.015  22.457  1.00  0.00     0.006 A 
ATOM     16  C   UNL A   1      30.495  26.673  23.828  1.00  0.00     0.026 A 
ATOM     17  C   UNL A   1      32.068  28.059  22.676  1.00  0.00     0.026 A 
BRANCH  13  18
ATOM     18  C   UNL A   1      28.705  29.932  22.781  1.00  0.00    -0.013 C 
ATOM     19  C   UNL A   1      27.271  29.469  23.121  1.00  0.00     0.016 C 
ATOM     20  C   UNL A   1      28.683  30.457  21.331  1.00  0.00     0.016 C 
ATOM     21  C   UNL A   1      29.053  31.094  23.737  1.00  0.00     0.016 C 
ENDBRANCH  13  18
ENDBRANCH   9  12
ENDBRANCH   7   8
ENDBRANCH   6   7
ENDBRANCH   3   6
ENDBRANCH   1   2
BRANCH   1  22
ATOM     22  C   UNL A   1      31.485  32.036  26.849  1.00  0.00     0.042 C 
BRANCH  22  23
ATOM     23  C   UNL A   1      32.706  32.941  26.968  1.00  0.00     0.118 C 
BRANCH  23  24
ATOM     24  N   UNL A   1      32.428  34.204  27.626  1.00  0.00    -0.352 N 
ATOM     25  C   UNL A   1      33.058  34.785  28.702  1.00  0.00     0.251 C 
ATOM     26  H   UNL A   1      31.681  34.721  27.247  1.00  0.00     0.163 HD
ATOM     27  O   UNL A   1      32.624  35.827  29.177  1.00  0.00    -0.269 OA
BRANCH  25  28
ATOM     28  C   UNL A   1      34.242  34.140  29.318  1.00  0.00     0.039 A 
ATOM     29  C   UNL A   1      34.029  33.157  30.288  1.00  0.00     0.014 A 
ATOM     30  C   UNL A   1      35.545  34.513  28.976  1.00  0.00     0.014 A 
ATOM     31  C   UNL A   1      35.119  32.512  30.879  1.00  0.00     0.010 A 
ATOM     32  C   UNL A   1      36.632  33.832  29.529  1.00  0.00     0.010 A 
ATOM     33  C   UNL A   1      36.432  32.827  30.490  1.00  0.00    -0.014 A 
BRANCH  33  34
ATOM     34  C   UNL A   1      37.592  32.119  31.097  1.00  0.00     0.031 A 
ATOM     35  C   UNL A   1      38.071  32.488  32.475  1.00  0.00     0.074 A 
ATOM     36  C   UNL A   1      38.235  31.161  30.401  1.00  0.00     0.049 A 
ATOM     37  N   UNL A   1      39.075  31.999  33.161  1.00  0.00    -0.248 NA
ATOM     38  C   UNL A   1      37.338  33.558  33.168  1.00  0.00     0.031 C 
ATOM     39  C   UNL A   1      37.899  30.734  29.043  1.00  0.00     0.029 A 
ATOM     40  N   UNL A   1      39.313  30.377  30.738  1.00  0.00    -0.354 N 
ATOM     41  C   UNL A   1      39.101  32.709  34.354  1.00  0.00     0.074 A 
ATOM     42  C   UNL A   1      38.040  33.691  34.284  1.00  0.00     0.031 C 
ATOM     43  C   UNL A   1      38.742  29.758  28.667  1.00  0.00     0.029 A 
ATOM     44  C   UNL A   1      39.697  29.509  29.745  1.00  0.00     0.049 A 
ATOM     45  H   UNL A   1      39.766  30.432  31.610  1.00  0.00     0.167 HD
ATOM     46  C   UNL A   1      39.920  32.543  35.421  1.00  0.00     0.037 A 
ATOM     47  C   UNL A   1      40.706  28.617  29.704  1.00  0.00     0.037 A 
ATOM     48  C   UNL A   1      40.953  31.544  35.509  1.00  0.00     0.049 A 
ATOM     49  C   UNL A   1      41.598  28.452  30.906  1.00  0.00     0.074 A 
ATOM     50  C   UNL A   1      41.784  31.258  36.579  1.00  0.00     0.029 A 
ATOM     51  N   UNL A   1      41.296  30.669  34.490  1.00  0.00    -0.354 N 
ATOM     52  N   UNL A   1      41.559  29.076  32.059  1.00  0.00    -0.248 NA
ATOM     53  C   UNL A   1      42.671  27.451  30.806  1.00  0.00     0.031 C 
ATOM     54  C   UNL A   1      42.661  30.239  36.192  1.00  0.00     0.029 A 
ATOM     55  C   UNL A   1      42.343  29.858  34.899  1.00  0.00     0.049 A 
ATOM     56  H   UNL A   1      40.862  30.631  33.608  1.00  0.00     0.167 HD
ATOM     57  C   UNL A   1      42.575  28.522  32.827  1.00  0.00     0.074 A 
ATOM     58  C   UNL A   1      43.206  27.503  32.017  1.00  0.00     0.031 C 
ATOM     59  C   UNL A   1      42.951  28.834  34.092  1.00  0.00     0.037 A 
BRANCH  46  60
ATOM     60  C   UNL A   1      39.734  33.459  36.595  1.00  0.00     0.064 A 
ATOM     61  C   UNL A   1      40.394  34.695  36.673  1.00  0.00     0.173 A 
ATOM     62  C   UNL A   1      38.833  33.129  37.618  1.00  0.00     0.173 A 
ATOM     63  F   UNL A   1      41.272  35.052  35.724  1.00  0.00    -0.203 F 
ATOM     64  C   UNL A   1      40.171  35.558  37.743  1.00  0.00     0.198 A 
ATOM     65  C   UNL A   1      38.592  34.006  38.671  1.00  0.00     0.198 A 
ATOM     66  F   UNL A   1      38.170  31.963  37.585  1.00  0.00    -0.203 F 
ATOM     67  F   UNL A   1      40.839  36.717  37.815  1.00  0.00    -0.200 F 
ATOM     68  C   UNL A   1      39.265  35.217  38.736  1.00  0.00     0.200 A 
ATOM     69  F   UNL A   1      37.705  33.682  39.623  1.00  0.00    -0.200 F 
ATOM     70  F   UNL A   1      39.041  36.056  39.757  1.00  0.00    -0.200 F 
ENDBRANCH  46  60
BRANCH  47  71
ATOM     71  C   UNL A   1      40.929  27.795  28.485  1.00  0.00     0.064 A 
ATOM     72  C   UNL A   1      41.743  28.256  27.441  1.00  0.00     0.173 A 
ATOM     73  C   UNL A   1      40.303  26.550  28.324  1.00  0.00     0.173 A 
ATOM     74  F   UNL A   1      42.343  29.452  27.539  1.00  0.00    -0.203 F 
ATOM     75  C   UNL A   1      41.900  27.517  26.271  1.00  0.00     0.198 A 
ATOM     76  C   UNL A   1      40.485  25.798  27.165  1.00  0.00     0.198 A 
ATOM     77  F   UNL A   1      39.515  26.063  29.293  1.00  0.00    -0.203 F 
ATOM     78  F   UNL A   1      42.637  28.008  25.265  1.00  0.00    -0.200 F 
ATOM     79  C   UNL A   1      41.274  26.287  26.134  1.00  0.00     0.200 A 
ATOM     80  F   UNL A   1      39.886  24.606  27.042  1.00  0.00    -0.200 F 
ATOM     81  F   UNL A   1      41.421  25.579  25.007  1.00  0.00    -0.200 F 
ENDBRANCH  47  71
BRANCH  59  82
ATOM     82  C   UNL A   1      44.071  28.039  34.697  1.00  0.00     0.064 A 
ATOM     83  C   UNL A   1      45.403  28.472  34.629  1.00  0.00     0.173 A 
ATOM     84  C   UNL A   1      43.800  26.855  35.400  1.00  0.00     0.173 A 
ATOM     85  F   UNL A   1      45.716  29.590  33.957  1.00  0.00    -0.203 F 
ATOM     86  C   UNL A   1      46.426  27.737  35.224  1.00  0.00     0.198 A 
ATOM     87  C   UNL A   1      44.821  26.137  36.018  1.00  0.00     0.198 A 
ATOM     88  F   UNL A   1      42.542  26.400  35.500  1.00  0.00    -0.203 F 
ATOM     89  F   UNL A   1      47.697  28.148  35.111  1.00  0.00    -0.200 F 
ATOM     90  C   UNL A   1      46.133  26.577  35.924  1.00  0.00     0.200 A 
ATOM     91  F   UNL A   1      44.535  25.024  36.704  1.00  0.00    -0.200 F 
ATOM     92  F   UNL A   1      47.118  25.876  36.505  1.00  0.00    -0.200 F 
ENDBRANCH  59  82
ENDBRANCH  33  34
ENDBRANCH  25  28
ENDBRANCH  23  24
ENDBRANCH  22  23
ENDBRANCH   1  22
TORSDOF 14
ENDMDL
MODEL 3
REMARK VINA RESULT:     -11.9      5.919     10.171
REMARK SMILES CC(C)(C)c1ccc(NC(=O)CCC(=O)NCCCNC(=O)c2ccc(-c3c4nc(c(-c5c(F)c(F)c(F)c(F)c5F)c5ccc([nH]5)c(-c5c(F)c(F)c(F)c(F)c5F)c5nc(c(-c6c(F)c(F)c(F)c(F)c6F)c6ccc3[nH]6)C=C5)C=C4)cc2)cc1
REMARK SMILES IDX 17 1 16 2 14 3 15 4 13 6 12 7 10 8 9 9 11 11 8 12 5 13 6 14
REMARK SMILES IDX 87 15 7 16 86 17 2 18 1 19 3 20 4 21 18 22 19 23 20 24 21 25
REMARK SMILES IDX 22 27 23 28 24 29 85 30 25 31 84 32 26 33 27 34 28 35 78 36
REMARK SMILES IDX 29 37 83 38 77 39 79 40 30 41 82 42 76 43 75 44 31 46 63 47
REMARK SMILES IDX 43 48 62 49 44 50 47 51 61 52 80 53 45 54 46 55 60 57 81 58
REMARK SMILES IDX 48 59 32 60 33 61 41 62 34 63 35 64 39 65 42 66 36 67 37 68
REMARK SMILES IDX 40 69 38 70 64 71 65 72 73 73 66 74 67 75 71 76 74 77 68 78
REMARK SMILES IDX 69 79 72 80 70 81 49 82 50 83 58 84 51 85 52 86 56 87 59 88
REMARK SMILES IDX 53 89 54 90 57 91 55 92
REMARK H PARENT 16 5 9 10 20 26 79 45 47 56
REMARK Flexibility Score: inf
ROOT
ATOM      1  C   UNL A   1      31.723  30.299  26.874  1.00  0.00     0.117 C 
ENDROOT
BRANCH   1   2
ATOM      2  N   UNL A   1      32.927  29.962  27.618  1.00  0.00    -0.356 N 
ATOM      3  C   UNL A   1      34.031  29.260  27.239  1.00  0.00     0.220 C 
ATOM      4  O   UNL A   1      35.030  29.309  27.958  1.00  0.00    -0.275 OA
ATOM      5  H   UNL A   1      32.946  30.294  28.544  1.00  0.00     0.163 HD
BRANCH   3   6
ATOM      6  C   UNL A   1      34.029  28.432  25.975  1.00  0.00     0.110 C 
BRANCH   6   7
ATOM      7  C   UNL A   1      33.348  27.077  26.132  1.00  0.00     0.110 C 
BRANCH   7   8
ATOM      8  C   UNL A   1      33.572  26.142  24.961  1.00  0.00     0.224 C 
ATOM      9  N   UNL A   1      32.849  26.211  23.805  1.00  0.00    -0.326 N 
ATOM     10  H   UNL A   1      33.125  25.569  23.111  1.00  0.00     0.169 HD
ATOM     11  O   UNL A   1      34.521  25.350  24.992  1.00  0.00    -0.275 OA
BRANCH   9  12
ATOM     12  C   UNL A   1      31.780  27.040  23.435  1.00  0.00     0.041 A 
ATOM     13  C   UNL A   1      29.770  28.982  22.965  1.00  0.00    -0.042 A 
ATOM     14  C   UNL A   1      29.457  27.712  23.473  1.00  0.00     0.006 A 
ATOM     15  C   UNL A   1      31.107  29.213  22.600  1.00  0.00     0.006 A 
ATOM     16  C   UNL A   1      30.449  26.751  23.696  1.00  0.00     0.026 A 
ATOM     17  C   UNL A   1      32.093  28.239  22.796  1.00  0.00     0.026 A 
BRANCH  13  18
ATOM     18  C   UNL A   1      28.721  30.099  22.844  1.00  0.00    -0.013 C 
ATOM     19  C   UNL A   1      27.278  29.626  23.127  1.00  0.00     0.016 C 
ATOM     20  C   UNL A   1      28.735  30.698  21.423  1.00  0.00     0.016 C 
ATOM     21  C   UNL A   1      29.052  31.208  23.867  1.00  0.00     0.016 C 
ENDBRANCH  13  18
ENDBRANCH   9  12
ENDBRANCH   7   8
ENDBRANCH   6   7
ENDBRANCH   3   6
ENDBRANCH   1   2
BRANCH   1  22
ATOM     22  C   UNL A   1      31.445  31.795  26.781  1.00  0.00     0.042 C 
BRANCH  22  23
ATOM     23  C   UNL A   1      32.675  32.691  26.876  1.00  0.00     0.118 C 
BRANCH  23  24
ATOM     24  N   UNL A   1      32.410  33.976  27.496  1.00  0.00    -0.352 N 
ATOM     25  C   UNL A   1      33.055  34.589  28.545  1.00  0.00     0.251 C 
ATOM     26  H   UNL A   1      31.661  34.483  27.110  1.00  0.00     0.163 HD
ATOM     27  O   UNL A   1      32.630  35.647  28.991  1.00  0.00    -0.269 OA
BRANCH  25  28
ATOM     28  C   UNL A   1      34.244  33.959  29.168  1.00  0.00     0.039 A 
ATOM     29  C   UNL A   1      34.040  32.935  30.096  1.00  0.00     0.014 A 
ATOM     30  C   UNL A   1      35.542  34.386  28.873  1.00  0.00     0.014 A 
ATOM     31  C   UNL A   1      35.135  32.303  30.692  1.00  0.00     0.010 A 
ATOM     32  C   UNL A   1      36.637  33.720  29.429  1.00  0.00     0.010 A 
ATOM     33  C   UNL A   1      36.446  32.674  30.347  1.00  0.00    -0.014 A 
BRANCH  33  34
ATOM     34  C   UNL A   1      37.613  31.981  30.958  1.00  0.00     0.031 A 
ATOM     35  C   UNL A   1      38.075  32.346  32.343  1.00  0.00     0.074 A 
ATOM     36  C   UNL A   1      38.279  31.041  30.259  1.00  0.00     0.049 A 
ATOM     37  N   UNL A   1      39.081  31.870  33.034  1.00  0.00    -0.248 NA
ATOM     38  C   UNL A   1      37.318  33.398  33.039  1.00  0.00     0.031 C 
ATOM     39  C   UNL A   1      37.961  30.619  28.895  1.00  0.00     0.029 A 
ATOM     40  N   UNL A   1      39.367  30.273  30.599  1.00  0.00    -0.354 N 
ATOM     41  C   UNL A   1      39.085  32.570  34.233  1.00  0.00     0.074 A 
ATOM     42  C   UNL A   1      38.007  33.533  34.162  1.00  0.00     0.031 C 
ATOM     43  C   UNL A   1      38.825  29.662  28.518  1.00  0.00     0.029 A 
ATOM     44  C   UNL A   1      39.775  29.420  29.602  1.00  0.00     0.049 A 
ATOM     45  H   UNL A   1      39.813  30.328  31.475  1.00  0.00     0.167 HD
ATOM     46  C   UNL A   1      39.898  32.409  35.305  1.00  0.00     0.037 A 
ATOM     47  C   UNL A   1      40.800  28.546  29.562  1.00  0.00     0.037 A 
ATOM     48  C   UNL A   1      40.948  31.427  35.394  1.00  0.00     0.049 A 
ATOM     49  C   UNL A   1      41.685  28.387  30.770  1.00  0.00     0.074 A 
ATOM     50  C   UNL A   1      41.775  31.146  36.468  1.00  0.00     0.029 A 
ATOM     51  N   UNL A   1      41.314  30.568  34.370  1.00  0.00    -0.354 N 
ATOM     52  N   UNL A   1      41.626  29.000  31.928  1.00  0.00    -0.248 NA
ATOM     53  C   UNL A   1      42.776  27.405  30.671  1.00  0.00     0.031 C 
ATOM     54  C   UNL A   1      42.673  30.147  36.080  1.00  0.00     0.029 A 
ATOM     55  C   UNL A   1      42.372  29.771  34.781  1.00  0.00     0.049 A 
ATOM     56  H   UNL A   1      40.888  30.529  33.484  1.00  0.00     0.167 HD
ATOM     57  C   UNL A   1      42.644  28.457  32.700  1.00  0.00     0.074 A 
ATOM     58  C   UNL A   1      43.300  27.456  31.887  1.00  0.00     0.031 C 
ATOM     59  C   UNL A   1      43.005  28.765  33.970  1.00  0.00     0.037 A 
BRANCH  46  60
ATOM     60  C   UNL A   1      39.686  33.311  36.485  1.00  0.00     0.064 A 
ATOM     61  C   UNL A   1      40.334  34.551  36.586  1.00  0.00     0.173 A 
ATOM     62  C   UNL A   1      38.772  32.964  37.490  1.00  0.00     0.173 A 
ATOM     63  F   UNL A   1      41.224  34.926  35.655  1.00  0.00    -0.203 F 
ATOM     64  C   UNL A   1      40.088  35.402  37.661  1.00  0.00     0.198 A 
ATOM     65  C   UNL A   1      38.507  33.828  38.549  1.00  0.00     0.198 A 
ATOM     66  F   UNL A   1      38.120  31.792  37.436  1.00  0.00    -0.203 F 
ATOM     67  F   UNL A   1      40.745  36.566  37.755  1.00  0.00    -0.200 F 
ATOM     68  C   UNL A   1      39.169  35.044  38.636  1.00  0.00     0.200 A 
ATOM     69  F   UNL A   1      37.609  33.487  39.483  1.00  0.00    -0.200 F 
ATOM     70  F   UNL A   1      38.922  35.870  39.662  1.00  0.00    -0.200 F 
ENDBRANCH  46  60
BRANCH  47  71
ATOM     71  C   UNL A   1      41.047  27.739  28.338  1.00  0.00     0.064 A 
ATOM     72  C   UNL A   1      40.460  26.476  28.174  1.00  0.00     0.173 A 
ATOM     73  C   UNL A   1      41.904  28.197  27.326  1.00  0.00     0.173 A 
ATOM     74  F   UNL A   1      39.654  25.985  29.126  1.00  0.00    -0.203 F 
ATOM     75  C   UNL A   1      40.744  25.690  27.060  1.00  0.00     0.198 A 
ATOM     76  C   UNL A   1      42.162  27.422  26.197  1.00  0.00     0.198 A 
ATOM     77  F   UNL A   1      42.489  29.398  27.434  1.00  0.00    -0.203 F 
ATOM     78  F   UNL A   1      40.214  24.462  26.957  1.00  0.00    -0.200 F 
ATOM     79  C   UNL A   1      41.591  26.164  26.070  1.00  0.00     0.200 A 
ATOM     80  F   UNL A   1      42.974  27.889  25.239  1.00  0.00    -0.200 F 
ATOM     81  F   UNL A   1      41.867  25.407  25.000  1.00  0.00    -0.200 F 
ENDBRANCH  47  71
BRANCH  59  82
ATOM     82  C   UNL A   1      44.133  27.984  34.578  1.00  0.00     0.064 A 
ATOM     83  C   UNL A   1      43.913  26.768  35.242  1.00  0.00     0.173 A 
ATOM     84  C   UNL A   1      45.456  28.433  34.451  1.00  0.00     0.173 A 
ATOM     85  F   UNL A   1      42.666  26.302  35.402  1.00  0.00    -0.203 F 
ATOM     86  C   UNL A   1      44.976  26.041  35.773  1.00  0.00     0.198 A 
ATOM     87  C   UNL A   1      46.519  27.690  34.958  1.00  0.00     0.198 A 
ATOM     88  F   UNL A   1      45.721  29.587  33.820  1.00  0.00    -0.203 F 
ATOM     89  F   UNL A   1      44.740  24.902  36.439  1.00  0.00    -0.200 F 
ATOM     90  C   UNL A   1      46.276  26.498  35.624  1.00  0.00     0.200 A 
ATOM     91  F   UNL A   1      47.775  28.127  34.802  1.00  0.00    -0.200 F 
ATOM     92  F   UNL A   1      47.299  25.792  36.127  1.00  0.00    -0.200 F 
ENDBRANCH  59  82
ENDBRANCH  33  34
ENDBRANCH  25  28
ENDBRANCH  23  24
ENDBRANCH  22  23
ENDBRANCH   1  22
TORSDOF 14
ENDMDL
