MODEL 1
REMARK VINA RESULT:     -11.8      0.000      0.000
REMARK SMILES CC[C@](C)(NC(=O)CCOc1ccc(Cl)c(Cl)c1)C(=O)NCCCNC(=O)c1ccc(-c2c3nc(c(-c4c(F)c(F)c(F)c(F)c4F)c4ccc([nH]4)c(-c4c(F)c(F)c(F)c(F)c4F)c4nc(c(-c5c(F)c(F)c(F)c(F)c5F)c5ccc2[nH]5)C=C4)C=C3)cc1
REMARK SMILES IDX 19 1 20 2 21 3 3 5 4 6 2 7 1 8 5 9 6 10 7 12 8 13 9 14 10 15
REMARK SMILES IDX 11 16 12 17 18 18 13 19 16 20 14 21 17 22 15 23 22 24 23 25
REMARK SMILES IDX 24 26 25 27 26 28 27 30 28 31 29 32 90 33 30 34 89 35 31 36
REMARK SMILES IDX 32 37 33 38 83 39 34 40 88 41 82 42 84 43 35 44 87 45 81 46
REMARK SMILES IDX 80 47 36 49 68 50 48 51 67 52 49 53 52 54 66 55 85 56 50 57
REMARK SMILES IDX 51 58 65 60 86 61 53 62 37 63 38 64 46 65 39 66 40 67 44 68
REMARK SMILES IDX 47 69 41 70 42 71 45 72 43 73 69 74 70 75 78 76 71 77 72 78
REMARK SMILES IDX 76 79 79 80 73 81 74 82 77 83 75 84 54 85 55 86 63 87 56 88
REMARK SMILES IDX 57 89 61 90 64 91 58 92 59 93 62 94 60 95
REMARK H PARENT 21 4 5 11 25 29 84 48 52 59
REMARK Flexibility Score: inf
ROOT
ATOM      1  C   UNL A   1      34.050  19.828  25.090  1.00  0.00     0.245 C 
ATOM      2  O   UNL A   1      33.248  18.909  24.896  1.00  0.00    -0.272 OA
ATOM      3  N   UNL A   1      35.371  19.510  24.983  1.00  0.00    -0.354 N 
ATOM      4  H   UNL A   1      35.545  18.549  24.857  1.00  0.00     0.163 HD
ENDROOT
BRANCH   1   5
ATOM      5  C   UNL A   1      33.579  21.290  25.339  1.00  0.00     0.116 C 
ATOM      6  C   UNL A   1      33.884  22.146  24.103  1.00  0.00     0.045 C 
BRANCH   5   7
ATOM      7  C   UNL A   1      34.347  21.821  26.604  1.00  0.00     0.035 C 
ATOM      8  C   UNL A   1      34.991  23.200  26.509  1.00  0.00     0.007 C 
ENDBRANCH   5   7
BRANCH   5   9
ATOM      9  N   UNL A   1      32.119  21.299  25.630  1.00  0.00    -0.342 N 
ATOM     10  C   UNL A   1      31.243  22.303  25.904  1.00  0.00     0.224 C 
ATOM     11  H   UNL A   1      31.708  20.405  25.624  1.00  0.00     0.164 HD
ATOM     12  O   UNL A   1      30.072  21.981  26.131  1.00  0.00    -0.275 OA
BRANCH  10  13
ATOM     13  C   UNL A   1      31.634  23.761  25.845  1.00  0.00     0.141 C 
BRANCH  13  14
ATOM     14  C   UNL A   1      30.493  24.687  26.274  1.00  0.00     0.239 C 
BRANCH  14  15
ATOM     15  O   UNL A   1      30.940  25.949  26.793  1.00  0.00    -0.493 OA
BRANCH  15  16
ATOM     16  C   UNL A   1      31.669  26.774  25.983  1.00  0.00     0.120 A 
ATOM     17  C   UNL A   1      33.018  27.078  26.134  1.00  0.00     0.048 A 
ATOM     18  C   UNL A   1      30.973  27.294  24.887  1.00  0.00     0.068 A 
ATOM     19  C   UNL A   1      33.704  27.760  25.127  1.00  0.00     0.026 A 
ATOM     20  C   UNL A   1      31.650  27.999  23.885  1.00  0.00     0.063 A 
ATOM     21  C   UNL A   1      33.029  28.201  23.989  1.00  0.00     0.059 A 
ATOM     22  Cl  UNL A   1      30.740  28.529  22.516  1.00  0.00    -0.083 Cl
ATOM     23  Cl  UNL A   1      33.959  28.952  22.745  1.00  0.00    -0.083 Cl
ENDBRANCH  15  16
ENDBRANCH  14  15
ENDBRANCH  13  14
ENDBRANCH  10  13
ENDBRANCH   5   9
ENDBRANCH   1   5
BRANCH   3  24
ATOM     24  C   UNL A   1      36.570  20.331  25.021  1.00  0.00     0.117 C 
BRANCH  24  25
ATOM     25  C   UNL A   1      37.863  19.525  24.964  1.00  0.00     0.042 C 
BRANCH  25  26
ATOM     26  C   UNL A   1      39.015  20.139  25.746  1.00  0.00     0.118 C 
BRANCH  26  27
ATOM     27  N   UNL A   1      40.107  19.195  25.932  1.00  0.00    -0.352 N 
ATOM     28  C   UNL A   1      41.444  19.439  26.100  1.00  0.00     0.251 C 
ATOM     29  H   UNL A   1      39.848  18.245  25.938  1.00  0.00     0.163 HD
ATOM     30  O   UNL A   1      42.260  18.527  25.963  1.00  0.00    -0.269 OA
BRANCH  28  31
ATOM     31  C   UNL A   1      41.906  20.797  26.439  1.00  0.00     0.039 A 
ATOM     32  C   UNL A   1      42.206  21.107  27.767  1.00  0.00     0.014 A 
ATOM     33  C   UNL A   1      42.017  21.771  25.443  1.00  0.00     0.014 A 
ATOM     34  C   UNL A   1      42.670  22.383  28.090  1.00  0.00     0.010 A 
ATOM     35  C   UNL A   1      42.550  23.016  25.753  1.00  0.00     0.010 A 
ATOM     36  C   UNL A   1      42.870  23.338  27.080  1.00  0.00    -0.014 A 
BRANCH  36  37
ATOM     37  C   UNL A   1      43.383  24.696  27.384  1.00  0.00     0.031 A 
ATOM     38  C   UNL A   1      42.450  25.735  27.940  1.00  0.00     0.074 A 
ATOM     39  C   UNL A   1      44.655  25.015  27.081  1.00  0.00     0.049 A 
ATOM     40  N   UNL A   1      42.658  27.010  28.149  1.00  0.00    -0.248 NA
ATOM     41  C   UNL A   1      41.090  25.285  28.277  1.00  0.00     0.031 C 
ATOM     42  C   UNL A   1      45.642  24.102  26.504  1.00  0.00     0.029 A 
ATOM     43  N   UNL A   1      45.329  26.205  27.197  1.00  0.00    -0.354 N 
ATOM     44  C   UNL A   1      41.452  27.515  28.616  1.00  0.00     0.074 A 
ATOM     45  C   UNL A   1      40.504  26.423  28.616  1.00  0.00     0.031 C 
ATOM     46  C   UNL A   1      46.798  24.761  26.327  1.00  0.00     0.029 A 
ATOM     47  C   UNL A   1      46.622  26.151  26.737  1.00  0.00     0.049 A 
ATOM     48  H   UNL A   1      44.925  27.019  27.573  1.00  0.00     0.167 HD
ATOM     49  C   UNL A   1      41.169  28.773  29.028  1.00  0.00     0.037 A 
ATOM     50  C   UNL A   1      47.553  27.120  26.641  1.00  0.00     0.037 A 
ATOM     51  C   UNL A   1      42.127  29.846  29.058  1.00  0.00     0.049 A 
ATOM     52  C   UNL A   1      47.210  28.513  27.099  1.00  0.00     0.074 A 
ATOM     53  C   UNL A   1      41.959  31.140  29.516  1.00  0.00     0.029 A 
ATOM     54  N   UNL A   1      43.437  29.745  28.611  1.00  0.00    -0.354 N 
ATOM     55  N   UNL A   1      46.085  28.967  27.594  1.00  0.00    -0.248 NA
ATOM     56  C   UNL A   1      48.268  29.526  26.988  1.00  0.00     0.031 C 
ATOM     57  C   UNL A   1      43.153  31.836  29.306  1.00  0.00     0.029 A 
ATOM     58  C   UNL A   1      44.082  30.961  28.764  1.00  0.00     0.049 A 
ATOM     59  H   UNL A   1      43.846  28.930  28.241  1.00  0.00     0.167 HD
ATOM     60  C   UNL A   1      46.308  30.307  27.883  1.00  0.00     0.074 A 
ATOM     61  C   UNL A   1      47.679  30.592  27.514  1.00  0.00     0.031 C 
ATOM     62  C   UNL A   1      45.454  31.218  28.409  1.00  0.00     0.037 A 
BRANCH  49  63
ATOM     63  C   UNL A   1      39.767  29.059  29.482  1.00  0.00     0.064 A 
ATOM     64  C   UNL A   1      39.384  28.913  30.824  1.00  0.00     0.173 A 
ATOM     65  C   UNL A   1      38.804  29.518  28.571  1.00  0.00     0.173 A 
ATOM     66  F   UNL A   1      40.263  28.465  31.733  1.00  0.00    -0.203 F 
ATOM     67  C   UNL A   1      38.081  29.188  31.232  1.00  0.00     0.198 A 
ATOM     68  C   UNL A   1      37.511  29.822  28.988  1.00  0.00     0.198 A 
ATOM     69  F   UNL A   1      39.119  29.681  27.278  1.00  0.00    -0.203 F 
ATOM     70  F   UNL A   1      37.725  28.994  32.510  1.00  0.00    -0.200 F 
ATOM     71  C   UNL A   1      37.148  29.650  30.315  1.00  0.00     0.200 A 
ATOM     72  F   UNL A   1      36.613  30.281  28.104  1.00  0.00    -0.200 F 
ATOM     73  F   UNL A   1      35.897  29.922  30.711  1.00  0.00    -0.200 F 
ENDBRANCH  49  63
BRANCH  50  74
ATOM     74  C   UNL A   1      48.902  26.802  26.107  1.00  0.00     0.064 A 
ATOM     75  C   UNL A   1      49.208  27.017  24.756  1.00  0.00     0.173 A 
ATOM     76  C   UNL A   1      49.911  26.282  26.931  1.00  0.00     0.173 A 
ATOM     77  F   UNL A   1      48.270  27.493  23.925  1.00  0.00    -0.203 F 
ATOM     78  C   UNL A   1      50.467  26.705  24.245  1.00  0.00     0.198 A 
ATOM     79  C   UNL A   1      51.177  25.998  26.424  1.00  0.00     0.198 A 
ATOM     80  F   UNL A   1      49.670  26.063  28.232  1.00  0.00    -0.203 F 
ATOM     81  F   UNL A   1      50.718  26.880  22.941  1.00  0.00    -0.200 F 
ATOM     82  C   UNL A   1      51.452  26.201  25.081  1.00  0.00     0.200 A 
ATOM     83  F   UNL A   1      52.132  25.524  27.238  1.00  0.00    -0.200 F 
ATOM     84  F   UNL A   1      52.663  25.907  24.589  1.00  0.00    -0.200 F 
ENDBRANCH  50  74
BRANCH  62  85
ATOM     85  C   UNL A   1      45.985  32.598  28.662  1.00  0.00     0.064 A 
ATOM     86  C   UNL A   1      45.874  33.618  27.707  1.00  0.00     0.173 A 
ATOM     87  C   UNL A   1      46.549  32.919  29.907  1.00  0.00     0.173 A 
ATOM     88  F   UNL A   1      45.354  33.356  26.498  1.00  0.00    -0.203 F 
ATOM     89  C   UNL A   1      46.321  34.906  27.983  1.00  0.00     0.198 A 
ATOM     90  C   UNL A   1      46.972  34.215  30.189  1.00  0.00     0.198 A 
ATOM     91  F   UNL A   1      46.672  31.980  30.856  1.00  0.00    -0.203 F 
ATOM     92  F   UNL A   1      46.238  35.858  27.044  1.00  0.00    -0.200 F 
ATOM     93  C   UNL A   1      46.862  35.206  29.225  1.00  0.00     0.200 A 
ATOM     94  F   UNL A   1      47.480  34.505  31.395  1.00  0.00    -0.200 F 
ATOM     95  F   UNL A   1      47.279  36.451  29.494  1.00  0.00    -0.200 F 
ENDBRANCH  62  85
ENDBRANCH  36  37
ENDBRANCH  28  31
ENDBRANCH  26  27
ENDBRANCH  25  26
ENDBRANCH  24  25
ENDBRANCH   3  24
TORSDOF 16
ENDMDL
MODEL 2
REMARK VINA RESULT:     -11.7      1.241      2.285
REMARK SMILES CC[C@](C)(NC(=O)CCOc1ccc(Cl)c(Cl)c1)C(=O)NCCCNC(=O)c1ccc(-c2c3nc(c(-c4c(F)c(F)c(F)c(F)c4F)c4ccc([nH]4)c(-c4c(F)c(F)c(F)c(F)c4F)c4nc(c(-c5c(F)c(F)c(F)c(F)c5F)c5ccc2[nH]5)C=C4)C=C3)cc1
REMARK SMILES IDX 19 1 20 2 21 3 3 5 4 6 2 7 1 8 5 9 6 10 7 12 8 13 9 14 10 15
REMARK SMILES IDX 11 16 12 17 18 18 13 19 16 20 14 21 17 22 15 23 22 24 23 25
REMARK SMILES IDX 24 26 25 27 26 28 27 30 28 31 29 32 90 33 30 34 89 35 31 36
REMARK SMILES IDX 32 37 33 38 83 39 34 40 88 41 82 42 84 43 35 44 87 45 81 46
REMARK SMILES IDX 80 47 36 49 68 50 48 51 67 52 49 53 52 54 66 55 85 56 50 57
REMARK SMILES IDX 51 58 65 60 86 61 53 62 37 63 38 64 46 65 39 66 40 67 44 68
REMARK SMILES IDX 47 69 41 70 42 71 45 72 43 73 69 74 70 75 78 76 71 77 72 78
REMARK SMILES IDX 76 79 79 80 73 81 74 82 77 83 75 84 54 85 55 86 63 87 56 88
REMARK SMILES IDX 57 89 61 90 64 91 58 92 59 93 62 94 60 95
REMARK H PARENT 21 4 5 11 25 29 84 48 52 59
REMARK Flexibility Score: inf
ROOT
ATOM      1  C   UNL A   1      36.390  23.001  25.496  1.00  0.00     0.245 C 
ATOM      2  O   UNL A   1      36.812  23.919  26.207  1.00  0.00    -0.272 OA
ATOM      3  N   UNL A   1      37.070  21.823  25.563  1.00  0.00    -0.354 N 
ATOM      4  H   UNL A   1      37.892  21.863  26.104  1.00  0.00     0.163 HD
ENDROOT
BRANCH   1   5
ATOM      5  C   UNL A   1      35.091  23.148  24.651  1.00  0.00     0.116 C 
ATOM      6  C   UNL A   1      35.428  23.000  23.162  1.00  0.00     0.045 C 
BRANCH   5   7
ATOM      7  C   UNL A   1      34.488  24.567  24.961  1.00  0.00     0.035 C 
ATOM      8  C   UNL A   1      33.429  24.656  26.054  1.00  0.00     0.007 C 
ENDBRANCH   5   7
BRANCH   5   9
ATOM      9  N   UNL A   1      34.107  22.112  25.067  1.00  0.00    -0.342 N 
ATOM     10  C   UNL A   1      32.943  21.675  24.515  1.00  0.00     0.224 C 
ATOM     11  H   UNL A   1      34.344  21.654  25.906  1.00  0.00     0.164 HD
ATOM     12  O   UNL A   1      32.326  20.798  25.127  1.00  0.00    -0.275 OA
BRANCH  10  13
ATOM     13  C   UNL A   1      32.453  22.154  23.169  1.00  0.00     0.141 C 
BRANCH  13  14
ATOM     14  C   UNL A   1      31.385  23.245  23.294  1.00  0.00     0.239 C 
BRANCH  14  15
ATOM     15  O   UNL A   1      31.636  24.392  22.468  1.00  0.00    -0.493 OA
BRANCH  15  16
ATOM     16  C   UNL A   1      31.511  25.638  23.015  1.00  0.00     0.120 A 
ATOM     17  C   UNL A   1      30.557  26.023  23.953  1.00  0.00     0.048 A 
ATOM     18  C   UNL A   1      32.479  26.562  22.612  1.00  0.00     0.068 A 
ATOM     19  C   UNL A   1      30.659  27.259  24.596  1.00  0.00     0.026 A 
ATOM     20  C   UNL A   1      32.574  27.811  23.237  1.00  0.00     0.063 A 
ATOM     21  C   UNL A   1      31.681  28.146  24.258  1.00  0.00     0.059 A 
ATOM     22  Cl  UNL A   1      33.855  28.862  22.750  1.00  0.00    -0.083 Cl
ATOM     23  Cl  UNL A   1      31.801  29.612  25.161  1.00  0.00    -0.083 Cl
ENDBRANCH  15  16
ENDBRANCH  14  15
ENDBRANCH  13  14
ENDBRANCH  10  13
ENDBRANCH   5   9
ENDBRANCH   1   5
BRANCH   3  24
ATOM     24  C   UNL A   1      36.804  20.517  24.981  1.00  0.00     0.117 C 
BRANCH  24  25
ATOM     25  C   UNL A   1      38.008  19.583  25.003  1.00  0.00     0.042 C 
BRANCH  25  26
ATOM     26  C   UNL A   1      39.188  20.105  25.810  1.00  0.00     0.118 C 
BRANCH  26  27
ATOM     27  N   UNL A   1      40.246  19.113  25.927  1.00  0.00    -0.352 N 
ATOM     28  C   UNL A   1      41.601  19.296  26.003  1.00  0.00     0.251 C 
ATOM     29  H   UNL A   1      39.945  18.176  25.955  1.00  0.00     0.163 HD
ATOM     30  O   UNL A   1      42.364  18.347  25.816  1.00  0.00    -0.269 OA
BRANCH  28  31
ATOM     31  C   UNL A   1      42.145  20.632  26.303  1.00  0.00     0.039 A 
ATOM     32  C   UNL A   1      42.519  21.471  25.251  1.00  0.00     0.014 A 
ATOM     33  C   UNL A   1      42.309  21.044  27.629  1.00  0.00     0.014 A 
ATOM     34  C   UNL A   1      43.010  22.748  25.528  1.00  0.00     0.010 A 
ATOM     35  C   UNL A   1      42.726  22.341  27.901  1.00  0.00     0.010 A 
ATOM     36  C   UNL A   1      43.091  23.201  26.854  1.00  0.00    -0.014 A 
BRANCH  36  37
ATOM     37  C   UNL A   1      43.586  24.559  27.184  1.00  0.00     0.031 A 
ATOM     38  C   UNL A   1      42.633  25.586  27.727  1.00  0.00     0.074 A 
ATOM     39  C   UNL A   1      44.864  24.890  26.916  1.00  0.00     0.049 A 
ATOM     40  N   UNL A   1      42.826  26.860  27.955  1.00  0.00    -0.248 NA
ATOM     41  C   UNL A   1      41.268  25.123  28.025  1.00  0.00     0.031 C 
ATOM     42  C   UNL A   1      45.871  23.990  26.355  1.00  0.00     0.029 A 
ATOM     43  N   UNL A   1      45.526  26.084  27.061  1.00  0.00    -0.354 N 
ATOM     44  C   UNL A   1      41.605  27.352  28.396  1.00  0.00     0.074 A 
ATOM     45  C   UNL A   1      40.665  26.253  28.361  1.00  0.00     0.031 C 
ATOM     46  C   UNL A   1      47.027  24.659  26.214  1.00  0.00     0.029 A 
ATOM     47  C   UNL A   1      46.830  26.044  26.634  1.00  0.00     0.049 A 
ATOM     48  H   UNL A   1      45.106  26.891  27.436  1.00  0.00     0.167 HD
ATOM     49  C   UNL A   1      41.303  28.604  28.814  1.00  0.00     0.037 A 
ATOM     50  C   UNL A   1      47.756  27.020  26.571  1.00  0.00     0.037 A 
ATOM     51  C   UNL A   1      42.253  29.683  28.879  1.00  0.00     0.049 A 
ATOM     52  C   UNL A   1      47.393  28.405  27.035  1.00  0.00     0.074 A 
ATOM     53  C   UNL A   1      42.064  30.971  29.346  1.00  0.00     0.029 A 
ATOM     54  N   UNL A   1      43.574  29.596  28.464  1.00  0.00    -0.354 N 
ATOM     55  N   UNL A   1      46.252  28.846  27.506  1.00  0.00    -0.248 NA
ATOM     56  C   UNL A   1      48.446  29.427  26.960  1.00  0.00     0.031 C 
ATOM     57  C   UNL A   1      43.258  31.677  29.173  1.00  0.00     0.029 A 
ATOM     58  C   UNL A   1      44.206  30.815  28.645  1.00  0.00     0.049 A 
ATOM     59  H   UNL A   1      43.998  28.787  28.096  1.00  0.00     0.167 HD
ATOM     60  C   UNL A   1      46.458  30.185  27.814  1.00  0.00     0.074 A 
ATOM     61  C   UNL A   1      47.836  30.483  27.482  1.00  0.00     0.031 C 
ATOM     62  C   UNL A   1      45.585  31.085  28.327  1.00  0.00     0.037 A 
BRANCH  49  63
ATOM     63  C   UNL A   1      39.888  28.875  29.236  1.00  0.00     0.064 A 
ATOM     64  C   UNL A   1      38.919  29.314  28.321  1.00  0.00     0.173 A 
ATOM     65  C   UNL A   1      39.488  28.658  30.563  1.00  0.00     0.173 A 
ATOM     66  F   UNL A   1      39.253  29.548  27.043  1.00  0.00    -0.203 F 
ATOM     67  C   UNL A   1      37.608  29.554  28.726  1.00  0.00     0.198 A 
ATOM     68  C   UNL A   1      38.169  28.870  30.957  1.00  0.00     0.198 A 
ATOM     69  F   UNL A   1      40.373  28.233  31.476  1.00  0.00    -0.203 F 
ATOM     70  F   UNL A   1      36.712  30.021  27.845  1.00  0.00    -0.200 F 
ATOM     71  C   UNL A   1      37.232  29.325  30.041  1.00  0.00     0.200 A 
ATOM     72  F   UNL A   1      37.804  28.635  32.225  1.00  0.00    -0.200 F 
ATOM     73  F   UNL A   1      35.969  29.549  30.426  1.00  0.00    -0.200 F 
ENDBRANCH  49  63
BRANCH  50  74
ATOM     74  C   UNL A   1      49.120  26.717  26.068  1.00  0.00     0.064 A 
ATOM     75  C   UNL A   1      49.476  26.999  24.742  1.00  0.00     0.173 A 
ATOM     76  C   UNL A   1      50.096  26.144  26.897  1.00  0.00     0.173 A 
ATOM     77  F   UNL A   1      48.571  27.528  23.905  1.00  0.00    -0.203 F 
ATOM     78  C   UNL A   1      50.749  26.702  24.258  1.00  0.00     0.198 A 
ATOM     79  C   UNL A   1      51.377  25.874  26.420  1.00  0.00     0.198 A 
ATOM     80  F   UNL A   1      49.808  25.859  28.176  1.00  0.00    -0.203 F 
ATOM     81  F   UNL A   1      51.047  26.943  22.975  1.00  0.00    -0.200 F 
ATOM     82  C   UNL A   1      51.700  26.145  25.100  1.00  0.00     0.200 A 
ATOM     83  F   UNL A   1      52.298  25.348  27.240  1.00  0.00    -0.200 F 
ATOM     84  F   UNL A   1      52.925  25.865  24.635  1.00  0.00    -0.200 F 
ENDBRANCH  50  74
BRANCH  62  85
ATOM     85  C   UNL A   1      46.099  32.466  28.608  1.00  0.00     0.064 A 
ATOM     86  C   UNL A   1      46.703  32.793  29.829  1.00  0.00     0.173 A 
ATOM     87  C   UNL A   1      46.046  33.454  27.613  1.00  0.00     0.173 A 
ATOM     88  F   UNL A   1      46.765  31.886  30.816  1.00  0.00    -0.203 F 
ATOM     89  C   UNL A   1      47.225  34.064  30.050  1.00  0.00     0.198 A 
ATOM     90  C   UNL A   1      46.592  34.716  27.827  1.00  0.00     0.198 A 
ATOM     91  F   UNL A   1      45.483  33.188  26.425  1.00  0.00    -0.203 F 
ATOM     92  F   UNL A   1      47.767  34.368  31.237  1.00  0.00    -0.200 F 
ATOM     93  C   UNL A   1      47.177  35.022  29.046  1.00  0.00     0.200 A 
ATOM     94  F   UNL A   1      46.558  35.634  26.850  1.00  0.00    -0.200 F 
ATOM     95  F   UNL A   1      47.694  36.240  29.256  1.00  0.00    -0.200 F 
ENDBRANCH  62  85
ENDBRANCH  36  37
ENDBRANCH  28  31
ENDBRANCH  26  27
ENDBRANCH  25  26
ENDBRANCH  24  25
ENDBRANCH   3  24
TORSDOF 16
ENDMDL
MODEL 3
REMARK VINA RESULT:     -11.7      5.385     10.815
REMARK SMILES CC[C@](C)(NC(=O)CCOc1ccc(Cl)c(Cl)c1)C(=O)NCCCNC(=O)c1ccc(-c2c3nc(c(-c4c(F)c(F)c(F)c(F)c4F)c4ccc([nH]4)c(-c4c(F)c(F)c(F)c(F)c4F)c4nc(c(-c5c(F)c(F)c(F)c(F)c5F)c5ccc2[nH]5)C=C4)C=C3)cc1
REMARK SMILES IDX 19 1 20 2 21 3 3 5 4 6 2 7 1 8 5 9 6 10 7 12 8 13 9 14 10 15
REMARK SMILES IDX 11 16 12 17 18 18 13 19 16 20 14 21 17 22 15 23 22 24 23 25
REMARK SMILES IDX 24 26 25 27 26 28 27 30 28 31 29 32 90 33 30 34 89 35 31 36
REMARK SMILES IDX 32 37 33 38 83 39 34 40 88 41 82 42 84 43 35 44 87 45 81 46
REMARK SMILES IDX 80 47 36 49 68 50 48 51 67 52 49 53 52 54 66 55 85 56 50 57
REMARK SMILES IDX 51 58 65 60 86 61 53 62 37 63 38 64 46 65 39 66 40 67 44 68
REMARK SMILES IDX 47 69 41 70 42 71 45 72 43 73 69 74 70 75 78 76 71 77 72 78
REMARK SMILES IDX 76 79 79 80 73 81 74 82 77 83 75 84 54 85 55 86 63 87 56 88
REMARK SMILES IDX 57 89 61 90 64 91 58 92 59 93 62 94 60 95
REMARK H PARENT 21 4 5 11 25 29 84 48 52 59
REMARK Flexibility Score: inf
ROOT
ATOM      1  C   UNL A   1      31.755  28.885  23.952  1.00  0.00     0.245 C 
ATOM      2  O   UNL A   1      31.623  28.968  22.727  1.00  0.00    -0.272 OA
ATOM      3  N   UNL A   1      31.496  30.017  24.665  1.00  0.00    -0.354 N 
ATOM      4  H   UNL A   1      31.325  30.812  24.110  1.00  0.00     0.163 HD
ENDROOT
BRANCH   1   5
ATOM      5  C   UNL A   1      32.095  27.537  24.652  1.00  0.00     0.116 C 
ATOM      6  C   UNL A   1      33.209  27.760  25.683  1.00  0.00     0.045 C 
BRANCH   5   7
ATOM      7  C   UNL A   1      32.545  26.528  23.534  1.00  0.00     0.035 C 
ATOM      8  C   UNL A   1      33.927  25.899  23.671  1.00  0.00     0.007 C 
ENDBRANCH   5   7
BRANCH   5   9
ATOM      9  N   UNL A   1      30.874  26.999  25.314  1.00  0.00    -0.342 N 
ATOM     10  C   UNL A   1      30.658  25.906  26.094  1.00  0.00     0.224 C 
ATOM     11  H   UNL A   1      30.067  27.540  25.157  1.00  0.00     0.164 HD
ATOM     12  O   UNL A   1      29.501  25.712  26.480  1.00  0.00    -0.275 OA
BRANCH  10  13
ATOM     13  C   UNL A   1      31.778  25.006  26.559  1.00  0.00     0.141 C 
BRANCH  13  14
ATOM     14  C   UNL A   1      31.323  23.555  26.739  1.00  0.00     0.239 C 
BRANCH  14  15
ATOM     15  O   UNL A   1      32.398  22.644  27.010  1.00  0.00    -0.493 OA
BRANCH  15  16
ATOM     16  C   UNL A   1      33.390  22.499  26.080  1.00  0.00     0.120 A 
ATOM     17  C   UNL A   1      33.229  22.001  24.790  1.00  0.00     0.048 A 
ATOM     18  C   UNL A   1      34.650  22.952  26.482  1.00  0.00     0.068 A 
ATOM     19  C   UNL A   1      34.268  22.098  23.863  1.00  0.00     0.026 A 
ATOM     20  C   UNL A   1      35.703  23.031  25.563  1.00  0.00     0.063 A 
ATOM     21  C   UNL A   1      35.500  22.635  24.238  1.00  0.00     0.059 A 
ATOM     22  Cl  UNL A   1      37.203  23.690  26.110  1.00  0.00    -0.083 Cl
ATOM     23  Cl  UNL A   1      36.704  22.810  23.016  1.00  0.00    -0.083 Cl
ENDBRANCH  15  16
ENDBRANCH  14  15
ENDBRANCH  13  14
ENDBRANCH  10  13
ENDBRANCH   5   9
ENDBRANCH   1   5
BRANCH   3  24
ATOM     24  C   UNL A   1      31.427  30.263  26.096  1.00  0.00     0.117 C 
BRANCH  24  25
ATOM     25  C   UNL A   1      31.330  31.742  26.456  1.00  0.00     0.042 C 
BRANCH  25  26
ATOM     26  C   UNL A   1      32.643  32.358  26.917  1.00  0.00     0.118 C 
BRANCH  26  27
ATOM     27  N   UNL A   1      32.467  33.731  27.370  1.00  0.00    -0.352 N 
ATOM     28  C   UNL A   1      33.074  34.385  28.408  1.00  0.00     0.251 C 
ATOM     29  H   UNL A   1      31.820  34.265  26.856  1.00  0.00     0.163 HD
ATOM     30  O   UNL A   1      32.609  35.446  28.826  1.00  0.00    -0.269 OA
BRANCH  28  31
ATOM     31  C   UNL A   1      34.281  33.813  29.031  1.00  0.00     0.039 A 
ATOM     32  C   UNL A   1      35.533  34.343  28.711  1.00  0.00     0.014 A 
ATOM     33  C   UNL A   1      34.175  32.734  29.913  1.00  0.00     0.014 A 
ATOM     34  C   UNL A   1      36.678  33.823  29.318  1.00  0.00     0.010 A 
ATOM     35  C   UNL A   1      35.305  32.269  30.574  1.00  0.00     0.010 A 
ATOM     36  C   UNL A   1      36.568  32.801  30.273  1.00  0.00    -0.014 A 
BRANCH  36  37
ATOM     37  C   UNL A   1      37.760  32.241  30.955  1.00  0.00     0.031 A 
ATOM     38  C   UNL A   1      38.566  31.168  30.279  1.00  0.00     0.074 A 
ATOM     39  C   UNL A   1      38.063  32.635  32.207  1.00  0.00     0.049 A 
ATOM     40  N   UNL A   1      39.558  30.454  30.750  1.00  0.00    -0.248 NA
ATOM     41  C   UNL A   1      38.186  30.830  28.898  1.00  0.00     0.031 C 
ATOM     42  C   UNL A   1      37.333  33.641  32.977  1.00  0.00     0.029 A 
ATOM     43  N   UNL A   1      39.055  32.217  33.058  1.00  0.00    -0.354 N 
ATOM     44  C   UNL A   1      39.899  29.571  29.734  1.00  0.00     0.074 A 
ATOM     45  C   UNL A   1      38.981  29.804  28.641  1.00  0.00     0.031 C 
ATOM     46  C   UNL A   1      37.908  33.772  34.183  1.00  0.00     0.029 A 
ATOM     47  C   UNL A   1      39.018  32.830  34.286  1.00  0.00     0.049 A 
ATOM     48  H   UNL A   1      39.728  31.543  32.813  1.00  0.00     0.167 HD
ATOM     49  C   UNL A   1      40.902  28.662  29.710  1.00  0.00     0.037 A 
ATOM     50  C   UNL A   1      39.784  32.638  35.378  1.00  0.00     0.037 A 
ATOM     51  C   UNL A   1      41.833  28.461  30.789  1.00  0.00     0.049 A 
ATOM     52  C   UNL A   1      40.888  31.616  35.328  1.00  0.00     0.074 A 
ATOM     53  C   UNL A   1      42.922  27.611  30.841  1.00  0.00     0.029 A 
ATOM     54  N   UNL A   1      41.781  29.122  32.008  1.00  0.00    -0.354 N 
ATOM     55  N   UNL A   1      41.240  30.827  34.343  1.00  0.00    -0.248 NA
ATOM     56  C   UNL A   1      41.703  31.461  36.541  1.00  0.00     0.031 C 
ATOM     57  C   UNL A   1      43.505  27.724  32.106  1.00  0.00     0.029 A 
ATOM     58  C   UNL A   1      42.808  28.683  32.826  1.00  0.00     0.049 A 
ATOM     59  H   UNL A   1      41.113  29.802  32.253  1.00  0.00     0.167 HD
ATOM     60  C   UNL A   1      42.335  30.107  34.803  1.00  0.00     0.074 A 
ATOM     61  C   UNL A   1      42.593  30.557  36.155  1.00  0.00     0.031 C 
ATOM     62  C   UNL A   1      43.061  29.159  34.162  1.00  0.00     0.037 A 
BRANCH  49  63
ATOM     63  C   UNL A   1      41.048  27.818  28.478  1.00  0.00     0.064 A 
ATOM     64  C   UNL A   1      40.439  26.558  28.372  1.00  0.00     0.173 A 
ATOM     65  C   UNL A   1      41.775  28.289  27.375  1.00  0.00     0.173 A 
ATOM     66  F   UNL A   1      39.741  26.056  29.403  1.00  0.00    -0.203 F 
ATOM     67  C   UNL A   1      40.577  25.790  27.219  1.00  0.00     0.198 A 
ATOM     68  C   UNL A   1      41.885  27.531  26.212  1.00  0.00     0.198 A 
ATOM     69  F   UNL A   1      42.373  29.489  27.421  1.00  0.00    -0.203 F 
ATOM     70  F   UNL A   1      40.027  24.568  27.161  1.00  0.00    -0.200 F 
ATOM     71  C   UNL A   1      41.293  26.279  26.138  1.00  0.00     0.200 A 
ATOM     72  F   UNL A   1      42.567  28.011  25.162  1.00  0.00    -0.200 F 
ATOM     73  F   UNL A   1      41.418  25.541  25.027  1.00  0.00    -0.200 F 
ENDBRANCH  49  63
BRANCH  50  74
ATOM     74  C   UNL A   1      39.545  33.444  36.603  1.00  0.00     0.064 A 
ATOM     75  C   UNL A   1      40.207  34.663  36.801  1.00  0.00     0.173 A 
ATOM     76  C   UNL A   1      38.651  33.018  37.596  1.00  0.00     0.173 A 
ATOM     77  F   UNL A   1      41.086  35.103  35.888  1.00  0.00    -0.203 F 
ATOM     78  C   UNL A   1      40.000  35.416  37.955  1.00  0.00     0.198 A 
ATOM     79  C   UNL A   1      38.424  33.785  38.737  1.00  0.00     0.198 A 
ATOM     80  F   UNL A   1      37.988  31.861  37.453  1.00  0.00    -0.203 F 
ATOM     81  F   UNL A   1      40.679  36.556  38.138  1.00  0.00    -0.200 F 
ATOM     82  C   UNL A   1      39.104  34.979  38.919  1.00  0.00     0.200 A 
ATOM     83  F   UNL A   1      37.547  33.367  39.660  1.00  0.00    -0.200 F 
ATOM     84  F   UNL A   1      38.902  35.707  40.026  1.00  0.00    -0.200 F 
ENDBRANCH  50  74
BRANCH  62  85
ATOM     85  C   UNL A   1      44.234  28.574  34.892  1.00  0.00     0.064 A 
ATOM     86  C   UNL A   1      45.476  29.222  34.929  1.00  0.00     0.173 A 
ATOM     87  C   UNL A   1      44.089  27.383  35.620  1.00  0.00     0.173 A 
ATOM     88  F   UNL A   1      45.667  30.356  34.237  1.00  0.00    -0.203 F 
ATOM     89  C   UNL A   1      46.536  28.692  35.658  1.00  0.00     0.198 A 
ATOM     90  C   UNL A   1      45.143  26.870  36.370  1.00  0.00     0.198 A 
ATOM     91  F   UNL A   1      42.918  26.729  35.621  1.00  0.00    -0.203 F 
ATOM     92  F   UNL A   1      47.726  29.309  35.653  1.00  0.00    -0.200 F 
ATOM     93  C   UNL A   1      46.367  27.522  36.385  1.00  0.00     0.200 A 
ATOM     94  F   UNL A   1      44.972  25.748  37.083  1.00  0.00    -0.200 F 
ATOM     95  F   UNL A   1      47.384  27.022  37.099  1.00  0.00    -0.200 F 
ENDBRANCH  62  85
ENDBRANCH  36  37
ENDBRANCH  28  31
ENDBRANCH  26  27
ENDBRANCH  25  26
ENDBRANCH  24  25
ENDBRANCH   3  24
TORSDOF 16
ENDMDL
