MODEL 1
REMARK VINA RESULT:     -11.3      0.000      0.000
REMARK SMILES CCCCCCNC(=O)Oc1cccc(-c2ccc([C@@H](C)C(=O)NCCCNC(=O)c3ccc(-c4c5nc(c(-c6c(F)c(F)c(F)c(F)c6F)c6ccc([nH]6)c(-c6c(F)c(F)c(F)c(F)c6F)c6nc(c(-c7c(F)c(F)c(F)c(F)c7F)c7ccc4[nH]7)C=C6)C=C5)cc3)cc2F)c1
REMARK SMILES IDX 16 1 17 2 18 3 19 4 94 5 95 6 96 7 15 8 11 9 12 10 97 11
REMARK SMILES IDX 13 12 14 13 10 14 8 15 7 16 9 18 6 19 5 20 4 21 3 22 2 23
REMARK SMILES IDX 1 24 20 25 21 26 22 27 23 28 24 29 25 31 26 32 27 33 28 34
REMARK SMILES IDX 29 35 30 37 31 38 32 39 93 40 33 41 92 42 34 43 35 44 36 45
REMARK SMILES IDX 86 46 37 47 91 48 85 49 87 50 38 51 90 52 84 53 83 54 39 56
REMARK SMILES IDX 71 57 51 58 70 59 52 60 55 61 69 62 88 63 53 64 54 65 68 67
REMARK SMILES IDX 89 68 56 69 40 70 41 71 49 72 42 73 43 74 47 75 50 76 44 77
REMARK SMILES IDX 45 78 48 79 46 80 72 81 73 82 81 83 74 84 75 85 79 86 82 87
REMARK SMILES IDX 76 88 77 89 80 90 78 91 57 92 58 93 66 94 59 95 60 96 64 97
REMARK SMILES IDX 67 98 61 99 62 100 65 101 63 102
REMARK H PARENT 7 17 24 30 28 36 87 55 55 66
REMARK Flexibility Score: inf
ROOT
ATOM      1  C   UNL A   1      31.887  22.987  22.761  1.00  0.00     0.018 A 
ATOM      2  C   UNL A   1      30.826  23.558  23.484  1.00  0.00     0.012 A 
ATOM      3  C   UNL A   1      30.561  24.934  23.444  1.00  0.00     0.005 A 
ATOM      4  C   UNL A   1      31.387  25.808  22.732  1.00  0.00    -0.033 A 
ATOM      5  C   UNL A   1      32.430  25.245  21.982  1.00  0.00     0.044 A 
ATOM      6  C   UNL A   1      32.656  23.865  21.985  1.00  0.00     0.131 A 
ATOM      7  F   UNL A   1      33.650  23.403  21.210  1.00  0.00    -0.206 F 
ENDROOT
BRANCH   1   8
ATOM      8  C   UNL A   1      32.172  21.535  22.854  1.00  0.00    -0.012 A 
ATOM      9  C   UNL A   1      33.024  19.604  24.069  1.00  0.00     0.133 A 
ATOM     10  C   UNL A   1      32.646  18.745  23.043  1.00  0.00     0.047 A 
ATOM     11  C   UNL A   1      32.801  20.980  23.983  1.00  0.00     0.056 A 
ATOM     12  C   UNL A   1      32.022  19.270  21.918  1.00  0.00     0.004 A 
ATOM     13  C   UNL A   1      31.797  20.648  21.824  1.00  0.00     0.009 A 
BRANCH   9  14
ATOM     14  O   UNL A   1      33.750  19.044  25.130  1.00  0.00    -0.410 OA
BRANCH  14  15
ATOM     15  C   UNL A   1      34.980  18.469  24.849  1.00  0.00     0.412 C 
ATOM     16  N   UNL A   1      36.016  19.359  24.943  1.00  0.00    -0.321 N 
ATOM     17  H   UNL A   1      36.916  19.012  24.748  1.00  0.00     0.167 HD
ATOM     18  O   UNL A   1      35.177  17.303  24.533  1.00  0.00    -0.224 OA
BRANCH  16  19
ATOM     19  C   UNL A   1      35.923  20.761  25.299  1.00  0.00     0.119 C 
BRANCH  19  20
ATOM     20  C   UNL A   1      37.215  21.517  24.987  1.00  0.00     0.021 C 
BRANCH  20  21
ATOM     21  C   UNL A   1      37.014  22.908  24.376  1.00  0.00     0.002 C 
BRANCH  21  22
ATOM     22  C   UNL A   1      35.569  23.267  24.009  1.00  0.00    -0.000 C 
BRANCH  22  23
ATOM     23  C   UNL A   1      34.974  24.456  24.767  1.00  0.00    -0.003 C 
ATOM     24  C   UNL A   1      33.947  24.050  25.813  1.00  0.00     0.004 C 
ENDBRANCH  22  23
ENDBRANCH  21  22
ENDBRANCH  20  21
ENDBRANCH  19  20
ENDBRANCH  16  19
ENDBRANCH  14  15
ENDBRANCH   9  14
ENDBRANCH   1   8
BRANCH   4  25
ATOM     25  C   UNL A   1      31.229  27.319  22.777  1.00  0.00     0.105 C 
ATOM     26  C   UNL A   1      29.863  27.833  23.232  1.00  0.00     0.023 C 
BRANCH  25  27
ATOM     27  C   UNL A   1      32.428  28.036  23.416  1.00  0.00     0.227 C 
ATOM     28  O   UNL A   1      33.192  28.705  22.710  1.00  0.00    -0.274 OA
ATOM     29  N   UNL A   1      32.726  27.990  24.743  1.00  0.00    -0.356 N 
ATOM     30  H   UNL A   1      33.494  28.549  25.001  1.00  0.00     0.163 HD
BRANCH  29  31
ATOM     31  C   UNL A   1      32.125  27.271  25.849  1.00  0.00     0.117 C 
BRANCH  31  32
ATOM     32  C   UNL A   1      32.433  27.918  27.198  1.00  0.00     0.042 C 
BRANCH  32  33
ATOM     33  C   UNL A   1      33.820  28.540  27.285  1.00  0.00     0.118 C 
BRANCH  33  34
ATOM     34  N   UNL A   1      33.772  29.940  27.683  1.00  0.00    -0.352 N 
ATOM     35  C   UNL A   1      34.685  30.720  28.347  1.00  0.00     0.251 C 
ATOM     36  H   UNL A   1      32.941  30.407  27.434  1.00  0.00     0.163 HD
ATOM     37  O   UNL A   1      34.333  31.822  28.760  1.00  0.00    -0.269 OA
BRANCH  35  38
ATOM     38  C   UNL A   1      36.077  30.266  28.581  1.00  0.00     0.039 A 
ATOM     39  C   UNL A   1      36.387  29.678  29.813  1.00  0.00     0.014 A 
ATOM     40  C   UNL A   1      37.094  30.480  27.647  1.00  0.00     0.014 A 
ATOM     41  C   UNL A   1      37.697  29.277  30.091  1.00  0.00     0.010 A 
ATOM     42  C   UNL A   1      38.381  30.002  27.890  1.00  0.00     0.010 A 
ATOM     43  C   UNL A   1      38.702  29.418  29.123  1.00  0.00    -0.014 A 
BRANCH  43  44
ATOM     44  C   UNL A   1      40.099  28.994  29.401  1.00  0.00     0.031 A 
ATOM     45  C   UNL A   1      41.016  29.883  30.198  1.00  0.00     0.074 A 
ATOM     46  C   UNL A   1      40.558  27.831  28.900  1.00  0.00     0.049 A 
ATOM     47  N   UNL A   1      42.278  29.712  30.507  1.00  0.00    -0.248 NA
ATOM     48  C   UNL A   1      40.446  31.147  30.692  1.00  0.00     0.031 C 
ATOM     49  C   UNL A   1      39.785  26.905  28.070  1.00  0.00     0.029 A 
ATOM     50  N   UNL A   1      41.788  27.231  29.010  1.00  0.00    -0.354 N 
ATOM     51  C   UNL A   1      42.654  30.851  31.209  1.00  0.00     0.074 A 
ATOM     52  C   UNL A   1      41.505  31.729  31.237  1.00  0.00     0.031 C 
ATOM     53  C   UNL A   1      40.551  25.845  27.766  1.00  0.00     0.029 A 
ATOM     54  C   UNL A   1      41.875  26.030  28.350  1.00  0.00     0.049 A 
ATOM     55  H   UNL A   1      42.536  27.625  29.513  1.00  0.00     0.167 HD
ATOM     56  C   UNL A   1      43.841  31.130  31.797  1.00  0.00     0.037 A 
ATOM     57  C   UNL A   1      42.909  25.176  28.230  1.00  0.00     0.037 A 
ATOM     58  C   UNL A   1      44.974  30.240  31.795  1.00  0.00     0.049 A 
ATOM     59  C   UNL A   1      44.210  25.498  28.913  1.00  0.00     0.074 A 
ATOM     60  C   UNL A   1      46.202  30.404  32.409  1.00  0.00     0.029 A 
ATOM     61  N   UNL A   1      45.011  29.015  31.146  1.00  0.00    -0.354 N 
ATOM     62  N   UNL A   1      44.533  26.547  29.630  1.00  0.00    -0.248 NA
ATOM     63  C   UNL A   1      45.287  24.507  28.783  1.00  0.00     0.031 C 
ATOM     64  C   UNL A   1      46.998  29.295  32.100  1.00  0.00     0.029 A 
ATOM     65  C   UNL A   1      46.247  28.417  31.336  1.00  0.00     0.049 A 
ATOM     66  H   UNL A   1      44.269  28.627  30.628  1.00  0.00     0.167 HD
ATOM     67  C   UNL A   1      45.835  26.331  30.060  1.00  0.00     0.074 A 
ATOM     68  C   UNL A   1      46.237  25.041  29.537  1.00  0.00     0.031 C 
ATOM     69  C   UNL A   1      46.627  27.128  30.818  1.00  0.00     0.037 A 
BRANCH  56  70
ATOM     70  C   UNL A   1      43.975  32.450  32.500  1.00  0.00     0.064 A 
ATOM     71  C   UNL A   1      44.445  33.594  31.836  1.00  0.00     0.173 A 
ATOM     72  C   UNL A   1      43.600  32.583  33.846  1.00  0.00     0.173 A 
ATOM     73  F   UNL A   1      44.829  33.520  30.553  1.00  0.00    -0.203 F 
ATOM     74  C   UNL A   1      44.563  34.813  32.501  1.00  0.00     0.198 A 
ATOM     75  C   UNL A   1      43.688  33.810  34.499  1.00  0.00     0.198 A 
ATOM     76  F   UNL A   1      43.137  31.524  34.527  1.00  0.00    -0.203 F 
ATOM     77  F   UNL A   1      45.062  35.878  31.859  1.00  0.00    -0.200 F 
ATOM     78  C   UNL A   1      44.178  34.921  33.828  1.00  0.00     0.200 A 
ATOM     79  F   UNL A   1      43.303  33.917  35.777  1.00  0.00    -0.200 F 
ATOM     80  F   UNL A   1      44.284  36.096  34.464  1.00  0.00    -0.200 F 
ENDBRANCH  56  70
BRANCH  57  81
ATOM     81  C   UNL A   1      42.743  23.914  27.463  1.00  0.00     0.064 A 
ATOM     82  C   UNL A   1      42.235  22.761  28.077  1.00  0.00     0.173 A 
ATOM     83  C   UNL A   1      43.091  23.832  26.107  1.00  0.00     0.173 A 
ATOM     84  F   UNL A   1      41.908  22.785  29.378  1.00  0.00    -0.203 F 
ATOM     85  C   UNL A   1      42.103  21.568  27.371  1.00  0.00     0.198 A 
ATOM     86  C   UNL A   1      42.930  22.645  25.394  1.00  0.00     0.198 A 
ATOM     87  F   UNL A   1      43.576  24.908  25.471  1.00  0.00    -0.203 F 
ATOM     88  F   UNL A   1      41.659  20.467  27.996  1.00  0.00    -0.200 F 
ATOM     89  C   UNL A   1      42.444  21.512  26.028  1.00  0.00     0.200 A 
ATOM     90  F   UNL A   1      43.248  22.598  24.092  1.00  0.00    -0.200 F 
ATOM     91  F   UNL A   1      42.313  20.365  25.349  1.00  0.00    -0.200 F 
ENDBRANCH  57  81
BRANCH  69  92
ATOM     92  C   UNL A   1      47.991  26.606  31.166  1.00  0.00     0.064 A 
ATOM     93  C   UNL A   1      49.110  26.877  30.367  1.00  0.00     0.173 A 
ATOM     94  C   UNL A   1      48.181  25.846  32.330  1.00  0.00     0.173 A 
ATOM     95  F   UNL A   1      48.978  27.587  29.236  1.00  0.00    -0.203 F 
ATOM     96  C   UNL A   1      50.366  26.376  30.702  1.00  0.00     0.198 A 
ATOM     97  C   UNL A   1      49.443  25.374  32.679  1.00  0.00     0.198 A 
ATOM     98  F   UNL A   1      47.144  25.566  33.133  1.00  0.00    -0.203 F 
ATOM     99  F   UNL A   1      51.411  26.600  29.895  1.00  0.00    -0.200 F 
ATOM    100  C   UNL A   1      50.533  25.631  31.860  1.00  0.00     0.200 A 
ATOM    101  F   UNL A   1      49.605  24.665  33.804  1.00  0.00    -0.200 F 
ATOM    102  F   UNL A   1      51.742  25.152  32.182  1.00  0.00    -0.200 F 
ENDBRANCH  69  92
ENDBRANCH  43  44
ENDBRANCH  35  38
ENDBRANCH  33  34
ENDBRANCH  32  33
ENDBRANCH  31  32
ENDBRANCH  29  31
ENDBRANCH  25  27
ENDBRANCH   4  25
TORSDOF 19
ENDMDL
MODEL 2
REMARK VINA RESULT:     -11.1      1.954      2.611
REMARK SMILES CCCCCCNC(=O)Oc1cccc(-c2ccc([C@@H](C)C(=O)NCCCNC(=O)c3ccc(-c4c5nc(c(-c6c(F)c(F)c(F)c(F)c6F)c6ccc([nH]6)c(-c6c(F)c(F)c(F)c(F)c6F)c6nc(c(-c7c(F)c(F)c(F)c(F)c7F)c7ccc4[nH]7)C=C6)C=C5)cc3)cc2F)c1
REMARK SMILES IDX 16 1 17 2 18 3 19 4 94 5 95 6 96 7 15 8 11 9 12 10 97 11
REMARK SMILES IDX 13 12 14 13 10 14 8 15 7 16 9 18 6 19 5 20 4 21 3 22 2 23
REMARK SMILES IDX 1 24 20 25 21 26 22 27 23 28 24 29 25 31 26 32 27 33 28 34
REMARK SMILES IDX 29 35 30 37 31 38 32 39 93 40 33 41 92 42 34 43 35 44 36 45
REMARK SMILES IDX 86 46 37 47 91 48 85 49 87 50 38 51 90 52 84 53 83 54 39 56
REMARK SMILES IDX 71 57 51 58 70 59 52 60 55 61 69 62 88 63 53 64 54 65 68 67
REMARK SMILES IDX 89 68 56 69 40 70 41 71 49 72 42 73 43 74 47 75 50 76 44 77
REMARK SMILES IDX 45 78 48 79 46 80 72 81 73 82 81 83 74 84 75 85 79 86 82 87
REMARK SMILES IDX 76 88 77 89 80 90 78 91 57 92 58 93 66 94 59 95 60 96 64 97
REMARK SMILES IDX 67 98 61 99 62 100 65 101 63 102
REMARK H PARENT 7 17 24 30 28 36 87 55 55 66
REMARK Flexibility Score: inf
ROOT
ATOM      1  C   UNL A   1      31.724  23.517  22.861  1.00  0.00     0.018 A 
ATOM      2  C   UNL A   1      30.656  24.027  23.619  1.00  0.00     0.012 A 
ATOM      3  C   UNL A   1      30.242  25.361  23.507  1.00  0.00     0.005 A 
ATOM      4  C   UNL A   1      30.921  26.262  22.682  1.00  0.00    -0.033 A 
ATOM      5  C   UNL A   1      31.969  25.757  21.899  1.00  0.00     0.044 A 
ATOM      6  C   UNL A   1      32.342  24.412  21.975  1.00  0.00     0.131 A 
ATOM      7  F   UNL A   1      33.329  23.999  21.164  1.00  0.00    -0.206 F 
ENDROOT
BRANCH   1   8
ATOM      8  C   UNL A   1      32.170  22.113  23.028  1.00  0.00    -0.012 A 
ATOM      9  C   UNL A   1      33.368  20.391  24.264  1.00  0.00     0.133 A 
ATOM     10  C   UNL A   1      32.956  19.410  23.370  1.00  0.00     0.047 A 
ATOM     11  C   UNL A   1      32.993  21.726  24.101  1.00  0.00     0.056 A 
ATOM     12  C   UNL A   1      32.141  19.768  22.303  1.00  0.00     0.004 A 
ATOM     13  C   UNL A   1      31.762  21.104  22.132  1.00  0.00     0.009 A 
BRANCH   9  14
ATOM     14  O   UNL A   1      34.279  20.002  25.258  1.00  0.00    -0.410 OA
BRANCH  14  15
ATOM     15  C   UNL A   1      35.336  20.852  25.545  1.00  0.00     0.412 C 
ATOM     16  N   UNL A   1      35.160  21.542  26.714  1.00  0.00    -0.321 N 
ATOM     17  H   UNL A   1      35.875  22.168  26.969  1.00  0.00     0.167 HD
ATOM     18  O   UNL A   1      36.336  21.018  24.858  1.00  0.00    -0.224 OA
BRANCH  16  19
ATOM     19  C   UNL A   1      34.028  21.447  27.614  1.00  0.00     0.119 C 
BRANCH  19  20
ATOM     20  C   UNL A   1      33.470  22.822  27.979  1.00  0.00     0.021 C 
BRANCH  20  21
ATOM     21  C   UNL A   1      32.350  23.326  27.062  1.00  0.00     0.002 C 
BRANCH  21  22
ATOM     22  C   UNL A   1      32.586  24.700  26.423  1.00  0.00    -0.000 C 
BRANCH  22  23
ATOM     23  C   UNL A   1      34.005  24.951  25.908  1.00  0.00    -0.003 C 
ATOM     24  C   UNL A   1      34.057  25.920  24.737  1.00  0.00     0.004 C 
ENDBRANCH  22  23
ENDBRANCH  21  22
ENDBRANCH  20  21
ENDBRANCH  19  20
ENDBRANCH  16  19
ENDBRANCH  14  15
ENDBRANCH   9  14
ENDBRANCH   1   8
BRANCH   4  25
ATOM     25  C   UNL A   1      30.604  27.748  22.639  1.00  0.00     0.105 C 
ATOM     26  C   UNL A   1      29.217  28.147  23.141  1.00  0.00     0.023 C 
BRANCH  25  27
ATOM     27  C   UNL A   1      31.750  28.629  23.158  1.00  0.00     0.227 C 
ATOM     28  O   UNL A   1      32.499  29.200  22.356  1.00  0.00    -0.274 OA
ATOM     29  N   UNL A   1      32.017  28.836  24.476  1.00  0.00    -0.356 N 
ATOM     30  H   UNL A   1      32.751  29.472  24.641  1.00  0.00     0.163 HD
BRANCH  29  31
ATOM     31  C   UNL A   1      31.424  28.296  25.683  1.00  0.00     0.117 C 
BRANCH  31  32
ATOM     32  C   UNL A   1      32.180  28.719  26.941  1.00  0.00     0.042 C 
BRANCH  32  33
ATOM     33  C   UNL A   1      33.520  29.389  26.664  1.00  0.00     0.118 C 
BRANCH  33  34
ATOM     34  N   UNL A   1      33.490  30.818  26.942  1.00  0.00    -0.352 N 
ATOM     35  C   UNL A   1      34.262  31.590  27.772  1.00  0.00     0.251 C 
ATOM     36  H   UNL A   1      32.796  31.315  26.450  1.00  0.00     0.163 HD
ATOM     37  O   UNL A   1      33.911  32.745  28.003  1.00  0.00    -0.269 OA
BRANCH  35  38
ATOM     38  C   UNL A   1      35.502  31.069  28.397  1.00  0.00     0.039 A 
ATOM     39  C   UNL A   1      36.698  31.764  28.183  1.00  0.00     0.014 A 
ATOM     40  C   UNL A   1      35.522  29.873  29.118  1.00  0.00     0.014 A 
ATOM     41  C   UNL A   1      37.896  31.282  28.718  1.00  0.00     0.010 A 
ATOM     42  C   UNL A   1      36.700  29.438  29.723  1.00  0.00     0.010 A 
ATOM     43  C   UNL A   1      37.905  30.124  29.510  1.00  0.00    -0.014 A 
BRANCH  43  44
ATOM     44  C   UNL A   1      39.169  29.600  30.089  1.00  0.00     0.031 A 
ATOM     45  C   UNL A   1      39.712  30.178  31.368  1.00  0.00     0.074 A 
ATOM     46  C   UNL A   1      39.851  28.634  29.444  1.00  0.00     0.049 A 
ATOM     47  N   UNL A   1      40.819  29.889  32.007  1.00  0.00    -0.248 NA
ATOM     48  C   UNL A   1      38.920  31.245  32.001  1.00  0.00     0.031 C 
ATOM     49  C   UNL A   1      39.456  28.027  28.172  1.00  0.00     0.029 A 
ATOM     50  N   UNL A   1      41.024  27.998  29.765  1.00  0.00    -0.354 N 
ATOM     51  C   UNL A   1      40.864  30.748  33.098  1.00  0.00     0.074 A 
ATOM     52  C   UNL A   1      39.702  31.605  33.008  1.00  0.00     0.031 C 
ATOM     53  C   UNL A   1      40.358  27.091  27.834  1.00  0.00     0.029 A 
ATOM     54  C   UNL A   1      41.409  27.055  28.845  1.00  0.00     0.049 A 
ATOM     55  H   UNL A   1      41.541  28.200  30.579  1.00  0.00     0.167 HD
ATOM     56  C   UNL A   1      41.777  30.803  34.096  1.00  0.00     0.037 A 
ATOM     57  C   UNL A   1      42.489  26.252  28.821  1.00  0.00     0.037 A 
ATOM     58  C   UNL A   1      42.916  29.928  34.200  1.00  0.00     0.049 A 
ATOM     59  C   UNL A   1      43.476  26.316  29.954  1.00  0.00     0.074 A 
ATOM     60  C   UNL A   1      43.869  29.865  35.200  1.00  0.00     0.029 A 
ATOM     61  N   UNL A   1      43.252  28.959  33.265  1.00  0.00    -0.354 N 
ATOM     62  N   UNL A   1      43.472  27.087  31.015  1.00  0.00    -0.248 NA
ATOM     63  C   UNL A   1      44.611  25.385  29.895  1.00  0.00     0.031 C 
ATOM     64  C   UNL A   1      44.804  28.883  34.853  1.00  0.00     0.029 A 
ATOM     65  C   UNL A   1      44.405  28.301  33.661  1.00  0.00     0.049 A 
ATOM     66  H   UNL A   1      42.746  28.768  32.443  1.00  0.00     0.167 HD
ATOM     67  C   UNL A   1      44.582  26.716  31.762  1.00  0.00     0.074 A 
ATOM     68  C   UNL A   1      45.227  25.638  31.040  1.00  0.00     0.031 C 
ATOM     69  C   UNL A   1      45.028  27.222  32.937  1.00  0.00     0.037 A 
BRANCH  56  70
ATOM     70  C   UNL A   1      41.579  31.841  35.163  1.00  0.00     0.064 A 
ATOM     71  C   UNL A   1      42.320  33.033  35.178  1.00  0.00     0.173 A 
ATOM     72  C   UNL A   1      40.614  31.658  36.165  1.00  0.00     0.173 A 
ATOM     73  F   UNL A   1      43.263  33.253  34.250  1.00  0.00    -0.203 F 
ATOM     74  C   UNL A   1      42.124  33.988  36.174  1.00  0.00     0.198 A 
ATOM     75  C   UNL A   1      40.398  32.629  37.141  1.00  0.00     0.198 A 
ATOM     76  F   UNL A   1      39.871  30.541  36.195  1.00  0.00    -0.203 F 
ATOM     77  F   UNL A   1      42.880  35.094  36.195  1.00  0.00    -0.200 F 
ATOM     78  C   UNL A   1      41.159  33.789  37.148  1.00  0.00     0.200 A 
ATOM     79  F   UNL A   1      39.456  32.441  38.074  1.00  0.00    -0.200 F 
ATOM     80  F   UNL A   1      40.966  34.711  38.101  1.00  0.00    -0.200 F 
ENDBRANCH  56  70
BRANCH  57  81
ATOM     81  C   UNL A   1      42.674  25.290  27.704  1.00  0.00     0.064 A 
ATOM     82  C   UNL A   1      42.004  24.059  27.698  1.00  0.00     0.173 A 
ATOM     83  C   UNL A   1      43.522  25.577  26.625  1.00  0.00     0.173 A 
ATOM     84  F   UNL A   1      41.197  23.730  28.718  1.00  0.00    -0.203 F 
ATOM     85  C   UNL A   1      42.193  23.141  26.667  1.00  0.00     0.198 A 
ATOM     86  C   UNL A   1      43.688  24.670  25.579  1.00  0.00     0.198 A 
ATOM     87  F   UNL A   1      44.182  26.743  26.580  1.00  0.00    -0.203 F 
ATOM     88  F   UNL A   1      41.577  21.951  26.710  1.00  0.00    -0.200 F 
ATOM     89  C   UNL A   1      43.030  23.450  25.605  1.00  0.00     0.200 A 
ATOM     90  F   UNL A   1      44.487  24.977  24.548  1.00  0.00    -0.200 F 
ATOM     91  F   UNL A   1      43.209  22.568  24.612  1.00  0.00    -0.200 F 
ENDBRANCH  57  81
BRANCH  69  92
ATOM     92  C   UNL A   1      46.246  26.584  33.540  1.00  0.00     0.064 A 
ATOM     93  C   UNL A   1      47.537  27.062  33.275  1.00  0.00     0.173 A 
ATOM     94  C   UNL A   1      46.114  25.495  34.415  1.00  0.00     0.173 A 
ATOM     95  F   UNL A   1      47.717  28.091  32.434  1.00  0.00    -0.203 F 
ATOM     96  C   UNL A   1      48.655  26.450  33.837  1.00  0.00     0.198 A 
ATOM     97  C   UNL A   1      47.231  24.906  34.999  1.00  0.00     0.198 A 
ATOM     98  F   UNL A   1      44.900  25.005  34.708  1.00  0.00    -0.203 F 
ATOM     99  F   UNL A   1      49.882  26.888  33.525  1.00  0.00    -0.200 F 
ATOM    100  C   UNL A   1      48.501  25.378  34.703  1.00  0.00     0.200 A 
ATOM    101  F   UNL A   1      47.080  23.878  35.845  1.00  0.00    -0.200 F 
ATOM    102  F   UNL A   1      49.578  24.792  35.244  1.00  0.00    -0.200 F 
ENDBRANCH  69  92
ENDBRANCH  43  44
ENDBRANCH  35  38
ENDBRANCH  33  34
ENDBRANCH  32  33
ENDBRANCH  31  32
ENDBRANCH  29  31
ENDBRANCH  25  27
ENDBRANCH   4  25
TORSDOF 19
ENDMDL
MODEL 3
REMARK VINA RESULT:     -11.1      4.733      8.041
REMARK SMILES CCCCCCNC(=O)Oc1cccc(-c2ccc([C@@H](C)C(=O)NCCCNC(=O)c3ccc(-c4c5nc(c(-c6c(F)c(F)c(F)c(F)c6F)c6ccc([nH]6)c(-c6c(F)c(F)c(F)c(F)c6F)c6nc(c(-c7c(F)c(F)c(F)c(F)c7F)c7ccc4[nH]7)C=C6)C=C5)cc3)cc2F)c1
REMARK SMILES IDX 16 1 17 2 18 3 19 4 94 5 95 6 96 7 15 8 11 9 12 10 97 11
REMARK SMILES IDX 13 12 14 13 10 14 8 15 7 16 9 18 6 19 5 20 4 21 3 22 2 23
REMARK SMILES IDX 1 24 20 25 21 26 22 27 23 28 24 29 25 31 26 32 27 33 28 34
REMARK SMILES IDX 29 35 30 37 31 38 32 39 93 40 33 41 92 42 34 43 35 44 36 45
REMARK SMILES IDX 86 46 37 47 91 48 85 49 87 50 38 51 90 52 84 53 83 54 39 56
REMARK SMILES IDX 71 57 51 58 70 59 52 60 55 61 69 62 88 63 53 64 54 65 68 67
REMARK SMILES IDX 89 68 56 69 40 70 41 71 49 72 42 73 43 74 47 75 50 76 44 77
REMARK SMILES IDX 45 78 48 79 46 80 72 81 73 82 81 83 74 84 75 85 79 86 82 87
REMARK SMILES IDX 76 88 77 89 80 90 78 91 57 92 58 93 66 94 59 95 60 96 64 97
REMARK SMILES IDX 67 98 61 99 62 100 65 101 63 102
REMARK H PARENT 7 17 24 30 28 36 87 55 55 66
REMARK Flexibility Score: inf
ROOT
ATOM      1  C   UNL A   1      35.955  33.397  33.981  1.00  0.00     0.018 A 
ATOM      2  C   UNL A   1      35.526  34.674  34.382  1.00  0.00     0.012 A 
ATOM      3  C   UNL A   1      34.413  35.296  33.801  1.00  0.00     0.005 A 
ATOM      4  C   UNL A   1      33.720  34.697  32.745  1.00  0.00    -0.033 A 
ATOM      5  C   UNL A   1      34.120  33.410  32.357  1.00  0.00     0.044 A 
ATOM      6  C   UNL A   1      35.199  32.773  32.979  1.00  0.00     0.131 A 
ATOM      7  F   UNL A   1      35.492  31.527  32.576  1.00  0.00    -0.206 F 
ENDROOT
BRANCH   1   8
ATOM      8  C   UNL A   1      37.160  32.779  34.583  1.00  0.00    -0.012 A 
ATOM      9  C   UNL A   1      39.152  31.389  34.413  1.00  0.00     0.133 A 
ATOM     10  C   UNL A   1      39.499  31.660  35.732  1.00  0.00     0.047 A 
ATOM     11  C   UNL A   1      37.998  31.929  33.840  1.00  0.00     0.056 A 
ATOM     12  C   UNL A   1      38.687  32.499  36.486  1.00  0.00     0.004 A 
ATOM     13  C   UNL A   1      37.529  33.042  35.918  1.00  0.00     0.009 A 
BRANCH   9  14
ATOM     14  O   UNL A   1      39.939  30.450  33.730  1.00  0.00    -0.410 OA
BRANCH  14  15
ATOM     15  C   UNL A   1      39.401  29.195  33.492  1.00  0.00     0.412 C 
ATOM     16  N   UNL A   1      40.342  28.201  33.518  1.00  0.00    -0.321 N 
ATOM     17  H   UNL A   1      40.021  27.285  33.349  1.00  0.00     0.167 HD
ATOM     18  O   UNL A   1      38.225  28.945  33.262  1.00  0.00    -0.224 OA
BRANCH  16  19
ATOM     19  C   UNL A   1      41.761  28.357  33.769  1.00  0.00     0.119 C 
BRANCH  19  20
ATOM     20  C   UNL A   1      42.195  27.654  35.055  1.00  0.00     0.021 C 
BRANCH  20  21
ATOM     21  C   UNL A   1      42.200  26.123  34.981  1.00  0.00     0.002 C 
BRANCH  21  22
ATOM     22  C   UNL A   1      43.550  25.482  34.635  1.00  0.00    -0.000 C 
BRANCH  22  23
ATOM     23  C   UNL A   1      43.861  25.370  33.141  1.00  0.00    -0.003 C 
ATOM     24  C   UNL A   1      44.379  23.998  32.736  1.00  0.00     0.004 C 
ENDBRANCH  22  23
ENDBRANCH  21  22
ENDBRANCH  20  21
ENDBRANCH  19  20
ENDBRANCH  16  19
ENDBRANCH  14  15
ENDBRANCH   9  14
ENDBRANCH   1   8
BRANCH   4  25
ATOM     25  C   UNL A   1      32.603  35.393  31.986  1.00  0.00     0.105 C 
ATOM     26  C   UNL A   1      31.435  35.898  32.834  1.00  0.00     0.023 C 
BRANCH  25  27
ATOM     27  C   UNL A   1      33.112  36.395  30.939  1.00  0.00     0.227 C 
ATOM     28  O   UNL A   1      33.242  37.588  31.241  1.00  0.00    -0.274 OA
ATOM     29  N   UNL A   1      33.442  36.063  29.662  1.00  0.00    -0.356 N 
ATOM     30  H   UNL A   1      33.806  36.812  29.134  1.00  0.00     0.163 HD
BRANCH  29  31
ATOM     31  C   UNL A   1      33.359  34.815  28.930  1.00  0.00     0.117 C 
BRANCH  31  32
ATOM     32  C   UNL A   1      34.561  33.909  29.189  1.00  0.00     0.042 C 
BRANCH  32  33
ATOM     33  C   UNL A   1      34.950  33.040  27.999  1.00  0.00     0.118 C 
BRANCH  33  34
ATOM     34  N   UNL A   1      34.162  31.818  27.928  1.00  0.00    -0.352 N 
ATOM     35  C   UNL A   1      34.543  30.500  27.907  1.00  0.00     0.251 C 
ATOM     36  H   UNL A   1      33.188  31.962  27.886  1.00  0.00     0.163 HD
ATOM     37  O   UNL A   1      33.705  29.645  27.629  1.00  0.00    -0.269 OA
BRANCH  35  38
ATOM     38  C   UNL A   1      35.934  30.084  28.208  1.00  0.00     0.039 A 
ATOM     39  C   UNL A   1      36.245  29.699  29.518  1.00  0.00     0.014 A 
ATOM     40  C   UNL A   1      36.949  30.141  27.250  1.00  0.00     0.014 A 
ATOM     41  C   UNL A   1      37.554  29.342  29.854  1.00  0.00     0.010 A 
ATOM     42  C   UNL A   1      38.235  29.703  27.564  1.00  0.00     0.010 A 
ATOM     43  C   UNL A   1      38.557  29.322  28.874  1.00  0.00    -0.014 A 
BRANCH  43  44
ATOM     44  C   UNL A   1      39.953  28.941  29.212  1.00  0.00     0.031 A 
ATOM     45  C   UNL A   1      40.816  29.872  30.023  1.00  0.00     0.074 A 
ATOM     46  C   UNL A   1      40.460  27.780  28.756  1.00  0.00     0.049 A 
ATOM     47  N   UNL A   1      42.069  29.741  30.383  1.00  0.00    -0.248 NA
ATOM     48  C   UNL A   1      40.195  31.130  30.467  1.00  0.00     0.031 C 
ATOM     49  C   UNL A   1      39.744  26.816  27.919  1.00  0.00     0.029 A 
ATOM     50  N   UNL A   1      41.700  27.216  28.925  1.00  0.00    -0.354 N 
ATOM     51  C   UNL A   1      42.388  30.905  31.072  1.00  0.00     0.074 A 
ATOM     52  C   UNL A   1      41.217  31.752  31.037  1.00  0.00     0.031 C 
ATOM     53  C   UNL A   1      40.548  25.771  27.668  1.00  0.00     0.029 A 
ATOM     54  C   UNL A   1      41.844  26.004  28.296  1.00  0.00     0.049 A 
ATOM     55  H   UNL A   1      42.419  27.641  29.446  1.00  0.00     0.167 HD
ATOM     56  C   UNL A   1      43.545  31.228  31.698  1.00  0.00     0.037 A 
ATOM     57  C   UNL A   1      42.903  25.175  28.234  1.00  0.00     0.037 A 
ATOM     58  C   UNL A   1      44.699  30.369  31.758  1.00  0.00     0.049 A 
ATOM     59  C   UNL A   1      44.168  25.547  28.958  1.00  0.00     0.074 A 
ATOM     60  C   UNL A   1      45.899  30.579  32.414  1.00  0.00     0.029 A 
ATOM     61  N   UNL A   1      44.793  29.131  31.139  1.00  0.00    -0.354 N 
ATOM     62  N   UNL A   1      44.437  26.619  29.662  1.00  0.00    -0.248 NA
ATOM     63  C   UNL A   1      45.275  24.582  28.890  1.00  0.00     0.031 C 
ATOM     64  C   UNL A   1      46.734  29.485  32.160  1.00  0.00     0.029 A 
ATOM     65  C   UNL A   1      46.036  28.571  31.388  1.00  0.00     0.049 A 
ATOM     66  H   UNL A   1      44.082  28.713  30.602  1.00  0.00     0.167 HD
ATOM     67  C   UNL A   1      45.727  26.448  30.145  1.00  0.00     0.074 A 
ATOM     68  C   UNL A   1      46.181  25.158  29.667  1.00  0.00     0.031 C 
ATOM     69  C   UNL A   1      46.469  27.281  30.914  1.00  0.00     0.037 A 
BRANCH  56  70
ATOM     70  C   UNL A   1      43.618  32.566  32.375  1.00  0.00     0.064 A 
ATOM     71  C   UNL A   1      44.084  33.708  31.704  1.00  0.00     0.173 A 
ATOM     72  C   UNL A   1      43.188  32.718  33.702  1.00  0.00     0.173 A 
ATOM     73  F   UNL A   1      44.518  33.616  30.438  1.00  0.00    -0.203 F 
ATOM     74  C   UNL A   1      44.144  34.943  32.344  1.00  0.00     0.198 A 
ATOM     75  C   UNL A   1      43.220  33.961  34.330  1.00  0.00     0.198 A 
ATOM     76  F   UNL A   1      42.727  31.662  34.390  1.00  0.00    -0.203 F 
ATOM     77  F   UNL A   1      44.640  36.007  31.697  1.00  0.00    -0.200 F 
ATOM     78  C   UNL A   1      43.706  35.070  33.653  1.00  0.00     0.200 A 
ATOM     79  F   UNL A   1      42.784  34.086  35.591  1.00  0.00    -0.200 F 
ATOM     80  F   UNL A   1      43.758  36.261  34.266  1.00  0.00    -0.200 F 
ENDBRANCH  56  70
BRANCH  57  81
ATOM     81  C   UNL A   1      42.799  23.893  27.490  1.00  0.00     0.064 A 
ATOM     82  C   UNL A   1      43.189  23.809  26.146  1.00  0.00     0.173 A 
ATOM     83  C   UNL A   1      42.309  22.731  28.101  1.00  0.00     0.173 A 
ATOM     84  F   UNL A   1      43.645  24.900  25.511  1.00  0.00    -0.203 F 
ATOM     85  C   UNL A   1      43.070  22.617  25.435  1.00  0.00     0.198 A 
ATOM     86  C   UNL A   1      42.218  21.531  27.397  1.00  0.00     0.198 A 
ATOM     87  F   UNL A   1      41.928  22.757  29.386  1.00  0.00    -0.203 F 
ATOM     88  F   UNL A   1      43.405  22.577  24.137  1.00  0.00    -0.200 F 
ATOM     89  C   UNL A   1      42.590  21.478  26.063  1.00  0.00     0.200 A 
ATOM     90  F   UNL A   1      41.767  20.428  28.011  1.00  0.00    -0.200 F 
ATOM     91  F   UNL A   1      42.479  20.331  25.379  1.00  0.00    -0.200 F 
ENDBRANCH  57  81
BRANCH  69  92
ATOM     92  C   UNL A   1      47.831  26.804  31.325  1.00  0.00     0.064 A 
ATOM     93  C   UNL A   1      48.957  27.000  30.512  1.00  0.00     0.173 A 
ATOM     94  C   UNL A   1      48.014  26.164  32.560  1.00  0.00     0.173 A 
ATOM     95  F   UNL A   1      48.833  27.593  29.316  1.00  0.00    -0.203 F 
ATOM     96  C   UNL A   1      50.212  26.541  30.907  1.00  0.00     0.198 A 
ATOM     97  C   UNL A   1      49.274  25.736  32.965  1.00  0.00     0.198 A 
ATOM     98  F   UNL A   1      46.970  25.961  33.378  1.00  0.00    -0.203 F 
ATOM     99  F   UNL A   1      51.264  26.689  30.091  1.00  0.00    -0.200 F 
ATOM    100  C   UNL A   1      50.371  25.916  32.135  1.00  0.00     0.200 A 
ATOM    101  F   UNL A   1      49.429  25.143  34.157  1.00  0.00    -0.200 F 
ATOM    102  F   UNL A   1      51.579  25.477  32.513  1.00  0.00    -0.200 F 
ENDBRANCH  69  92
ENDBRANCH  43  44
ENDBRANCH  35  38
ENDBRANCH  33  34
ENDBRANCH  32  33
ENDBRANCH  31  32
ENDBRANCH  29  31
ENDBRANCH  25  27
ENDBRANCH   4  25
TORSDOF 19
ENDMDL
