MODEL 1
REMARK VINA RESULT:     -13.8      0.000      0.000
REMARK SMILES Cc1cc(=O)n2cc(-c3ccccc3)nc2n1[C@H](C)C(=O)NCCCNC(=O)c1ccc(-c2c3nc(c(-c4c(F)c(F)c(F)c(F)c4F)c4ccc([nH]4)c(-c4c(F)c(F)c(F)c(F)c4F)c4nc(c(-c5c(F)c(F)c(F)c(F)c5F)c5ccc2[nH]5)C=C4)C=C3)cc1
REMARK SMILES IDX 24 1 23 2 22 3 20 4 21 5 18 7 19 8 17 9 1 10 2 11 3 12 4 13
REMARK SMILES IDX 16 14 5 15 6 16 15 17 7 18 8 19 9 20 10 21 14 22 11 23 13 24
REMARK SMILES IDX 12 25 25 26 26 27 27 28 28 30 29 31 30 32 91 33 31 34 90 35
REMARK SMILES IDX 32 36 33 37 34 38 84 39 35 40 89 41 83 42 85 43 36 44 88 45
REMARK SMILES IDX 82 46 81 47 37 49 69 50 49 51 68 52 50 53 53 54 67 55 86 56
REMARK SMILES IDX 51 57 52 58 66 60 87 61 54 62 38 63 39 64 47 65 40 66 41 67
REMARK SMILES IDX 45 68 48 69 42 70 43 71 46 72 44 73 70 74 71 75 79 76 72 77
REMARK SMILES IDX 73 78 77 79 80 80 74 81 75 82 78 83 76 84 55 85 56 86 64 87
REMARK SMILES IDX 57 88 58 89 62 90 65 91 59 92 60 93 63 94 61 95
REMARK H PARENT 22 6 26 29 85 48 53 59
REMARK Flexibility Score: inf
ROOT
ATOM      1  C   UNL A   1      38.618  21.883  25.713  1.00  0.00     0.042 C 
ENDROOT
BRANCH   1   2
ATOM      2  C   UNL A   1      37.662  23.053  25.928  1.00  0.00     0.117 C 
BRANCH   2   3
ATOM      3  N   UNL A   1      36.350  22.658  26.410  1.00  0.00    -0.354 N 
ATOM      4  C   UNL A   1      35.106  22.862  25.888  1.00  0.00     0.242 C 
ATOM      5  O   UNL A   1      34.160  22.356  26.506  1.00  0.00    -0.273 OA
ATOM      6  H   UNL A   1      36.361  22.158  27.257  1.00  0.00     0.163 HD
BRANCH   4   7
ATOM      7  C   UNL A   1      34.842  23.715  24.631  1.00  0.00     0.176 C 
ATOM      8  C   UNL A   1      35.513  23.015  23.451  1.00  0.00     0.042 C 
BRANCH   7   9
ATOM      9  N   UNL A   1      33.404  24.139  24.506  1.00  0.00    -0.303 N 
ATOM     10  C   UNL A   1      32.808  21.964  23.326  1.00  0.00     0.065 C 
ATOM     11  C   UNL A   1      32.444  23.343  23.829  1.00  0.00     0.024 A 
ATOM     12  C   UNL A   1      31.187  23.774  23.607  1.00  0.00     0.093 A 
ATOM     13  C   UNL A   1      30.754  25.106  24.073  1.00  0.00     0.259 A 
ATOM     14  C   UNL A   1      33.015  25.358  25.011  1.00  0.00     0.218 A 
ATOM     15  O   UNL A   1      29.658  25.586  23.867  1.00  0.00    -0.269 OA
ATOM     16  N   UNL A   1      31.726  25.810  24.777  1.00  0.00    -0.251 N 
ATOM     17  N   UNL A   1      33.716  26.284  25.628  1.00  0.00    -0.212 NA
ATOM     18  C   UNL A   1      31.629  27.076  25.311  1.00  0.00     0.127 A 
ATOM     19  C   UNL A   1      32.871  27.339  25.831  1.00  0.00     0.091 A 
BRANCH  19  20
ATOM     20  C   UNL A   1      33.282  28.566  26.471  1.00  0.00     0.002 A 
ATOM     21  C   UNL A   1      34.572  28.698  26.995  1.00  0.00     0.010 A 
ATOM     22  C   UNL A   1      32.398  29.651  26.527  1.00  0.00     0.010 A 
ATOM     23  C   UNL A   1      34.974  29.905  27.570  1.00  0.00     0.001 A 
ATOM     24  C   UNL A   1      32.797  30.852  27.115  1.00  0.00     0.001 A 
ATOM     25  C   UNL A   1      34.086  30.980  27.632  1.00  0.00     0.000 A 
ENDBRANCH  19  20
ENDBRANCH   7   9
ENDBRANCH   4   7
ENDBRANCH   2   3
ENDBRANCH   1   2
BRANCH   1  26
ATOM     26  C   UNL A   1      39.669  21.802  26.803  1.00  0.00     0.118 C 
BRANCH  26  27
ATOM     27  N   UNL A   1      41.036  21.878  26.286  1.00  0.00    -0.352 N 
ATOM     28  C   UNL A   1      41.833  22.995  26.141  1.00  0.00     0.251 C 
ATOM     29  H   UNL A   1      41.437  21.023  26.006  1.00  0.00     0.163 HD
ATOM     30  O   UNL A   1      42.815  22.976  25.409  1.00  0.00    -0.269 OA
BRANCH  28  31
ATOM     31  C   UNL A   1      41.465  24.223  26.866  1.00  0.00     0.039 A 
ATOM     32  C   UNL A   1      42.125  24.585  28.040  1.00  0.00     0.014 A 
ATOM     33  C   UNL A   1      40.486  25.048  26.319  1.00  0.00     0.014 A 
ATOM     34  C   UNL A   1      41.861  25.836  28.590  1.00  0.00     0.010 A 
ATOM     35  C   UNL A   1      40.360  26.345  26.755  1.00  0.00     0.010 A 
ATOM     36  C   UNL A   1      41.009  26.735  27.915  1.00  0.00    -0.014 A 
BRANCH  36  37
ATOM     37  C   UNL A   1      40.907  28.124  28.358  1.00  0.00     0.031 A 
ATOM     38  C   UNL A   1      41.997  28.986  27.839  1.00  0.00     0.074 A 
ATOM     39  C   UNL A   1      39.881  28.643  29.069  1.00  0.00     0.049 A 
ATOM     40  N   UNL A   1      43.034  29.371  28.500  1.00  0.00    -0.248 NA
ATOM     41  C   UNL A   1      42.053  29.315  26.406  1.00  0.00     0.031 C 
ATOM     42  C   UNL A   1      38.606  28.004  29.419  1.00  0.00     0.029 A 
ATOM     43  N   UNL A   1      39.732  29.901  29.585  1.00  0.00    -0.354 N 
ATOM     44  C   UNL A   1      43.742  30.209  27.648  1.00  0.00     0.074 A 
ATOM     45  C   UNL A   1      43.214  29.974  26.332  1.00  0.00     0.031 C 
ATOM     46  C   UNL A   1      37.737  28.932  29.881  1.00  0.00     0.029 A 
ATOM     47  C   UNL A   1      38.451  30.182  30.053  1.00  0.00     0.049 A 
ATOM     48  H   UNL A   1      40.469  30.553  29.624  1.00  0.00     0.167 HD
ATOM     49  C   UNL A   1      44.462  31.236  28.180  1.00  0.00     0.037 A 
ATOM     50  C   UNL A   1      38.014  31.346  30.591  1.00  0.00     0.037 A 
ATOM     51  C   UNL A   1      44.575  31.076  29.611  1.00  0.00     0.049 A 
ATOM     52  C   UNL A   1      39.195  32.030  31.156  1.00  0.00     0.074 A 
ATOM     53  C   UNL A   1      45.322  30.334  30.497  1.00  0.00     0.029 A 
ATOM     54  N   UNL A   1      43.476  31.530  30.288  1.00  0.00    -0.354 N 
ATOM     55  N   UNL A   1      39.846  31.588  32.196  1.00  0.00    -0.248 NA
ATOM     56  C   UNL A   1      39.870  33.060  30.375  1.00  0.00     0.031 C 
ATOM     57  C   UNL A   1      44.573  30.281  31.712  1.00  0.00     0.029 A 
ATOM     58  C   UNL A   1      43.406  31.022  31.553  1.00  0.00     0.049 A 
ATOM     59  H   UNL A   1      42.813  32.150  29.907  1.00  0.00     0.167 HD
ATOM     60  C   UNL A   1      41.151  31.946  31.939  1.00  0.00     0.074 A 
ATOM     61  C   UNL A   1      41.082  32.995  30.932  1.00  0.00     0.031 C 
ATOM     62  C   UNL A   1      42.175  31.122  32.296  1.00  0.00     0.037 A 
BRANCH  49  63
ATOM     63  C   UNL A   1      44.589  32.625  27.580  1.00  0.00     0.064 A 
ATOM     64  C   UNL A   1      45.751  32.927  26.833  1.00  0.00     0.173 A 
ATOM     65  C   UNL A   1      43.829  33.741  27.986  1.00  0.00     0.173 A 
ATOM     66  F   UNL A   1      46.556  31.947  26.395  1.00  0.00    -0.203 F 
ATOM     67  C   UNL A   1      46.166  34.241  26.603  1.00  0.00     0.198 A 
ATOM     68  C   UNL A   1      44.222  35.051  27.713  1.00  0.00     0.198 A 
ATOM     69  F   UNL A   1      42.742  33.625  28.756  1.00  0.00    -0.203 F 
ATOM     70  F   UNL A   1      47.343  34.474  26.007  1.00  0.00    -0.200 F 
ATOM     71  C   UNL A   1      45.406  35.303  27.053  1.00  0.00     0.200 A 
ATOM     72  F   UNL A   1      43.483  36.069  28.176  1.00  0.00    -0.200 F 
ATOM     73  F   UNL A   1      45.831  36.563  26.894  1.00  0.00    -0.200 F 
ENDBRANCH  49  63
BRANCH  50  74
ATOM     74  C   UNL A   1      36.696  32.016  30.543  1.00  0.00     0.064 A 
ATOM     75  C   UNL A   1      35.849  32.009  31.666  1.00  0.00     0.173 A 
ATOM     76  C   UNL A   1      36.410  32.962  29.544  1.00  0.00     0.173 A 
ATOM     77  F   UNL A   1      36.065  31.148  32.671  1.00  0.00    -0.203 F 
ATOM     78  C   UNL A   1      34.826  32.949  31.819  1.00  0.00     0.198 A 
ATOM     79  C   UNL A   1      35.385  33.899  29.697  1.00  0.00     0.198 A 
ATOM     80  F   UNL A   1      37.192  33.066  28.459  1.00  0.00    -0.203 F 
ATOM     81  F   UNL A   1      34.103  32.971  32.947  1.00  0.00    -0.200 F 
ATOM     82  C   UNL A   1      34.610  33.908  30.845  1.00  0.00     0.200 A 
ATOM     83  F   UNL A   1      35.204  34.846  28.765  1.00  0.00    -0.200 F 
ATOM     84  F   UNL A   1      33.694  34.867  31.033  1.00  0.00    -0.200 F 
ENDBRANCH  50  74
BRANCH  62  85
ATOM     85  C   UNL A   1      41.941  30.180  33.428  1.00  0.00     0.064 A 
ATOM     86  C   UNL A   1      41.576  28.833  33.290  1.00  0.00     0.173 A 
ATOM     87  C   UNL A   1      42.175  30.666  34.721  1.00  0.00     0.173 A 
ATOM     88  F   UNL A   1      41.389  28.289  32.080  1.00  0.00    -0.203 F 
ATOM     89  C   UNL A   1      41.434  28.015  34.410  1.00  0.00     0.198 A 
ATOM     90  C   UNL A   1      42.062  29.840  35.832  1.00  0.00     0.198 A 
ATOM     91  F   UNL A   1      42.549  31.943  34.901  1.00  0.00    -0.203 F 
ATOM     92  F   UNL A   1      41.076  26.729  34.263  1.00  0.00    -0.200 F 
ATOM     93  C   UNL A   1      41.687  28.516  35.678  1.00  0.00     0.200 A 
ATOM     94  F   UNL A   1      42.341  30.324  37.051  1.00  0.00    -0.200 F 
ATOM     95  F   UNL A   1      41.587  27.719  36.751  1.00  0.00    -0.200 F 
ENDBRANCH  62  85
ENDBRANCH  36  37
ENDBRANCH  28  31
ENDBRANCH  26  27
ENDBRANCH   1  26
TORSDOF 12
ENDMDL
MODEL 2
REMARK VINA RESULT:     -13.7      3.695      8.266
REMARK SMILES Cc1cc(=O)n2cc(-c3ccccc3)nc2n1[C@H](C)C(=O)NCCCNC(=O)c1ccc(-c2c3nc(c(-c4c(F)c(F)c(F)c(F)c4F)c4ccc([nH]4)c(-c4c(F)c(F)c(F)c(F)c4F)c4nc(c(-c5c(F)c(F)c(F)c(F)c5F)c5ccc2[nH]5)C=C4)C=C3)cc1
REMARK SMILES IDX 24 1 23 2 22 3 20 4 21 5 18 7 19 8 17 9 1 10 2 11 3 12 4 13
REMARK SMILES IDX 16 14 5 15 6 16 15 17 7 18 8 19 9 20 10 21 14 22 11 23 13 24
REMARK SMILES IDX 12 25 25 26 26 27 27 28 28 30 29 31 30 32 91 33 31 34 90 35
REMARK SMILES IDX 32 36 33 37 34 38 84 39 35 40 89 41 83 42 85 43 36 44 88 45
REMARK SMILES IDX 82 46 81 47 37 49 69 50 49 51 68 52 50 53 53 54 67 55 86 56
REMARK SMILES IDX 51 57 52 58 66 60 87 61 54 62 38 63 39 64 47 65 40 66 41 67
REMARK SMILES IDX 45 68 48 69 42 70 43 71 46 72 44 73 70 74 71 75 79 76 72 77
REMARK SMILES IDX 73 78 77 79 80 80 74 81 75 82 78 83 76 84 55 85 56 86 64 87
REMARK SMILES IDX 57 88 58 89 62 90 65 91 59 92 60 93 63 94 61 95
REMARK H PARENT 22 6 26 29 85 48 53 59
REMARK Flexibility Score: inf
ROOT
ATOM      1  C   UNL A   1      33.501  28.600  27.150  1.00  0.00     0.042 C 
ENDROOT
BRANCH   1   2
ATOM      2  C   UNL A   1      32.974  28.954  25.762  1.00  0.00     0.117 C 
BRANCH   2   3
ATOM      3  N   UNL A   1      33.973  28.859  24.713  1.00  0.00    -0.354 N 
ATOM      4  C   UNL A   1      33.927  28.270  23.483  1.00  0.00     0.242 C 
ATOM      5  O   UNL A   1      34.934  28.396  22.773  1.00  0.00    -0.273 OA
ATOM      6  H   UNL A   1      34.830  29.295  24.925  1.00  0.00     0.163 HD
BRANCH   4   7
ATOM      7  C   UNL A   1      32.729  27.434  22.987  1.00  0.00     0.176 C 
ATOM      8  C   UNL A   1      33.121  26.823  21.643  1.00  0.00     0.042 C 
BRANCH   7   9
ATOM      9  N   UNL A   1      32.159  26.542  24.056  1.00  0.00    -0.303 N 
ATOM     10  C   UNL A   1      29.928  27.762  23.962  1.00  0.00     0.065 C 
ATOM     11  C   UNL A   1      30.851  26.733  24.573  1.00  0.00     0.024 A 
ATOM     12  C   UNL A   1      30.384  26.017  25.613  1.00  0.00     0.093 A 
ATOM     13  C   UNL A   1      31.223  24.989  26.259  1.00  0.00     0.259 A 
ATOM     14  C   UNL A   1      32.944  25.547  24.591  1.00  0.00     0.218 A 
ATOM     15  O   UNL A   1      30.894  24.340  27.231  1.00  0.00    -0.269 OA
ATOM     16  N   UNL A   1      32.471  24.815  25.668  1.00  0.00    -0.251 N 
ATOM     17  N   UNL A   1      34.185  25.206  24.321  1.00  0.00    -0.212 NA
ATOM     18  C   UNL A   1      33.475  23.955  26.057  1.00  0.00     0.127 A 
ATOM     19  C   UNL A   1      34.518  24.219  25.205  1.00  0.00     0.091 A 
BRANCH  19  20
ATOM     20  C   UNL A   1      35.819  23.594  25.235  1.00  0.00     0.002 A 
ATOM     21  C   UNL A   1      36.838  24.109  26.042  1.00  0.00     0.010 A 
ATOM     22  C   UNL A   1      36.050  22.435  24.484  1.00  0.00     0.010 A 
ATOM     23  C   UNL A   1      38.077  23.469  26.098  1.00  0.00     0.001 A 
ATOM     24  C   UNL A   1      37.294  21.804  24.530  1.00  0.00     0.001 A 
ATOM     25  C   UNL A   1      38.306  22.319  25.341  1.00  0.00     0.000 A 
ENDBRANCH  19  20
ENDBRANCH   7   9
ENDBRANCH   4   7
ENDBRANCH   2   3
ENDBRANCH   1   2
BRANCH   1  26
ATOM     26  C   UNL A   1      34.949  29.012  27.328  1.00  0.00     0.118 C 
BRANCH  26  27
ATOM     27  N   UNL A   1      35.165  29.844  28.513  1.00  0.00    -0.352 N 
ATOM     28  C   UNL A   1      36.254  29.855  29.361  1.00  0.00     0.251 C 
ATOM     29  H   UNL A   1      34.442  30.475  28.733  1.00  0.00     0.163 HD
ATOM     30  O   UNL A   1      36.176  30.352  30.479  1.00  0.00    -0.269 OA
BRANCH  28  31
ATOM     31  C   UNL A   1      37.508  29.233  28.906  1.00  0.00     0.039 A 
ATOM     32  C   UNL A   1      38.159  29.691  27.761  1.00  0.00     0.014 A 
ATOM     33  C   UNL A   1      38.066  28.218  29.681  1.00  0.00     0.014 A 
ATOM     34  C   UNL A   1      39.425  29.189  27.471  1.00  0.00     0.010 A 
ATOM     35  C   UNL A   1      39.379  27.859  29.498  1.00  0.00     0.010 A 
ATOM     36  C   UNL A   1      40.053  28.304  28.372  1.00  0.00    -0.014 A 
BRANCH  36  37
ATOM     37  C   UNL A   1      41.461  27.954  28.198  1.00  0.00     0.031 A 
ATOM     38  C   UNL A   1      41.661  26.685  27.456  1.00  0.00     0.074 A 
ATOM     39  C   UNL A   1      42.508  28.731  28.554  1.00  0.00     0.049 A 
ATOM     40  N   UNL A   1      41.954  25.543  27.979  1.00  0.00    -0.248 NA
ATOM     41  C   UNL A   1      41.337  26.613  26.024  1.00  0.00     0.031 C 
ATOM     42  C   UNL A   1      42.486  30.117  29.037  1.00  0.00     0.029 A 
ATOM     43  N   UNL A   1      43.848  28.460  28.497  1.00  0.00    -0.354 N 
ATOM     44  C   UNL A   1      42.111  24.664  26.916  1.00  0.00     0.074 A 
ATOM     45  C   UNL A   1      41.524  25.313  25.774  1.00  0.00     0.031 C 
ATOM     46  C   UNL A   1      43.735  30.635  29.011  1.00  0.00     0.029 A 
ATOM     47  C   UNL A   1      44.667  29.566  28.710  1.00  0.00     0.049 A 
ATOM     48  H   UNL A   1      44.203  27.558  28.322  1.00  0.00     0.167 HD
ATOM     49  C   UNL A   1      42.997  23.636  27.034  1.00  0.00     0.037 A 
ATOM     50  C   UNL A   1      46.021  29.596  28.690  1.00  0.00     0.037 A 
ATOM     51  C   UNL A   1      43.416  23.496  28.408  1.00  0.00     0.049 A 
ATOM     52  C   UNL A   1      46.488  28.233  29.014  1.00  0.00     0.074 A 
ATOM     53  C   UNL A   1      42.919  22.960  29.575  1.00  0.00     0.029 A 
ATOM     54  N   UNL A   1      44.415  24.364  28.755  1.00  0.00    -0.354 N 
ATOM     55  N   UNL A   1      46.341  27.688  30.189  1.00  0.00    -0.248 NA
ATOM     56  C   UNL A   1      46.849  27.322  27.933  1.00  0.00     0.031 C 
ATOM     57  C   UNL A   1      43.598  23.620  30.644  1.00  0.00     0.029 A 
ATOM     58  C   UNL A   1      44.520  24.513  30.107  1.00  0.00     0.049 A 
ATOM     59  H   UNL A   1      44.991  24.827  28.104  1.00  0.00     0.167 HD
ATOM     60  C   UNL A   1      46.152  26.354  29.909  1.00  0.00     0.074 A 
ATOM     61  C   UNL A   1      46.659  26.158  28.558  1.00  0.00     0.031 C 
ATOM     62  C   UNL A   1      45.283  25.610  30.649  1.00  0.00     0.037 A 
BRANCH  49  63
ATOM     63  C   UNL A   1      43.907  23.128  25.930  1.00  0.00     0.064 A 
ATOM     64  C   UNL A   1      43.964  21.733  25.700  1.00  0.00     0.173 A 
ATOM     65  C   UNL A   1      44.951  23.876  25.349  1.00  0.00     0.173 A 
ATOM     66  F   UNL A   1      43.027  20.918  26.207  1.00  0.00    -0.203 F 
ATOM     67  C   UNL A   1      45.036  21.134  25.034  1.00  0.00     0.198 A 
ATOM     68  C   UNL A   1      45.995  23.277  24.642  1.00  0.00     0.198 A 
ATOM     69  F   UNL A   1      45.075  25.194  25.532  1.00  0.00    -0.203 F 
ATOM     70  F   UNL A   1      45.112  19.798  24.960  1.00  0.00    -0.200 F 
ATOM     71  C   UNL A   1      46.057  21.906  24.514  1.00  0.00     0.200 A 
ATOM     72  F   UNL A   1      46.987  24.041  24.165  1.00  0.00    -0.200 F 
ATOM     73  F   UNL A   1      47.118  21.333  23.933  1.00  0.00    -0.200 F 
ENDBRANCH  49  63
BRANCH  50  74
ATOM     74  C   UNL A   1      46.973  30.648  28.272  1.00  0.00     0.064 A 
ATOM     75  C   UNL A   1      46.738  31.405  27.109  1.00  0.00     0.173 A 
ATOM     76  C   UNL A   1      47.913  31.164  29.180  1.00  0.00     0.173 A 
ATOM     77  F   UNL A   1      45.843  30.989  26.202  1.00  0.00    -0.203 F 
ATOM     78  C   UNL A   1      47.346  32.647  26.907  1.00  0.00     0.198 A 
ATOM     79  C   UNL A   1      48.522  32.405  28.974  1.00  0.00     0.198 A 
ATOM     80  F   UNL A   1      48.168  30.529  30.333  1.00  0.00    -0.203 F 
ATOM     81  F   UNL A   1      47.021  33.382  25.834  1.00  0.00    -0.200 F 
ATOM     82  C   UNL A   1      48.220  33.156  27.852  1.00  0.00     0.200 A 
ATOM     83  F   UNL A   1      49.342  32.907  29.910  1.00  0.00    -0.200 F 
ATOM     84  F   UNL A   1      48.730  34.387  27.705  1.00  0.00    -0.200 F 
ENDBRANCH  50  74
BRANCH  62  85
ATOM     85  C   UNL A   1      45.009  26.054  32.046  1.00  0.00     0.064 A 
ATOM     86  C   UNL A   1      43.900  26.814  32.444  1.00  0.00     0.173 A 
ATOM     87  C   UNL A   1      45.894  25.616  33.039  1.00  0.00     0.173 A 
ATOM     88  F   UNL A   1      42.985  27.221  31.554  1.00  0.00    -0.203 F 
ATOM     89  C   UNL A   1      43.701  27.134  33.786  1.00  0.00     0.198 A 
ATOM     90  C   UNL A   1      45.676  25.911  34.378  1.00  0.00     0.198 A 
ATOM     91  F   UNL A   1      46.958  24.866  32.707  1.00  0.00    -0.203 F 
ATOM     92  F   UNL A   1      42.639  27.869  34.153  1.00  0.00    -0.200 F 
ATOM     93  C   UNL A   1      44.583  26.674  34.753  1.00  0.00     0.200 A 
ATOM     94  F   UNL A   1      46.515  25.434  35.309  1.00  0.00    -0.200 F 
ATOM     95  F   UNL A   1      44.371  26.950  36.047  1.00  0.00    -0.200 F 
ENDBRANCH  62  85
ENDBRANCH  36  37
ENDBRANCH  28  31
ENDBRANCH  26  27
ENDBRANCH   1  26
TORSDOF 12
ENDMDL
MODEL 3
REMARK VINA RESULT:     -13.7      3.251      9.023
REMARK SMILES Cc1cc(=O)n2cc(-c3ccccc3)nc2n1[C@H](C)C(=O)NCCCNC(=O)c1ccc(-c2c3nc(c(-c4c(F)c(F)c(F)c(F)c4F)c4ccc([nH]4)c(-c4c(F)c(F)c(F)c(F)c4F)c4nc(c(-c5c(F)c(F)c(F)c(F)c5F)c5ccc2[nH]5)C=C4)C=C3)cc1
REMARK SMILES IDX 24 1 23 2 22 3 20 4 21 5 18 7 19 8 17 9 1 10 2 11 3 12 4 13
REMARK SMILES IDX 16 14 5 15 6 16 15 17 7 18 8 19 9 20 10 21 14 22 11 23 13 24
REMARK SMILES IDX 12 25 25 26 26 27 27 28 28 30 29 31 30 32 91 33 31 34 90 35
REMARK SMILES IDX 32 36 33 37 34 38 84 39 35 40 89 41 83 42 85 43 36 44 88 45
REMARK SMILES IDX 82 46 81 47 37 49 69 50 49 51 68 52 50 53 53 54 67 55 86 56
REMARK SMILES IDX 51 57 52 58 66 60 87 61 54 62 38 63 39 64 47 65 40 66 41 67
REMARK SMILES IDX 45 68 48 69 42 70 43 71 46 72 44 73 70 74 71 75 79 76 72 77
REMARK SMILES IDX 73 78 77 79 80 80 74 81 75 82 78 83 76 84 55 85 56 86 64 87
REMARK SMILES IDX 57 88 58 89 62 90 65 91 59 92 60 93 63 94 61 95
REMARK H PARENT 22 6 26 29 85 48 53 59
REMARK Flexibility Score: inf
ROOT
ATOM      1  C   UNL A   1      33.648  31.129  27.626  1.00  0.00     0.042 C 
ENDROOT
BRANCH   1   2
ATOM      2  C   UNL A   1      34.258  29.816  27.142  1.00  0.00     0.117 C 
BRANCH   2   3
ATOM      3  N   UNL A   1      34.028  29.547  25.734  1.00  0.00    -0.354 N 
ATOM      4  C   UNL A   1      33.404  28.504  25.112  1.00  0.00     0.242 C 
ATOM      5  O   UNL A   1      33.315  28.572  23.879  1.00  0.00    -0.273 OA
ATOM      6  H   UNL A   1      34.383  30.233  25.124  1.00  0.00     0.163 HD
BRANCH   4   7
ATOM      7  C   UNL A   1      32.875  27.264  25.860  1.00  0.00     0.176 C 
ATOM      8  C   UNL A   1      31.782  27.736  26.817  1.00  0.00     0.042 C 
BRANCH   7   9
ATOM      9  N   UNL A   1      32.590  26.107  24.940  1.00  0.00    -0.303 N 
ATOM     10  C   UNL A   1      30.304  27.061  24.358  1.00  0.00     0.065 C 
ATOM     11  C   UNL A   1      31.345  25.968  24.274  1.00  0.00     0.024 A 
ATOM     12  C   UNL A   1      31.041  24.873  23.550  1.00  0.00     0.093 A 
ATOM     13  C   UNL A   1      32.008  23.766  23.416  1.00  0.00     0.259 A 
ATOM     14  C   UNL A   1      33.540  25.123  24.783  1.00  0.00     0.218 A 
ATOM     15  O   UNL A   1      31.790  22.728  22.826  1.00  0.00    -0.269 OA
ATOM     16  N   UNL A   1      33.227  23.992  24.047  1.00  0.00    -0.251 N 
ATOM     17  N   UNL A   1      34.733  25.000  25.321  1.00  0.00    -0.212 NA
ATOM     18  C   UNL A   1      34.309  23.141  24.119  1.00  0.00     0.127 A 
ATOM     19  C   UNL A   1      35.222  23.793  24.909  1.00  0.00     0.091 A 
BRANCH  19  20
ATOM     20  C   UNL A   1      36.513  23.288  25.310  1.00  0.00     0.002 A 
ATOM     21  C   UNL A   1      37.377  24.073  26.079  1.00  0.00     0.010 A 
ATOM     22  C   UNL A   1      36.887  21.983  24.966  1.00  0.00     0.010 A 
ATOM     23  C   UNL A   1      38.604  23.557  26.501  1.00  0.00     0.001 A 
ATOM     24  C   UNL A   1      38.119  21.474  25.376  1.00  0.00     0.001 A 
ATOM     25  C   UNL A   1      38.976  22.259  26.147  1.00  0.00     0.000 A 
ENDBRANCH  19  20
ENDBRANCH   7   9
ENDBRANCH   4   7
ENDBRANCH   2   3
ENDBRANCH   1   2
BRANCH   1  26
ATOM     26  C   UNL A   1      34.708  32.174  27.914  1.00  0.00     0.118 C 
BRANCH  26  27
ATOM     27  N   UNL A   1      34.722  32.603  29.313  1.00  0.00    -0.352 N 
ATOM     28  C   UNL A   1      35.443  32.070  30.362  1.00  0.00     0.251 C 
ATOM     29  H   UNL A   1      34.143  33.369  29.534  1.00  0.00     0.163 HD
ATOM     30  O   UNL A   1      35.129  32.301  31.523  1.00  0.00    -0.269 OA
BRANCH  28  31
ATOM     31  C   UNL A   1      36.586  31.192  30.058  1.00  0.00     0.039 A 
ATOM     32  C   UNL A   1      37.867  31.718  29.896  1.00  0.00     0.014 A 
ATOM     33  C   UNL A   1      36.370  29.818  29.998  1.00  0.00     0.014 A 
ATOM     34  C   UNL A   1      38.937  30.834  29.783  1.00  0.00     0.010 A 
ATOM     35  C   UNL A   1      37.434  28.953  30.069  1.00  0.00     0.010 A 
ATOM     36  C   UNL A   1      38.720  29.448  29.918  1.00  0.00    -0.014 A 
BRANCH  36  37
ATOM     37  C   UNL A   1      39.855  28.533  30.031  1.00  0.00     0.031 A 
ATOM     38  C   UNL A   1      40.320  28.349  31.428  1.00  0.00     0.074 A 
ATOM     39  C   UNL A   1      40.384  27.816  29.015  1.00  0.00     0.049 A 
ATOM     40  N   UNL A   1      41.353  28.907  31.959  1.00  0.00    -0.248 NA
ATOM     41  C   UNL A   1      39.478  27.624  32.392  1.00  0.00     0.031 C 
ATOM     42  C   UNL A   1      39.874  27.669  27.646  1.00  0.00     0.029 A 
ATOM     43  N   UNL A   1      41.480  26.998  29.010  1.00  0.00    -0.354 N 
ATOM     44  C   UNL A   1      41.443  28.399  33.249  1.00  0.00     0.074 A 
ATOM     45  C   UNL A   1      40.170  27.788  33.524  1.00  0.00     0.031 C 
ATOM     46  C   UNL A   1      40.513  26.655  27.022  1.00  0.00     0.029 A 
ATOM     47  C   UNL A   1      41.610  26.217  27.864  1.00  0.00     0.049 A 
ATOM     48  H   UNL A   1      42.124  26.963  29.754  1.00  0.00     0.167 HD
ATOM     49  C   UNL A   1      42.672  28.258  33.819  1.00  0.00     0.037 A 
ATOM     50  C   UNL A   1      42.579  25.309  27.598  1.00  0.00     0.037 A 
ATOM     51  C   UNL A   1      43.666  28.957  33.038  1.00  0.00     0.049 A 
ATOM     52  C   UNL A   1      43.764  25.698  28.388  1.00  0.00     0.074 A 
ATOM     53  C   UNL A   1      44.097  30.252  32.861  1.00  0.00     0.029 A 
ATOM     54  N   UNL A   1      44.109  28.233  31.965  1.00  0.00    -0.354 N 
ATOM     55  N   UNL A   1      44.460  26.774  28.148  1.00  0.00    -0.248 NA
ATOM     56  C   UNL A   1      44.012  25.055  29.674  1.00  0.00     0.031 C 
ATOM     57  C   UNL A   1      44.736  30.295  31.585  1.00  0.00     0.029 A 
ATOM     58  C   UNL A   1      44.715  29.020  31.029  1.00  0.00     0.049 A 
ATOM     59  H   UNL A   1      44.003  27.258  31.878  1.00  0.00     0.167 HD
ATOM     60  C   UNL A   1      44.879  27.176  29.396  1.00  0.00     0.074 A 
ATOM     61  C   UNL A   1      44.748  26.006  30.253  1.00  0.00     0.031 C 
ATOM     62  C   UNL A   1      44.954  28.501  29.705  1.00  0.00     0.037 A 
BRANCH  49  63
ATOM     63  C   UNL A   1      43.106  27.101  34.700  1.00  0.00     0.064 A 
ATOM     64  C   UNL A   1      43.419  27.371  36.053  1.00  0.00     0.173 A 
ATOM     65  C   UNL A   1      43.558  25.856  34.216  1.00  0.00     0.173 A 
ATOM     66  F   UNL A   1      43.044  28.527  36.623  1.00  0.00    -0.203 F 
ATOM     67  C   UNL A   1      44.207  26.509  36.819  1.00  0.00     0.198 A 
ATOM     68  C   UNL A   1      44.304  24.976  35.001  1.00  0.00     0.198 A 
ATOM     69  F   UNL A   1      43.402  25.483  32.942  1.00  0.00    -0.203 F 
ATOM     70  F   UNL A   1      44.587  26.873  38.052  1.00  0.00    -0.200 F 
ATOM     71  C   UNL A   1      44.658  25.316  36.289  1.00  0.00     0.200 A 
ATOM     72  F   UNL A   1      44.752  23.834  34.462  1.00  0.00    -0.200 F 
ATOM     73  F   UNL A   1      45.468  24.518  36.996  1.00  0.00    -0.200 F 
ENDBRANCH  49  63
BRANCH  50  74
ATOM     74  C   UNL A   1      42.551  24.038  26.842  1.00  0.00     0.064 A 
ATOM     75  C   UNL A   1      43.209  23.928  25.603  1.00  0.00     0.173 A 
ATOM     76  C   UNL A   1      42.198  22.835  27.477  1.00  0.00     0.173 A 
ATOM     77  F   UNL A   1      43.595  25.029  24.943  1.00  0.00    -0.203 F 
ATOM     78  C   UNL A   1      43.568  22.687  25.071  1.00  0.00     0.198 A 
ATOM     79  C   UNL A   1      42.555  21.594  26.941  1.00  0.00     0.198 A 
ATOM     80  F   UNL A   1      41.605  22.846  28.679  1.00  0.00    -0.203 F 
ATOM     81  F   UNL A   1      44.280  22.627  23.938  1.00  0.00    -0.200 F 
ATOM     82  C   UNL A   1      43.261  21.521  25.753  1.00  0.00     0.200 A 
ATOM     83  F   UNL A   1      42.283  20.472  27.623  1.00  0.00    -0.200 F 
ATOM     84  F   UNL A   1      43.686  20.338  25.292  1.00  0.00    -0.200 F 
ENDBRANCH  50  74
BRANCH  62  85
ATOM     85  C   UNL A   1      45.150  29.462  28.582  1.00  0.00     0.064 A 
ATOM     86  C   UNL A   1      44.117  30.097  27.879  1.00  0.00     0.173 A 
ATOM     87  C   UNL A   1      46.470  29.803  28.258  1.00  0.00     0.173 A 
ATOM     88  F   UNL A   1      42.832  29.859  28.173  1.00  0.00    -0.203 F 
ATOM     89  C   UNL A   1      44.402  31.026  26.878  1.00  0.00     0.198 A 
ATOM     90  C   UNL A   1      46.749  30.750  27.282  1.00  0.00     0.198 A 
ATOM     91  F   UNL A   1      47.491  29.237  28.920  1.00  0.00    -0.203 F 
ATOM     92  F   UNL A   1      43.403  31.621  26.207  1.00  0.00    -0.200 F 
ATOM     93  C   UNL A   1      45.717  31.358  26.587  1.00  0.00     0.200 A 
ATOM     94  F   UNL A   1      48.021  31.090  27.030  1.00  0.00    -0.200 F 
ATOM     95  F   UNL A   1      45.989  32.278  25.652  1.00  0.00    -0.200 F 
ENDBRANCH  62  85
ENDBRANCH  36  37
ENDBRANCH  28  31
ENDBRANCH  26  27
ENDBRANCH   1  26
TORSDOF 12
ENDMDL
