MODEL 1
REMARK VINA RESULT:     -12.1      0.000      0.000
REMARK SMILES C[C@@H](C(=O)NCCCNC(=O)c1ccc(-c2c3nc(c(-c4c(F)c(F)c(F)c(F)c4F)c4ccc([nH]4)c(-c4c(F)c(F)c(F)c(F)c4F)c4nc(c(-c5c(F)c(F)c(F)c(F)c5F)c5ccc2[nH]5)C=C4)C=C3)cc1)c1ccc(NC2CCCC2)cc1F
REMARK SMILES IDX 6 1 5 2 3 3 4 4 2 6 1 7 75 8 76 9 86 10 77 11 85 12 87 13
REMARK SMILES IDX 78 14 79 15 80 17 81 18 84 19 82 20 83 21 7 22 8 23 9 24
REMARK SMILES IDX 10 25 11 27 12 28 13 29 74 30 14 31 73 32 15 33 16 34 17 35
REMARK SMILES IDX 67 36 18 37 72 38 66 39 68 40 19 41 71 42 65 43 64 44 20 46
REMARK SMILES IDX 52 47 32 48 51 49 33 50 36 51 50 52 69 53 34 54 35 55 49 57
REMARK SMILES IDX 70 58 37 59 21 60 22 61 30 62 23 63 24 64 28 65 31 66 25 67
REMARK SMILES IDX 26 68 29 69 27 70 53 71 54 72 62 73 55 74 56 75 60 76 63 77
REMARK SMILES IDX 57 78 58 79 61 80 59 81 38 82 39 83 47 84 40 85 41 86 45 87
REMARK SMILES IDX 48 88 42 89 43 90 46 91 44 92
REMARK H PARENT 5 5 79 16 9 26 68 45 36 56
REMARK Flexibility Score: inf
ROOT
ATOM      1  C   UNL A   1      31.162  30.847  26.355  1.00  0.00     0.117 C 
ENDROOT
BRANCH   1   2
ATOM      2  N   UNL A   1      31.896  30.369  25.199  1.00  0.00    -0.356 N 
ATOM      3  C   UNL A   1      32.846  29.394  25.088  1.00  0.00     0.227 C 
ATOM      4  O   UNL A   1      33.284  29.187  23.955  1.00  0.00    -0.274 OA
ATOM      5  H   UNL A   1      31.670  30.823  24.355  1.00  0.00     0.163 HD
BRANCH   3   6
ATOM      6  C   UNL A   1      33.280  28.598  26.328  1.00  0.00     0.108 C 
ATOM      7  C   UNL A   1      34.746  28.846  26.693  1.00  0.00     0.023 C 
BRANCH   6   8
ATOM      8  C   UNL A   1      33.016  27.108  26.184  1.00  0.00     0.000 A 
ATOM      9  C   UNL A   1      34.033  26.248  25.763  1.00  0.00     0.009 A 
ATOM     10  C   UNL A   1      31.764  26.550  26.448  1.00  0.00     0.129 A 
ATOM     11  C   UNL A   1      33.787  24.878  25.593  1.00  0.00     0.026 A 
ATOM     12  C   UNL A   1      31.524  25.186  26.277  1.00  0.00     0.065 A 
ATOM     13  F   UNL A   1      30.749  27.327  26.851  1.00  0.00    -0.207 F 
ATOM     14  C   UNL A   1      32.530  24.318  25.835  1.00  0.00     0.037 A 
BRANCH  14  15
ATOM     15  N   UNL A   1      32.217  22.988  25.655  1.00  0.00    -0.382 N 
ATOM     16  H   UNL A   1      31.554  22.627  26.287  1.00  0.00     0.160 HD
BRANCH  15  17
ATOM     17  C   UNL A   1      32.718  22.037  24.679  1.00  0.00     0.079 C 
ATOM     18  C   UNL A   1      32.255  20.600  24.894  1.00  0.00     0.025 C 
ATOM     19  C   UNL A   1      32.397  22.389  23.226  1.00  0.00     0.025 C 
ATOM     20  C   UNL A   1      32.467  19.966  23.528  1.00  0.00     0.002 C 
ATOM     21  C   UNL A   1      32.084  21.060  22.537  1.00  0.00     0.002 C 
ENDBRANCH  15  17
ENDBRANCH  14  15
ENDBRANCH   6   8
ENDBRANCH   3   6
ENDBRANCH   1   2
BRANCH   1  22
ATOM     22  C   UNL A   1      31.228  32.366  26.496  1.00  0.00     0.042 C 
BRANCH  22  23
ATOM     23  C   UNL A   1      32.492  32.891  27.171  1.00  0.00     0.118 C 
BRANCH  23  24
ATOM     24  N   UNL A   1      32.359  34.262  27.636  1.00  0.00    -0.352 N 
ATOM     25  C   UNL A   1      33.028  34.939  28.622  1.00  0.00     0.251 C 
ATOM     26  H   UNL A   1      31.675  34.792  27.165  1.00  0.00     0.163 HD
ATOM     27  O   UNL A   1      32.636  36.058  28.951  1.00  0.00    -0.269 OA
BRANCH  25  28
ATOM     28  C   UNL A   1      34.194  34.346  29.316  1.00  0.00     0.039 A 
ATOM     29  C   UNL A   1      33.966  33.616  30.487  1.00  0.00     0.014 A 
ATOM     30  C   UNL A   1      35.506  34.545  28.870  1.00  0.00     0.014 A 
ATOM     31  C   UNL A   1      35.036  33.041  31.176  1.00  0.00     0.010 A 
ATOM     32  C   UNL A   1      36.569  33.918  29.522  1.00  0.00     0.010 A 
ATOM     33  C   UNL A   1      36.344  33.163  30.684  1.00  0.00    -0.014 A 
BRANCH  33  34
ATOM     34  C   UNL A   1      37.475  32.490  31.374  1.00  0.00     0.031 A 
ATOM     35  C   UNL A   1      38.203  31.348  30.722  1.00  0.00     0.074 A 
ATOM     36  C   UNL A   1      37.826  32.893  32.610  1.00  0.00     0.049 A 
ATOM     37  N   UNL A   1      39.210  30.643  31.177  1.00  0.00    -0.248 NA
ATOM     38  C   UNL A   1      37.727  30.928  29.396  1.00  0.00     0.031 C 
ATOM     39  C   UNL A   1      37.162  33.951  33.372  1.00  0.00     0.029 A 
ATOM     40  N   UNL A   1      38.827  32.459  33.444  1.00  0.00    -0.354 N 
ATOM     41  C   UNL A   1      39.482  29.697  30.198  1.00  0.00     0.074 A 
ATOM     42  C   UNL A   1      38.505  29.885  29.146  1.00  0.00     0.031 C 
ATOM     43  C   UNL A   1      37.785  34.099  34.552  1.00  0.00     0.029 A 
ATOM     44  C   UNL A   1      38.877  33.133  34.638  1.00  0.00     0.049 A 
ATOM     45  H   UNL A   1      39.448  31.733  33.207  1.00  0.00     0.167 HD
ATOM     46  C   UNL A   1      40.470  28.770  30.168  1.00  0.00     0.037 A 
ATOM     47  C   UNL A   1      39.712  32.992  35.685  1.00  0.00     0.037 A 
ATOM     48  C   UNL A   1      41.455  28.595  31.205  1.00  0.00     0.049 A 
ATOM     49  C   UNL A   1      40.815  31.974  35.615  1.00  0.00     0.074 A 
ATOM     50  C   UNL A   1      42.524  27.716  31.242  1.00  0.00     0.029 A 
ATOM     51  N   UNL A   1      41.490  29.315  32.389  1.00  0.00    -0.354 N 
ATOM     52  N   UNL A   1      41.100  31.129  34.656  1.00  0.00    -0.248 NA
ATOM     53  C   UNL A   1      41.721  31.900  36.771  1.00  0.00     0.031 C 
ATOM     54  C   UNL A   1      43.188  27.882  32.462  1.00  0.00     0.029 A 
ATOM     55  C   UNL A   1      42.554  28.891  33.170  1.00  0.00     0.049 A 
ATOM     56  H   UNL A   1      40.852  30.023  32.639  1.00  0.00     0.167 HD
ATOM     57  C   UNL A   1      42.223  30.433  35.083  1.00  0.00     0.074 A 
ATOM     58  C   UNL A   1      42.582  30.972  36.378  1.00  0.00     0.031 C 
ATOM     59  C   UNL A   1      42.893  29.433  34.460  1.00  0.00     0.037 A 
BRANCH  46  60
ATOM     60  C   UNL A   1      40.545  27.878  28.964  1.00  0.00     0.064 A 
ATOM     61  C   UNL A   1      39.800  26.693  28.887  1.00  0.00     0.173 A 
ATOM     62  C   UNL A   1      41.337  28.231  27.861  1.00  0.00     0.173 A 
ATOM     63  F   UNL A   1      39.036  26.307  29.920  1.00  0.00    -0.203 F 
ATOM     64  C   UNL A   1      39.861  25.881  27.757  1.00  0.00     0.198 A 
ATOM     65  C   UNL A   1      41.376  27.429  26.723  1.00  0.00     0.198 A 
ATOM     66  F   UNL A   1      42.065  29.358  27.883  1.00  0.00    -0.203 F 
ATOM     67  F   UNL A   1      39.171  24.732  27.721  1.00  0.00    -0.200 F 
ATOM     68  C   UNL A   1      40.644  26.253  26.675  1.00  0.00     0.200 A 
ATOM     69  F   UNL A   1      42.125  27.795  25.673  1.00  0.00    -0.200 F 
ATOM     70  F   UNL A   1      40.696  25.473  25.585  1.00  0.00    -0.200 F 
ENDBRANCH  46  60
BRANCH  47  71
ATOM     71  C   UNL A   1      39.552  33.861  36.877  1.00  0.00     0.064 A 
ATOM     72  C   UNL A   1      40.144  35.131  36.926  1.00  0.00     0.173 A 
ATOM     73  C   UNL A   1      38.803  33.445  37.986  1.00  0.00     0.173 A 
ATOM     74  F   UNL A   1      40.886  35.563  35.895  1.00  0.00    -0.203 F 
ATOM     75  C   UNL A   1      40.006  35.946  38.047  1.00  0.00     0.198 A 
ATOM     76  C   UNL A   1      38.645  34.270  39.097  1.00  0.00     0.198 A 
ATOM     77  F   UNL A   1      38.213  32.241  37.984  1.00  0.00    -0.203 F 
ATOM     78  F   UNL A   1      40.613  37.139  38.084  1.00  0.00    -0.200 F 
ATOM     79  C   UNL A   1      39.252  35.517  39.129  1.00  0.00     0.200 A 
ATOM     80  F   UNL A   1      37.906  33.858  40.137  1.00  0.00    -0.200 F 
ATOM     81  F   UNL A   1      39.115  36.303  40.206  1.00  0.00    -0.200 F 
ENDBRANCH  47  71
BRANCH  59  82
ATOM     82  C   UNL A   1      44.085  28.867  35.171  1.00  0.00     0.064 A 
ATOM     83  C   UNL A   1      45.368  29.407  34.993  1.00  0.00     0.173 A 
ATOM     84  C   UNL A   1      43.943  27.783  36.051  1.00  0.00     0.173 A 
ATOM     85  F   UNL A   1      45.555  30.432  34.148  1.00  0.00    -0.203 F 
ATOM     86  C   UNL A   1      46.468  28.866  35.650  1.00  0.00     0.198 A 
ATOM     87  C   UNL A   1      45.043  27.261  36.725  1.00  0.00     0.198 A 
ATOM     88  F   UNL A   1      42.737  27.234  36.258  1.00  0.00    -0.203 F 
ATOM     89  F   UNL A   1      47.692  29.367  35.427  1.00  0.00    -0.200 F 
ATOM     90  C   UNL A   1      46.305  27.798  36.518  1.00  0.00     0.200 A 
ATOM     91  F   UNL A   1      44.883  26.233  37.570  1.00  0.00    -0.200 F 
ATOM     92  F   UNL A   1      47.368  27.277  37.148  1.00  0.00    -0.200 F 
ENDBRANCH  59  82
ENDBRANCH  33  34
ENDBRANCH  25  28
ENDBRANCH  23  24
ENDBRANCH  22  23
ENDBRANCH   1  22
TORSDOF 13
ENDMDL
MODEL 2
REMARK VINA RESULT:     -12.0      2.163      7.878
REMARK SMILES C[C@@H](C(=O)NCCCNC(=O)c1ccc(-c2c3nc(c(-c4c(F)c(F)c(F)c(F)c4F)c4ccc([nH]4)c(-c4c(F)c(F)c(F)c(F)c4F)c4nc(c(-c5c(F)c(F)c(F)c(F)c5F)c5ccc2[nH]5)C=C4)C=C3)cc1)c1ccc(NC2CCCC2)cc1F
REMARK SMILES IDX 6 1 5 2 3 3 4 4 2 6 1 7 75 8 76 9 86 10 77 11 85 12 87 13
REMARK SMILES IDX 78 14 79 15 80 17 81 18 84 19 82 20 83 21 7 22 8 23 9 24
REMARK SMILES IDX 10 25 11 27 12 28 13 29 74 30 14 31 73 32 15 33 16 34 17 35
REMARK SMILES IDX 67 36 18 37 72 38 66 39 68 40 19 41 71 42 65 43 64 44 20 46
REMARK SMILES IDX 52 47 32 48 51 49 33 50 36 51 50 52 69 53 34 54 35 55 49 57
REMARK SMILES IDX 70 58 37 59 21 60 22 61 30 62 23 63 24 64 28 65 31 66 25 67
REMARK SMILES IDX 26 68 29 69 27 70 53 71 54 72 62 73 55 74 56 75 60 76 63 77
REMARK SMILES IDX 57 78 58 79 61 80 59 81 38 82 39 83 47 84 40 85 41 86 45 87
REMARK SMILES IDX 48 88 42 89 43 90 46 91 44 92
REMARK H PARENT 5 5 79 16 9 26 68 45 36 56
REMARK Flexibility Score: inf
ROOT
ATOM      1  C   UNL A   1      32.134  27.573  26.937  1.00  0.00     0.117 C 
ENDROOT
BRANCH   1   2
ATOM      2  N   UNL A   1      31.128  26.530  26.905  1.00  0.00    -0.356 N 
ATOM      3  C   UNL A   1      31.118  25.321  26.269  1.00  0.00     0.227 C 
ATOM      4  O   UNL A   1      30.120  24.621  26.445  1.00  0.00    -0.274 OA
ATOM      5  H   UNL A   1      30.318  26.725  27.430  1.00  0.00     0.163 HD
BRANCH   3   6
ATOM      6  C   UNL A   1      32.326  24.886  25.426  1.00  0.00     0.108 C 
ATOM      7  C   UNL A   1      32.198  25.315  23.961  1.00  0.00     0.023 C 
BRANCH   6   8
ATOM      8  C   UNL A   1      32.591  23.392  25.517  1.00  0.00     0.000 A 
ATOM      9  C   UNL A   1      31.907  22.500  24.687  1.00  0.00     0.009 A 
ATOM     10  C   UNL A   1      33.502  22.856  26.430  1.00  0.00     0.129 A 
ATOM     11  C   UNL A   1      32.119  21.119  24.792  1.00  0.00     0.026 A 
ATOM     12  C   UNL A   1      33.710  21.480  26.531  1.00  0.00     0.065 A 
ATOM     13  F   UNL A   1      34.185  23.663  27.256  1.00  0.00    -0.207 F 
ATOM     14  C   UNL A   1      33.014  20.577  25.718  1.00  0.00     0.037 A 
BRANCH  14  15
ATOM     15  N   UNL A   1      33.242  19.228  25.890  1.00  0.00    -0.382 N 
ATOM     16  H   UNL A   1      33.582  18.974  26.779  1.00  0.00     0.160 HD
BRANCH  15  17
ATOM     17  C   UNL A   1      33.058  18.127  24.963  1.00  0.00     0.079 C 
ATOM     18  C   UNL A   1      34.310  17.733  24.186  1.00  0.00     0.025 C 
ATOM     19  C   UNL A   1      32.514  16.846  25.597  1.00  0.00     0.025 C 
ATOM     20  C   UNL A   1      33.995  16.317  23.728  1.00  0.00     0.002 C 
ATOM     21  C   UNL A   1      33.243  15.696  24.900  1.00  0.00     0.002 C 
ENDBRANCH  15  17
ENDBRANCH  14  15
ENDBRANCH   6   8
ENDBRANCH   3   6
ENDBRANCH   1   2
BRANCH   1  22
ATOM     22  C   UNL A   1      31.789  28.739  26.013  1.00  0.00     0.042 C 
BRANCH  22  23
ATOM     23  C   UNL A   1      32.945  29.695  25.731  1.00  0.00     0.118 C 
BRANCH  23  24
ATOM     24  N   UNL A   1      32.687  31.048  26.195  1.00  0.00    -0.352 N 
ATOM     25  C   UNL A   1      33.305  31.791  27.168  1.00  0.00     0.251 C 
ATOM     26  H   UNL A   1      31.947  31.507  25.736  1.00  0.00     0.163 HD
ATOM     27  O   UNL A   1      32.812  32.869  27.502  1.00  0.00    -0.269 OA
BRANCH  25  28
ATOM     28  C   UNL A   1      34.537  31.318  27.841  1.00  0.00     0.039 A 
ATOM     29  C   UNL A   1      35.598  32.218  27.986  1.00  0.00     0.014 A 
ATOM     30  C   UNL A   1      34.687  29.997  28.276  1.00  0.00     0.014 A 
ATOM     31  C   UNL A   1      36.779  31.815  28.611  1.00  0.00     0.010 A 
ATOM     32  C   UNL A   1      35.843  29.611  28.958  1.00  0.00     0.010 A 
ATOM     33  C   UNL A   1      36.902  30.516  29.129  1.00  0.00    -0.014 A 
BRANCH  33  34
ATOM     34  C   UNL A   1      38.129  30.109  29.860  1.00  0.00     0.031 A 
ATOM     35  C   UNL A   1      38.398  30.612  31.251  1.00  0.00     0.074 A 
ATOM     36  C   UNL A   1      39.021  29.304  29.252  1.00  0.00     0.049 A 
ATOM     37  N   UNL A   1      39.416  30.363  32.038  1.00  0.00    -0.248 NA
ATOM     38  C   UNL A   1      37.405  31.531  31.827  1.00  0.00     0.031 C 
ATOM     39  C   UNL A   1      38.904  28.795  27.886  1.00  0.00     0.029 A 
ATOM     40  N   UNL A   1      40.205  28.776  29.705  1.00  0.00    -0.354 N 
ATOM     41  C   UNL A   1      39.188  31.095  33.194  1.00  0.00     0.074 A 
ATOM     42  C   UNL A   1      37.962  31.837  32.990  1.00  0.00     0.031 C 
ATOM     43  C   UNL A   1      39.960  28.010  27.617  1.00  0.00     0.029 A 
ATOM     44  C   UNL A   1      40.839  27.980  28.783  1.00  0.00     0.049 A 
ATOM     45  H   UNL A   1      40.565  28.951  30.604  1.00  0.00     0.167 HD
ATOM     46  C   UNL A   1      39.923  31.131  34.332  1.00  0.00     0.037 A 
ATOM     47  C   UNL A   1      41.997  27.298  28.868  1.00  0.00     0.037 A 
ATOM     48  C   UNL A   1      41.133  30.379  34.544  1.00  0.00     0.049 A 
ATOM     49  C   UNL A   1      42.779  27.333  30.151  1.00  0.00     0.074 A 
ATOM     50  C   UNL A   1      41.921  30.311  35.680  1.00  0.00     0.029 A 
ATOM     51  N   UNL A   1      41.731  29.562  33.596  1.00  0.00    -0.354 N 
ATOM     52  N   UNL A   1      42.520  27.980  31.260  1.00  0.00    -0.248 NA
ATOM     53  C   UNL A   1      44.011  26.532  30.196  1.00  0.00     0.031 C 
ATOM     54  C   UNL A   1      43.012  29.477  35.410  1.00  0.00     0.029 A 
ATOM     55  C   UNL A   1      42.884  28.997  34.117  1.00  0.00     0.049 A 
ATOM     56  H   UNL A   1      41.386  29.407  32.687  1.00  0.00     0.167 HD
ATOM     57  C   UNL A   1      43.544  27.656  32.139  1.00  0.00     0.074 A 
ATOM     58  C   UNL A   1      44.416  26.734  31.442  1.00  0.00     0.031 C 
ATOM     59  C   UNL A   1      43.745  28.087  33.407  1.00  0.00     0.037 A 
BRANCH  46  60
ATOM     60  C   UNL A   1      39.430  32.004  35.447  1.00  0.00     0.064 A 
ATOM     61  C   UNL A   1      38.537  31.520  36.414  1.00  0.00     0.173 A 
ATOM     62  C   UNL A   1      39.886  33.324  35.576  1.00  0.00     0.173 A 
ATOM     63  F   UNL A   1      38.064  30.268  36.328  1.00  0.00    -0.203 F 
ATOM     64  C   UNL A   1      38.099  32.332  37.456  1.00  0.00     0.198 A 
ATOM     65  C   UNL A   1      39.465  34.127  36.634  1.00  0.00     0.198 A 
ATOM     66  F   UNL A   1      40.746  33.835  34.681  1.00  0.00    -0.203 F 
ATOM     67  F   UNL A   1      37.214  31.861  38.345  1.00  0.00    -0.200 F 
ATOM     68  C   UNL A   1      38.568  33.633  37.569  1.00  0.00     0.200 A 
ATOM     69  F   UNL A   1      39.929  35.380  36.749  1.00  0.00    -0.200 F 
ATOM     70  F   UNL A   1      38.152  34.411  38.577  1.00  0.00    -0.200 F 
ENDBRANCH  46  60
BRANCH  47  71
ATOM     71  C   UNL A   1      42.468  26.498  27.711  1.00  0.00     0.064 A 
ATOM     72  C   UNL A   1      43.390  27.028  26.798  1.00  0.00     0.173 A 
ATOM     73  C   UNL A   1      42.013  25.190  27.498  1.00  0.00     0.173 A 
ATOM     74  F   UNL A   1      43.837  28.283  26.951  1.00  0.00    -0.203 F 
ATOM     75  C   UNL A   1      43.826  26.284  25.704  1.00  0.00     0.198 A 
ATOM     76  C   UNL A   1      42.469  24.438  26.418  1.00  0.00     0.198 A 
ATOM     77  F   UNL A   1      41.135  24.637  28.348  1.00  0.00    -0.203 F 
ATOM     78  F   UNL A   1      44.678  26.828  24.824  1.00  0.00    -0.200 F 
ATOM     79  C   UNL A   1      43.370  24.988  25.518  1.00  0.00     0.200 A 
ATOM     80  F   UNL A   1      42.035  23.181  26.247  1.00  0.00    -0.200 F 
ATOM     81  F   UNL A   1      43.794  24.271  24.468  1.00  0.00    -0.200 F 
ENDBRANCH  47  71
BRANCH  59  82
ATOM     82  C   UNL A   1      44.953  27.557  34.122  1.00  0.00     0.064 A 
ATOM     83  C   UNL A   1      46.181  28.235  34.083  1.00  0.00     0.173 A 
ATOM     84  C   UNL A   1      44.879  26.369  34.865  1.00  0.00     0.173 A 
ATOM     85  F   UNL A   1      46.304  29.365  33.371  1.00  0.00    -0.203 F 
ATOM     86  C   UNL A   1      47.298  27.727  34.740  1.00  0.00     0.198 A 
ATOM     87  C   UNL A   1      45.992  25.878  35.541  1.00  0.00     0.198 A 
ATOM     88  F   UNL A   1      43.727  25.687  34.936  1.00  0.00    -0.203 F 
ATOM     89  F   UNL A   1      48.473  28.366  34.650  1.00  0.00    -0.200 F 
ATOM     90  C   UNL A   1      47.202  26.554  35.473  1.00  0.00     0.200 A 
ATOM     91  F   UNL A   1      45.896  24.748  36.255  1.00  0.00    -0.200 F 
ATOM     92  F   UNL A   1      48.279  26.067  36.103  1.00  0.00    -0.200 F 
ENDBRANCH  59  82
ENDBRANCH  33  34
ENDBRANCH  25  28
ENDBRANCH  23  24
ENDBRANCH  22  23
ENDBRANCH   1  22
TORSDOF 13
ENDMDL
MODEL 3
REMARK VINA RESULT:     -11.9      2.170      8.127
REMARK SMILES C[C@@H](C(=O)NCCCNC(=O)c1ccc(-c2c3nc(c(-c4c(F)c(F)c(F)c(F)c4F)c4ccc([nH]4)c(-c4c(F)c(F)c(F)c(F)c4F)c4nc(c(-c5c(F)c(F)c(F)c(F)c5F)c5ccc2[nH]5)C=C4)C=C3)cc1)c1ccc(NC2CCCC2)cc1F
REMARK SMILES IDX 6 1 5 2 3 3 4 4 2 6 1 7 75 8 76 9 86 10 77 11 85 12 87 13
REMARK SMILES IDX 78 14 79 15 80 17 81 18 84 19 82 20 83 21 7 22 8 23 9 24
REMARK SMILES IDX 10 25 11 27 12 28 13 29 74 30 14 31 73 32 15 33 16 34 17 35
REMARK SMILES IDX 67 36 18 37 72 38 66 39 68 40 19 41 71 42 65 43 64 44 20 46
REMARK SMILES IDX 52 47 32 48 51 49 33 50 36 51 50 52 69 53 34 54 35 55 49 57
REMARK SMILES IDX 70 58 37 59 21 60 22 61 30 62 23 63 24 64 28 65 31 66 25 67
REMARK SMILES IDX 26 68 29 69 27 70 53 71 54 72 62 73 55 74 56 75 60 76 63 77
REMARK SMILES IDX 57 78 58 79 61 80 59 81 38 82 39 83 47 84 40 85 41 86 45 87
REMARK SMILES IDX 48 88 42 89 43 90 46 91 44 92
REMARK H PARENT 5 5 79 16 9 26 68 45 36 56
REMARK Flexibility Score: inf
ROOT
ATOM      1  C   UNL A   1      32.339  27.453  26.745  1.00  0.00     0.117 C 
ENDROOT
BRANCH   1   2
ATOM      2  N   UNL A   1      31.247  26.511  26.898  1.00  0.00    -0.356 N 
ATOM      3  C   UNL A   1      30.883  25.438  26.136  1.00  0.00     0.227 C 
ATOM      4  O   UNL A   1      29.909  24.796  26.530  1.00  0.00    -0.274 OA
ATOM      5  H   UNL A   1      30.674  26.673  27.683  1.00  0.00     0.163 HD
BRANCH   3   6
ATOM      6  C   UNL A   1      31.702  25.066  24.891  1.00  0.00     0.108 C 
ATOM      7  C   UNL A   1      30.894  25.216  23.599  1.00  0.00     0.023 C 
BRANCH   6   8
ATOM      8  C   UNL A   1      32.300  23.671  24.982  1.00  0.00     0.000 A 
ATOM      9  C   UNL A   1      31.609  22.572  24.466  1.00  0.00     0.009 A 
ATOM     10  C   UNL A   1      33.534  23.434  25.589  1.00  0.00     0.129 A 
ATOM     11  C   UNL A   1      32.138  21.279  24.580  1.00  0.00     0.026 A 
ATOM     12  C   UNL A   1      34.055  22.145  25.700  1.00  0.00     0.065 A 
ATOM     13  F   UNL A   1      34.240  24.450  26.107  1.00  0.00    -0.207 F 
ATOM     14  C   UNL A   1      33.363  21.033  25.205  1.00  0.00     0.037 A 
BRANCH  14  15
ATOM     15  N   UNL A   1      33.918  19.783  25.376  1.00  0.00    -0.382 N 
ATOM     16  H   UNL A   1      34.630  19.733  26.055  1.00  0.00     0.160 HD
BRANCH  15  17
ATOM     17  C   UNL A   1      33.616  18.530  24.709  1.00  0.00     0.079 C 
ATOM     18  C   UNL A   1      34.834  17.678  24.370  1.00  0.00     0.025 C 
ATOM     19  C   UNL A   1      32.644  17.624  25.466  1.00  0.00     0.025 C 
ATOM     20  C   UNL A   1      34.239  16.291  24.185  1.00  0.00     0.002 C 
ATOM     21  C   UNL A   1      33.150  16.198  25.248  1.00  0.00     0.002 C 
ENDBRANCH  15  17
ENDBRANCH  14  15
ENDBRANCH   6   8
ENDBRANCH   3   6
ENDBRANCH   1   2
BRANCH   1  22
ATOM     22  C   UNL A   1      31.945  28.665  25.905  1.00  0.00     0.042 C 
BRANCH  22  23
ATOM     23  C   UNL A   1      33.072  29.664  25.655  1.00  0.00     0.118 C 
BRANCH  23  24
ATOM     24  N   UNL A   1      32.776  30.992  26.167  1.00  0.00    -0.352 N 
ATOM     25  C   UNL A   1      33.364  31.711  27.175  1.00  0.00     0.251 C 
ATOM     26  H   UNL A   1      32.030  31.450  25.716  1.00  0.00     0.163 HD
ATOM     27  O   UNL A   1      32.842  32.763  27.543  1.00  0.00    -0.269 OA
BRANCH  25  28
ATOM     28  C   UNL A   1      34.599  31.242  27.845  1.00  0.00     0.039 A 
ATOM     29  C   UNL A   1      35.675  32.130  27.945  1.00  0.00     0.014 A 
ATOM     30  C   UNL A   1      34.736  29.934  28.321  1.00  0.00     0.014 A 
ATOM     31  C   UNL A   1      36.859  31.731  28.567  1.00  0.00     0.010 A 
ATOM     32  C   UNL A   1      35.896  29.554  28.999  1.00  0.00     0.010 A 
ATOM     33  C   UNL A   1      36.970  30.448  29.125  1.00  0.00    -0.014 A 
BRANCH  33  34
ATOM     34  C   UNL A   1      38.202  30.046  29.852  1.00  0.00     0.031 A 
ATOM     35  C   UNL A   1      38.474  30.551  31.241  1.00  0.00     0.074 A 
ATOM     36  C   UNL A   1      39.096  29.245  29.241  1.00  0.00     0.049 A 
ATOM     37  N   UNL A   1      39.496  30.307  32.024  1.00  0.00    -0.248 NA
ATOM     38  C   UNL A   1      37.480  31.466  31.821  1.00  0.00     0.031 C 
ATOM     39  C   UNL A   1      38.976  28.735  27.875  1.00  0.00     0.029 A 
ATOM     40  N   UNL A   1      40.284  28.722  29.689  1.00  0.00    -0.354 N 
ATOM     41  C   UNL A   1      39.270  31.039  33.181  1.00  0.00     0.074 A 
ATOM     42  C   UNL A   1      38.039  31.775  32.982  1.00  0.00     0.031 C 
ATOM     43  C   UNL A   1      40.034  27.954  27.603  1.00  0.00     0.029 A 
ATOM     44  C   UNL A   1      40.917  27.929  28.766  1.00  0.00     0.049 A 
ATOM     45  H   UNL A   1      40.646  28.900  30.587  1.00  0.00     0.167 HD
ATOM     46  C   UNL A   1      40.009  31.078  34.316  1.00  0.00     0.037 A 
ATOM     47  C   UNL A   1      42.078  27.252  28.847  1.00  0.00     0.037 A 
ATOM     48  C   UNL A   1      41.224  30.332  34.524  1.00  0.00     0.049 A 
ATOM     49  C   UNL A   1      42.866  27.291  30.126  1.00  0.00     0.074 A 
ATOM     50  C   UNL A   1      42.016  30.268  35.657  1.00  0.00     0.029 A 
ATOM     51  N   UNL A   1      41.821  29.517  33.574  1.00  0.00    -0.354 N 
ATOM     52  N   UNL A   1      42.608  27.938  31.236  1.00  0.00    -0.248 NA
ATOM     53  C   UNL A   1      44.101  26.495  30.167  1.00  0.00     0.031 C 
ATOM     54  C   UNL A   1      43.110  29.439  35.383  1.00  0.00     0.029 A 
ATOM     55  C   UNL A   1      42.979  28.957  34.091  1.00  0.00     0.049 A 
ATOM     56  H   UNL A   1      41.473  29.360  32.666  1.00  0.00     0.167 HD
ATOM     57  C   UNL A   1      43.637  27.618  32.111  1.00  0.00     0.074 A 
ATOM     58  C   UNL A   1      44.510  26.700  31.411  1.00  0.00     0.031 C 
ATOM     59  C   UNL A   1      43.841  28.051  33.379  1.00  0.00     0.037 A 
BRANCH  46  60
ATOM     60  C   UNL A   1      39.517  31.950  35.433  1.00  0.00     0.064 A 
ATOM     61  C   UNL A   1      39.921  33.289  35.546  1.00  0.00     0.173 A 
ATOM     62  C   UNL A   1      38.601  31.458  36.374  1.00  0.00     0.173 A 
ATOM     63  F   UNL A   1      40.804  33.803  34.677  1.00  0.00    -0.203 F 
ATOM     64  C   UNL A   1      39.443  34.096  36.575  1.00  0.00     0.198 A 
ATOM     65  C   UNL A   1      38.106  32.276  37.387  1.00  0.00     0.198 A 
ATOM     66  F   UNL A   1      38.178  30.186  36.306  1.00  0.00    -0.203 F 
ATOM     67  F   UNL A   1      39.875  35.361  36.687  1.00  0.00    -0.200 F 
ATOM     68  C   UNL A   1      38.532  33.591  37.490  1.00  0.00     0.200 A 
ATOM     69  F   UNL A   1      37.216  31.790  38.265  1.00  0.00    -0.200 F 
ATOM     70  F   UNL A   1      38.068  34.373  38.476  1.00  0.00    -0.200 F 
ENDBRANCH  46  60
BRANCH  47  71
ATOM     71  C   UNL A   1      42.548  26.453  27.688  1.00  0.00     0.064 A 
ATOM     72  C   UNL A   1      42.063  25.158  27.462  1.00  0.00     0.173 A 
ATOM     73  C   UNL A   1      43.485  26.969  26.781  1.00  0.00     0.173 A 
ATOM     74  F   UNL A   1      41.181  24.616  28.315  1.00  0.00    -0.203 F 
ATOM     75  C   UNL A   1      42.510  24.401  26.382  1.00  0.00     0.198 A 
ATOM     76  C   UNL A   1      43.913  26.220  25.687  1.00  0.00     0.198 A 
ATOM     77  F   UNL A   1      43.974  28.206  26.951  1.00  0.00    -0.203 F 
ATOM     78  F   UNL A   1      42.059  23.151  26.211  1.00  0.00    -0.200 F 
ATOM     79  C   UNL A   1      43.430  24.935  25.492  1.00  0.00     0.200 A 
ATOM     80  F   UNL A   1      44.793  26.743  24.822  1.00  0.00    -0.200 F 
ATOM     81  F   UNL A   1      43.857  24.208  24.450  1.00  0.00    -0.200 F 
ENDBRANCH  47  71
BRANCH  59  82
ATOM     82  C   UNL A   1      45.054  27.527  34.089  1.00  0.00     0.064 A 
ATOM     83  C   UNL A   1      45.001  26.355  34.859  1.00  0.00     0.173 A 
ATOM     84  C   UNL A   1      46.284  28.194  33.986  1.00  0.00     0.173 A 
ATOM     85  F   UNL A   1      43.842  25.694  35.000  1.00  0.00    -0.203 F 
ATOM     86  C   UNL A   1      46.130  25.886  35.523  1.00  0.00     0.198 A 
ATOM     87  C   UNL A   1      47.417  27.706  34.632  1.00  0.00     0.198 A 
ATOM     88  F   UNL A   1      46.387  29.315  33.259  1.00  0.00    -0.203 F 
ATOM     89  F   UNL A   1      46.045  24.791  36.293  1.00  0.00    -0.200 F 
ATOM     90  C   UNL A   1      47.337  26.557  35.405  1.00  0.00     0.200 A 
ATOM     91  F   UNL A   1      48.585  28.352  34.510  1.00  0.00    -0.200 F 
ATOM     92  F   UNL A   1      48.423  26.103  36.047  1.00  0.00    -0.200 F 
ENDBRANCH  59  82
ENDBRANCH  33  34
ENDBRANCH  25  28
ENDBRANCH  23  24
ENDBRANCH  22  23
ENDBRANCH   1  22
TORSDOF 13
ENDMDL
