MODEL 1
REMARK VINA RESULT:     -13.9      0.000      0.000
REMARK SMILES C[C@@H](Sc1nc(-c2ccc3c(c2)OCO3)ccc1C#N)C(=O)NCCCNC(=O)c1ccc(-c2c3nc(c(-c4c(F)c(F)c(F)c(F)c4F)c4ccc([nH]4)c(-c4c(F)c(F)c(F)c(F)c4F)c4nc(c(-c5c(F)c(F)c(F)c(F)c5F)c5ccc2[nH]5)C=C4)C=C3)cc1
REMARK SMILES IDX 24 1 23 2 21 3 22 4 2 6 1 7 3 8 4 9 5 10 18 11 6 12 17 13
REMARK SMILES IDX 16 14 19 15 20 16 7 17 8 18 12 19 9 20 11 21 10 22 13 23
REMARK SMILES IDX 15 24 14 25 25 26 26 27 27 28 28 29 29 31 30 32 31 33 92 34
REMARK SMILES IDX 32 35 91 36 33 37 34 38 35 39 85 40 36 41 90 42 84 43 86 44
REMARK SMILES IDX 37 45 89 46 83 47 82 48 38 50 70 51 50 52 69 53 51 54 54 55
REMARK SMILES IDX 68 56 87 57 52 58 53 59 67 61 88 62 55 63 39 64 40 65 48 66
REMARK SMILES IDX 41 67 42 68 46 69 49 70 43 71 44 72 47 73 45 74 71 75 72 76
REMARK SMILES IDX 80 77 73 78 74 79 78 80 81 81 75 82 76 83 79 84 77 85 56 86
REMARK SMILES IDX 57 87 65 88 58 89 59 90 63 91 66 92 60 93 61 94 64 95 62 96
REMARK H PARENT 23 5 27 30 86 49 54 60
REMARK Flexibility Score: inf
ROOT
ATOM      1  C   UNL A   1      31.794  30.630  26.419  1.00  0.00     0.117 C 
ENDROOT
BRANCH   1   2
ATOM      2  N   UNL A   1      33.153  30.242  26.760  1.00  0.00    -0.355 N 
ATOM      3  C   UNL A   1      33.699  29.010  26.955  1.00  0.00     0.233 C 
ATOM      4  O   UNL A   1      34.895  28.969  27.263  1.00  0.00    -0.274 OA
ATOM      5  H   UNL A   1      33.781  30.993  26.867  1.00  0.00     0.163 HD
BRANCH   3   6
ATOM      6  C   UNL A   1      32.878  27.723  26.830  1.00  0.00     0.139 C 
ATOM      7  C   UNL A   1      31.487  27.882  27.434  1.00  0.00     0.030 C 
BRANCH   6   8
ATOM      8  S   UNL A   1      32.961  27.147  25.077  1.00  0.00    -0.092 SA
BRANCH   8   9
ATOM      9  C   UNL A   1      31.261  27.194  24.554  1.00  0.00     0.115 A 
ATOM     10  N   UNL A   1      30.879  28.404  24.056  1.00  0.00    -0.240 NA
ATOM     11  C   UNL A   1      30.420  26.083  24.553  1.00  0.00     0.084 A 
ATOM     12  C   UNL A   1      29.632  28.528  23.540  1.00  0.00     0.072 A 
ATOM     13  C   UNL A   1      29.140  26.229  24.016  1.00  0.00     0.024 A 
ATOM     14  C   UNL A   1      28.744  27.458  23.501  1.00  0.00     0.030 A 
BRANCH  11  15
ATOM     15  C   UNL A   1      30.811  24.805  25.060  1.00  0.00     0.102 C 
ATOM     16  N   UNL A   1      31.098  23.751  25.443  1.00  0.00    -0.192 NA
ENDBRANCH  11  15
BRANCH  12  17
ATOM     17  C   UNL A   1      29.249  29.848  23.014  1.00  0.00     0.004 A 
ATOM     18  C   UNL A   1      29.212  30.976  23.876  1.00  0.00     0.014 A 
ATOM     19  C   UNL A   1      28.855  30.014  21.672  1.00  0.00     0.061 A 
ATOM     20  C   UNL A   1      28.770  32.227  23.432  1.00  0.00     0.051 A 
ATOM     21  C   UNL A   1      28.406  31.257  21.266  1.00  0.00     0.166 A 
ATOM     22  C   UNL A   1      28.361  32.331  22.123  1.00  0.00     0.165 A 
ATOM     23  O   UNL A   1      27.943  31.573  20.025  1.00  0.00    -0.454 OA
ATOM     24  O   UNL A   1      27.871  33.453  21.533  1.00  0.00    -0.454 OA
ATOM     25  C   UNL A   1      27.575  32.957  20.212  1.00  0.00     0.468 C 
ENDBRANCH  12  17
ENDBRANCH   8   9
ENDBRANCH   6   8
ENDBRANCH   3   6
ENDBRANCH   1   2
BRANCH   1  26
ATOM     26  C   UNL A   1      31.534  32.090  26.758  1.00  0.00     0.042 C 
BRANCH  26  27
ATOM     27  C   UNL A   1      32.759  32.803  27.312  1.00  0.00     0.118 C 
BRANCH  27  28
ATOM     28  N   UNL A   1      32.494  34.203  27.626  1.00  0.00    -0.352 N 
ATOM     29  C   UNL A   1      33.032  35.007  28.599  1.00  0.00     0.251 C 
ATOM     30  H   UNL A   1      31.826  34.638  27.050  1.00  0.00     0.163 HD
ATOM     31  O   UNL A   1      32.528  36.096  28.847  1.00  0.00    -0.269 OA
BRANCH  29  32
ATOM     32  C   UNL A   1      34.208  34.547  29.365  1.00  0.00     0.039 A 
ATOM     33  C   UNL A   1      34.025  34.067  30.664  1.00  0.00     0.014 A 
ATOM     34  C   UNL A   1      35.485  34.580  28.801  1.00  0.00     0.014 A 
ATOM     35  C   UNL A   1      35.111  33.541  31.363  1.00  0.00     0.010 A 
ATOM     36  C   UNL A   1      36.545  33.969  29.459  1.00  0.00     0.010 A 
ATOM     37  C   UNL A   1      36.369  33.439  30.745  1.00  0.00    -0.014 A 
BRANCH  37  38
ATOM     38  C   UNL A   1      37.508  32.763  31.417  1.00  0.00     0.031 A 
ATOM     39  C   UNL A   1      38.175  31.585  30.768  1.00  0.00     0.074 A 
ATOM     40  C   UNL A   1      37.888  33.166  32.645  1.00  0.00     0.049 A 
ATOM     41  N   UNL A   1      39.121  30.808  31.235  1.00  0.00    -0.248 NA
ATOM     42  C   UNL A   1      37.702  31.212  29.426  1.00  0.00     0.031 C 
ATOM     43  C   UNL A   1      37.292  34.274  33.393  1.00  0.00     0.029 A 
ATOM     44  N   UNL A   1      38.857  32.681  33.488  1.00  0.00    -0.354 N 
ATOM     45  C   UNL A   1      39.346  29.855  30.252  1.00  0.00     0.074 A 
ATOM     46  C   UNL A   1      38.399  30.112  29.188  1.00  0.00     0.031 C 
ATOM     47  C   UNL A   1      37.923  34.399  34.571  1.00  0.00     0.029 A 
ATOM     48  C   UNL A   1      38.928  33.348  34.687  1.00  0.00     0.049 A 
ATOM     49  H   UNL A   1      39.447  31.927  33.255  1.00  0.00     0.167 HD
ATOM     50  C   UNL A   1      40.273  28.867  30.230  1.00  0.00     0.037 A 
ATOM     51  C   UNL A   1      39.700  33.122  35.767  1.00  0.00     0.037 A 
ATOM     52  C   UNL A   1      41.215  28.622  31.291  1.00  0.00     0.049 A 
ATOM     53  C   UNL A   1      40.686  31.986  35.737  1.00  0.00     0.074 A 
ATOM     54  C   UNL A   1      42.227  27.679  31.343  1.00  0.00     0.029 A 
ATOM     55  N   UNL A   1      41.251  29.313  32.494  1.00  0.00    -0.354 N 
ATOM     56  N   UNL A   1      40.941  31.135  34.774  1.00  0.00    -0.248 NA
ATOM     57  C   UNL A   1      41.495  31.778  36.947  1.00  0.00     0.031 C 
ATOM     58  C   UNL A   1      42.825  27.751  32.604  1.00  0.00     0.029 A 
ATOM     59  C   UNL A   1      42.242  28.790  33.311  1.00  0.00     0.049 A 
ATOM     60  H   UNL A   1      40.661  30.065  32.731  1.00  0.00     0.167 HD
ATOM     61  C   UNL A   1      41.956  30.314  35.245  1.00  0.00     0.074 A 
ATOM     62  C   UNL A   1      42.284  30.780  36.576  1.00  0.00     0.031 C 
ATOM     63  C   UNL A   1      42.562  29.268  34.633  1.00  0.00     0.037 A 
BRANCH  50  64
ATOM     64  C   UNL A   1      40.309  27.970  29.025  1.00  0.00     0.064 A 
ATOM     65  C   UNL A   1      41.053  28.296  27.880  1.00  0.00     0.173 A 
ATOM     66  C   UNL A   1      39.624  26.745  29.031  1.00  0.00     0.173 A 
ATOM     67  F   UNL A   1      41.720  29.458  27.816  1.00  0.00    -0.203 F 
ATOM     68  C   UNL A   1      41.080  27.448  26.776  1.00  0.00     0.198 A 
ATOM     69  C   UNL A   1      39.684  25.882  27.941  1.00  0.00     0.198 A 
ATOM     70  F   UNL A   1      38.903  26.377  30.102  1.00  0.00    -0.203 F 
ATOM     71  F   UNL A   1      41.749  27.809  25.673  1.00  0.00    -0.200 F 
ATOM     72  C   UNL A   1      40.403  26.239  26.810  1.00  0.00     0.200 A 
ATOM     73  F   UNL A   1      39.045  24.704  27.984  1.00  0.00    -0.200 F 
ATOM     74  F   UNL A   1      40.439  25.419  25.751  1.00  0.00    -0.200 F 
ENDBRANCH  50  64
BRANCH  51  75
ATOM     75  C   UNL A   1      39.571  33.989  36.970  1.00  0.00     0.064 A 
ATOM     76  C   UNL A   1      38.772  33.603  38.056  1.00  0.00     0.173 A 
ATOM     77  C   UNL A   1      40.226  35.227  37.053  1.00  0.00     0.173 A 
ATOM     78  F   UNL A   1      38.108  32.438  38.018  1.00  0.00    -0.203 F 
ATOM     79  C   UNL A   1      38.610  34.433  39.163  1.00  0.00     0.198 A 
ATOM     80  C   UNL A   1      40.095  36.038  38.178  1.00  0.00     0.198 A 
ATOM     81  F   UNL A   1      41.008  35.644  36.046  1.00  0.00    -0.203 F 
ATOM     82  F   UNL A   1      37.794  34.065  40.160  1.00  0.00    -0.200 F 
ATOM     83  C   UNL A   1      39.277  35.647  39.226  1.00  0.00     0.200 A 
ATOM     84  F   UNL A   1      40.756  37.203  38.242  1.00  0.00    -0.200 F 
ATOM     85  F   UNL A   1      39.124  36.444  40.292  1.00  0.00    -0.200 F 
ENDBRANCH  51  75
BRANCH  63  86
ATOM     86  C   UNL A   1      43.670  28.573  35.374  1.00  0.00     0.064 A 
ATOM     87  C   UNL A   1      45.015  28.937  35.208  1.00  0.00     0.173 A 
ATOM     88  C   UNL A   1      43.375  27.564  36.305  1.00  0.00     0.173 A 
ATOM     89  F   UNL A   1      45.353  29.884  34.322  1.00  0.00    -0.203 F 
ATOM     90  C   UNL A   1      46.022  28.299  35.926  1.00  0.00     0.198 A 
ATOM     91  C   UNL A   1      44.381  26.955  37.049  1.00  0.00     0.198 A 
ATOM     92  F   UNL A   1      42.105  27.181  36.508  1.00  0.00    -0.203 F 
ATOM     93  F   UNL A   1      47.304  28.627  35.712  1.00  0.00    -0.200 F 
ATOM     94  C   UNL A   1      45.705  27.317  36.853  1.00  0.00     0.200 A 
ATOM     95  F   UNL A   1      44.069  26.022  37.958  1.00  0.00    -0.200 F 
ATOM     96  F   UNL A   1      46.676  26.716  37.554  1.00  0.00    -0.200 F 
ENDBRANCH  63  86
ENDBRANCH  37  38
ENDBRANCH  29  32
ENDBRANCH  27  28
ENDBRANCH  26  27
ENDBRANCH   1  26
TORSDOF 14
ENDMDL
MODEL 2
REMARK VINA RESULT:     -13.5      2.203      3.725
REMARK SMILES C[C@@H](Sc1nc(-c2ccc3c(c2)OCO3)ccc1C#N)C(=O)NCCCNC(=O)c1ccc(-c2c3nc(c(-c4c(F)c(F)c(F)c(F)c4F)c4ccc([nH]4)c(-c4c(F)c(F)c(F)c(F)c4F)c4nc(c(-c5c(F)c(F)c(F)c(F)c5F)c5ccc2[nH]5)C=C4)C=C3)cc1
REMARK SMILES IDX 24 1 23 2 21 3 22 4 2 6 1 7 3 8 4 9 5 10 18 11 6 12 17 13
REMARK SMILES IDX 16 14 19 15 20 16 7 17 8 18 12 19 9 20 11 21 10 22 13 23
REMARK SMILES IDX 15 24 14 25 25 26 26 27 27 28 28 29 29 31 30 32 31 33 92 34
REMARK SMILES IDX 32 35 91 36 33 37 34 38 35 39 85 40 36 41 90 42 84 43 86 44
REMARK SMILES IDX 37 45 89 46 83 47 82 48 38 50 70 51 50 52 69 53 51 54 54 55
REMARK SMILES IDX 68 56 87 57 52 58 53 59 67 61 88 62 55 63 39 64 40 65 48 66
REMARK SMILES IDX 41 67 42 68 46 69 49 70 43 71 44 72 47 73 45 74 71 75 72 76
REMARK SMILES IDX 80 77 73 78 74 79 78 80 81 81 75 82 76 83 79 84 77 85 56 86
REMARK SMILES IDX 57 87 65 88 58 89 59 90 63 91 66 92 60 93 61 94 64 95 62 96
REMARK H PARENT 23 5 27 30 86 49 54 60
REMARK Flexibility Score: inf
ROOT
ATOM      1  C   UNL A   1      32.404  26.591  26.364  1.00  0.00     0.117 C 
ENDROOT
BRANCH   1   2
ATOM      2  N   UNL A   1      31.404  25.669  26.875  1.00  0.00    -0.355 N 
ATOM      3  C   UNL A   1      31.256  24.328  26.683  1.00  0.00     0.233 C 
ATOM      4  O   UNL A   1      30.287  23.787  27.226  1.00  0.00    -0.274 OA
ATOM      5  H   UNL A   1      30.722  26.080  27.454  1.00  0.00     0.163 HD
BRANCH   3   6
ATOM      6  C   UNL A   1      32.220  23.516  25.813  1.00  0.00     0.139 C 
ATOM      7  C   UNL A   1      32.664  22.234  26.509  1.00  0.00     0.030 C 
BRANCH   6   8
ATOM      8  S   UNL A   1      31.477  23.334  24.133  1.00  0.00    -0.092 SA
BRANCH   8   9
ATOM      9  C   UNL A   1      31.930  24.852  23.323  1.00  0.00     0.115 A 
ATOM     10  N   UNL A   1      30.950  25.798  23.354  1.00  0.00    -0.240 NA
ATOM     11  C   UNL A   1      33.195  25.100  22.793  1.00  0.00     0.084 A 
ATOM     12  C   UNL A   1      31.219  27.028  22.850  1.00  0.00     0.072 A 
ATOM     13  C   UNL A   1      33.455  26.371  22.280  1.00  0.00     0.024 A 
ATOM     14  C   UNL A   1      32.463  27.344  22.313  1.00  0.00     0.030 A 
BRANCH  11  15
ATOM     15  C   UNL A   1      34.236  24.121  22.765  1.00  0.00     0.102 C 
ATOM     16  N   UNL A   1      35.098  23.350  22.706  1.00  0.00    -0.192 NA
ENDBRANCH  11  15
BRANCH  12  17
ATOM     17  C   UNL A   1      30.139  28.026  22.896  1.00  0.00     0.004 A 
ATOM     18  C   UNL A   1      28.811  27.626  23.202  1.00  0.00     0.014 A 
ATOM     19  C   UNL A   1      30.378  29.377  22.582  1.00  0.00     0.061 A 
ATOM     20  C   UNL A   1      27.744  28.530  23.170  1.00  0.00     0.051 A 
ATOM     21  C   UNL A   1      29.302  30.245  22.540  1.00  0.00     0.166 A 
ATOM     22  C   UNL A   1      28.022  29.831  22.822  1.00  0.00     0.165 A 
ATOM     23  O   UNL A   1      29.352  31.564  22.207  1.00  0.00    -0.454 OA
ATOM     24  O   UNL A   1      27.109  30.832  22.707  1.00  0.00    -0.454 OA
ATOM     25  C   UNL A   1      27.954  31.920  22.282  1.00  0.00     0.468 C 
ENDBRANCH  12  17
ENDBRANCH   8   9
ENDBRANCH   6   8
ENDBRANCH   3   6
ENDBRANCH   1   2
BRANCH   1  26
ATOM     26  C   UNL A   1      31.868  28.014  26.311  1.00  0.00     0.042 C 
BRANCH  26  27
ATOM     27  C   UNL A   1      32.890  29.020  25.799  1.00  0.00     0.118 C 
BRANCH  27  28
ATOM     28  N   UNL A   1      32.546  30.392  26.154  1.00  0.00    -0.352 N 
ATOM     29  C   UNL A   1      33.148  31.253  27.037  1.00  0.00     0.251 C 
ATOM     30  H   UNL A   1      31.761  30.757  25.687  1.00  0.00     0.163 HD
ATOM     31  O   UNL A   1      32.588  32.293  27.363  1.00  0.00    -0.269 OA
BRANCH  29  32
ATOM     32  C   UNL A   1      34.464  30.912  27.615  1.00  0.00     0.039 A 
ATOM     33  C   UNL A   1      35.420  31.918  27.765  1.00  0.00     0.014 A 
ATOM     34  C   UNL A   1      34.748  29.605  28.018  1.00  0.00     0.014 A 
ATOM     35  C   UNL A   1      36.630  31.631  28.397  1.00  0.00     0.010 A 
ATOM     36  C   UNL A   1      35.911  29.342  28.733  1.00  0.00     0.010 A 
ATOM     37  C   UNL A   1      36.863  30.353  28.933  1.00  0.00    -0.014 A 
BRANCH  37  38
ATOM     38  C   UNL A   1      38.082  30.058  29.727  1.00  0.00     0.031 A 
ATOM     39  C   UNL A   1      39.115  29.104  29.199  1.00  0.00     0.074 A 
ATOM     40  C   UNL A   1      38.219  30.592  30.957  1.00  0.00     0.049 A 
ATOM     41  N   UNL A   1      40.197  28.651  29.780  1.00  0.00    -0.248 NA
ATOM     42  C   UNL A   1      38.890  28.567  27.847  1.00  0.00     0.031 C 
ATOM     43  C   UNL A   1      37.266  31.503  31.593  1.00  0.00     0.029 A 
ATOM     44  N   UNL A   1      39.207  30.437  31.896  1.00  0.00    -0.354 N 
ATOM     45  C   UNL A   1      40.774  27.773  28.872  1.00  0.00     0.074 A 
ATOM     46  C   UNL A   1      39.892  27.710  27.726  1.00  0.00     0.031 C 
ATOM     47  C   UNL A   1      37.726  31.844  32.806  1.00  0.00     0.029 A 
ATOM     48  C   UNL A   1      38.976  31.134  33.059  1.00  0.00     0.049 A 
ATOM     49  H   UNL A   1      40.006  29.880  31.752  1.00  0.00     0.167 HD
ATOM     50  C   UNL A   1      41.943  27.098  28.978  1.00  0.00     0.037 A 
ATOM     51  C   UNL A   1      39.680  31.177  34.206  1.00  0.00     0.037 A 
ATOM     52  C   UNL A   1      42.817  27.171  30.119  1.00  0.00     0.049 A 
ATOM     53  C   UNL A   1      40.949  30.375  34.315  1.00  0.00     0.074 A 
ATOM     54  C   UNL A   1      44.047  26.564  30.302  1.00  0.00     0.029 A 
ATOM     55  N   UNL A   1      42.545  27.880  31.281  1.00  0.00    -0.354 N 
ATOM     56  N   UNL A   1      41.522  29.605  33.424  1.00  0.00    -0.248 NA
ATOM     57  C   UNL A   1      41.672  30.450  35.593  1.00  0.00     0.031 C 
ATOM     58  C   UNL A   1      44.484  26.847  31.599  1.00  0.00     0.029 A 
ATOM     59  C   UNL A   1      43.567  27.693  32.199  1.00  0.00     0.049 A 
ATOM     60  H   UNL A   1      41.745  28.435  31.429  1.00  0.00     0.167 HD
ATOM     61  C   UNL A   1      42.684  29.129  34.017  1.00  0.00     0.074 A 
ATOM     62  C   UNL A   1      42.744  29.713  35.341  1.00  0.00     0.031 C 
ATOM     63  C   UNL A   1      43.617  28.286  33.513  1.00  0.00     0.037 A 
BRANCH  50  64
ATOM     64  C   UNL A   1      42.343  26.212  27.832  1.00  0.00     0.064 A 
ATOM     65  C   UNL A   1      41.798  24.929  27.661  1.00  0.00     0.173 A 
ATOM     66  C   UNL A   1      43.254  26.667  26.866  1.00  0.00     0.173 A 
ATOM     67  F   UNL A   1      40.929  24.439  28.558  1.00  0.00    -0.203 F 
ATOM     68  C   UNL A   1      42.175  24.125  26.588  1.00  0.00     0.198 A 
ATOM     69  C   UNL A   1      43.600  25.876  25.773  1.00  0.00     0.198 A 
ATOM     70  F   UNL A   1      43.801  27.888  26.973  1.00  0.00    -0.203 F 
ATOM     71  F   UNL A   1      41.685  22.883  26.479  1.00  0.00    -0.200 F 
ATOM     72  C   UNL A   1      43.068  24.603  25.642  1.00  0.00     0.200 A 
ATOM     73  F   UNL A   1      44.448  26.347  24.849  1.00  0.00    -0.200 F 
ATOM     74  F   UNL A   1      43.422  23.832  24.603  1.00  0.00    -0.200 F 
ENDBRANCH  50  64
BRANCH  51  75
ATOM     75  C   UNL A   1      39.201  32.007  35.344  1.00  0.00     0.064 A 
ATOM     76  C   UNL A   1      39.523  33.369  35.430  1.00  0.00     0.173 A 
ATOM     77  C   UNL A   1      38.428  31.456  36.377  1.00  0.00     0.173 A 
ATOM     78  F   UNL A   1      40.277  33.940  34.478  1.00  0.00    -0.203 F 
ATOM     79  C   UNL A   1      39.117  34.139  36.518  1.00  0.00     0.198 A 
ATOM     80  C   UNL A   1      37.989  32.236  37.444  1.00  0.00     0.198 A 
ATOM     81  F   UNL A   1      38.085  30.160  36.343  1.00  0.00    -0.203 F 
ATOM     82  F   UNL A   1      39.490  35.423  36.603  1.00  0.00    -0.200 F 
ATOM     83  C   UNL A   1      38.345  33.573  37.521  1.00  0.00     0.200 A 
ATOM     84  F   UNL A   1      37.227  31.689  38.402  1.00  0.00    -0.200 F 
ATOM     85  F   UNL A   1      37.952  34.314  38.566  1.00  0.00    -0.200 F 
ENDBRANCH  51  75
BRANCH  63  86
ATOM     86  C   UNL A   1      44.806  27.967  34.375  1.00  0.00     0.064 A 
ATOM     87  C   UNL A   1      44.828  26.850  35.223  1.00  0.00     0.173 A 
ATOM     88  C   UNL A   1      45.961  28.764  34.311  1.00  0.00     0.173 A 
ATOM     89  F   UNL A   1      43.747  26.064  35.334  1.00  0.00    -0.203 F 
ATOM     90  C   UNL A   1      45.951  26.558  35.993  1.00  0.00     0.198 A 
ATOM     91  C   UNL A   1      47.095  28.447  35.053  1.00  0.00     0.198 A 
ATOM     92  F   UNL A   1      45.997  29.841  33.512  1.00  0.00    -0.203 F 
ATOM     93  F   UNL A   1      45.930  25.515  36.835  1.00  0.00    -0.200 F 
ATOM     94  C   UNL A   1      47.087  27.349  35.900  1.00  0.00     0.200 A 
ATOM     95  F   UNL A   1      48.197  29.201  34.945  1.00  0.00    -0.200 F 
ATOM     96  F   UNL A   1      48.171  27.056  36.630  1.00  0.00    -0.200 F 
ENDBRANCH  63  86
ENDBRANCH  37  38
ENDBRANCH  29  32
ENDBRANCH  27  28
ENDBRANCH  26  27
ENDBRANCH   1  26
TORSDOF 14
ENDMDL
MODEL 3
REMARK VINA RESULT:     -13.5      2.234      3.433
REMARK SMILES C[C@@H](Sc1nc(-c2ccc3c(c2)OCO3)ccc1C#N)C(=O)NCCCNC(=O)c1ccc(-c2c3nc(c(-c4c(F)c(F)c(F)c(F)c4F)c4ccc([nH]4)c(-c4c(F)c(F)c(F)c(F)c4F)c4nc(c(-c5c(F)c(F)c(F)c(F)c5F)c5ccc2[nH]5)C=C4)C=C3)cc1
REMARK SMILES IDX 24 1 23 2 21 3 22 4 2 6 1 7 3 8 4 9 5 10 18 11 6 12 17 13
REMARK SMILES IDX 16 14 19 15 20 16 7 17 8 18 12 19 9 20 11 21 10 22 13 23
REMARK SMILES IDX 15 24 14 25 25 26 26 27 27 28 28 29 29 31 30 32 31 33 92 34
REMARK SMILES IDX 32 35 91 36 33 37 34 38 35 39 85 40 36 41 90 42 84 43 86 44
REMARK SMILES IDX 37 45 89 46 83 47 82 48 38 50 70 51 50 52 69 53 51 54 54 55
REMARK SMILES IDX 68 56 87 57 52 58 53 59 67 61 88 62 55 63 39 64 40 65 48 66
REMARK SMILES IDX 41 67 42 68 46 69 49 70 43 71 44 72 47 73 45 74 71 75 72 76
REMARK SMILES IDX 80 77 73 78 74 79 78 80 81 81 75 82 76 83 79 84 77 85 56 86
REMARK SMILES IDX 57 87 65 88 58 89 59 90 63 91 66 92 60 93 61 94 64 95 62 96
REMARK H PARENT 23 5 27 30 86 49 54 60
REMARK Flexibility Score: inf
ROOT
ATOM      1  C   UNL A   1      32.444  26.593  26.419  1.00  0.00     0.117 C 
ENDROOT
BRANCH   1   2
ATOM      2  N   UNL A   1      31.435  25.655  26.881  1.00  0.00    -0.355 N 
ATOM      3  C   UNL A   1      31.360  24.300  26.754  1.00  0.00     0.233 C 
ATOM      4  O   UNL A   1      30.364  23.747  27.230  1.00  0.00    -0.274 OA
ATOM      5  H   UNL A   1      30.683  26.065  27.367  1.00  0.00     0.163 HD
BRANCH   3   6
ATOM      6  C   UNL A   1      32.438  23.488  26.031  1.00  0.00     0.139 C 
ATOM      7  C   UNL A   1      32.882  22.283  26.854  1.00  0.00     0.030 C 
BRANCH   6   8
ATOM      8  S   UNL A   1      31.858  23.150  24.310  1.00  0.00    -0.092 SA
BRANCH   8   9
ATOM      9  C   UNL A   1      32.236  24.660  23.451  1.00  0.00     0.115 A 
ATOM     10  N   UNL A   1      31.216  25.564  23.465  1.00  0.00    -0.240 NA
ATOM     11  C   UNL A   1      33.484  24.947  22.900  1.00  0.00     0.084 A 
ATOM     12  C   UNL A   1      31.426  26.788  22.922  1.00  0.00     0.072 A 
ATOM     13  C   UNL A   1      33.683  26.212  22.347  1.00  0.00     0.024 A 
ATOM     14  C   UNL A   1      32.650  27.142  22.362  1.00  0.00     0.030 A 
BRANCH  11  15
ATOM     15  C   UNL A   1      34.566  24.014  22.889  1.00  0.00     0.102 C 
ATOM     16  N   UNL A   1      35.446  23.262  22.835  1.00  0.00    -0.192 NA
ENDBRANCH  11  15
BRANCH  12  17
ATOM     17  C   UNL A   1      30.305  27.740  22.951  1.00  0.00     0.004 A 
ATOM     18  C   UNL A   1      29.023  27.317  23.393  1.00  0.00     0.014 A 
ATOM     19  C   UNL A   1      30.453  29.061  22.489  1.00  0.00     0.061 A 
ATOM     20  C   UNL A   1      27.912  28.167  23.353  1.00  0.00     0.051 A 
ATOM     21  C   UNL A   1      29.336  29.874  22.443  1.00  0.00     0.166 A 
ATOM     22  C   UNL A   1      28.101  29.437  22.859  1.00  0.00     0.165 A 
ATOM     23  O   UNL A   1      29.297  31.154  21.979  1.00  0.00    -0.454 OA
ATOM     24  O   UNL A   1      27.134  30.382  22.714  1.00  0.00    -0.454 OA
ATOM     25  C   UNL A   1      27.892  31.456  22.122  1.00  0.00     0.468 C 
ENDBRANCH  12  17
ENDBRANCH   8   9
ENDBRANCH   6   8
ENDBRANCH   3   6
ENDBRANCH   1   2
BRANCH   1  26
ATOM     26  C   UNL A   1      31.915  28.019  26.419  1.00  0.00     0.042 C 
BRANCH  26  27
ATOM     27  C   UNL A   1      32.873  29.013  25.779  1.00  0.00     0.118 C 
BRANCH  27  28
ATOM     28  N   UNL A   1      32.545  30.395  26.110  1.00  0.00    -0.352 N 
ATOM     29  C   UNL A   1      33.155  31.264  26.979  1.00  0.00     0.251 C 
ATOM     30  H   UNL A   1      31.764  30.761  25.636  1.00  0.00     0.163 HD
ATOM     31  O   UNL A   1      32.606  32.317  27.286  1.00  0.00    -0.269 OA
BRANCH  29  32
ATOM     32  C   UNL A   1      34.466  30.919  27.564  1.00  0.00     0.039 A 
ATOM     33  C   UNL A   1      35.438  31.914  27.686  1.00  0.00     0.014 A 
ATOM     34  C   UNL A   1      34.731  29.619  28.002  1.00  0.00     0.014 A 
ATOM     35  C   UNL A   1      36.644  31.625  28.324  1.00  0.00     0.010 A 
ATOM     36  C   UNL A   1      35.891  29.358  28.722  1.00  0.00     0.010 A 
ATOM     37  C   UNL A   1      36.858  30.358  28.894  1.00  0.00    -0.014 A 
BRANCH  37  38
ATOM     38  C   UNL A   1      38.075  30.066  29.693  1.00  0.00     0.031 A 
ATOM     39  C   UNL A   1      39.117  29.122  29.166  1.00  0.00     0.074 A 
ATOM     40  C   UNL A   1      38.200  30.594  30.927  1.00  0.00     0.049 A 
ATOM     41  N   UNL A   1      40.198  28.672  29.751  1.00  0.00    -0.248 NA
ATOM     42  C   UNL A   1      38.905  28.593  27.810  1.00  0.00     0.031 C 
ATOM     43  C   UNL A   1      37.237  31.494  31.563  1.00  0.00     0.029 A 
ATOM     44  N   UNL A   1      39.182  30.439  31.873  1.00  0.00    -0.354 N 
ATOM     45  C   UNL A   1      40.786  27.804  28.842  1.00  0.00     0.074 A 
ATOM     46  C   UNL A   1      39.913  27.742  27.690  1.00  0.00     0.031 C 
ATOM     47  C   UNL A   1      37.687  31.830  32.782  1.00  0.00     0.029 A 
ATOM     48  C   UNL A   1      38.939  31.126  33.038  1.00  0.00     0.049 A 
ATOM     49  H   UNL A   1      39.986  29.887  31.730  1.00  0.00     0.167 HD
ATOM     50  C   UNL A   1      41.959  27.135  28.951  1.00  0.00     0.037 A 
ATOM     51  C   UNL A   1      39.636  31.167  34.190  1.00  0.00     0.037 A 
ATOM     52  C   UNL A   1      42.825  27.206  30.099  1.00  0.00     0.049 A 
ATOM     53  C   UNL A   1      40.910  30.372  34.302  1.00  0.00     0.074 A 
ATOM     54  C   UNL A   1      44.058  26.606  30.286  1.00  0.00     0.029 A 
ATOM     55  N   UNL A   1      42.541  27.907  31.263  1.00  0.00    -0.354 N 
ATOM     56  N   UNL A   1      41.493  29.611  33.410  1.00  0.00    -0.248 NA
ATOM     57  C   UNL A   1      41.623  30.443  35.586  1.00  0.00     0.031 C 
ATOM     58  C   UNL A   1      44.485  26.884  31.588  1.00  0.00     0.029 A 
ATOM     59  C   UNL A   1      43.558  27.720  32.187  1.00  0.00     0.049 A 
ATOM     60  H   UNL A   1      41.736  28.456  31.410  1.00  0.00     0.167 HD
ATOM     61  C   UNL A   1      42.654  29.139  34.008  1.00  0.00     0.074 A 
ATOM     62  C   UNL A   1      42.702  29.715  35.336  1.00  0.00     0.031 C 
ATOM     63  C   UNL A   1      43.596  28.305  33.505  1.00  0.00     0.037 A 
BRANCH  50  64
ATOM     64  C   UNL A   1      42.372  26.259  27.802  1.00  0.00     0.064 A 
ATOM     65  C   UNL A   1      43.285  26.694  26.829  1.00  0.00     0.173 A 
ATOM     66  C   UNL A   1      41.878  24.949  27.695  1.00  0.00     0.173 A 
ATOM     67  F   UNL A   1      43.782  27.938  26.877  1.00  0.00    -0.203 F 
ATOM     68  C   UNL A   1      43.661  25.864  25.775  1.00  0.00     0.198 A 
ATOM     69  C   UNL A   1      42.286  24.109  26.662  1.00  0.00     0.198 A 
ATOM     70  F   UNL A   1      41.008  24.476  28.601  1.00  0.00    -0.203 F 
ATOM     71  F   UNL A   1      44.490  26.322  24.827  1.00  0.00    -0.200 F 
ATOM     72  C   UNL A   1      43.168  24.571  25.698  1.00  0.00     0.200 A 
ATOM     73  F   UNL A   1      41.823  22.853  26.600  1.00  0.00    -0.200 F 
ATOM     74  F   UNL A   1      43.540  23.770  24.689  1.00  0.00    -0.200 F 
ENDBRANCH  50  64
BRANCH  51  75
ATOM     75  C   UNL A   1      39.144  31.986  35.330  1.00  0.00     0.064 A 
ATOM     76  C   UNL A   1      39.437  33.355  35.414  1.00  0.00     0.173 A 
ATOM     77  C   UNL A   1      38.388  31.420  36.366  1.00  0.00     0.173 A 
ATOM     78  F   UNL A   1      40.174  33.942  34.459  1.00  0.00    -0.203 F 
ATOM     79  C   UNL A   1      39.019  34.117  36.504  1.00  0.00     0.198 A 
ATOM     80  C   UNL A   1      37.937  32.190  37.436  1.00  0.00     0.198 A 
ATOM     81  F   UNL A   1      38.072  30.116  36.334  1.00  0.00    -0.203 F 
ATOM     82  F   UNL A   1      39.365  35.408  36.587  1.00  0.00    -0.200 F 
ATOM     83  C   UNL A   1      38.264  33.535  37.511  1.00  0.00     0.200 A 
ATOM     84  F   UNL A   1      37.191  31.628  38.397  1.00  0.00    -0.200 F 
ATOM     85  F   UNL A   1      37.860  34.268  38.557  1.00  0.00    -0.200 F 
ENDBRANCH  51  75
BRANCH  63  86
ATOM     86  C   UNL A   1      44.781  27.988  34.373  1.00  0.00     0.064 A 
ATOM     87  C   UNL A   1      45.919  28.808  34.400  1.00  0.00     0.173 A 
ATOM     88  C   UNL A   1      44.754  26.875  35.228  1.00  0.00     0.173 A 
ATOM     89  F   UNL A   1      46.003  29.875  33.593  1.00  0.00    -0.203 F 
ATOM     90  C   UNL A   1      46.995  28.511  35.233  1.00  0.00     0.198 A 
ATOM     91  C   UNL A   1      45.815  26.603  36.087  1.00  0.00     0.198 A 
ATOM     92  F   UNL A   1      43.688  26.061  35.247  1.00  0.00    -0.203 F 
ATOM     93  F   UNL A   1      48.093  29.279  35.204  1.00  0.00    -0.200 F 
ATOM     94  C   UNL A   1      46.938  27.416  36.083  1.00  0.00     0.200 A 
ATOM     95  F   UNL A   1      45.749  25.557  36.922  1.00  0.00    -0.200 F 
ATOM     96  F   UNL A   1      47.968  27.142  36.894  1.00  0.00    -0.200 F 
ENDBRANCH  63  86
ENDBRANCH  37  38
ENDBRANCH  29  32
ENDBRANCH  27  28
ENDBRANCH  26  27
ENDBRANCH   1  26
TORSDOF 14
ENDMDL
