MODEL 1
REMARK VINA RESULT:     -10.8      0.000      0.000
REMARK SMILES CCCN(CC(=O)OC)C(=O)N1CC[C@H](C(=O)NCCCNC(=O)c2ccc(-c3c4nc(c(-c5c(F)c(F)c(F)c(F)c5F)c5ccc([nH]5)c(-c5c(F)c(F)c(F)c(F)c5F)c5nc(c(-c6c(F)c(F)c(F)c(F)c6F)c6ccc3[nH]6)C=C5)C=C4)cc2)[C@H]1C
REMARK SMILES IDX 16 1 17 2 18 3 15 5 12 6 13 7 88 8 14 9 89 10 10 11 11 12
REMARK SMILES IDX 4 13 3 14 2 15 1 16 5 17 6 18 7 19 8 20 9 21 19 22 20 23
REMARK SMILES IDX 21 24 22 25 23 26 24 28 25 29 26 30 87 31 27 32 86 33 28 34
REMARK SMILES IDX 29 35 30 36 80 37 31 38 85 39 79 40 81 41 32 42 84 43 78 44
REMARK SMILES IDX 77 45 33 47 65 48 45 49 64 50 46 51 49 52 63 53 82 54 47 55
REMARK SMILES IDX 48 56 62 58 83 59 50 60 34 61 35 62 43 63 36 64 37 65 41 66
REMARK SMILES IDX 44 67 38 68 39 69 42 70 40 71 66 72 67 73 75 74 68 75 69 76
REMARK SMILES IDX 73 77 76 78 70 79 71 80 74 81 72 82 51 83 52 84 60 85 53 86
REMARK SMILES IDX 54 87 58 88 61 89 55 90 56 91 59 92 57 93
REMARK H PARENT 18 4 22 27 81 46 49 57
REMARK Flexibility Score: inf
ROOT
ATOM      1  C   UNL A   1      34.768  21.432  25.966  1.00  0.00     0.225 C 
ATOM      2  O   UNL A   1      34.523  21.757  27.134  1.00  0.00    -0.275 OA
ATOM      3  N   UNL A   1      35.940  20.777  25.798  1.00  0.00    -0.356 N 
ATOM      4  H   UNL A   1      36.371  20.518  26.644  1.00  0.00     0.163 HD
ENDROOT
BRANCH   1   5
ATOM      5  C   UNL A   1      33.705  21.603  24.874  1.00  0.00     0.102 C 
ATOM      6  N   UNL A   1      33.117  23.900  24.627  1.00  0.00    -0.321 N 
ATOM      7  C   UNL A   1      32.325  23.350  25.730  1.00  0.00     0.122 C 
ATOM      8  C   UNL A   1      33.751  22.795  23.895  1.00  0.00     0.096 C 
ATOM      9  C   UNL A   1      32.332  21.839  25.538  1.00  0.00     0.037 C 
ATOM     10  C   UNL A   1      32.963  22.396  22.629  1.00  0.00     0.032 C 
BRANCH   6  11
ATOM     11  C   UNL A   1      33.760  25.104  24.875  1.00  0.00     0.320 C 
ATOM     12  O   UNL A   1      34.933  25.117  25.257  1.00  0.00    -0.248 OA
BRANCH  11  13
ATOM     13  N   UNL A   1      33.043  26.281  24.763  1.00  0.00    -0.314 N 
BRANCH  13  14
ATOM     14  C   UNL A   1      32.772  27.031  25.994  1.00  0.00     0.122 C 
BRANCH  14  15
ATOM     15  C   UNL A   1      33.251  28.491  25.910  1.00  0.00     0.018 C 
ATOM     16  C   UNL A   1      33.504  29.135  27.268  1.00  0.00     0.006 C 
ENDBRANCH  14  15
ENDBRANCH  13  14
BRANCH  13  17
ATOM     17  C   UNL A   1      32.387  26.784  23.555  1.00  0.00     0.243 C 
BRANCH  17  18
ATOM     18  C   UNL A   1      33.319  27.240  22.428  1.00  0.00     0.325 C 
ATOM     19  O   UNL A   1      33.744  28.392  22.340  1.00  0.00    -0.250 OA
BRANCH  18  20
ATOM     20  O   UNL A   1      33.655  26.238  21.573  1.00  0.00    -0.468 OA
ATOM     21  C   UNL A   1      32.560  25.563  20.941  1.00  0.00     0.282 C 
ENDBRANCH  18  20
ENDBRANCH  17  18
ENDBRANCH  13  17
ENDBRANCH  11  13
ENDBRANCH   6  11
ENDBRANCH   1   5
BRANCH   3  22
ATOM     22  C   UNL A   1      36.689  20.382  24.625  1.00  0.00     0.117 C 
BRANCH  22  23
ATOM     23  C   UNL A   1      37.805  19.407  25.003  1.00  0.00     0.042 C 
BRANCH  23  24
ATOM     24  C   UNL A   1      38.972  20.053  25.745  1.00  0.00     0.118 C 
BRANCH  24  25
ATOM     25  N   UNL A   1      40.077  19.120  25.923  1.00  0.00    -0.352 N 
ATOM     26  C   UNL A   1      41.417  19.347  26.094  1.00  0.00     0.251 C 
ATOM     27  H   UNL A   1      39.819  18.170  25.919  1.00  0.00     0.163 HD
ATOM     28  O   UNL A   1      42.205  18.402  25.967  1.00  0.00    -0.269 OA
BRANCH  26  29
ATOM     29  C   UNL A   1      41.946  20.690  26.421  1.00  0.00     0.039 A 
ATOM     30  C   UNL A   1      42.225  21.576  25.374  1.00  0.00     0.014 A 
ATOM     31  C   UNL A   1      42.239  21.063  27.735  1.00  0.00     0.014 A 
ATOM     32  C   UNL A   1      42.742  22.846  25.646  1.00  0.00     0.010 A 
ATOM     33  C   UNL A   1      42.691  22.352  28.013  1.00  0.00     0.010 A 
ATOM     34  C   UNL A   1      42.951  23.255  26.971  1.00  0.00    -0.014 A 
BRANCH  34  35
ATOM     35  C   UNL A   1      43.431  24.623  27.290  1.00  0.00     0.031 A 
ATOM     36  C   UNL A   1      42.473  25.671  27.780  1.00  0.00     0.074 A 
ATOM     37  C   UNL A   1      44.716  24.946  27.053  1.00  0.00     0.049 A 
ATOM     38  N   UNL A   1      42.683  26.943  28.013  1.00  0.00    -0.248 NA
ATOM     39  C   UNL A   1      41.087  25.238  28.011  1.00  0.00     0.031 C 
ATOM     40  C   UNL A   1      45.731  24.032  26.527  1.00  0.00     0.029 A 
ATOM     41  N   UNL A   1      45.382  26.137  27.198  1.00  0.00    -0.354 N 
ATOM     42  C   UNL A   1      41.453  27.465  28.393  1.00  0.00     0.074 A 
ATOM     43  C   UNL A   1      40.495  26.382  28.320  1.00  0.00     0.031 C 
ATOM     44  C   UNL A   1      46.889  24.696  26.392  1.00  0.00     0.029 A 
ATOM     45  C   UNL A   1      46.690  26.087  26.787  1.00  0.00     0.049 A 
ATOM     46  H   UNL A   1      44.962  26.950  27.562  1.00  0.00     0.167 HD
ATOM     47  C   UNL A   1      41.156  28.729  28.782  1.00  0.00     0.037 A 
ATOM     48  C   UNL A   1      47.622  27.058  26.714  1.00  0.00     0.037 A 
ATOM     49  C   UNL A   1      42.118  29.795  28.879  1.00  0.00     0.049 A 
ATOM     50  C   UNL A   1      47.273  28.450  27.156  1.00  0.00     0.074 A 
ATOM     51  C   UNL A   1      41.938  31.080  29.359  1.00  0.00     0.029 A 
ATOM     52  N   UNL A   1      43.442  29.701  28.473  1.00  0.00    -0.354 N 
ATOM     53  N   UNL A   1      46.129  28.913  27.598  1.00  0.00    -0.248 NA
ATOM     54  C   UNL A   1      48.343  29.454  27.092  1.00  0.00     0.031 C 
ATOM     55  C   UNL A   1      43.140  31.779  29.199  1.00  0.00     0.029 A 
ATOM     56  C   UNL A   1      44.082  30.917  28.659  1.00  0.00     0.049 A 
ATOM     57  H   UNL A   1      43.864  28.891  28.109  1.00  0.00     0.167 HD
ATOM     58  C   UNL A   1      46.341  30.257  27.870  1.00  0.00     0.074 A 
ATOM     59  C   UNL A   1      47.729  30.531  27.565  1.00  0.00     0.031 C 
ATOM     60  C   UNL A   1      45.460  31.180  28.331  1.00  0.00     0.037 A 
BRANCH  47  61
ATOM     61  C   UNL A   1      39.723  29.024  29.124  1.00  0.00     0.064 A 
ATOM     62  C   UNL A   1      39.229  28.875  30.429  1.00  0.00     0.173 A 
ATOM     63  C   UNL A   1      38.835  29.472  28.135  1.00  0.00     0.173 A 
ATOM     64  F   UNL A   1      40.035  28.442  31.410  1.00  0.00    -0.203 F 
ATOM     65  C   UNL A   1      37.890  29.122  30.721  1.00  0.00     0.198 A 
ATOM     66  C   UNL A   1      37.504  29.747  28.437  1.00  0.00     0.198 A 
ATOM     67  F   UNL A   1      39.257  29.641  26.873  1.00  0.00    -0.203 F 
ATOM     68  F   UNL A   1      37.428  28.914  31.962  1.00  0.00    -0.200 F 
ATOM     69  C   UNL A   1      37.030  29.560  29.727  1.00  0.00     0.200 A 
ATOM     70  F   UNL A   1      36.676  30.183  27.477  1.00  0.00    -0.200 F 
ATOM     71  F   UNL A   1      35.740  29.794  30.010  1.00  0.00    -0.200 F 
ENDBRANCH  47  61
BRANCH  48  72
ATOM     72  C   UNL A   1      48.975  26.726  26.203  1.00  0.00     0.064 A 
ATOM     73  C   UNL A   1      49.311  26.941  24.861  1.00  0.00     0.173 A 
ATOM     74  C   UNL A   1      49.973  26.235  27.059  1.00  0.00     0.173 A 
ATOM     75  F   UNL A   1      48.383  27.394  24.004  1.00  0.00    -0.203 F 
ATOM     76  C   UNL A   1      50.595  26.677  24.390  1.00  0.00     0.198 A 
ATOM     77  C   UNL A   1      51.264  25.994  26.592  1.00  0.00     0.198 A 
ATOM     78  F   UNL A   1      49.703  26.021  28.354  1.00  0.00    -0.203 F 
ATOM     79  F   UNL A   1      50.886  26.872  23.098  1.00  0.00    -0.200 F 
ATOM     80  C   UNL A   1      51.572  26.212  25.258  1.00  0.00     0.200 A 
ATOM     81  F   UNL A   1      52.210  25.562  27.437  1.00  0.00    -0.200 F 
ATOM     82  F   UNL A   1      52.813  25.977  24.809  1.00  0.00    -0.200 F 
ENDBRANCH  48  72
BRANCH  60  83
ATOM     83  C   UNL A   1      45.972  32.577  28.524  1.00  0.00     0.064 A 
ATOM     84  C   UNL A   1      45.971  33.506  27.473  1.00  0.00     0.173 A 
ATOM     85  C   UNL A   1      46.426  33.006  29.780  1.00  0.00     0.173 A 
ATOM     86  F   UNL A   1      45.564  33.139  26.249  1.00  0.00    -0.203 F 
ATOM     87  C   UNL A   1      46.422  34.808  27.669  1.00  0.00     0.198 A 
ATOM     88  C   UNL A   1      46.851  34.316  29.979  1.00  0.00     0.198 A 
ATOM     89  F   UNL A   1      46.444  32.156  30.818  1.00  0.00    -0.203 F 
ATOM     90  F   UNL A   1      46.448  35.669  26.641  1.00  0.00    -0.200 F 
ATOM     91  C   UNL A   1      46.854  35.215  28.923  1.00  0.00     0.200 A 
ATOM     92  F   UNL A   1      47.259  34.710  31.193  1.00  0.00    -0.200 F 
ATOM     93  F   UNL A   1      47.280  36.471  29.111  1.00  0.00    -0.200 F 
ENDBRANCH  60  83
ENDBRANCH  34  35
ENDBRANCH  26  29
ENDBRANCH  24  25
ENDBRANCH  23  24
ENDBRANCH  22  23
ENDBRANCH   3  22
TORSDOF 17
ENDMDL
MODEL 2
REMARK VINA RESULT:     -10.7      0.994      2.464
REMARK SMILES CCCN(CC(=O)OC)C(=O)N1CC[C@H](C(=O)NCCCNC(=O)c2ccc(-c3c4nc(c(-c5c(F)c(F)c(F)c(F)c5F)c5ccc([nH]5)c(-c5c(F)c(F)c(F)c(F)c5F)c5nc(c(-c6c(F)c(F)c(F)c(F)c6F)c6ccc3[nH]6)C=C5)C=C4)cc2)[C@H]1C
REMARK SMILES IDX 16 1 17 2 18 3 15 5 12 6 13 7 88 8 14 9 89 10 10 11 11 12
REMARK SMILES IDX 4 13 3 14 2 15 1 16 5 17 6 18 7 19 8 20 9 21 19 22 20 23
REMARK SMILES IDX 21 24 22 25 23 26 24 28 25 29 26 30 87 31 27 32 86 33 28 34
REMARK SMILES IDX 29 35 30 36 80 37 31 38 85 39 79 40 81 41 32 42 84 43 78 44
REMARK SMILES IDX 77 45 33 47 65 48 45 49 64 50 46 51 49 52 63 53 82 54 47 55
REMARK SMILES IDX 48 56 62 58 83 59 50 60 34 61 35 62 43 63 36 64 37 65 41 66
REMARK SMILES IDX 44 67 38 68 39 69 42 70 40 71 66 72 67 73 75 74 68 75 69 76
REMARK SMILES IDX 73 77 76 78 70 79 71 80 74 81 72 82 51 83 52 84 60 85 53 86
REMARK SMILES IDX 54 87 58 88 61 89 55 90 56 91 59 92 57 93
REMARK H PARENT 18 4 22 27 81 46 49 57
REMARK Flexibility Score: inf
ROOT
ATOM      1  C   UNL A   1      34.677  21.267  25.812  1.00  0.00     0.225 C 
ATOM      2  O   UNL A   1      34.306  21.445  26.979  1.00  0.00    -0.275 OA
ATOM      3  N   UNL A   1      35.941  20.799  25.689  1.00  0.00    -0.356 N 
ATOM      4  H   UNL A   1      36.343  20.524  26.543  1.00  0.00     0.163 HD
ENDROOT
BRANCH   1   5
ATOM      5  C   UNL A   1      33.680  21.391  24.654  1.00  0.00     0.102 C 
ATOM      6  N   UNL A   1      32.591  23.511  24.706  1.00  0.00    -0.321 N 
ATOM      7  C   UNL A   1      31.876  22.616  25.619  1.00  0.00     0.122 C 
ATOM      8  C   UNL A   1      33.513  22.717  23.882  1.00  0.00     0.096 C 
ATOM      9  C   UNL A   1      32.248  21.201  25.197  1.00  0.00     0.037 C 
ATOM     10  C   UNL A   1      32.927  22.384  22.494  1.00  0.00     0.032 C 
BRANCH   6  11
ATOM     11  C   UNL A   1      32.917  24.764  25.204  1.00  0.00     0.320 C 
ATOM     12  O   UNL A   1      33.580  24.869  26.239  1.00  0.00    -0.248 OA
BRANCH  11  13
ATOM     13  N   UNL A   1      32.420  25.886  24.568  1.00  0.00    -0.314 N 
BRANCH  13  14
ATOM     14  C   UNL A   1      33.219  26.460  23.479  1.00  0.00     0.122 C 
BRANCH  14  15
ATOM     15  C   UNL A   1      33.653  27.907  23.768  1.00  0.00     0.018 C 
ATOM     16  C   UNL A   1      34.171  28.651  22.543  1.00  0.00     0.006 C 
ENDBRANCH  14  15
ENDBRANCH  13  14
BRANCH  13  17
ATOM     17  C   UNL A   1      31.245  26.661  24.969  1.00  0.00     0.243 C 
BRANCH  17  18
ATOM     18  C   UNL A   1      30.648  26.313  26.338  1.00  0.00     0.325 C 
ATOM     19  O   UNL A   1      29.832  25.405  26.496  1.00  0.00    -0.250 OA
BRANCH  18  20
ATOM     20  O   UNL A   1      31.144  27.076  27.347  1.00  0.00    -0.468 OA
ATOM     21  C   UNL A   1      31.712  28.333  26.960  1.00  0.00     0.282 C 
ENDBRANCH  18  20
ENDBRANCH  17  18
ENDBRANCH  13  17
ENDBRANCH  11  13
ENDBRANCH   6  11
ENDBRANCH   1   5
BRANCH   3  22
ATOM     22  C   UNL A   1      36.819  20.622  24.554  1.00  0.00     0.117 C 
BRANCH  22  23
ATOM     23  C   UNL A   1      37.908  19.596  24.871  1.00  0.00     0.042 C 
BRANCH  23  24
ATOM     24  C   UNL A   1      38.970  20.096  25.846  1.00  0.00     0.118 C 
BRANCH  24  25
ATOM     25  N   UNL A   1      40.091  19.169  25.940  1.00  0.00    -0.352 N 
ATOM     26  C   UNL A   1      41.434  19.405  26.077  1.00  0.00     0.251 C 
ATOM     27  H   UNL A   1      39.843  18.217  25.899  1.00  0.00     0.163 HD
ATOM     28  O   UNL A   1      42.226  18.477  25.877  1.00  0.00    -0.269 OA
BRANCH  26  29
ATOM     29  C   UNL A   1      41.959  20.736  26.452  1.00  0.00     0.039 A 
ATOM     30  C   UNL A   1      42.293  21.637  25.435  1.00  0.00     0.014 A 
ATOM     31  C   UNL A   1      42.194  21.084  27.785  1.00  0.00     0.014 A 
ATOM     32  C   UNL A   1      42.809  22.897  25.753  1.00  0.00     0.010 A 
ATOM     33  C   UNL A   1      42.643  22.363  28.106  1.00  0.00     0.010 A 
ATOM     34  C   UNL A   1      42.960  23.281  27.093  1.00  0.00    -0.014 A 
BRANCH  34  35
ATOM     35  C   UNL A   1      43.437  24.639  27.459  1.00  0.00     0.031 A 
ATOM     36  C   UNL A   1      42.482  25.659  28.009  1.00  0.00     0.074 A 
ATOM     37  C   UNL A   1      44.715  24.981  27.210  1.00  0.00     0.049 A 
ATOM     38  N   UNL A   1      42.688  26.922  28.290  1.00  0.00    -0.248 NA
ATOM     39  C   UNL A   1      41.104  25.207  28.250  1.00  0.00     0.031 C 
ATOM     40  C   UNL A   1      45.725  24.097  26.627  1.00  0.00     0.029 A 
ATOM     41  N   UNL A   1      45.375  26.170  27.390  1.00  0.00    -0.354 N 
ATOM     42  C   UNL A   1      41.463  27.419  28.715  1.00  0.00     0.074 A 
ATOM     43  C   UNL A   1      40.510  26.332  28.617  1.00  0.00     0.031 C 
ATOM     44  C   UNL A   1      46.876  24.774  26.496  1.00  0.00     0.029 A 
ATOM     45  C   UNL A   1      46.676  26.147  26.951  1.00  0.00     0.049 A 
ATOM     46  H   UNL A   1      44.957  26.965  27.795  1.00  0.00     0.167 HD
ATOM     47  C   UNL A   1      41.164  28.663  29.162  1.00  0.00     0.037 A 
ATOM     48  C   UNL A   1      47.599  27.127  26.900  1.00  0.00     0.037 A 
ATOM     49  C   UNL A   1      42.121  29.732  29.282  1.00  0.00     0.049 A 
ATOM     50  C   UNL A   1      47.249  28.498  27.405  1.00  0.00     0.074 A 
ATOM     51  C   UNL A   1      41.942  30.995  29.819  1.00  0.00     0.029 A 
ATOM     52  N   UNL A   1      43.437  29.665  28.848  1.00  0.00    -0.354 N 
ATOM     53  N   UNL A   1      46.111  28.933  27.889  1.00  0.00    -0.248 NA
ATOM     54  C   UNL A   1      48.311  29.511  27.361  1.00  0.00     0.031 C 
ATOM     55  C   UNL A   1      43.136  31.709  29.663  1.00  0.00     0.029 A 
ATOM     56  C   UNL A   1      44.072  30.877  29.070  1.00  0.00     0.049 A 
ATOM     57  H   UNL A   1      43.858  28.873  28.442  1.00  0.00     0.167 HD
ATOM     58  C   UNL A   1      46.319  30.267  28.211  1.00  0.00     0.074 A 
ATOM     59  C   UNL A   1      47.700  30.563  27.890  1.00  0.00     0.031 C 
ATOM     60  C   UNL A   1      45.442  31.164  28.726  1.00  0.00     0.037 A 
BRANCH  47  61
ATOM     61  C   UNL A   1      39.737  28.934  29.544  1.00  0.00     0.064 A 
ATOM     62  C   UNL A   1      38.807  29.435  28.620  1.00  0.00     0.173 A 
ATOM     63  C   UNL A   1      39.291  28.679  30.849  1.00  0.00     0.173 A 
ATOM     64  F   UNL A   1      39.184  29.705  27.361  1.00  0.00    -0.203 F 
ATOM     65  C   UNL A   1      37.496  29.712  29.001  1.00  0.00     0.198 A 
ATOM     66  C   UNL A   1      37.971  28.928  31.217  1.00  0.00     0.198 A 
ATOM     67  F   UNL A   1      40.135  28.190  31.770  1.00  0.00    -0.203 F 
ATOM     68  F   UNL A   1      36.643  30.248  28.117  1.00  0.00    -0.200 F 
ATOM     69  C   UNL A   1      37.079  29.456  30.297  1.00  0.00     0.200 A 
ATOM     70  F   UNL A   1      37.565  28.668  32.468  1.00  0.00    -0.200 F 
ATOM     71  F   UNL A   1      35.817  29.726  30.662  1.00  0.00    -0.200 F 
ENDBRANCH  47  61
BRANCH  48  72
ATOM     72  C   UNL A   1      48.944  26.827  26.349  1.00  0.00     0.064 A 
ATOM     73  C   UNL A   1      49.948  26.283  27.160  1.00  0.00     0.173 A 
ATOM     74  C   UNL A   1      49.234  27.030  24.992  1.00  0.00     0.173 A 
ATOM     75  F   UNL A   1      49.720  26.088  28.468  1.00  0.00    -0.203 F 
ATOM     76  C   UNL A   1      51.196  25.954  26.635  1.00  0.00     0.198 A 
ATOM     77  C   UNL A   1      50.475  26.678  24.463  1.00  0.00     0.198 A 
ATOM     78  F   UNL A   1      48.303  27.539  24.174  1.00  0.00    -0.203 F 
ATOM     79  F   UNL A   1      52.147  25.454  27.435  1.00  0.00    -0.200 F 
ATOM     80  C   UNL A   1      51.454  26.144  25.285  1.00  0.00     0.200 A 
ATOM     81  F   UNL A   1      50.715  26.846  23.155  1.00  0.00    -0.200 F 
ATOM     82  F   UNL A   1      52.648  25.809  24.777  1.00  0.00    -0.200 F 
ENDBRANCH  48  72
BRANCH  60  83
ATOM     83  C   UNL A   1      45.948  32.556  28.966  1.00  0.00     0.064 A 
ATOM     84  C   UNL A   1      46.591  32.902  30.163  1.00  0.00     0.173 A 
ATOM     85  C   UNL A   1      45.827  33.541  27.974  1.00  0.00     0.173 A 
ATOM     86  F   UNL A   1      46.714  32.000  31.148  1.00  0.00    -0.203 F 
ATOM     87  C   UNL A   1      47.081  34.189  30.364  1.00  0.00     0.198 A 
ATOM     88  C   UNL A   1      46.342  34.819  28.169  1.00  0.00     0.198 A 
ATOM     89  F   UNL A   1      45.223  33.259  26.810  1.00  0.00    -0.203 F 
ATOM     90  F   UNL A   1      47.659  34.509  31.531  1.00  0.00    -0.200 F 
ATOM     91  C   UNL A   1      46.964  35.144  29.365  1.00  0.00     0.200 A 
ATOM     92  F   UNL A   1      46.237  35.738  27.199  1.00  0.00    -0.200 F 
ATOM     93  F   UNL A   1      47.444  36.380  29.559  1.00  0.00    -0.200 F 
ENDBRANCH  60  83
ENDBRANCH  34  35
ENDBRANCH  26  29
ENDBRANCH  24  25
ENDBRANCH  23  24
ENDBRANCH  22  23
ENDBRANCH   3  22
TORSDOF 17
ENDMDL
MODEL 3
REMARK VINA RESULT:     -10.7      5.557     11.091
REMARK SMILES CCCN(CC(=O)OC)C(=O)N1CC[C@H](C(=O)NCCCNC(=O)c2ccc(-c3c4nc(c(-c5c(F)c(F)c(F)c(F)c5F)c5ccc([nH]5)c(-c5c(F)c(F)c(F)c(F)c5F)c5nc(c(-c6c(F)c(F)c(F)c(F)c6F)c6ccc3[nH]6)C=C5)C=C4)cc2)[C@H]1C
REMARK SMILES IDX 16 1 17 2 18 3 15 5 12 6 13 7 88 8 14 9 89 10 10 11 11 12
REMARK SMILES IDX 4 13 3 14 2 15 1 16 5 17 6 18 7 19 8 20 9 21 19 22 20 23
REMARK SMILES IDX 21 24 22 25 23 26 24 28 25 29 26 30 87 31 27 32 86 33 28 34
REMARK SMILES IDX 29 35 30 36 80 37 31 38 85 39 79 40 81 41 32 42 84 43 78 44
REMARK SMILES IDX 77 45 33 47 65 48 45 49 64 50 46 51 49 52 63 53 82 54 47 55
REMARK SMILES IDX 48 56 62 58 83 59 50 60 34 61 35 62 43 63 36 64 37 65 41 66
REMARK SMILES IDX 44 67 38 68 39 69 42 70 40 71 66 72 67 73 75 74 68 75 69 76
REMARK SMILES IDX 73 77 76 78 70 79 71 80 74 81 72 82 51 83 52 84 60 85 53 86
REMARK SMILES IDX 54 87 58 88 61 89 55 90 56 91 59 92 57 93
REMARK H PARENT 18 4 22 27 81 46 49 57
REMARK Flexibility Score: inf
ROOT
ATOM      1  C   UNL A   1      32.959  29.242  25.403  1.00  0.00     0.225 C 
ATOM      2  O   UNL A   1      33.943  28.832  26.030  1.00  0.00    -0.275 OA
ATOM      3  N   UNL A   1      32.385  30.353  25.920  1.00  0.00    -0.356 N 
ATOM      4  H   UNL A   1      32.912  30.770  26.639  1.00  0.00     0.163 HD
ENDROOT
BRANCH   1   5
ATOM      5  C   UNL A   1      32.589  28.623  24.050  1.00  0.00     0.102 C 
ATOM      6  N   UNL A   1      32.111  26.300  24.292  1.00  0.00    -0.321 N 
ATOM      7  C   UNL A   1      33.563  26.449  24.163  1.00  0.00     0.122 C 
ATOM      8  C   UNL A   1      31.466  27.570  23.933  1.00  0.00     0.096 C 
ATOM      9  C   UNL A   1      33.789  27.810  23.520  1.00  0.00     0.037 C 
ATOM     10  C   UNL A   1      30.956  27.584  22.477  1.00  0.00     0.032 C 
BRANCH   6  11
ATOM     11  C   UNL A   1      31.666  25.498  25.333  1.00  0.00     0.320 C 
ATOM     12  O   UNL A   1      31.552  25.961  26.470  1.00  0.00    -0.248 OA
BRANCH  11  13
ATOM     13  N   UNL A   1      31.431  24.157  25.090  1.00  0.00    -0.314 N 
BRANCH  13  14
ATOM     14  C   UNL A   1      31.176  23.751  23.704  1.00  0.00     0.122 C 
BRANCH  14  15
ATOM     15  C   UNL A   1      32.388  23.053  23.063  1.00  0.00     0.018 C 
ATOM     16  C   UNL A   1      32.153  21.581  22.745  1.00  0.00     0.006 C 
ENDBRANCH  14  15
ENDBRANCH  13  14
BRANCH  13  17
ATOM     17  C   UNL A   1      31.258  23.111  26.100  1.00  0.00     0.243 C 
BRANCH  17  18
ATOM     18  C   UNL A   1      32.518  22.716  26.878  1.00  0.00     0.325 C 
ATOM     19  O   UNL A   1      32.530  22.579  28.101  1.00  0.00    -0.250 OA
BRANCH  18  20
ATOM     20  O   UNL A   1      33.594  22.497  26.077  1.00  0.00    -0.468 OA
ATOM     21  C   UNL A   1      34.745  23.309  26.340  1.00  0.00     0.282 C 
ENDBRANCH  18  20
ENDBRANCH  17  18
ENDBRANCH  13  17
ENDBRANCH  11  13
ENDBRANCH   6  11
ENDBRANCH   1   5
BRANCH   3  22
ATOM     22  C   UNL A   1      31.152  31.051  25.630  1.00  0.00     0.117 C 
BRANCH  22  23
ATOM     23  C   UNL A   1      31.025  32.303  26.498  1.00  0.00     0.042 C 
BRANCH  23  24
ATOM     24  C   UNL A   1      32.344  32.781  27.099  1.00  0.00     0.118 C 
BRANCH  24  25
ATOM     25  N   UNL A   1      32.272  34.178  27.508  1.00  0.00    -0.352 N 
ATOM     26  C   UNL A   1      32.936  34.852  28.499  1.00  0.00     0.251 C 
ATOM     27  H   UNL A   1      31.644  34.728  26.987  1.00  0.00     0.163 HD
ATOM     28  O   UNL A   1      32.531  35.970  28.836  1.00  0.00    -0.269 OA
BRANCH  26  29
ATOM     29  C   UNL A   1      34.118  34.277  29.178  1.00  0.00     0.039 A 
ATOM     30  C   UNL A   1      33.921  33.482  30.312  1.00  0.00     0.014 A 
ATOM     31  C   UNL A   1      35.419  34.567  28.758  1.00  0.00     0.014 A 
ATOM     32  C   UNL A   1      35.016  32.937  30.989  1.00  0.00     0.010 A 
ATOM     33  C   UNL A   1      36.509  33.970  29.390  1.00  0.00     0.010 A 
ATOM     34  C   UNL A   1      36.318  33.153  30.515  1.00  0.00    -0.014 A 
BRANCH  34  35
ATOM     35  C   UNL A   1      37.494  32.528  31.173  1.00  0.00     0.031 A 
ATOM     36  C   UNL A   1      38.199  31.369  30.528  1.00  0.00     0.074 A 
ATOM     37  C   UNL A   1      37.869  32.947  32.395  1.00  0.00     0.049 A 
ATOM     38  N   UNL A   1      39.174  30.629  30.993  1.00  0.00    -0.248 NA
ATOM     39  C   UNL A   1      37.725  30.970  29.194  1.00  0.00     0.031 C 
ATOM     40  C   UNL A   1      37.231  34.026  33.148  1.00  0.00     0.029 A 
ATOM     41  N   UNL A   1      38.862  32.499  33.229  1.00  0.00    -0.354 N 
ATOM     42  C   UNL A   1      39.414  29.665  30.022  1.00  0.00     0.074 A 
ATOM     43  C   UNL A   1      38.454  29.889  28.961  1.00  0.00     0.031 C 
ATOM     44  C   UNL A   1      37.845  34.156  34.334  1.00  0.00     0.029 A 
ATOM     45  C   UNL A   1      38.896  33.148  34.438  1.00  0.00     0.049 A 
ATOM     46  H   UNL A   1      39.490  31.781  32.985  1.00  0.00     0.167 HD
ATOM     47  C   UNL A   1      40.357  28.693  30.011  1.00  0.00     0.037 A 
ATOM     48  C   UNL A   1      39.672  32.941  35.520  1.00  0.00     0.037 A 
ATOM     49  C   UNL A   1      41.326  28.491  31.057  1.00  0.00     0.049 A 
ATOM     50  C   UNL A   1      40.716  31.862  35.485  1.00  0.00     0.074 A 
ATOM     51  C   UNL A   1      42.386  27.603  31.092  1.00  0.00     0.029 A 
ATOM     52  N   UNL A   1      41.344  29.184  32.259  1.00  0.00    -0.354 N 
ATOM     53  N   UNL A   1      40.992  31.013  34.525  1.00  0.00    -0.248 NA
ATOM     54  C   UNL A   1      41.557  31.714  36.679  1.00  0.00     0.031 C 
ATOM     55  C   UNL A   1      43.015  27.723  32.337  1.00  0.00     0.029 A 
ATOM     56  C   UNL A   1      42.375  28.717  33.060  1.00  0.00     0.049 A 
ATOM     57  H   UNL A   1      40.717  29.901  32.506  1.00  0.00     0.167 HD
ATOM     58  C   UNL A   1      42.040  30.234  34.995  1.00  0.00     0.074 A 
ATOM     59  C   UNL A   1      42.366  30.727  36.317  1.00  0.00     0.031 C 
ATOM     60  C   UNL A   1      42.673  29.203  34.383  1.00  0.00     0.037 A 
BRANCH  47  61
ATOM     61  C   UNL A   1      40.378  27.766  28.828  1.00  0.00     0.064 A 
ATOM     62  C   UNL A   1      39.643  26.571  28.813  1.00  0.00     0.173 A 
ATOM     63  C   UNL A   1      41.136  28.083  27.691  1.00  0.00     0.173 A 
ATOM     64  F   UNL A   1      38.909  26.217  29.879  1.00  0.00    -0.203 F 
ATOM     65  C   UNL A   1      39.700  25.707  27.722  1.00  0.00     0.198 A 
ATOM     66  C   UNL A   1      41.166  27.232  26.590  1.00  0.00     0.198 A 
ATOM     67  F   UNL A   1      41.850  29.218  27.648  1.00  0.00    -0.203 F 
ATOM     68  F   UNL A   1      39.038  24.543  27.757  1.00  0.00    -0.200 F 
ATOM     69  C   UNL A   1      40.458  26.040  26.611  1.00  0.00     0.200 A 
ATOM     70  F   UNL A   1      41.890  27.560  25.510  1.00  0.00    -0.200 F 
ATOM     71  F   UNL A   1      40.514  25.206  25.562  1.00  0.00    -0.200 F 
ENDBRANCH  47  61
BRANCH  48  72
ATOM     72  C   UNL A   1      39.479  33.791  36.722  1.00  0.00     0.064 A 
ATOM     73  C   UNL A   1      38.685  33.356  37.790  1.00  0.00     0.173 A 
ATOM     74  C   UNL A   1      40.126  35.029  36.847  1.00  0.00     0.173 A 
ATOM     75  F   UNL A   1      38.034  32.186  37.708  1.00  0.00    -0.203 F 
ATOM     76  C   UNL A   1      38.543  34.129  38.941  1.00  0.00     0.198 A 
ATOM     77  C   UNL A   1      40.001  35.791  38.007  1.00  0.00     0.198 A 
ATOM     78  F   UNL A   1      40.904  35.484  35.854  1.00  0.00    -0.203 F 
ATOM     79  F   UNL A   1      37.762  33.702  39.941  1.00  0.00    -0.200 F 
ATOM     80  C   UNL A   1      39.208  35.342  39.051  1.00  0.00     0.200 A 
ATOM     81  F   UNL A   1      40.661  36.952  38.117  1.00  0.00    -0.200 F 
ATOM     82  F   UNL A   1      39.087  36.076  40.165  1.00  0.00    -0.200 F 
ENDBRANCH  48  72
BRANCH  60  83
ATOM     83  C   UNL A   1      43.778  28.530  35.144  1.00  0.00     0.064 A 
ATOM     84  C   UNL A   1      45.093  29.016  35.102  1.00  0.00     0.173 A 
ATOM     85  C   UNL A   1      43.513  27.417  35.955  1.00  0.00     0.173 A 
ATOM     86  F   UNL A   1      45.400  30.066  34.328  1.00  0.00    -0.203 F 
ATOM     87  C   UNL A   1      46.106  28.401  35.834  1.00  0.00     0.198 A 
ATOM     88  C   UNL A   1      44.522  26.820  36.705  1.00  0.00     0.198 A 
ATOM     89  F   UNL A   1      42.270  26.916  36.031  1.00  0.00    -0.203 F 
ATOM     90  F   UNL A   1      47.363  28.859  35.750  1.00  0.00    -0.200 F 
ATOM     91  C   UNL A   1      45.819  27.310  36.640  1.00  0.00     0.200 A 
ATOM     92  F   UNL A   1      44.242  25.773  37.491  1.00  0.00    -0.200 F 
ATOM     93  F   UNL A   1      46.793  26.724  37.350  1.00  0.00    -0.200 F 
ENDBRANCH  60  83
ENDBRANCH  34  35
ENDBRANCH  26  29
ENDBRANCH  24  25
ENDBRANCH  23  24
ENDBRANCH  22  23
ENDBRANCH   3  22
TORSDOF 17
ENDMDL
