MODEL 1
REMARK VINA RESULT:     -12.6      0.000      0.000
REMARK SMILES Cc1ccc(C(N)=O)c(NCc2ccc(C(=O)NCCCNC(=O)c3ccc(-c4c5nc(c(-c6c(F)c(F)c(F)c(F)c6F)c6ccc([nH]6)c(-c6c(F)c(F)c(F)c(F)c6F)c6nc(c(-c7c(F)c(F)c(F)c(F)c7F)c7ccc4[nH]7)C=C6)C=C5)cc3)o2)n1
REMARK SMILES IDX 19 1 18 2 16 3 17 4 15 6 12 7 13 8 88 9 14 10 11 11 10 12
REMARK SMILES IDX 9 14 1 15 2 16 3 17 89 18 4 19 5 20 6 21 7 22 8 23 20 26
REMARK SMILES IDX 21 27 22 28 23 29 24 31 25 32 26 33 87 34 27 35 86 36 28 37
REMARK SMILES IDX 29 38 30 39 80 40 31 41 85 42 79 43 81 44 32 45 84 46 78 47
REMARK SMILES IDX 77 48 33 50 65 51 45 52 64 53 46 54 49 55 63 56 82 57 47 58
REMARK SMILES IDX 48 59 62 61 83 62 50 63 34 64 35 65 43 66 36 67 37 68 41 69
REMARK SMILES IDX 44 70 38 71 39 72 42 73 40 74 66 75 67 76 75 77 68 78 69 79
REMARK SMILES IDX 73 80 76 81 70 82 71 83 74 84 72 85 51 86 52 87 60 88 53 89
REMARK SMILES IDX 54 90 58 91 61 92 55 93 56 94 59 95 57 96
REMARK H PARENT 18 5 10 13 7 24 7 25 22 30 81 49 49 60
REMARK Flexibility Score: inf
ROOT
ATOM      1  C   UNL A   1      31.645  30.698  26.883  1.00  0.00     0.118 C 
ENDROOT
BRANCH   1   2
ATOM      2  N   UNL A   1      32.924  30.332  27.455  1.00  0.00    -0.349 N 
ATOM      3  C   UNL A   1      33.884  29.443  27.028  1.00  0.00     0.286 C 
ATOM      4  O   UNL A   1      34.932  29.439  27.677  1.00  0.00    -0.266 OA
ATOM      5  H   UNL A   1      33.145  30.798  28.294  1.00  0.00     0.163 HD
BRANCH   3   6
ATOM      6  C   UNL A   1      33.665  28.586  25.876  1.00  0.00     0.191 A 
ATOM      7  C   UNL A   1      32.976  28.233  23.798  1.00  0.00     0.124 A 
ATOM      8  C   UNL A   1      33.430  27.021  24.267  1.00  0.00     0.048 A 
ATOM      9  O   UNL A   1      33.117  29.182  24.764  1.00  0.00    -0.454 OA
ATOM     10  C   UNL A   1      33.905  27.255  25.581  1.00  0.00     0.056 A 
BRANCH   7  11
ATOM     11  C   UNL A   1      32.414  28.687  22.491  1.00  0.00     0.190 C 
BRANCH  11  12
ATOM     12  N   UNL A   1      31.160  28.033  22.145  1.00  0.00    -0.362 N 
ATOM     13  H   UNL A   1      31.170  27.110  21.803  1.00  0.00     0.162 HD
BRANCH  12  14
ATOM     14  C   UNL A   1      29.952  28.698  22.293  1.00  0.00     0.139 A 
ATOM     15  C   UNL A   1      28.515  31.799  20.909  1.00  0.00     0.067 C 
ATOM     16  C   UNL A   1      28.616  30.525  21.693  1.00  0.00     0.040 A 
ATOM     17  C   UNL A   1      27.544  30.055  22.433  1.00  0.00     0.024 A 
ATOM     18  N   UNL A   1      29.803  29.872  21.636  1.00  0.00    -0.236 NA
ATOM     19  C   UNL A   1      27.701  28.869  23.139  1.00  0.00     0.019 A 
ATOM     20  C   UNL A   1      28.917  28.178  23.085  1.00  0.00     0.081 A 
BRANCH  20  21
ATOM     21  C   UNL A   1      29.031  26.947  23.914  1.00  0.00     0.252 C 
ATOM     22  N   UNL A   1      28.000  26.053  23.880  1.00  0.00    -0.365 N 
ATOM     23  O   UNL A   1      30.035  26.711  24.576  1.00  0.00    -0.269 OA
ATOM     24  H   UNL A   1      27.195  26.248  23.347  1.00  0.00     0.159 HD
ATOM     25  H   UNL A   1      28.059  25.213  24.390  1.00  0.00     0.159 HD
ENDBRANCH  20  21
ENDBRANCH  12  14
ENDBRANCH  11  12
ENDBRANCH   7  11
ENDBRANCH   3   6
ENDBRANCH   1   2
BRANCH   1  26
ATOM     26  C   UNL A   1      31.434  32.211  26.892  1.00  0.00     0.042 C 
BRANCH  26  27
ATOM     27  C   UNL A   1      32.733  33.002  27.044  1.00  0.00     0.118 C 
BRANCH  27  28
ATOM     28  N   UNL A   1      32.506  34.323  27.616  1.00  0.00    -0.352 N 
ATOM     29  C   UNL A   1      33.051  34.924  28.722  1.00  0.00     0.251 C 
ATOM     30  H   UNL A   1      31.852  34.875  27.127  1.00  0.00     0.163 HD
ATOM     31  O   UNL A   1      32.553  35.962  29.150  1.00  0.00    -0.269 OA
BRANCH  29  32
ATOM     32  C   UNL A   1      34.224  34.342  29.408  1.00  0.00     0.039 A 
ATOM     33  C   UNL A   1      34.014  33.579  30.562  1.00  0.00     0.014 A 
ATOM     34  C   UNL A   1      35.526  34.593  28.968  1.00  0.00     0.014 A 
ATOM     35  C   UNL A   1      35.102  33.028  31.243  1.00  0.00     0.010 A 
ATOM     36  C   UNL A   1      36.607  33.991  29.610  1.00  0.00     0.010 A 
ATOM     37  C   UNL A   1      36.406  33.206  30.756  1.00  0.00    -0.014 A 
BRANCH  37  38
ATOM     38  C   UNL A   1      37.572  32.581  31.431  1.00  0.00     0.031 A 
ATOM     39  C   UNL A   1      38.292  31.428  30.788  1.00  0.00     0.074 A 
ATOM     40  C   UNL A   1      37.937  33.008  32.655  1.00  0.00     0.049 A 
ATOM     41  N   UNL A   1      39.271  30.696  31.260  1.00  0.00    -0.248 NA
ATOM     42  C   UNL A   1      37.835  31.027  29.449  1.00  0.00     0.031 C 
ATOM     43  C   UNL A   1      37.289  34.088  33.400  1.00  0.00     0.029 A 
ATOM     44  N   UNL A   1      38.930  32.573  33.496  1.00  0.00    -0.354 N 
ATOM     45  C   UNL A   1      39.528  29.739  30.288  1.00  0.00     0.074 A 
ATOM     46  C   UNL A   1      38.579  29.956  29.218  1.00  0.00     0.031 C 
ATOM     47  C   UNL A   1      37.910  34.241  34.580  1.00  0.00     0.029 A 
ATOM     48  C   UNL A   1      38.974  33.247  34.692  1.00  0.00     0.049 A 
ATOM     49  H   UNL A   1      39.553  31.846  33.264  1.00  0.00     0.167 HD
ATOM     50  C   UNL A   1      40.482  28.777  30.282  1.00  0.00     0.037 A 
ATOM     51  C   UNL A   1      39.773  33.075  35.761  1.00  0.00     0.037 A 
ATOM     52  C   UNL A   1      41.448  28.586  31.333  1.00  0.00     0.049 A 
ATOM     53  C   UNL A   1      40.831  32.007  35.724  1.00  0.00     0.074 A 
ATOM     54  C   UNL A   1      42.500  27.688  31.387  1.00  0.00     0.029 A 
ATOM     55  N   UNL A   1      41.478  29.308  32.518  1.00  0.00    -0.354 N 
ATOM     56  N   UNL A   1      41.109  31.151  34.770  1.00  0.00    -0.248 NA
ATOM     57  C   UNL A   1      41.690  31.883  36.910  1.00  0.00     0.031 C 
ATOM     58  C   UNL A   1      43.141  27.839  32.621  1.00  0.00     0.029 A 
ATOM     59  C   UNL A   1      42.518  28.862  33.318  1.00  0.00     0.049 A 
ATOM     60  H   UNL A   1      40.853  30.031  32.754  1.00  0.00     0.167 HD
ATOM     61  C   UNL A   1      42.189  30.409  35.228  1.00  0.00     0.074 A 
ATOM     62  C   UNL A   1      42.524  30.923  36.540  1.00  0.00     0.031 C 
ATOM     63  C   UNL A   1      42.843  29.390  34.617  1.00  0.00     0.037 A 
BRANCH  50  64
ATOM     64  C   UNL A   1      40.534  27.853  29.101  1.00  0.00     0.064 A 
ATOM     65  C   UNL A   1      41.399  28.085  28.021  1.00  0.00     0.173 A 
ATOM     66  C   UNL A   1      39.739  26.697  29.066  1.00  0.00     0.173 A 
ATOM     67  F   UNL A   1      42.174  29.182  28.001  1.00  0.00    -0.203 F 
ATOM     68  C   UNL A   1      41.448  27.210  26.939  1.00  0.00     0.198 A 
ATOM     69  C   UNL A   1      39.810  25.809  27.996  1.00  0.00     0.198 A 
ATOM     70  F   UNL A   1      38.898  26.423  30.075  1.00  0.00    -0.203 F 
ATOM     71  F   UNL A   1      42.249  27.478  25.899  1.00  0.00    -0.200 F 
ATOM     72  C   UNL A   1      40.658  26.071  26.930  1.00  0.00     0.200 A 
ATOM     73  F   UNL A   1      39.056  24.702  27.994  1.00  0.00    -0.200 F 
ATOM     74  F   UNL A   1      40.711  25.225  25.891  1.00  0.00    -0.200 F 
ENDBRANCH  50  64
BRANCH  51  75
ATOM     75  C   UNL A   1      39.618  33.952  36.950  1.00  0.00     0.064 A 
ATOM     76  C   UNL A   1      38.825  33.556  38.035  1.00  0.00     0.173 A 
ATOM     77  C   UNL A   1      40.255  35.198  37.027  1.00  0.00     0.173 A 
ATOM     78  F   UNL A   1      38.180  32.381  37.998  1.00  0.00    -0.203 F 
ATOM     79  C   UNL A   1      38.659  34.381  39.144  1.00  0.00     0.198 A 
ATOM     80  C   UNL A   1      40.110  36.012  38.149  1.00  0.00     0.198 A 
ATOM     81  F   UNL A   1      41.031  35.620  36.018  1.00  0.00    -0.203 F 
ATOM     82  F   UNL A   1      37.860  33.997  40.150  1.00  0.00    -0.200 F 
ATOM     83  C   UNL A   1      39.305  35.606  39.203  1.00  0.00     0.200 A 
ATOM     84  F   UNL A   1      40.749  37.189  38.207  1.00  0.00    -0.200 F 
ATOM     85  F   UNL A   1      39.149  36.399  40.272  1.00  0.00    -0.200 F 
ENDBRANCH  51  75
BRANCH  63  86
ATOM     86  C   UNL A   1      44.008  28.789  35.345  1.00  0.00     0.064 A 
ATOM     87  C   UNL A   1      43.844  27.720  36.237  1.00  0.00     0.173 A 
ATOM     88  C   UNL A   1      45.309  29.262  35.116  1.00  0.00     0.173 A 
ATOM     89  F   UNL A   1      42.618  27.243  36.501  1.00  0.00    -0.203 F 
ATOM     90  C   UNL A   1      44.938  27.161  36.893  1.00  0.00     0.198 A 
ATOM     91  C   UNL A   1      46.403  28.683  35.752  1.00  0.00     0.198 A 
ATOM     92  F   UNL A   1      45.518  30.279  34.268  1.00  0.00    -0.203 F 
ATOM     93  F   UNL A   1      44.753  26.170  37.775  1.00  0.00    -0.200 F 
ATOM     94  C   UNL A   1      46.217  27.638  36.644  1.00  0.00     0.200 A 
ATOM     95  F   UNL A   1      47.639  29.138  35.502  1.00  0.00    -0.200 F 
ATOM     96  F   UNL A   1      47.269  27.096  37.271  1.00  0.00    -0.200 F 
ENDBRANCH  63  86
ENDBRANCH  37  38
ENDBRANCH  29  32
ENDBRANCH  27  28
ENDBRANCH  26  27
ENDBRANCH   1  26
TORSDOF 14
ENDMDL
MODEL 2
REMARK VINA RESULT:     -12.1      1.624      3.541
REMARK SMILES Cc1ccc(C(N)=O)c(NCc2ccc(C(=O)NCCCNC(=O)c3ccc(-c4c5nc(c(-c6c(F)c(F)c(F)c(F)c6F)c6ccc([nH]6)c(-c6c(F)c(F)c(F)c(F)c6F)c6nc(c(-c7c(F)c(F)c(F)c(F)c7F)c7ccc4[nH]7)C=C6)C=C5)cc3)o2)n1
REMARK SMILES IDX 19 1 18 2 16 3 17 4 15 6 12 7 13 8 88 9 14 10 11 11 10 12
REMARK SMILES IDX 9 14 1 15 2 16 3 17 89 18 4 19 5 20 6 21 7 22 8 23 20 26
REMARK SMILES IDX 21 27 22 28 23 29 24 31 25 32 26 33 87 34 27 35 86 36 28 37
REMARK SMILES IDX 29 38 30 39 80 40 31 41 85 42 79 43 81 44 32 45 84 46 78 47
REMARK SMILES IDX 77 48 33 50 65 51 45 52 64 53 46 54 49 55 63 56 82 57 47 58
REMARK SMILES IDX 48 59 62 61 83 62 50 63 34 64 35 65 43 66 36 67 37 68 41 69
REMARK SMILES IDX 44 70 38 71 39 72 42 73 40 74 66 75 67 76 75 77 68 78 69 79
REMARK SMILES IDX 73 80 76 81 70 82 71 83 74 84 72 85 51 86 52 87 60 88 53 89
REMARK SMILES IDX 54 90 58 91 61 92 55 93 56 94 59 95 57 96
REMARK H PARENT 18 5 10 13 7 24 7 25 22 30 81 49 49 60
REMARK Flexibility Score: inf
ROOT
ATOM      1  C   UNL A   1      31.427  30.548  26.278  1.00  0.00     0.118 C 
ENDROOT
BRANCH   1   2
ATOM      2  N   UNL A   1      32.504  30.154  25.393  1.00  0.00    -0.349 N 
ATOM      3  C   UNL A   1      32.509  29.335  24.286  1.00  0.00     0.286 C 
ATOM      4  O   UNL A   1      33.574  29.288  23.665  1.00  0.00    -0.266 OA
ATOM      5  H   UNL A   1      33.382  30.536  25.621  1.00  0.00     0.163 HD
BRANCH   3   6
ATOM      6  C   UNL A   1      31.326  28.597  23.883  1.00  0.00     0.191 A 
ATOM      7  C   UNL A   1      30.158  26.722  23.685  1.00  0.00     0.124 A 
ATOM      8  C   UNL A   1      29.381  27.722  23.145  1.00  0.00     0.048 A 
ATOM      9  O   UNL A   1      31.333  27.245  24.134  1.00  0.00    -0.454 OA
ATOM     10  C   UNL A   1      30.111  28.925  23.306  1.00  0.00     0.056 A 
BRANCH   7  11
ATOM     11  C   UNL A   1      29.957  25.256  23.887  1.00  0.00     0.190 C 
BRANCH  11  12
ATOM     12  N   UNL A   1      30.625  24.440  22.883  1.00  0.00    -0.362 N 
ATOM     13  H   UNL A   1      30.247  24.378  21.976  1.00  0.00     0.162 HD
BRANCH  12  14
ATOM     14  C   UNL A   1      31.787  23.749  23.192  1.00  0.00     0.139 A 
ATOM     15  C   UNL A   1      32.559  20.729  25.162  1.00  0.00     0.067 C 
ATOM     16  C   UNL A   1      32.770  21.925  24.283  1.00  0.00     0.040 A 
ATOM     17  C   UNL A   1      34.026  22.236  23.789  1.00  0.00     0.024 A 
ATOM     18  N   UNL A   1      31.674  22.674  24.007  1.00  0.00    -0.236 NA
ATOM     19  C   UNL A   1      34.157  23.359  22.981  1.00  0.00     0.019 A 
ATOM     20  C   UNL A   1      33.033  24.138  22.680  1.00  0.00     0.081 A 
BRANCH  20  21
ATOM     21  C   UNL A   1      33.261  25.358  21.859  1.00  0.00     0.252 C 
ATOM     22  N   UNL A   1      33.759  26.467  22.482  1.00  0.00    -0.365 N 
ATOM     23  O   UNL A   1      33.055  25.365  20.651  1.00  0.00    -0.269 OA
ATOM     24  H   UNL A   1      33.922  26.455  23.452  1.00  0.00     0.159 HD
ATOM     25  H   UNL A   1      33.953  27.279  21.960  1.00  0.00     0.159 HD
ENDBRANCH  20  21
ENDBRANCH  12  14
ENDBRANCH  11  12
ENDBRANCH   7  11
ENDBRANCH   3   6
ENDBRANCH   1   2
BRANCH   1  26
ATOM     26  C   UNL A   1      31.403  32.059  26.499  1.00  0.00     0.042 C 
BRANCH  26  27
ATOM     27  C   UNL A   1      32.672  32.595  27.161  1.00  0.00     0.118 C 
BRANCH  27  28
ATOM     28  N   UNL A   1      32.530  33.986  27.572  1.00  0.00    -0.352 N 
ATOM     29  C   UNL A   1      33.145  34.688  28.578  1.00  0.00     0.251 C 
ATOM     30  H   UNL A   1      31.886  34.508  27.041  1.00  0.00     0.163 HD
ATOM     31  O   UNL A   1      32.714  35.794  28.891  1.00  0.00    -0.269 OA
BRANCH  29  32
ATOM     32  C   UNL A   1      34.314  34.133  29.293  1.00  0.00     0.039 A 
ATOM     33  C   UNL A   1      34.092  33.321  30.411  1.00  0.00     0.014 A 
ATOM     34  C   UNL A   1      35.621  34.456  28.917  1.00  0.00     0.014 A 
ATOM     35  C   UNL A   1      35.176  32.793  31.118  1.00  0.00     0.010 A 
ATOM     36  C   UNL A   1      36.700  33.880  29.584  1.00  0.00     0.010 A 
ATOM     37  C   UNL A   1      36.489  33.046  30.693  1.00  0.00    -0.014 A 
BRANCH  37  38
ATOM     38  C   UNL A   1      37.653  32.448  31.394  1.00  0.00     0.031 A 
ATOM     39  C   UNL A   1      38.406  31.303  30.776  1.00  0.00     0.074 A 
ATOM     40  C   UNL A   1      37.988  32.893  32.620  1.00  0.00     0.049 A 
ATOM     41  N   UNL A   1      39.388  30.593  31.272  1.00  0.00    -0.248 NA
ATOM     42  C   UNL A   1      37.980  30.881  29.433  1.00  0.00     0.031 C 
ATOM     43  C   UNL A   1      37.307  33.969  33.344  1.00  0.00     0.029 A 
ATOM     44  N   UNL A   1      38.974  32.484  33.484  1.00  0.00    -0.354 N 
ATOM     45  C   UNL A   1      39.681  29.632  30.315  1.00  0.00     0.074 A 
ATOM     46  C   UNL A   1      38.747  29.822  29.226  1.00  0.00     0.031 C 
ATOM     47  C   UNL A   1      37.904  34.144  34.533  1.00  0.00     0.029 A 
ATOM     48  C   UNL A   1      38.983  33.170  34.674  1.00  0.00     0.049 A 
ATOM     49  H   UNL A   1      39.613  31.767  33.270  1.00  0.00     0.167 HD
ATOM     50  C   UNL A   1      40.652  28.687  30.336  1.00  0.00     0.037 A 
ATOM     51  C   UNL A   1      39.766  33.023  35.758  1.00  0.00     0.037 A 
ATOM     52  C   UNL A   1      41.601  28.525  31.406  1.00  0.00     0.049 A 
ATOM     53  C   UNL A   1      40.844  31.974  35.751  1.00  0.00     0.074 A 
ATOM     54  C   UNL A   1      42.669  27.646  31.487  1.00  0.00     0.029 A 
ATOM     55  N   UNL A   1      41.597  29.258  32.584  1.00  0.00    -0.354 N 
ATOM     56  N   UNL A   1      41.154  31.115  34.811  1.00  0.00    -0.248 NA
ATOM     57  C   UNL A   1      41.682  31.878  36.954  1.00  0.00     0.031 C 
ATOM     58  C   UNL A   1      43.285  27.820  32.731  1.00  0.00     0.029 A 
ATOM     59  C   UNL A   1      42.630  28.838  33.406  1.00  0.00     0.049 A 
ATOM     60  H   UNL A   1      40.955  29.971  32.801  1.00  0.00     0.167 HD
ATOM     61  C   UNL A   1      42.239  30.396  35.295  1.00  0.00     0.074 A 
ATOM     62  C   UNL A   1      42.540  30.929  36.608  1.00  0.00     0.031 C 
ATOM     63  C   UNL A   1      42.922  29.385  34.706  1.00  0.00     0.037 A 
BRANCH  50  64
ATOM     64  C   UNL A   1      40.742  27.754  29.164  1.00  0.00     0.064 A 
ATOM     65  C   UNL A   1      39.880  26.654  29.032  1.00  0.00     0.173 A 
ATOM     66  C   UNL A   1      41.671  27.985  28.139  1.00  0.00     0.173 A 
ATOM     67  F   UNL A   1      38.979  26.383  29.990  1.00  0.00    -0.203 F 
ATOM     68  C   UNL A   1      39.964  25.805  27.931  1.00  0.00     0.198 A 
ATOM     69  C   UNL A   1      41.734  27.151  27.026  1.00  0.00     0.198 A 
ATOM     70  F   UNL A   1      42.514  29.026  28.212  1.00  0.00    -0.203 F 
ATOM     71  F   UNL A   1      39.162  24.735  27.850  1.00  0.00    -0.200 F 
ATOM     72  C   UNL A   1      40.886  26.058  26.927  1.00  0.00     0.200 A 
ATOM     73  F   UNL A   1      42.616  27.403  26.049  1.00  0.00    -0.200 F 
ATOM     74  F   UNL A   1      40.961  25.244  25.864  1.00  0.00    -0.200 F 
ENDBRANCH  50  64
BRANCH  51  75
ATOM     75  C   UNL A   1      39.573  33.908  36.936  1.00  0.00     0.064 A 
ATOM     76  C   UNL A   1      40.167  35.177  36.985  1.00  0.00     0.173 A 
ATOM     77  C   UNL A   1      38.797  33.508  38.032  1.00  0.00     0.173 A 
ATOM     78  F   UNL A   1      40.935  35.596  35.969  1.00  0.00    -0.203 F 
ATOM     79  C   UNL A   1      40.007  36.004  38.094  1.00  0.00     0.198 A 
ATOM     80  C   UNL A   1      38.616  34.346  39.130  1.00  0.00     0.198 A 
ATOM     81  F   UNL A   1      38.202  32.306  38.031  1.00  0.00    -0.203 F 
ATOM     82  F   UNL A   1      40.621  37.195  38.134  1.00  0.00    -0.200 F 
ATOM     83  C   UNL A   1      39.228  35.591  39.164  1.00  0.00     0.200 A 
ATOM     84  F   UNL A   1      37.849  33.949  40.155  1.00  0.00    -0.200 F 
ATOM     85  F   UNL A   1      39.070  36.387  40.229  1.00  0.00    -0.200 F 
ENDBRANCH  51  75
BRANCH  63  86
ATOM     86  C   UNL A   1      44.084  28.811  35.461  1.00  0.00     0.064 A 
ATOM     87  C   UNL A   1      45.384  29.311  35.297  1.00  0.00     0.173 A 
ATOM     88  C   UNL A   1      43.889  27.776  36.387  1.00  0.00     0.173 A 
ATOM     89  F   UNL A   1      45.625  30.289  34.411  1.00  0.00    -0.203 F 
ATOM     90  C   UNL A   1      46.451  28.779  36.017  1.00  0.00     0.198 A 
ATOM     91  C   UNL A   1      44.952  27.266  37.125  1.00  0.00     0.198 A 
ATOM     92  F   UNL A   1      42.663  27.268  36.584  1.00  0.00    -0.203 F 
ATOM     93  F   UNL A   1      47.692  29.241  35.812  1.00  0.00    -0.200 F 
ATOM     94  C   UNL A   1      46.233  27.762  36.935  1.00  0.00     0.200 A 
ATOM     95  F   UNL A   1      44.738  26.291  38.021  1.00  0.00    -0.200 F 
ATOM     96  F   UNL A   1      47.259  27.256  37.631  1.00  0.00    -0.200 F 
ENDBRANCH  63  86
ENDBRANCH  37  38
ENDBRANCH  29  32
ENDBRANCH  27  28
ENDBRANCH  26  27
ENDBRANCH   1  26
TORSDOF 14
ENDMDL
MODEL 3
REMARK VINA RESULT:     -12.0      0.765      2.134
REMARK SMILES Cc1ccc(C(N)=O)c(NCc2ccc(C(=O)NCCCNC(=O)c3ccc(-c4c5nc(c(-c6c(F)c(F)c(F)c(F)c6F)c6ccc([nH]6)c(-c6c(F)c(F)c(F)c(F)c6F)c6nc(c(-c7c(F)c(F)c(F)c(F)c7F)c7ccc4[nH]7)C=C6)C=C5)cc3)o2)n1
REMARK SMILES IDX 19 1 18 2 16 3 17 4 15 6 12 7 13 8 88 9 14 10 11 11 10 12
REMARK SMILES IDX 9 14 1 15 2 16 3 17 89 18 4 19 5 20 6 21 7 22 8 23 20 26
REMARK SMILES IDX 21 27 22 28 23 29 24 31 25 32 26 33 87 34 27 35 86 36 28 37
REMARK SMILES IDX 29 38 30 39 80 40 31 41 85 42 79 43 81 44 32 45 84 46 78 47
REMARK SMILES IDX 77 48 33 50 65 51 45 52 64 53 46 54 49 55 63 56 82 57 47 58
REMARK SMILES IDX 48 59 62 61 83 62 50 63 34 64 35 65 43 66 36 67 37 68 41 69
REMARK SMILES IDX 44 70 38 71 39 72 42 73 40 74 66 75 67 76 75 77 68 78 69 79
REMARK SMILES IDX 73 80 76 81 70 82 71 83 74 84 72 85 51 86 52 87 60 88 53 89
REMARK SMILES IDX 54 90 58 91 61 92 55 93 56 94 59 95 57 96
REMARK H PARENT 18 5 10 13 7 24 7 25 22 30 81 49 49 60
REMARK Flexibility Score: inf
ROOT
ATOM      1  C   UNL A   1      31.701  30.733  26.906  1.00  0.00     0.118 C 
ENDROOT
BRANCH   1   2
ATOM      2  N   UNL A   1      33.057  30.403  27.295  1.00  0.00    -0.349 N 
ATOM      3  C   UNL A   1      33.970  29.535  26.740  1.00  0.00     0.286 C 
ATOM      4  O   UNL A   1      35.099  29.562  27.236  1.00  0.00    -0.266 OA
ATOM      5  H   UNL A   1      33.382  30.881  28.092  1.00  0.00     0.163 HD
BRANCH   3   6
ATOM      6  C   UNL A   1      33.614  28.664  25.635  1.00  0.00     0.191 A 
ATOM      7  C   UNL A   1      32.721  28.295  23.638  1.00  0.00     0.124 A 
ATOM      8  C   UNL A   1      33.174  27.076  24.092  1.00  0.00     0.048 A 
ATOM      9  O   UNL A   1      32.987  29.257  24.564  1.00  0.00    -0.454 OA
ATOM     10  C   UNL A   1      33.777  27.319  25.350  1.00  0.00     0.056 A 
BRANCH   7  11
ATOM     11  C   UNL A   1      32.058  28.743  22.378  1.00  0.00     0.190 C 
BRANCH  11  12
ATOM     12  N   UNL A   1      31.028  29.748  22.597  1.00  0.00    -0.362 N 
ATOM     13  H   UNL A   1      31.272  30.702  22.608  1.00  0.00     0.162 HD
BRANCH  12  14
ATOM     14  C   UNL A   1      29.706  29.376  22.791  1.00  0.00     0.139 A 
ATOM     15  C   UNL A   1      28.026  26.330  24.018  1.00  0.00     0.067 C 
ATOM     16  C   UNL A   1      28.202  27.727  23.500  1.00  0.00     0.040 A 
ATOM     17  C   UNL A   1      27.112  28.561  23.312  1.00  0.00     0.024 A 
ATOM     18  N   UNL A   1      29.472  28.116  23.230  1.00  0.00    -0.236 NA
ATOM     19  C   UNL A   1      27.341  29.843  22.828  1.00  0.00     0.019 A 
ATOM     20  C   UNL A   1      28.647  30.263  22.551  1.00  0.00     0.081 A 
BRANCH  20  21
ATOM     21  C   UNL A   1      28.809  31.628  21.979  1.00  0.00     0.252 C 
ATOM     22  N   UNL A   1      28.512  31.809  20.658  1.00  0.00    -0.365 N 
ATOM     23  O   UNL A   1      29.152  32.578  22.673  1.00  0.00    -0.269 OA
ATOM     24  H   UNL A   1      28.236  31.042  20.105  1.00  0.00     0.159 HD
ATOM     25  H   UNL A   1      28.574  32.706  20.257  1.00  0.00     0.159 HD
ENDBRANCH  20  21
ENDBRANCH  12  14
ENDBRANCH  11  12
ENDBRANCH   7  11
ENDBRANCH   3   6
ENDBRANCH   1   2
BRANCH   1  26
ATOM     26  C   UNL A   1      31.475  32.243  26.874  1.00  0.00     0.042 C 
BRANCH  26  27
ATOM     27  C   UNL A   1      32.762  33.053  27.028  1.00  0.00     0.118 C 
BRANCH  27  28
ATOM     28  N   UNL A   1      32.519  34.359  27.626  1.00  0.00    -0.352 N 
ATOM     29  C   UNL A   1      33.044  34.937  28.754  1.00  0.00     0.251 C 
ATOM     30  H   UNL A   1      31.871  34.919  27.140  1.00  0.00     0.163 HD
ATOM     31  O   UNL A   1      32.534  35.963  29.197  1.00  0.00    -0.269 OA
BRANCH  29  32
ATOM     32  C   UNL A   1      34.209  34.345  29.446  1.00  0.00     0.039 A 
ATOM     33  C   UNL A   1      33.987  33.580  30.596  1.00  0.00     0.014 A 
ATOM     34  C   UNL A   1      35.516  34.590  29.014  1.00  0.00     0.014 A 
ATOM     35  C   UNL A   1      35.068  33.019  31.281  1.00  0.00     0.010 A 
ATOM     36  C   UNL A   1      36.589  33.979  29.661  1.00  0.00     0.010 A 
ATOM     37  C   UNL A   1      36.376  33.191  30.803  1.00  0.00    -0.014 A 
BRANCH  37  38
ATOM     38  C   UNL A   1      37.533  32.556  31.482  1.00  0.00     0.031 A 
ATOM     39  C   UNL A   1      38.250  31.401  30.840  1.00  0.00     0.074 A 
ATOM     40  C   UNL A   1      37.893  32.976  32.710  1.00  0.00     0.049 A 
ATOM     41  N   UNL A   1      39.221  30.661  31.315  1.00  0.00    -0.248 NA
ATOM     42  C   UNL A   1      37.799  31.008  29.497  1.00  0.00     0.031 C 
ATOM     43  C   UNL A   1      37.248  34.058  33.455  1.00  0.00     0.029 A 
ATOM     44  N   UNL A   1      38.879  32.532  33.556  1.00  0.00    -0.354 N 
ATOM     45  C   UNL A   1      39.478  29.706  30.342  1.00  0.00     0.074 A 
ATOM     46  C   UNL A   1      38.537  29.933  29.266  1.00  0.00     0.031 C 
ATOM     47  C   UNL A   1      37.863  34.203  34.640  1.00  0.00     0.029 A 
ATOM     48  C   UNL A   1      38.919  33.202  34.754  1.00  0.00     0.049 A 
ATOM     49  H   UNL A   1      39.498  31.802  33.325  1.00  0.00     0.167 HD
ATOM     50  C   UNL A   1      40.427  28.738  30.338  1.00  0.00     0.037 A 
ATOM     51  C   UNL A   1      39.711  33.021  35.827  1.00  0.00     0.037 A 
ATOM     52  C   UNL A   1      41.384  28.538  31.394  1.00  0.00     0.049 A 
ATOM     53  C   UNL A   1      40.763  31.946  35.793  1.00  0.00     0.074 A 
ATOM     54  C   UNL A   1      42.431  27.632  31.451  1.00  0.00     0.029 A 
ATOM     55  N   UNL A   1      41.412  29.255  32.582  1.00  0.00    -0.354 N 
ATOM     56  N   UNL A   1      41.041  31.092  34.838  1.00  0.00    -0.248 NA
ATOM     57  C   UNL A   1      41.613  31.813  36.984  1.00  0.00     0.031 C 
ATOM     58  C   UNL A   1      43.065  27.775  32.690  1.00  0.00     0.029 A 
ATOM     59  C   UNL A   1      42.444  28.799  33.386  1.00  0.00     0.049 A 
ATOM     60  H   UNL A   1      40.790  29.981  32.816  1.00  0.00     0.167 HD
ATOM     61  C   UNL A   1      42.113  30.341  35.300  1.00  0.00     0.074 A 
ATOM     62  C   UNL A   1      42.443  30.848  36.615  1.00  0.00     0.031 C 
ATOM     63  C   UNL A   1      42.764  29.321  34.689  1.00  0.00     0.037 A 
BRANCH  50  64
ATOM     64  C   UNL A   1      40.479  27.818  29.153  1.00  0.00     0.064 A 
ATOM     65  C   UNL A   1      39.692  26.658  29.086  1.00  0.00     0.173 A 
ATOM     66  C   UNL A   1      41.295  28.121  28.052  1.00  0.00     0.173 A 
ATOM     67  F   UNL A   1      38.903  26.317  30.117  1.00  0.00    -0.203 F 
ATOM     68  C   UNL A   1      39.740  25.822  27.974  1.00  0.00     0.198 A 
ATOM     69  C   UNL A   1      41.318  27.298  26.929  1.00  0.00     0.198 A 
ATOM     70  F   UNL A   1      42.062  29.221  28.062  1.00  0.00    -0.203 F 
ATOM     71  F   UNL A   1      39.013  24.696  27.952  1.00  0.00    -0.200 F 
ATOM     72  C   UNL A   1      40.547  26.146  26.894  1.00  0.00     0.200 A 
ATOM     73  F   UNL A   1      42.089  27.619  25.881  1.00  0.00    -0.200 F 
ATOM     74  F   UNL A   1      40.586  25.345  25.820  1.00  0.00    -0.200 F 
ENDBRANCH  50  64
BRANCH  51  75
ATOM     75  C   UNL A   1      39.554  33.895  37.019  1.00  0.00     0.064 A 
ATOM     76  C   UNL A   1      40.184  35.145  37.079  1.00  0.00     0.173 A 
ATOM     77  C   UNL A   1      38.777  33.501  38.116  1.00  0.00     0.173 A 
ATOM     78  F   UNL A   1      40.954  35.557  36.062  1.00  0.00    -0.203 F 
ATOM     79  C   UNL A   1      40.057  35.961  38.201  1.00  0.00     0.198 A 
ATOM     80  C   UNL A   1      38.630  34.329  39.228  1.00  0.00     0.198 A 
ATOM     81  F   UNL A   1      38.149  32.316  38.105  1.00  0.00    -0.203 F 
ATOM     82  F   UNL A   1      40.705  37.133  38.251  1.00  0.00    -0.200 F 
ATOM     83  C   UNL A   1      39.277  35.555  39.272  1.00  0.00     0.200 A 
ATOM     84  F   UNL A   1      37.862  33.938  40.254  1.00  0.00    -0.200 F 
ATOM     85  F   UNL A   1      39.151  36.341  40.350  1.00  0.00    -0.200 F 
ENDBRANCH  51  75
BRANCH  63  86
ATOM     86  C   UNL A   1      43.921  28.709  35.422  1.00  0.00     0.064 A 
ATOM     87  C   UNL A   1      43.748  27.624  36.293  1.00  0.00     0.173 A 
ATOM     88  C   UNL A   1      45.224  29.190  35.220  1.00  0.00     0.173 A 
ATOM     89  F   UNL A   1      42.520  27.140  36.532  1.00  0.00    -0.203 F 
ATOM     90  C   UNL A   1      44.835  27.057  36.953  1.00  0.00     0.198 A 
ATOM     91  C   UNL A   1      46.311  28.603  35.860  1.00  0.00     0.198 A 
ATOM     92  F   UNL A   1      45.442  30.223  34.393  1.00  0.00    -0.203 F 
ATOM     93  F   UNL A   1      44.641  26.050  37.815  1.00  0.00    -0.200 F 
ATOM     94  C   UNL A   1      46.116  27.541  36.730  1.00  0.00     0.200 A 
ATOM     95  F   UNL A   1      47.549  29.065  35.634  1.00  0.00    -0.200 F 
ATOM     96  F   UNL A   1      47.160  26.991  37.362  1.00  0.00    -0.200 F 
ENDBRANCH  63  86
ENDBRANCH  37  38
ENDBRANCH  29  32
ENDBRANCH  27  28
ENDBRANCH  26  27
ENDBRANCH   1  26
TORSDOF 14
ENDMDL
