MODEL 1
REMARK VINA RESULT:     -10.2      0.000      0.000
REMARK SMILES CCOC(=O)N[C@H]1C=C[C@H](C(=O)NCCCNC(=O)c2ccc(-c3c4nc(c(-c5c(F)c(F)c(F)c(F)c5F)c5ccc([nH]5)c(-c5c(F)c(F)c(F)c(F)c5F)c5nc(c(-c6c(F)c(F)c(F)c(F)c6F)c6ccc3[nH]6)C=C5)C=C4)cc2)C1
REMARK SMILES IDX 14 1 13 2 11 3 12 4 10 6 7 7 8 8 83 9 9 10 6 11 4 12 5 13
REMARK SMILES IDX 3 15 2 16 1 17 15 18 16 19 17 20 18 21 19 23 20 24 21 25
REMARK SMILES IDX 82 26 22 27 81 28 23 29 24 30 25 31 75 32 26 33 80 34 74 35
REMARK SMILES IDX 76 36 27 37 79 38 73 39 72 40 28 42 60 43 40 44 59 45 41 46
REMARK SMILES IDX 44 47 58 48 77 49 42 50 43 51 57 53 78 54 45 55 29 56 30 57
REMARK SMILES IDX 38 58 31 59 32 60 36 61 39 62 33 63 34 64 37 65 35 66 61 67
REMARK SMILES IDX 62 68 70 69 63 70 64 71 68 72 71 73 65 74 66 75 69 76 67 77
REMARK SMILES IDX 46 78 47 79 55 80 48 81 49 82 53 83 56 84 50 85 51 86 54 87
REMARK SMILES IDX 52 88
REMARK H PARENT 13 5 6 14 17 22 76 41 44 52
REMARK Flexibility Score: inf
ROOT
ATOM      1  C   UNL A   1      41.935  20.001  25.875  1.00  0.00     0.117 C 
ENDROOT
BRANCH   1   2
ATOM      2  N   UNL A   1      43.368  20.077  25.660  1.00  0.00    -0.356 N 
ATOM      3  C   UNL A   1      44.156  21.184  25.505  1.00  0.00     0.227 C 
ATOM      4  O   UNL A   1      45.367  21.018  25.362  1.00  0.00    -0.274 OA
ATOM      5  H   UNL A   1      43.839  19.213  25.620  1.00  0.00     0.163 HD
BRANCH   3   6
ATOM      6  C   UNL A   1      43.491  22.560  25.534  1.00  0.00     0.103 C 
ATOM      7  C   UNL A   1      44.870  24.594  25.427  1.00  0.00     0.109 C 
ATOM      8  C   UNL A   1      44.469  24.279  26.825  1.00  0.00    -0.006 C 
ATOM      9  C   UNL A   1      44.139  23.560  24.560  1.00  0.00     0.047 C 
ATOM     10  C   UNL A   1      43.709  23.183  26.885  1.00  0.00    -0.016 C 
BRANCH   7  11
ATOM     11  N   UNL A   1      44.557  25.969  25.109  1.00  0.00    -0.315 N 
ATOM     12  C   UNL A   1      45.349  27.073  25.230  1.00  0.00     0.407 C 
ATOM     13  O   UNL A   1      44.909  28.194  25.004  1.00  0.00    -0.225 OA
ATOM     14  H   UNL A   1      43.651  26.131  24.757  1.00  0.00     0.167 HD
BRANCH  12  15
ATOM     15  O   UNL A   1      46.617  26.796  25.616  1.00  0.00    -0.450 OA
BRANCH  15  16
ATOM     16  C   UNL A   1      47.659  27.161  24.702  1.00  0.00     0.231 C 
ATOM     17  C   UNL A   1      48.439  25.946  24.238  1.00  0.00     0.049 C 
ENDBRANCH  15  16
ENDBRANCH  12  15
ENDBRANCH   7  11
ENDBRANCH   3   6
ENDBRANCH   1   2
BRANCH   1  18
ATOM     18  C   UNL A   1      41.563  20.198  27.336  1.00  0.00     0.042 C 
BRANCH  18  19
ATOM     19  C   UNL A   1      40.771  21.469  27.605  1.00  0.00     0.118 C 
BRANCH  19  20
ATOM     20  N   UNL A   1      39.667  21.658  26.675  1.00  0.00    -0.352 N 
ATOM     21  C   UNL A   1      38.955  22.791  26.370  1.00  0.00     0.251 C 
ATOM     22  H   UNL A   1      39.387  20.848  26.191  1.00  0.00     0.163 HD
ATOM     23  O   UNL A   1      37.945  22.707  25.676  1.00  0.00    -0.269 OA
BRANCH  21  24
ATOM     24  C   UNL A   1      39.384  24.108  26.887  1.00  0.00     0.039 A 
ATOM     25  C   UNL A   1      39.014  24.477  28.183  1.00  0.00     0.014 A 
ATOM     26  C   UNL A   1      40.121  24.992  26.095  1.00  0.00     0.014 A 
ATOM     27  C   UNL A   1      39.422  25.710  28.697  1.00  0.00     0.010 A 
ATOM     28  C   UNL A   1      40.612  26.173  26.642  1.00  0.00     0.010 A 
ATOM     29  C   UNL A   1      40.245  26.558  27.940  1.00  0.00    -0.014 A 
BRANCH  29  30
ATOM     30  C   UNL A   1      40.686  27.875  28.465  1.00  0.00     0.031 A 
ATOM     31  C   UNL A   1      42.146  28.125  28.732  1.00  0.00     0.074 A 
ATOM     32  C   UNL A   1      39.775  28.827  28.744  1.00  0.00     0.049 A 
ATOM     33  N   UNL A   1      42.729  29.185  29.235  1.00  0.00    -0.248 NA
ATOM     34  C   UNL A   1      43.073  27.026  28.419  1.00  0.00     0.031 C 
ATOM     35  C   UNL A   1      38.329  28.691  28.574  1.00  0.00     0.029 A 
ATOM     36  N   UNL A   1      39.935  30.098  29.237  1.00  0.00    -0.354 N 
ATOM     37  C   UNL A   1      44.081  28.871  29.312  1.00  0.00     0.074 A 
ATOM     38  C   UNL A   1      44.223  27.502  28.872  1.00  0.00     0.031 C 
ATOM     39  C   UNL A   1      37.734  29.843  28.926  1.00  0.00     0.029 A 
ATOM     40  C   UNL A   1      38.753  30.784  29.383  1.00  0.00     0.049 A 
ATOM     41  H   UNL A   1      40.812  30.483  29.464  1.00  0.00     0.167 HD
ATOM     42  C   UNL A   1      45.115  29.663  29.685  1.00  0.00     0.037 A 
ATOM     43  C   UNL A   1      38.521  32.030  29.838  1.00  0.00     0.037 A 
ATOM     44  C   UNL A   1      44.972  31.032  30.103  1.00  0.00     0.049 A 
ATOM     45  C   UNL A   1      39.688  32.888  30.254  1.00  0.00     0.074 A 
ATOM     46  C   UNL A   1      45.958  31.933  30.462  1.00  0.00     0.029 A 
ATOM     47  N   UNL A   1      43.760  31.699  30.218  1.00  0.00    -0.354 N 
ATOM     48  N   UNL A   1      40.967  32.602  30.263  1.00  0.00    -0.248 NA
ATOM     49  C   UNL A   1      39.374  34.250  30.705  1.00  0.00     0.031 C 
ATOM     50  C   UNL A   1      45.340  33.128  30.846  1.00  0.00     0.029 A 
ATOM     51  C   UNL A   1      43.973  32.996  30.658  1.00  0.00     0.049 A 
ATOM     52  H   UNL A   1      42.878  31.308  30.018  1.00  0.00     0.167 HD
ATOM     53  C   UNL A   1      41.614  33.760  30.678  1.00  0.00     0.074 A 
ATOM     54  C   UNL A   1      40.584  34.753  30.898  1.00  0.00     0.031 C 
ATOM     55  C   UNL A   1      42.940  33.981  30.856  1.00  0.00     0.037 A 
BRANCH  42  56
ATOM     56  C   UNL A   1      46.492  29.061  29.658  1.00  0.00     0.064 A 
ATOM     57  C   UNL A   1      47.281  29.072  28.495  1.00  0.00     0.173 A 
ATOM     58  C   UNL A   1      47.042  28.484  30.812  1.00  0.00     0.173 A 
ATOM     59  F   UNL A   1      46.801  29.600  27.358  1.00  0.00    -0.203 F 
ATOM     60  C   UNL A   1      48.548  28.495  28.480  1.00  0.00     0.198 A 
ATOM     61  C   UNL A   1      48.325  27.941  30.804  1.00  0.00     0.198 A 
ATOM     62  F   UNL A   1      46.337  28.450  31.953  1.00  0.00    -0.203 F 
ATOM     63  F   UNL A   1      49.254  28.462  27.342  1.00  0.00    -0.200 F 
ATOM     64  C   UNL A   1      49.072  27.937  29.636  1.00  0.00     0.200 A 
ATOM     65  F   UNL A   1      48.836  27.417  31.926  1.00  0.00    -0.200 F 
ATOM     66  F   UNL A   1      50.294  27.388  29.622  1.00  0.00    -0.200 F 
ENDBRANCH  42  56
BRANCH  43  67
ATOM     67  C   UNL A   1      37.132  32.558  29.889  1.00  0.00     0.064 A 
ATOM     68  C   UNL A   1      36.592  33.272  28.809  1.00  0.00     0.173 A 
ATOM     69  C   UNL A   1      36.323  32.378  31.021  1.00  0.00     0.173 A 
ATOM     70  F   UNL A   1      37.333  33.487  27.712  1.00  0.00    -0.203 F 
ATOM     71  C   UNL A   1      35.310  33.812  28.872  1.00  0.00     0.198 A 
ATOM     72  C   UNL A   1      35.028  32.891  31.068  1.00  0.00     0.198 A 
ATOM     73  F   UNL A   1      36.786  31.697  32.078  1.00  0.00    -0.203 F 
ATOM     74  F   UNL A   1      34.841  34.540  27.847  1.00  0.00    -0.200 F 
ATOM     75  C   UNL A   1      34.526  33.618  29.998  1.00  0.00     0.200 A 
ATOM     76  F   UNL A   1      34.267  32.684  32.152  1.00  0.00    -0.200 F 
ATOM     77  F   UNL A   1      33.292  34.135  30.058  1.00  0.00    -0.200 F 
ENDBRANCH  43  67
BRANCH  55  78
ATOM     78  C   UNL A   1      43.360  35.372  31.241  1.00  0.00     0.064 A 
ATOM     79  C   UNL A   1      43.715  36.337  30.287  1.00  0.00     0.173 A 
ATOM     80  C   UNL A   1      43.393  35.747  32.594  1.00  0.00     0.173 A 
ATOM     81  F   UNL A   1      43.711  36.028  28.981  1.00  0.00    -0.203 F 
ATOM     82  C   UNL A   1      44.129  37.609  30.674  1.00  0.00     0.198 A 
ATOM     83  C   UNL A   1      43.770  37.032  32.975  1.00  0.00     0.198 A 
ATOM     84  F   UNL A   1      43.054  34.868  33.549  1.00  0.00    -0.203 F 
ATOM     85  F   UNL A   1      44.530  38.491  29.747  1.00  0.00    -0.200 F 
ATOM     86  C   UNL A   1      44.151  37.957  32.016  1.00  0.00     0.200 A 
ATOM     87  F   UNL A   1      43.772  37.371  34.272  1.00  0.00    -0.200 F 
ATOM     88  F   UNL A   1      44.550  39.181  32.386  1.00  0.00    -0.200 F 
ENDBRANCH  55  78
ENDBRANCH  29  30
ENDBRANCH  21  24
ENDBRANCH  19  20
ENDBRANCH  18  19
ENDBRANCH   1  18
TORSDOF 13
ENDMDL
MODEL 2
REMARK VINA RESULT:     -10.2      4.301     10.922
REMARK SMILES CCOC(=O)N[C@H]1C=C[C@H](C(=O)NCCCNC(=O)c2ccc(-c3c4nc(c(-c5c(F)c(F)c(F)c(F)c5F)c5ccc([nH]5)c(-c5c(F)c(F)c(F)c(F)c5F)c5nc(c(-c6c(F)c(F)c(F)c(F)c6F)c6ccc3[nH]6)C=C5)C=C4)cc2)C1
REMARK SMILES IDX 14 1 13 2 11 3 12 4 10 6 7 7 8 8 83 9 9 10 6 11 4 12 5 13
REMARK SMILES IDX 3 15 2 16 1 17 15 18 16 19 17 20 18 21 19 23 20 24 21 25
REMARK SMILES IDX 82 26 22 27 81 28 23 29 24 30 25 31 75 32 26 33 80 34 74 35
REMARK SMILES IDX 76 36 27 37 79 38 73 39 72 40 28 42 60 43 40 44 59 45 41 46
REMARK SMILES IDX 44 47 58 48 77 49 42 50 43 51 57 53 78 54 45 55 29 56 30 57
REMARK SMILES IDX 38 58 31 59 32 60 36 61 39 62 33 63 34 64 37 65 35 66 61 67
REMARK SMILES IDX 62 68 70 69 63 70 64 71 68 72 71 73 65 74 66 75 69 76 67 77
REMARK SMILES IDX 46 78 47 79 55 80 48 81 49 82 53 83 56 84 50 85 51 86 54 87
REMARK SMILES IDX 52 88
REMARK H PARENT 13 5 6 14 17 22 76 41 44 52
REMARK Flexibility Score: inf
ROOT
ATOM      1  C   UNL A   1      34.042  35.125  29.202  1.00  0.00     0.117 C 
ENDROOT
BRANCH   1   2
ATOM      2  N   UNL A   1      33.487  35.030  30.539  1.00  0.00    -0.356 N 
ATOM      3  C   UNL A   1      34.001  34.403  31.640  1.00  0.00     0.227 C 
ATOM      4  O   UNL A   1      33.371  34.473  32.695  1.00  0.00    -0.274 OA
ATOM      5  H   UNL A   1      32.620  35.478  30.673  1.00  0.00     0.163 HD
BRANCH   3   6
ATOM      6  C   UNL A   1      35.333  33.667  31.502  1.00  0.00     0.103 C 
ATOM      7  C   UNL A   1      36.185  32.305  33.365  1.00  0.00     0.109 C 
ATOM      8  C   UNL A   1      36.828  33.647  33.331  1.00  0.00    -0.006 C 
ATOM      9  C   UNL A   1      35.304  32.253  32.110  1.00  0.00     0.047 C 
ATOM     10  C   UNL A   1      36.377  34.384  32.312  1.00  0.00    -0.016 C 
BRANCH   7  11
ATOM     11  N   UNL A   1      37.188  31.266  33.436  1.00  0.00    -0.315 N 
ATOM     12  C   UNL A   1      37.920  30.861  34.512  1.00  0.00     0.407 C 
ATOM     13  O   UNL A   1      38.806  30.022  34.395  1.00  0.00    -0.225 OA
ATOM     14  H   UNL A   1      37.365  30.786  32.594  1.00  0.00     0.167 HD
BRANCH  12  15
ATOM     15  O   UNL A   1      37.574  31.471  35.670  1.00  0.00    -0.450 OA
BRANCH  15  16
ATOM     16  C   UNL A   1      38.612  32.188  36.351  1.00  0.00     0.231 C 
ATOM     17  C   UNL A   1      38.062  33.399  37.081  1.00  0.00     0.049 C 
ENDBRANCH  15  16
ENDBRANCH  12  15
ENDBRANCH   7  11
ENDBRANCH   3   6
ENDBRANCH   1   2
BRANCH   1  18
ATOM     18  C   UNL A   1      33.502  34.044  28.279  1.00  0.00     0.042 C 
BRANCH  18  19
ATOM     19  C   UNL A   1      34.431  32.850  28.117  1.00  0.00     0.118 C 
BRANCH  19  20
ATOM     20  N   UNL A   1      33.728  31.629  27.750  1.00  0.00    -0.352 N 
ATOM     21  C   UNL A   1      34.194  30.342  27.642  1.00  0.00     0.251 C 
ATOM     22  H   UNL A   1      32.771  31.744  27.547  1.00  0.00     0.163 HD
ATOM     23  O   UNL A   1      33.474  29.474  27.154  1.00  0.00    -0.269 OA
BRANCH  21  24
ATOM     24  C   UNL A   1      35.560  29.998  28.090  1.00  0.00     0.039 A 
ATOM     25  C   UNL A   1      35.755  29.596  29.413  1.00  0.00     0.014 A 
ATOM     26  C   UNL A   1      36.652  30.098  27.224  1.00  0.00     0.014 A 
ATOM     27  C   UNL A   1      37.035  29.252  29.853  1.00  0.00     0.010 A 
ATOM     28  C   UNL A   1      37.907  29.659  27.633  1.00  0.00     0.010 A 
ATOM     29  C   UNL A   1      38.118  29.257  28.960  1.00  0.00    -0.014 A 
BRANCH  29  30
ATOM     30  C   UNL A   1      39.488  28.899  29.407  1.00  0.00     0.031 A 
ATOM     31  C   UNL A   1      40.221  29.798  30.367  1.00  0.00     0.074 A 
ATOM     32  C   UNL A   1      40.090  27.798  28.919  1.00  0.00     0.049 A 
ATOM     33  N   UNL A   1      41.438  29.692  30.840  1.00  0.00    -0.248 NA
ATOM     34  C   UNL A   1      39.501  30.993  30.836  1.00  0.00     0.031 C 
ATOM     35  C   UNL A   1      39.504  26.872  27.950  1.00  0.00     0.029 A 
ATOM     36  N   UNL A   1      41.333  27.274  29.172  1.00  0.00    -0.354 N 
ATOM     37  C   UNL A   1      41.629  30.809  31.644  1.00  0.00     0.074 A 
ATOM     38  C   UNL A   1      40.434  31.615  31.540  1.00  0.00     0.031 C 
ATOM     39  C   UNL A   1      40.374  25.876  27.712  1.00  0.00     0.029 A 
ATOM     40  C   UNL A   1      41.592  26.115  28.481  1.00  0.00     0.049 A 
ATOM     41  H   UNL A   1      41.979  27.689  29.789  1.00  0.00     0.167 HD
ATOM     42  C   UNL A   1      42.692  31.121  32.424  1.00  0.00     0.037 A 
ATOM     43  C   UNL A   1      42.690  25.336  28.469  1.00  0.00     0.037 A 
ATOM     44  C   UNL A   1      43.873  30.306  32.541  1.00  0.00     0.049 A 
ATOM     45  C   UNL A   1      43.862  25.707  29.341  1.00  0.00     0.074 A 
ATOM     46  C   UNL A   1      44.988  30.509  33.333  1.00  0.00     0.029 A 
ATOM     47  N   UNL A   1      44.089  29.127  31.841  1.00  0.00    -0.354 N 
ATOM     48  N   UNL A   1      44.007  26.733  30.144  1.00  0.00    -0.248 NA
ATOM     49  C   UNL A   1      45.015  24.799  29.314  1.00  0.00     0.031 C 
ATOM     50  C   UNL A   1      45.903  29.483  33.074  1.00  0.00     0.029 A 
ATOM     51  C   UNL A   1      45.327  28.600  32.173  1.00  0.00     0.049 A 
ATOM     52  H   UNL A   1      43.457  28.724  31.203  1.00  0.00     0.167 HD
ATOM     53  C   UNL A   1      45.247  26.571  30.750  1.00  0.00     0.074 A 
ATOM     54  C   UNL A   1      45.805  25.341  30.229  1.00  0.00     0.031 C 
ATOM     55  C   UNL A   1      45.864  27.366  31.660  1.00  0.00     0.037 A 
BRANCH  42  56
ATOM     56  C   UNL A   1      42.623  32.400  33.210  1.00  0.00     0.064 A 
ATOM     57  C   UNL A   1      43.021  33.630  32.658  1.00  0.00     0.173 A 
ATOM     58  C   UNL A   1      42.135  32.404  34.525  1.00  0.00     0.173 A 
ATOM     59  F   UNL A   1      43.508  33.683  31.408  1.00  0.00    -0.203 F 
ATOM     60  C   UNL A   1      42.969  34.803  33.404  1.00  0.00     0.198 A 
ATOM     61  C   UNL A   1      42.049  33.587  35.256  1.00  0.00     0.198 A 
ATOM     62  F   UNL A   1      41.736  31.261  35.103  1.00  0.00    -0.203 F 
ATOM     63  F   UNL A   1      43.414  35.952  32.876  1.00  0.00    -0.200 F 
ATOM     64  C   UNL A   1      42.476  34.783  34.700  1.00  0.00     0.200 A 
ATOM     65  F   UNL A   1      41.557  33.567  36.503  1.00  0.00    -0.200 F 
ATOM     66  F   UNL A   1      42.420  35.914  35.415  1.00  0.00    -0.200 F 
ENDBRANCH  42  56
BRANCH  43  67
ATOM     67  C   UNL A   1      42.723  24.105  27.635  1.00  0.00     0.064 A 
ATOM     68  C   UNL A   1      42.415  22.852  28.186  1.00  0.00     0.173 A 
ATOM     69  C   UNL A   1      43.079  24.151  26.279  1.00  0.00     0.173 A 
ATOM     70  F   UNL A   1      42.087  22.754  29.482  1.00  0.00    -0.203 F 
ATOM     71  C   UNL A   1      42.493  21.691  27.422  1.00  0.00     0.198 A 
ATOM     72  C   UNL A   1      43.124  22.991  25.507  1.00  0.00     0.198 A 
ATOM     73  F   UNL A   1      43.375  25.323  25.701  1.00  0.00    -0.203 F 
ATOM     74  F   UNL A   1      42.250  20.501  27.989  1.00  0.00    -0.200 F 
ATOM     75  C   UNL A   1      42.842  21.760  26.082  1.00  0.00     0.200 A 
ATOM     76  F   UNL A   1      43.444  23.065  24.208  1.00  0.00    -0.200 F 
ATOM     77  F   UNL A   1      42.915  20.643  25.346  1.00  0.00    -0.200 F 
ENDBRANCH  43  67
BRANCH  55  78
ATOM     78  C   UNL A   1      47.183  26.892  32.204  1.00  0.00     0.064 A 
ATOM     79  C   UNL A   1      47.270  26.025  33.303  1.00  0.00     0.173 A 
ATOM     80  C   UNL A   1      48.382  27.306  31.601  1.00  0.00     0.173 A 
ATOM     81  F   UNL A   1      46.156  25.607  33.923  1.00  0.00    -0.203 F 
ATOM     82  C   UNL A   1      48.507  25.627  33.805  1.00  0.00     0.198 A 
ATOM     83  C   UNL A   1      49.614  26.874  32.082  1.00  0.00     0.198 A 
ATOM     84  F   UNL A   1      48.358  28.127  30.540  1.00  0.00    -0.203 F 
ATOM     85  F   UNL A   1      48.565  24.854  34.899  1.00  0.00    -0.200 F 
ATOM     86  C   UNL A   1      49.677  26.047  33.191  1.00  0.00     0.200 A 
ATOM     87  F   UNL A   1      50.743  27.267  31.474  1.00  0.00    -0.200 F 
ATOM     88  F   UNL A   1      50.865  25.662  33.676  1.00  0.00    -0.200 F 
ENDBRANCH  55  78
ENDBRANCH  29  30
ENDBRANCH  21  24
ENDBRANCH  19  20
ENDBRANCH  18  19
ENDBRANCH   1  18
TORSDOF 13
ENDMDL
MODEL 3
REMARK VINA RESULT:     -10.1      5.284     10.968
REMARK SMILES CCOC(=O)N[C@H]1C=C[C@H](C(=O)NCCCNC(=O)c2ccc(-c3c4nc(c(-c5c(F)c(F)c(F)c(F)c5F)c5ccc([nH]5)c(-c5c(F)c(F)c(F)c(F)c5F)c5nc(c(-c6c(F)c(F)c(F)c(F)c6F)c6ccc3[nH]6)C=C5)C=C4)cc2)C1
REMARK SMILES IDX 14 1 13 2 11 3 12 4 10 6 7 7 8 8 83 9 9 10 6 11 4 12 5 13
REMARK SMILES IDX 3 15 2 16 1 17 15 18 16 19 17 20 18 21 19 23 20 24 21 25
REMARK SMILES IDX 82 26 22 27 81 28 23 29 24 30 25 31 75 32 26 33 80 34 74 35
REMARK SMILES IDX 76 36 27 37 79 38 73 39 72 40 28 42 60 43 40 44 59 45 41 46
REMARK SMILES IDX 44 47 58 48 77 49 42 50 43 51 57 53 78 54 45 55 29 56 30 57
REMARK SMILES IDX 38 58 31 59 32 60 36 61 39 62 33 63 34 64 37 65 35 66 61 67
REMARK SMILES IDX 62 68 70 69 63 70 64 71 68 72 71 73 65 74 66 75 69 76 67 77
REMARK SMILES IDX 46 78 47 79 55 80 48 81 49 82 53 83 56 84 50 85 51 86 54 87
REMARK SMILES IDX 52 88
REMARK H PARENT 13 5 6 14 17 22 76 41 44 52
REMARK Flexibility Score: inf
ROOT
ATOM      1  C   UNL A   1      31.417  30.866  26.074  1.00  0.00     0.117 C 
ENDROOT
BRANCH   1   2
ATOM      2  N   UNL A   1      32.707  30.286  26.398  1.00  0.00    -0.356 N 
ATOM      3  C   UNL A   1      33.151  29.009  26.191  1.00  0.00     0.227 C 
ATOM      4  O   UNL A   1      34.305  28.736  26.521  1.00  0.00    -0.274 OA
ATOM      5  H   UNL A   1      33.352  30.895  26.827  1.00  0.00     0.163 HD
BRANCH   3   6
ATOM      6  C   UNL A   1      32.197  28.002  25.551  1.00  0.00     0.103 C 
ATOM      7  C   UNL A   1      32.034  25.718  26.451  1.00  0.00     0.109 C 
ATOM      8  C   UNL A   1      32.916  25.771  25.253  1.00  0.00    -0.006 C 
ATOM      9  C   UNL A   1      31.458  27.134  26.585  1.00  0.00     0.047 C 
ATOM     10  C   UNL A   1      32.995  27.007  24.754  1.00  0.00    -0.016 C 
BRANCH   7  11
ATOM     11  N   UNL A   1      31.041  24.678  26.302  1.00  0.00    -0.315 N 
ATOM     12  C   UNL A   1      31.043  23.418  26.820  1.00  0.00     0.407 C 
ATOM     13  O   UNL A   1      30.166  22.612  26.528  1.00  0.00    -0.225 OA
ATOM     14  H   UNL A   1      30.257  24.913  25.754  1.00  0.00     0.167 HD
BRANCH  12  15
ATOM     15  O   UNL A   1      32.083  23.169  27.652  1.00  0.00    -0.450 OA
BRANCH  15  16
ATOM     16  C   UNL A   1      33.052  22.216  27.198  1.00  0.00     0.231 C 
ATOM     17  C   UNL A   1      34.407  22.863  26.981  1.00  0.00     0.049 C 
ENDBRANCH  15  16
ENDBRANCH  12  15
ENDBRANCH   7  11
ENDBRANCH   3   6
ENDBRANCH   1   2
BRANCH   1  18
ATOM     18  C   UNL A   1      31.305  32.310  26.537  1.00  0.00     0.042 C 
BRANCH  18  19
ATOM     19  C   UNL A   1      32.624  32.916  26.992  1.00  0.00     0.118 C 
BRANCH  19  20
ATOM     20  N   UNL A   1      32.463  34.217  27.625  1.00  0.00    -0.352 N 
ATOM     21  C   UNL A   1      33.109  34.756  28.710  1.00  0.00     0.251 C 
ATOM     22  H   UNL A   1      31.786  34.800  27.212  1.00  0.00     0.163 HD
ATOM     23  O   UNL A   1      32.709  35.812  29.193  1.00  0.00    -0.269 OA
BRANCH  21  24
ATOM     24  C   UNL A   1      34.268  34.065  29.313  1.00  0.00     0.039 A 
ATOM     25  C   UNL A   1      34.037  33.039  30.233  1.00  0.00     0.014 A 
ATOM     26  C   UNL A   1      35.577  34.439  29.000  1.00  0.00     0.014 A 
ATOM     27  C   UNL A   1      35.118  32.362  30.803  1.00  0.00     0.010 A 
ATOM     28  C   UNL A   1      36.648  33.698  29.489  1.00  0.00     0.010 A 
ATOM     29  C   UNL A   1      36.432  32.669  30.417  1.00  0.00    -0.014 A 
BRANCH  29  30
ATOM     30  C   UNL A   1      37.595  31.966  31.014  1.00  0.00     0.031 A 
ATOM     31  C   UNL A   1      38.052  32.318  32.405  1.00  0.00     0.074 A 
ATOM     32  C   UNL A   1      38.268  31.047  30.295  1.00  0.00     0.049 A 
ATOM     33  N   UNL A   1      39.072  31.858  33.087  1.00  0.00    -0.248 NA
ATOM     34  C   UNL A   1      37.275  33.348  33.114  1.00  0.00     0.031 C 
ATOM     35  C   UNL A   1      37.954  30.650  28.923  1.00  0.00     0.029 A 
ATOM     36  N   UNL A   1      39.360  30.282  30.622  1.00  0.00    -0.354 N 
ATOM     37  C   UNL A   1      39.065  32.552  34.290  1.00  0.00     0.074 A 
ATOM     38  C   UNL A   1      37.987  33.512  34.219  1.00  0.00     0.031 C 
ATOM     39  C   UNL A   1      38.813  29.694  28.534  1.00  0.00     0.029 A 
ATOM     40  C   UNL A   1      39.762  29.439  29.614  1.00  0.00     0.049 A 
ATOM     41  H   UNL A   1      39.813  30.333  31.494  1.00  0.00     0.167 HD
ATOM     42  C   UNL A   1      39.865  32.384  35.370  1.00  0.00     0.037 A 
ATOM     43  C   UNL A   1      40.783  28.562  29.569  1.00  0.00     0.037 A 
ATOM     44  C   UNL A   1      40.925  31.413  35.445  1.00  0.00     0.049 A 
ATOM     45  C   UNL A   1      41.662  28.398  30.781  1.00  0.00     0.074 A 
ATOM     46  C   UNL A   1      41.767  31.133  36.506  1.00  0.00     0.029 A 
ATOM     47  N   UNL A   1      41.288  30.562  34.411  1.00  0.00    -0.354 N 
ATOM     48  N   UNL A   1      41.608  29.015  31.937  1.00  0.00    -0.248 NA
ATOM     49  C   UNL A   1      42.735  27.399  30.685  1.00  0.00     0.031 C 
ATOM     50  C   UNL A   1      42.675  30.151  36.097  1.00  0.00     0.029 A 
ATOM     51  C   UNL A   1      42.353  29.766  34.805  1.00  0.00     0.049 A 
ATOM     52  H   UNL A   1      40.854  30.527  33.528  1.00  0.00     0.167 HD
ATOM     53  C   UNL A   1      42.608  28.450  32.719  1.00  0.00     0.074 A 
ATOM     54  C   UNL A   1      43.244  27.434  31.907  1.00  0.00     0.031 C 
ATOM     55  C   UNL A   1      42.965  28.745  33.994  1.00  0.00     0.037 A 
BRANCH  42  56
ATOM     56  C   UNL A   1      39.622  33.273  36.558  1.00  0.00     0.064 A 
ATOM     57  C   UNL A   1      38.697  32.932  37.559  1.00  0.00     0.173 A 
ATOM     58  C   UNL A   1      40.335  34.471  36.710  1.00  0.00     0.173 A 
ATOM     59  F   UNL A   1      37.977  31.804  37.458  1.00  0.00    -0.203 F 
ATOM     60  C   UNL A   1      38.469  33.775  38.644  1.00  0.00     0.198 A 
ATOM     61  C   UNL A   1      40.132  35.293  37.816  1.00  0.00     0.198 A 
ATOM     62  F   UNL A   1      41.235  34.845  35.788  1.00  0.00    -0.203 F 
ATOM     63  F   UNL A   1      37.536  33.458  39.552  1.00  0.00    -0.200 F 
ATOM     64  C   UNL A   1      39.192  34.950  38.776  1.00  0.00     0.200 A 
ATOM     65  F   UNL A   1      40.844  36.421  37.950  1.00  0.00    -0.200 F 
ATOM     66  F   UNL A   1      38.977  35.757  39.824  1.00  0.00    -0.200 F 
ENDBRANCH  42  56
BRANCH  43  67
ATOM     67  C   UNL A   1      41.008  27.741  28.349  1.00  0.00     0.064 A 
ATOM     68  C   UNL A   1      40.358  26.509  28.180  1.00  0.00     0.173 A 
ATOM     69  C   UNL A   1      41.886  28.159  27.340  1.00  0.00     0.173 A 
ATOM     70  F   UNL A   1      39.523  26.057  29.127  1.00  0.00    -0.203 F 
ATOM     71  C   UNL A   1      40.604  25.713  27.064  1.00  0.00     0.198 A 
ATOM     72  C   UNL A   1      42.105  27.377  26.207  1.00  0.00     0.198 A 
ATOM     73  F   UNL A   1      42.526  29.331  27.447  1.00  0.00    -0.203 F 
ATOM     74  F   UNL A   1      40.014  24.514  26.956  1.00  0.00    -0.200 F 
ATOM     75  C   UNL A   1      41.472  26.149  26.075  1.00  0.00     0.200 A 
ATOM     76  F   UNL A   1      42.931  27.810  25.245  1.00  0.00    -0.200 F 
ATOM     77  F   UNL A   1      41.707  25.384  25.000  1.00  0.00    -0.200 F 
ENDBRANCH  43  67
BRANCH  55  78
ATOM     78  C   UNL A   1      44.046  27.906  34.617  1.00  0.00     0.064 A 
ATOM     79  C   UNL A   1      43.766  26.716  35.303  1.00  0.00     0.173 A 
ATOM     80  C   UNL A   1      45.390  28.299  34.509  1.00  0.00     0.173 A 
ATOM     81  F   UNL A   1      42.498  26.300  35.445  1.00  0.00    -0.203 F 
ATOM     82  C   UNL A   1      44.785  25.975  35.897  1.00  0.00     0.198 A 
ATOM     83  C   UNL A   1      46.409  27.535  35.070  1.00  0.00     0.198 A 
ATOM     84  F   UNL A   1      45.717  29.423  33.854  1.00  0.00    -0.203 F 
ATOM     85  F   UNL A   1      44.486  24.878  36.607  1.00  0.00    -0.200 F 
ATOM     86  C   UNL A   1      46.106  26.381  35.775  1.00  0.00     0.200 A 
ATOM     87  F   UNL A   1      47.686  27.921  34.934  1.00  0.00    -0.200 F 
ATOM     88  F   UNL A   1      47.084  25.667  36.346  1.00  0.00    -0.200 F 
ENDBRANCH  55  78
ENDBRANCH  29  30
ENDBRANCH  21  24
ENDBRANCH  19  20
ENDBRANCH  18  19
ENDBRANCH   1  18
TORSDOF 13
ENDMDL
