MODEL 1
REMARK VINA RESULT:     -13.9      0.000      0.000
REMARK SMILES Cc1ccc(C(=O)NCCCNC(=O)c2ccc(-c3c4nc(c(-c5c(F)c(F)c(F)c(F)c5F)c5ccc([nH]5)c(-c5c(F)c(F)c(F)c(F)c5F)c5nc(c(-c6c(F)c(F)c(F)c(F)c6F)c6ccc3[nH]6)C=C5)C=C4)cc2)cc1N1C(=O)/C(=C/c2ccc([N+](=O)[O-])cc2)SC1=S
REMARK SMILES IDX 9 1 8 2 6 3 7 4 5 6 1 7 2 8 3 9 79 10 4 11 78 12 80 13 81 14
REMARK SMILES IDX 95 15 82 16 83 17 94 18 96 19 84 20 85 21 86 22 93 23 87 24
REMARK SMILES IDX 92 25 88 26 89 27 90 28 91 29 10 30 11 31 12 32 13 33 14 35
REMARK SMILES IDX 15 36 16 37 77 38 17 39 76 40 18 41 19 42 20 43 70 44 21 45
REMARK SMILES IDX 75 46 69 47 71 48 22 49 74 50 68 51 67 52 23 54 55 55 35 56
REMARK SMILES IDX 54 57 36 58 39 59 53 60 72 61 37 62 38 63 52 65 73 66 40 67
REMARK SMILES IDX 24 68 25 69 33 70 26 71 27 72 31 73 34 74 28 75 29 76 32 77
REMARK SMILES IDX 30 78 56 79 57 80 65 81 58 82 59 83 63 84 66 85 60 86 61 87
REMARK SMILES IDX 64 88 62 89 41 90 42 91 50 92 43 93 44 94 48 95 51 96 45 97
REMARK SMILES IDX 46 98 49 99 47 100
REMARK H PARENT 8 5 12 34 71 53 39 64
REMARK Flexibility Score: inf
ROOT
ATOM      1  C   UNL A   1      31.663  29.756  26.024  1.00  0.00     0.118 C 
ENDROOT
BRANCH   1   2
ATOM      2  N   UNL A   1      31.311  29.888  24.617  1.00  0.00    -0.352 N 
ATOM      3  C   UNL A   1      31.028  29.008  23.601  1.00  0.00     0.251 C 
ATOM      4  O   UNL A   1      30.705  29.518  22.525  1.00  0.00    -0.269 OA
ATOM      5  H   UNL A   1      31.266  30.827  24.326  1.00  0.00     0.163 HD
BRANCH   3   6
ATOM      6  C   UNL A   1      31.098  27.516  23.690  1.00  0.00     0.041 A 
ATOM      7  C   UNL A   1      31.061  23.159  23.641  1.00  0.00     0.046 C 
ATOM      8  C   UNL A   1      31.116  24.660  23.659  1.00  0.00    -0.027 A 
ATOM      9  C   UNL A   1      30.106  25.381  23.010  1.00  0.00     0.006 A 
ATOM     10  C   UNL A   1      32.117  25.386  24.318  1.00  0.00     0.054 A 
ATOM     11  C   UNL A   1      30.109  26.783  23.012  1.00  0.00     0.014 A 
ATOM     12  C   UNL A   1      32.087  26.795  24.347  1.00  0.00     0.041 A 
BRANCH  10  13
ATOM     13  N   UNL A   1      33.257  24.756  24.874  1.00  0.00    -0.261 N 
ATOM     14  C   UNL A   1      34.438  24.697  24.143  1.00  0.00     0.270 C 
ATOM     15  C   UNL A   1      33.203  24.034  26.057  1.00  0.00     0.152 C 
ATOM     16  O   UNL A   1      34.688  25.243  23.090  1.00  0.00    -0.268 OA
ATOM     17  C   UNL A   1      35.384  23.770  24.834  1.00  0.00     0.081 C 
ATOM     18  S   UNL A   1      34.774  23.313  26.372  1.00  0.00    -0.054 SA
ATOM     19  S   UNL A   1      31.906  23.796  27.085  1.00  0.00    -0.051 S 
ATOM     20  C   UNL A   1      36.501  23.327  24.244  1.00  0.00     0.029 C 
BRANCH  20  21
ATOM     21  C   UNL A   1      37.464  22.407  24.855  1.00  0.00    -0.024 A 
ATOM     22  C   UNL A   1      37.445  21.036  24.564  1.00  0.00     0.015 A 
ATOM     23  C   UNL A   1      38.425  22.917  25.736  1.00  0.00     0.015 A 
ATOM     24  C   UNL A   1      38.408  20.185  25.118  1.00  0.00     0.086 A 
ATOM     25  C   UNL A   1      39.390  22.078  26.293  1.00  0.00     0.086 A 
ATOM     26  C   UNL A   1      39.390  20.715  25.967  1.00  0.00     0.269 A 
BRANCH  26  27
ATOM     27  N   UNL A   1      40.445  19.844  26.499  1.00  0.00     0.062 N 
ATOM     28  O   UNL A   1      40.747  19.967  27.695  1.00  0.00    -0.258 OA
ATOM     29  O   UNL A   1      40.962  19.026  25.724  1.00  0.00    -0.258 OA
ENDBRANCH  26  27
ENDBRANCH  20  21
ENDBRANCH  10  13
ENDBRANCH   3   6
ENDBRANCH   1   2
BRANCH   1  30
ATOM     30  C   UNL A   1      33.149  30.011  26.277  1.00  0.00     0.042 C 
BRANCH  30  31
ATOM     31  C   UNL A   1      33.523  29.878  27.748  1.00  0.00     0.118 C 
BRANCH  31  32
ATOM     32  N   UNL A   1      34.172  31.062  28.318  1.00  0.00    -0.352 N 
ATOM     33  C   UNL A   1      35.483  31.194  28.751  1.00  0.00     0.251 C 
ATOM     34  H   UNL A   1      33.606  31.863  28.403  1.00  0.00     0.163 HD
ATOM     35  O   UNL A   1      35.900  32.251  29.207  1.00  0.00    -0.269 OA
BRANCH  33  36
ATOM     36  C   UNL A   1      36.398  30.054  28.530  1.00  0.00     0.039 A 
ATOM     37  C   UNL A   1      36.805  29.327  29.652  1.00  0.00     0.014 A 
ATOM     38  C   UNL A   1      37.095  29.975  27.328  1.00  0.00     0.014 A 
ATOM     39  C   UNL A   1      38.072  28.753  29.651  1.00  0.00     0.010 A 
ATOM     40  C   UNL A   1      38.390  29.499  27.362  1.00  0.00     0.010 A 
ATOM     41  C   UNL A   1      38.902  28.958  28.548  1.00  0.00    -0.014 A 
BRANCH  41  42
ATOM     42  C   UNL A   1      40.334  28.690  28.583  1.00  0.00     0.031 A 
ATOM     43  C   UNL A   1      40.835  27.392  28.096  1.00  0.00     0.074 A 
ATOM     44  C   UNL A   1      41.210  29.606  29.055  1.00  0.00     0.049 A 
ATOM     45  N   UNL A   1      41.859  26.783  28.592  1.00  0.00    -0.248 NA
ATOM     46  C   UNL A   1      40.179  26.649  27.029  1.00  0.00     0.031 C 
ATOM     47  C   UNL A   1      42.667  29.545  28.966  1.00  0.00     0.029 A 
ATOM     48  N   UNL A   1      40.959  30.721  29.874  1.00  0.00    -0.354 N 
ATOM     49  C   UNL A   1      42.151  25.719  27.769  1.00  0.00     0.074 A 
ATOM     50  C   UNL A   1      41.039  25.641  26.849  1.00  0.00     0.031 C 
ATOM     51  C   UNL A   1      43.197  30.355  29.896  1.00  0.00     0.029 A 
ATOM     52  C   UNL A   1      42.105  30.877  30.693  1.00  0.00     0.049 A 
ATOM     53  H   UNL A   1      40.148  31.280  29.878  1.00  0.00     0.167 HD
ATOM     54  C   UNL A   1      43.366  25.105  27.871  1.00  0.00     0.037 A 
ATOM     55  C   UNL A   1      42.039  30.848  32.057  1.00  0.00     0.037 A 
ATOM     56  C   UNL A   1      44.183  25.725  28.912  1.00  0.00     0.049 A 
ATOM     57  C   UNL A   1      42.849  29.743  32.683  1.00  0.00     0.074 A 
ATOM     58  C   UNL A   1      45.166  26.700  28.852  1.00  0.00     0.029 A 
ATOM     59  N   UNL A   1      43.827  25.605  30.250  1.00  0.00    -0.354 N 
ATOM     60  N   UNL A   1      43.324  28.732  32.014  1.00  0.00    -0.248 NA
ATOM     61  C   UNL A   1      43.121  29.646  34.115  1.00  0.00     0.031 C 
ATOM     62  C   UNL A   1      45.376  27.194  30.160  1.00  0.00     0.029 A 
ATOM     63  C   UNL A   1      44.532  26.513  31.020  1.00  0.00     0.049 A 
ATOM     64  H   UNL A   1      43.167  24.963  30.601  1.00  0.00     0.167 HD
ATOM     65  C   UNL A   1      43.871  27.829  32.886  1.00  0.00     0.074 A 
ATOM     66  C   UNL A   1      43.761  28.466  34.184  1.00  0.00     0.031 C 
ATOM     67  C   UNL A   1      44.329  26.615  32.459  1.00  0.00     0.037 A 
BRANCH  54  68
ATOM     68  C   UNL A   1      43.927  24.173  26.818  1.00  0.00     0.064 A 
ATOM     69  C   UNL A   1      43.523  22.820  26.758  1.00  0.00     0.173 A 
ATOM     70  C   UNL A   1      44.905  24.533  25.874  1.00  0.00     0.173 A 
ATOM     71  F   UNL A   1      42.508  22.357  27.499  1.00  0.00    -0.203 F 
ATOM     72  C   UNL A   1      44.149  21.885  25.930  1.00  0.00     0.198 A 
ATOM     73  C   UNL A   1      45.574  23.588  25.088  1.00  0.00     0.198 A 
ATOM     74  F   UNL A   1      45.205  25.817  25.640  1.00  0.00    -0.203 F 
ATOM     75  F   UNL A   1      43.728  20.612  25.929  1.00  0.00    -0.200 F 
ATOM     76  C   UNL A   1      45.205  22.259  25.128  1.00  0.00     0.200 A 
ATOM     77  F   UNL A   1      46.577  23.977  24.289  1.00  0.00    -0.200 F 
ATOM     78  F   UNL A   1      45.842  21.353  24.374  1.00  0.00    -0.200 F 
ENDBRANCH  54  68
BRANCH  55  79
ATOM     79  C   UNL A   1      40.736  31.339  32.571  1.00  0.00     0.064 A 
ATOM     80  C   UNL A   1      40.433  32.697  32.364  1.00  0.00     0.173 A 
ATOM     81  C   UNL A   1      39.674  30.452  32.781  1.00  0.00     0.173 A 
ATOM     82  F   UNL A   1      41.422  33.585  32.186  1.00  0.00    -0.203 F 
ATOM     83  C   UNL A   1      39.121  33.111  32.165  1.00  0.00     0.198 A 
ATOM     84  C   UNL A   1      38.359  30.880  32.609  1.00  0.00     0.198 A 
ATOM     85  F   UNL A   1      39.908  29.153  33.010  1.00  0.00    -0.203 F 
ATOM     86  F   UNL A   1      38.868  34.374  31.792  1.00  0.00    -0.200 F 
ATOM     87  C   UNL A   1      38.089  32.190  32.240  1.00  0.00     0.200 A 
ATOM     88  F   UNL A   1      37.356  29.994  32.693  1.00  0.00    -0.200 F 
ATOM     89  F   UNL A   1      36.844  32.557  31.904  1.00  0.00    -0.200 F 
ENDBRANCH  55  79
BRANCH  67  90
ATOM     90  C   UNL A   1      44.724  25.469  33.355  1.00  0.00     0.064 A 
ATOM     91  C   UNL A   1      46.024  24.944  33.428  1.00  0.00     0.173 A 
ATOM     92  C   UNL A   1      43.797  24.930  34.278  1.00  0.00     0.173 A 
ATOM     93  F   UNL A   1      47.030  25.468  32.713  1.00  0.00    -0.203 F 
ATOM     94  C   UNL A   1      46.351  23.892  34.287  1.00  0.00     0.198 A 
ATOM     95  C   UNL A   1      44.141  23.922  35.177  1.00  0.00     0.198 A 
ATOM     96  F   UNL A   1      42.536  25.381  34.349  1.00  0.00    -0.203 F 
ATOM     97  F   UNL A   1      47.592  23.386  34.275  1.00  0.00    -0.200 F 
ATOM     98  C   UNL A   1      45.412  23.384  35.165  1.00  0.00     0.200 A 
ATOM     99  F   UNL A   1      43.237  23.485  36.066  1.00  0.00    -0.200 F 
ATOM    100  F   UNL A   1      45.738  22.399  36.012  1.00  0.00    -0.200 F 
ENDBRANCH  67  90
ENDBRANCH  41  42
ENDBRANCH  33  36
ENDBRANCH  31  32
ENDBRANCH  30  31
ENDBRANCH   1  30
TORSDOF 13
ENDMDL
MODEL 2
REMARK VINA RESULT:     -13.7      3.085      9.973
REMARK SMILES Cc1ccc(C(=O)NCCCNC(=O)c2ccc(-c3c4nc(c(-c5c(F)c(F)c(F)c(F)c5F)c5ccc([nH]5)c(-c5c(F)c(F)c(F)c(F)c5F)c5nc(c(-c6c(F)c(F)c(F)c(F)c6F)c6ccc3[nH]6)C=C5)C=C4)cc2)cc1N1C(=O)/C(=C/c2ccc([N+](=O)[O-])cc2)SC1=S
REMARK SMILES IDX 9 1 8 2 6 3 7 4 5 6 1 7 2 8 3 9 79 10 4 11 78 12 80 13 81 14
REMARK SMILES IDX 95 15 82 16 83 17 94 18 96 19 84 20 85 21 86 22 93 23 87 24
REMARK SMILES IDX 92 25 88 26 89 27 90 28 91 29 10 30 11 31 12 32 13 33 14 35
REMARK SMILES IDX 15 36 16 37 77 38 17 39 76 40 18 41 19 42 20 43 70 44 21 45
REMARK SMILES IDX 75 46 69 47 71 48 22 49 74 50 68 51 67 52 23 54 55 55 35 56
REMARK SMILES IDX 54 57 36 58 39 59 53 60 72 61 37 62 38 63 52 65 73 66 40 67
REMARK SMILES IDX 24 68 25 69 33 70 26 71 27 72 31 73 34 74 28 75 29 76 32 77
REMARK SMILES IDX 30 78 56 79 57 80 65 81 58 82 59 83 63 84 66 85 60 86 61 87
REMARK SMILES IDX 64 88 62 89 41 90 42 91 50 92 43 93 44 94 48 95 51 96 45 97
REMARK SMILES IDX 46 98 49 99 47 100
REMARK H PARENT 8 5 12 34 71 53 39 64
REMARK Flexibility Score: inf
ROOT
ATOM      1  C   UNL A   1      37.478  22.110  25.428  1.00  0.00     0.118 C 
ENDROOT
BRANCH   1   2
ATOM      2  N   UNL A   1      36.998  22.417  24.089  1.00  0.00    -0.352 N 
ATOM      3  C   UNL A   1      35.815  22.877  23.564  1.00  0.00     0.251 C 
ATOM      4  O   UNL A   1      35.810  23.077  22.346  1.00  0.00    -0.269 OA
ATOM      5  H   UNL A   1      37.680  22.258  23.397  1.00  0.00     0.163 HD
BRANCH   3   6
ATOM      6  C   UNL A   1      34.556  23.130  24.332  1.00  0.00     0.041 A 
ATOM      7  C   UNL A   1      31.024  23.622  26.837  1.00  0.00     0.046 C 
ATOM      8  C   UNL A   1      32.246  23.494  25.971  1.00  0.00    -0.027 A 
ATOM      9  C   UNL A   1      33.081  22.383  26.141  1.00  0.00     0.006 A 
ATOM     10  C   UNL A   1      32.583  24.420  24.976  1.00  0.00     0.054 A 
ATOM     11  C   UNL A   1      34.224  22.216  25.346  1.00  0.00     0.014 A 
ATOM     12  C   UNL A   1      33.713  24.221  24.157  1.00  0.00     0.041 A 
BRANCH  10  13
ATOM     13  N   UNL A   1      31.890  25.646  24.826  1.00  0.00    -0.261 N 
ATOM     14  C   UNL A   1      30.766  25.708  24.009  1.00  0.00     0.270 C 
ATOM     15  C   UNL A   1      32.383  26.843  25.323  1.00  0.00     0.152 C 
ATOM     16  O   UNL A   1      30.186  24.789  23.472  1.00  0.00    -0.268 OA
ATOM     17  C   UNL A   1      30.388  27.141  23.822  1.00  0.00     0.081 C 
ATOM     18  S   UNL A   1      31.312  28.155  24.855  1.00  0.00    -0.054 SA
ATOM     19  S   UNL A   1      33.772  27.120  26.213  1.00  0.00    -0.051 S 
ATOM     20  C   UNL A   1      29.500  27.526  22.896  1.00  0.00     0.029 C 
BRANCH  20  21
ATOM     21  C   UNL A   1      29.095  28.912  22.648  1.00  0.00    -0.024 A 
ATOM     22  C   UNL A   1      27.972  29.465  23.277  1.00  0.00     0.015 A 
ATOM     23  C   UNL A   1      29.859  29.695  21.774  1.00  0.00     0.015 A 
ATOM     24  C   UNL A   1      27.636  30.807  23.066  1.00  0.00     0.086 A 
ATOM     25  C   UNL A   1      29.533  31.034  21.558  1.00  0.00     0.086 A 
ATOM     26  C   UNL A   1      28.431  31.592  22.219  1.00  0.00     0.269 A 
BRANCH  26  27
ATOM     27  N   UNL A   1      28.127  33.018  22.044  1.00  0.00     0.062 N 
ATOM     28  O   UNL A   1      27.578  33.366  20.990  1.00  0.00    -0.258 OA
ATOM     29  O   UNL A   1      28.427  33.788  22.968  1.00  0.00    -0.258 OA
ENDBRANCH  26  27
ENDBRANCH  20  21
ENDBRANCH  10  13
ENDBRANCH   3   6
ENDBRANCH   1   2
BRANCH   1  30
ATOM     30  C   UNL A   1      38.161  23.307  26.089  1.00  0.00     0.042 C 
BRANCH  30  31
ATOM     31  C   UNL A   1      39.488  22.937  26.740  1.00  0.00     0.118 C 
BRANCH  31  32
ATOM     32  N   UNL A   1      40.205  21.844  26.077  1.00  0.00    -0.352 N 
ATOM     33  C   UNL A   1      41.574  21.636  26.009  1.00  0.00     0.251 C 
ATOM     34  H   UNL A   1      39.644  21.173  25.626  1.00  0.00     0.163 HD
ATOM     35  O   UNL A   1      42.044  20.670  25.422  1.00  0.00    -0.269 OA
BRANCH  33  36
ATOM     36  C   UNL A   1      42.447  22.552  26.773  1.00  0.00     0.039 A 
ATOM     37  C   UNL A   1      42.607  22.302  28.139  1.00  0.00     0.014 A 
ATOM     38  C   UNL A   1      42.762  23.794  26.227  1.00  0.00     0.014 A 
ATOM     39  C   UNL A   1      42.803  23.379  28.997  1.00  0.00     0.010 A 
ATOM     40  C   UNL A   1      42.850  24.873  27.083  1.00  0.00     0.010 A 
ATOM     41  C   UNL A   1      42.793  24.671  28.467  1.00  0.00    -0.014 A 
BRANCH  41  42
ATOM     42  C   UNL A   1      42.658  25.859  29.299  1.00  0.00     0.031 A 
ATOM     43  C   UNL A   1      41.464  26.712  29.148  1.00  0.00     0.074 A 
ATOM     44  C   UNL A   1      43.606  26.197  30.202  1.00  0.00     0.049 A 
ATOM     45  N   UNL A   1      41.470  27.994  29.296  1.00  0.00    -0.248 NA
ATOM     46  C   UNL A   1      40.164  26.179  28.764  1.00  0.00     0.031 C 
ATOM     47  C   UNL A   1      43.505  27.238  31.224  1.00  0.00     0.029 A 
ATOM     48  N   UNL A   1      44.943  25.769  30.274  1.00  0.00    -0.354 N 
ATOM     49  C   UNL A   1      40.163  28.422  29.283  1.00  0.00     0.074 A 
ATOM     50  C   UNL A   1      39.394  27.264  28.884  1.00  0.00     0.031 C 
ATOM     51  C   UNL A   1      44.740  27.584  31.618  1.00  0.00     0.029 A 
ATOM     52  C   UNL A   1      45.683  26.864  30.786  1.00  0.00     0.049 A 
ATOM     53  H   UNL A   1      45.295  24.885  30.019  1.00  0.00     0.167 HD
ATOM     54  C   UNL A   1      39.861  29.672  29.741  1.00  0.00     0.037 A 
ATOM     55  C   UNL A   1      46.723  27.427  30.103  1.00  0.00     0.037 A 
ATOM     56  C   UNL A   1      41.064  30.376  30.181  1.00  0.00     0.049 A 
ATOM     57  C   UNL A   1      46.518  28.881  29.768  1.00  0.00     0.074 A 
ATOM     58  C   UNL A   1      41.636  30.526  31.433  1.00  0.00     0.029 A 
ATOM     59  N   UNL A   1      42.026  30.769  29.257  1.00  0.00    -0.354 N 
ATOM     60  N   UNL A   1      45.364  29.479  29.842  1.00  0.00    -0.248 NA
ATOM     61  C   UNL A   1      47.570  29.753  29.252  1.00  0.00     0.031 C 
ATOM     62  C   UNL A   1      42.965  30.979  31.259  1.00  0.00     0.029 A 
ATOM     63  C   UNL A   1      43.199  31.118  29.902  1.00  0.00     0.049 A 
ATOM     64  H   UNL A   1      41.891  30.796  28.282  1.00  0.00     0.167 HD
ATOM     65  C   UNL A   1      45.474  30.742  29.324  1.00  0.00     0.074 A 
ATOM     66  C   UNL A   1      46.883  30.882  29.010  1.00  0.00     0.031 C 
ATOM     67  C   UNL A   1      44.380  31.543  29.162  1.00  0.00     0.037 A 
BRANCH  54  68
ATOM     68  C   UNL A   1      38.459  30.122  30.092  1.00  0.00     0.064 A 
ATOM     69  C   UNL A   1      37.575  30.588  29.093  1.00  0.00     0.173 A 
ATOM     70  C   UNL A   1      37.941  30.172  31.399  1.00  0.00     0.173 A 
ATOM     71  F   UNL A   1      37.868  30.480  27.791  1.00  0.00    -0.203 F 
ATOM     72  C   UNL A   1      36.347  31.184  29.394  1.00  0.00     0.198 A 
ATOM     73  C   UNL A   1      36.741  30.821  31.708  1.00  0.00     0.198 A 
ATOM     74  F   UNL A   1      38.552  29.542  32.412  1.00  0.00    -0.203 F 
ATOM     75  F   UNL A   1      35.559  31.618  28.400  1.00  0.00    -0.200 F 
ATOM     76  C   UNL A   1      35.951  31.342  30.704  1.00  0.00     0.200 A 
ATOM     77  F   UNL A   1      36.357  30.936  32.986  1.00  0.00    -0.200 F 
ATOM     78  F   UNL A   1      34.800  31.963  30.997  1.00  0.00    -0.200 F 
ENDBRANCH  54  68
BRANCH  55  79
ATOM     79  C   UNL A   1      47.426  26.449  29.235  1.00  0.00     0.064 A 
ATOM     80  C   UNL A   1      47.101  26.454  27.867  1.00  0.00     0.173 A 
ATOM     81  C   UNL A   1      48.665  25.922  29.615  1.00  0.00     0.173 A 
ATOM     82  F   UNL A   1      45.911  26.925  27.461  1.00  0.00    -0.203 F 
ATOM     83  C   UNL A   1      48.056  26.141  26.907  1.00  0.00     0.198 A 
ATOM     84  C   UNL A   1      49.609  25.582  28.647  1.00  0.00     0.198 A 
ATOM     85  F   UNL A   1      49.015  25.869  30.908  1.00  0.00    -0.203 F 
ATOM     86  F   UNL A   1      47.782  26.323  25.607  1.00  0.00    -0.200 F 
ATOM     87  C   UNL A   1      49.326  25.752  27.300  1.00  0.00     0.200 A 
ATOM     88  F   UNL A   1      50.836  25.194  29.024  1.00  0.00    -0.200 F 
ATOM     89  F   UNL A   1      50.288  25.594  26.380  1.00  0.00    -0.200 F 
ENDBRANCH  55  79
BRANCH  67  90
ATOM     90  C   UNL A   1      44.355  32.839  28.393  1.00  0.00     0.064 A 
ATOM     91  C   UNL A   1      44.183  32.921  27.001  1.00  0.00     0.173 A 
ATOM     92  C   UNL A   1      44.390  34.078  29.076  1.00  0.00     0.173 A 
ATOM     93  F   UNL A   1      43.988  31.824  26.257  1.00  0.00    -0.203 F 
ATOM     94  C   UNL A   1      44.149  34.146  26.330  1.00  0.00     0.198 A 
ATOM     95  C   UNL A   1      44.293  35.299  28.410  1.00  0.00     0.198 A 
ATOM     96  F   UNL A   1      44.496  34.138  30.411  1.00  0.00    -0.203 F 
ATOM     97  F   UNL A   1      44.044  34.168  24.994  1.00  0.00    -0.200 F 
ATOM     98  C   UNL A   1      44.198  35.334  27.034  1.00  0.00     0.200 A 
ATOM     99  F   UNL A   1      44.277  36.441  29.112  1.00  0.00    -0.200 F 
ATOM    100  F   UNL A   1      44.129  36.506  26.391  1.00  0.00    -0.200 F 
ENDBRANCH  67  90
ENDBRANCH  41  42
ENDBRANCH  33  36
ENDBRANCH  31  32
ENDBRANCH  30  31
ENDBRANCH   1  30
TORSDOF 13
ENDMDL
MODEL 3
REMARK VINA RESULT:     -13.4      3.423     10.134
REMARK SMILES Cc1ccc(C(=O)NCCCNC(=O)c2ccc(-c3c4nc(c(-c5c(F)c(F)c(F)c(F)c5F)c5ccc([nH]5)c(-c5c(F)c(F)c(F)c(F)c5F)c5nc(c(-c6c(F)c(F)c(F)c(F)c6F)c6ccc3[nH]6)C=C5)C=C4)cc2)cc1N1C(=O)/C(=C/c2ccc([N+](=O)[O-])cc2)SC1=S
REMARK SMILES IDX 9 1 8 2 6 3 7 4 5 6 1 7 2 8 3 9 79 10 4 11 78 12 80 13 81 14
REMARK SMILES IDX 95 15 82 16 83 17 94 18 96 19 84 20 85 21 86 22 93 23 87 24
REMARK SMILES IDX 92 25 88 26 89 27 90 28 91 29 10 30 11 31 12 32 13 33 14 35
REMARK SMILES IDX 15 36 16 37 77 38 17 39 76 40 18 41 19 42 20 43 70 44 21 45
REMARK SMILES IDX 75 46 69 47 71 48 22 49 74 50 68 51 67 52 23 54 55 55 35 56
REMARK SMILES IDX 54 57 36 58 39 59 53 60 72 61 37 62 38 63 52 65 73 66 40 67
REMARK SMILES IDX 24 68 25 69 33 70 26 71 27 72 31 73 34 74 28 75 29 76 32 77
REMARK SMILES IDX 30 78 56 79 57 80 65 81 58 82 59 83 63 84 66 85 60 86 61 87
REMARK SMILES IDX 64 88 62 89 41 90 42 91 50 92 43 93 44 94 48 95 51 96 45 97
REMARK SMILES IDX 46 98 49 99 47 100
REMARK H PARENT 8 5 12 34 71 53 39 64
REMARK Flexibility Score: inf
ROOT
ATOM      1  C   UNL A   1      39.865  21.091  26.096  1.00  0.00     0.118 C 
ENDROOT
BRANCH   1   2
ATOM      2  N   UNL A   1      39.517  22.487  26.315  1.00  0.00    -0.352 N 
ATOM      3  C   UNL A   1      38.376  23.238  26.171  1.00  0.00     0.251 C 
ATOM      4  O   UNL A   1      38.459  24.416  26.526  1.00  0.00    -0.269 OA
ATOM      5  H   UNL A   1      40.278  23.019  26.641  1.00  0.00     0.163 HD
BRANCH   3   6
ATOM      6  C   UNL A   1      37.074  22.753  25.612  1.00  0.00     0.041 A 
ATOM      7  C   UNL A   1      33.379  20.991  24.121  1.00  0.00     0.046 C 
ATOM      8  C   UNL A   1      34.631  21.629  24.653  1.00  0.00    -0.027 A 
ATOM      9  C   UNL A   1      35.726  20.813  24.964  1.00  0.00     0.006 A 
ATOM     10  C   UNL A   1      34.773  23.011  24.833  1.00  0.00     0.054 A 
ATOM     11  C   UNL A   1      36.918  21.366  25.450  1.00  0.00     0.014 A 
ATOM     12  C   UNL A   1      35.990  23.559  25.285  1.00  0.00     0.041 A 
BRANCH  10  13
ATOM     13  N   UNL A   1      33.682  23.902  24.690  1.00  0.00    -0.261 N 
ATOM     14  C   UNL A   1      33.644  24.780  23.613  1.00  0.00     0.270 C 
ATOM     15  C   UNL A   1      32.722  24.064  25.678  1.00  0.00     0.152 C 
ATOM     16  O   UNL A   1      34.387  24.815  22.656  1.00  0.00    -0.268 OA
ATOM     17  C   UNL A   1      32.545  25.767  23.837  1.00  0.00     0.081 C 
ATOM     18  S   UNL A   1      31.594  25.322  25.196  1.00  0.00    -0.054 SA
ATOM     19  S   UNL A   1      32.574  23.267  27.141  1.00  0.00    -0.051 S 
ATOM     20  C   UNL A   1      32.423  26.875  23.094  1.00  0.00     0.029 C 
BRANCH  20  21
ATOM     21  C   UNL A   1      31.383  27.891  23.269  1.00  0.00    -0.024 A 
ATOM     22  C   UNL A   1      31.543  28.948  24.174  1.00  0.00     0.015 A 
ATOM     23  C   UNL A   1      30.214  27.803  22.503  1.00  0.00     0.015 A 
ATOM     24  C   UNL A   1      30.558  29.936  24.285  1.00  0.00     0.086 A 
ATOM     25  C   UNL A   1      29.227  28.784  22.604  1.00  0.00     0.086 A 
ATOM     26  C   UNL A   1      29.411  29.859  23.483  1.00  0.00     0.269 A 
BRANCH  26  27
ATOM     27  N   UNL A   1      28.404  30.926  23.541  1.00  0.00     0.062 N 
ATOM     28  O   UNL A   1      28.805  32.093  23.658  1.00  0.00    -0.258 OA
ATOM     29  O   UNL A   1      27.212  30.599  23.458  1.00  0.00    -0.258 OA
ENDBRANCH  26  27
ENDBRANCH  20  21
ENDBRANCH  10  13
ENDBRANCH   3   6
ENDBRANCH   1   2
BRANCH   1  30
ATOM     30  C   UNL A   1      41.068  20.654  26.933  1.00  0.00     0.042 C 
BRANCH  30  31
ATOM     31  C   UNL A   1      42.352  21.364  26.526  1.00  0.00     0.118 C 
BRANCH  31  32
ATOM     32  N   UNL A   1      43.060  20.742  25.404  1.00  0.00    -0.352 N 
ATOM     33  C   UNL A   1      44.116  21.257  24.667  1.00  0.00     0.251 C 
ATOM     34  H   UNL A   1      42.748  19.846  25.141  1.00  0.00     0.163 HD
ATOM     35  O   UNL A   1      44.623  20.624  23.750  1.00  0.00    -0.269 OA
BRANCH  33  36
ATOM     36  C   UNL A   1      44.695  22.546  25.104  1.00  0.00     0.039 A 
ATOM     37  C   UNL A   1      45.581  22.522  26.184  1.00  0.00     0.014 A 
ATOM     38  C   UNL A   1      44.082  23.729  24.701  1.00  0.00     0.014 A 
ATOM     39  C   UNL A   1      45.626  23.621  27.036  1.00  0.00     0.010 A 
ATOM     40  C   UNL A   1      44.045  24.776  25.599  1.00  0.00     0.010 A 
ATOM     41  C   UNL A   1      44.756  24.687  26.802  1.00  0.00    -0.014 A 
BRANCH  41  42
ATOM     42  C   UNL A   1      44.490  25.716  27.799  1.00  0.00     0.031 A 
ATOM     43  C   UNL A   1      43.127  26.268  27.917  1.00  0.00     0.074 A 
ATOM     44  C   UNL A   1      45.467  26.175  28.614  1.00  0.00     0.049 A 
ATOM     45  N   UNL A   1      42.871  27.492  28.238  1.00  0.00    -0.248 NA
ATOM     46  C   UNL A   1      41.935  25.482  27.630  1.00  0.00     0.031 C 
ATOM     47  C   UNL A   1      45.295  27.050  29.773  1.00  0.00     0.029 A 
ATOM     48  N   UNL A   1      46.860  26.075  28.458  1.00  0.00    -0.354 N 
ATOM     49  C   UNL A   1      41.515  27.593  28.448  1.00  0.00     0.074 A 
ATOM     50  C   UNL A   1      40.971  26.334  27.994  1.00  0.00     0.031 C 
ATOM     51  C   UNL A   1      46.467  27.639  30.053  1.00  0.00     0.029 A 
ATOM     52  C   UNL A   1      47.408  27.256  29.019  1.00  0.00     0.049 A 
ATOM     53  H   UNL A   1      47.356  25.332  28.043  1.00  0.00     0.167 HD
ATOM     54  C   UNL A   1      41.017  28.680  29.107  1.00  0.00     0.037 A 
ATOM     55  C   UNL A   1      48.179  28.120  28.294  1.00  0.00     0.037 A 
ATOM     56  C   UNL A   1      42.086  29.602  29.484  1.00  0.00     0.049 A 
ATOM     57  C   UNL A   1      47.606  29.509  28.190  1.00  0.00     0.074 A 
ATOM     58  C   UNL A   1      42.797  29.754  30.664  1.00  0.00     0.029 A 
ATOM     59  N   UNL A   1      42.783  30.308  28.509  1.00  0.00    -0.354 N 
ATOM     60  N   UNL A   1      46.373  29.802  28.489  1.00  0.00    -0.248 NA
ATOM     61  C   UNL A   1      48.345  30.656  27.670  1.00  0.00     0.031 C 
ATOM     62  C   UNL A   1      43.948  30.528  30.388  1.00  0.00     0.029 A 
ATOM     63  C   UNL A   1      43.934  30.859  29.044  1.00  0.00     0.049 A 
ATOM     64  H   UNL A   1      42.497  30.403  27.572  1.00  0.00     0.167 HD
ATOM     65  C   UNL A   1      46.119  31.101  28.139  1.00  0.00     0.074 A 
ATOM     66  C   UNL A   1      47.396  31.607  27.673  1.00  0.00     0.031 C 
ATOM     67  C   UNL A   1      44.862  31.629  28.227  1.00  0.00     0.037 A 
BRANCH  54  68
ATOM     68  C   UNL A   1      39.621  28.742  29.689  1.00  0.00     0.064 A 
ATOM     69  C   UNL A   1      38.519  29.129  28.894  1.00  0.00     0.173 A 
ATOM     70  C   UNL A   1      39.308  28.487  31.036  1.00  0.00     0.173 A 
ATOM     71  F   UNL A   1      38.629  29.276  27.567  1.00  0.00    -0.203 F 
ATOM     72  C   UNL A   1      37.254  29.378  29.431  1.00  0.00     0.198 A 
ATOM     73  C   UNL A   1      38.059  28.794  31.588  1.00  0.00     0.198 A 
ATOM     74  F   UNL A   1      40.181  27.879  31.849  1.00  0.00    -0.203 F 
ATOM     75  F   UNL A   1      36.252  29.756  28.624  1.00  0.00    -0.200 F 
ATOM     76  C   UNL A   1      37.035  29.255  30.786  1.00  0.00     0.200 A 
ATOM     77  F   UNL A   1      37.855  28.636  32.903  1.00  0.00    -0.200 F 
ATOM     78  F   UNL A   1      35.838  29.548  31.311  1.00  0.00    -0.200 F 
ENDBRANCH  54  68
BRANCH  55  79
ATOM     79  C   UNL A   1      48.939  27.434  27.219  1.00  0.00     0.064 A 
ATOM     80  C   UNL A   1      48.382  27.448  25.928  1.00  0.00     0.173 A 
ATOM     81  C   UNL A   1      50.320  27.238  27.338  1.00  0.00     0.173 A 
ATOM     82  F   UNL A   1      47.058  27.606  25.770  1.00  0.00    -0.203 F 
ATOM     83  C   UNL A   1      49.196  27.476  24.801  1.00  0.00     0.198 A 
ATOM     84  C   UNL A   1      51.128  27.238  26.203  1.00  0.00     0.198 A 
ATOM     85  F   UNL A   1      50.898  27.190  28.546  1.00  0.00    -0.203 F 
ATOM     86  F   UNL A   1      48.653  27.670  23.590  1.00  0.00    -0.200 F 
ATOM     87  C   UNL A   1      50.572  27.420  24.944  1.00  0.00     0.200 A 
ATOM     88  F   UNL A   1      52.460  27.171  26.337  1.00  0.00    -0.200 F 
ATOM     89  F   UNL A   1      51.360  27.596  23.875  1.00  0.00    -0.200 F 
ENDBRANCH  55  79
BRANCH  67  90
ATOM     90  C   UNL A   1      44.432  32.954  27.651  1.00  0.00     0.064 A 
ATOM     91  C   UNL A   1      44.035  33.137  26.317  1.00  0.00     0.173 A 
ATOM     92  C   UNL A   1      44.294  34.087  28.488  1.00  0.00     0.173 A 
ATOM     93  F   UNL A   1      43.977  32.108  25.459  1.00  0.00    -0.203 F 
ATOM     94  C   UNL A   1      43.626  34.381  25.829  1.00  0.00     0.198 A 
ATOM     95  C   UNL A   1      43.827  35.312  28.013  1.00  0.00     0.198 A 
ATOM     96  F   UNL A   1      44.588  34.032  29.795  1.00  0.00    -0.203 F 
ATOM     97  F   UNL A   1      43.315  34.515  24.532  1.00  0.00    -0.200 F 
ATOM     98  C   UNL A   1      43.516  35.466  26.678  1.00  0.00     0.200 A 
ATOM     99  F   UNL A   1      43.665  36.338  28.861  1.00  0.00    -0.200 F 
ATOM    100  F   UNL A   1      43.091  36.648  26.214  1.00  0.00    -0.200 F 
ENDBRANCH  67  90
ENDBRANCH  41  42
ENDBRANCH  33  36
ENDBRANCH  31  32
ENDBRANCH  30  31
ENDBRANCH   1  30
TORSDOF 13
ENDMDL
