MODEL 1
REMARK VINA RESULT:     -13.0      0.000      0.000
REMARK SMILES O=C(/C=C/c1ccc(S(=O)(=O)Nc2ccc3c(c2)OCCO3)cc1)NCCCNC(=O)c1ccc(-c2c3nc(c(-c4c(F)c(F)c(F)c(F)c4F)c4ccc([nH]4)c(-c4c(F)c(F)c(F)c(F)c4F)c4nc(c(-c5c(F)c(F)c(F)c(F)c5F)c5ccc2[nH]5)C=C4)C=C3)cc1
REMARK SMILES IDX 26 1 25 2 1 3 2 4 3 6 4 7 5 8 6 9 24 10 7 11 23 12 8 13 9 14
REMARK SMILES IDX 10 15 11 16 12 17 13 19 14 20 18 21 15 22 17 23 16 24 19 25
REMARK SMILES IDX 22 26 20 27 21 28 27 29 28 30 29 31 30 32 31 34 32 35 33 36
REMARK SMILES IDX 94 37 34 38 93 39 35 40 36 41 37 42 87 43 38 44 92 45 86 46
REMARK SMILES IDX 88 47 39 48 91 49 85 50 84 51 40 53 72 54 52 55 71 56 53 57
REMARK SMILES IDX 56 58 70 59 89 60 54 61 55 62 69 64 90 65 57 66 41 67 42 68
REMARK SMILES IDX 50 69 43 70 44 71 48 72 51 73 45 74 46 75 49 76 47 77 73 78
REMARK SMILES IDX 74 79 82 80 75 81 76 82 80 83 83 84 77 85 78 86 81 87 79 88
REMARK SMILES IDX 58 89 59 90 67 91 60 92 61 93 65 94 68 95 62 96 63 97 66 98
REMARK SMILES IDX 64 99
REMARK H PARENT 25 5 12 18 29 33 88 52 56 63
REMARK Flexibility Score: inf
ROOT
ATOM      1  C   UNL A   1      34.402  33.743  28.939  1.00  0.00     0.118 C 
ENDROOT
BRANCH   1   2
ATOM      2  N   UNL A   1      34.042  32.409  28.490  1.00  0.00    -0.352 N 
ATOM      3  O   UNL A   1      36.180  31.809  27.917  1.00  0.00    -0.270 OA
ATOM      4  C   UNL A   1      34.987  31.538  28.013  1.00  0.00     0.244 C 
ATOM      5  H   UNL A   1      33.101  32.124  28.529  1.00  0.00     0.163 HD
BRANCH   4   6
ATOM      6  C   UNL A   1      34.526  30.165  27.675  1.00  0.00     0.072 C 
ATOM      7  C   UNL A   1      33.303  29.804  27.251  1.00  0.00     0.014 C 
BRANCH   7   8
ATOM      8  C   UNL A   1      32.888  28.421  26.909  1.00  0.00    -0.025 A 
ATOM      9  C   UNL A   1      31.555  28.041  27.127  1.00  0.00     0.009 A 
ATOM     10  C   UNL A   1      33.762  27.455  26.387  1.00  0.00     0.009 A 
ATOM     11  C   UNL A   1      31.129  26.723  26.895  1.00  0.00     0.023 A 
ATOM     12  C   UNL A   1      33.327  26.151  26.102  1.00  0.00     0.023 A 
ATOM     13  C   UNL A   1      32.024  25.767  26.403  1.00  0.00     0.087 A 
BRANCH  13  14
ATOM     14  S   UNL A   1      31.452  24.084  26.211  1.00  0.00     0.261 S 
ATOM     15  O   UNL A   1      32.634  23.252  26.108  1.00  0.00    -0.201 OA
ATOM     16  O   UNL A   1      30.475  23.841  27.250  1.00  0.00    -0.201 OA
BRANCH  14  17
ATOM     17  N   UNL A   1      30.640  23.898  24.697  1.00  0.00    -0.279 N 
ATOM     18  H   UNL A   1      30.116  23.091  24.488  1.00  0.00     0.180 HD
BRANCH  17  19
ATOM     19  C   UNL A   1      30.768  24.976  23.760  1.00  0.00     0.053 A 
ATOM     20  C   UNL A   1      29.732  25.917  23.729  1.00  0.00     0.031 A 
ATOM     21  C   UNL A   1      31.934  25.172  23.029  1.00  0.00     0.077 A 
ATOM     22  C   UNL A   1      29.959  27.168  23.161  1.00  0.00     0.052 A 
ATOM     23  C   UNL A   1      32.188  26.441  22.531  1.00  0.00     0.163 A 
ATOM     24  C   UNL A   1      31.225  27.450  22.659  1.00  0.00     0.161 A 
ATOM     25  O   UNL A   1      33.458  26.662  22.070  1.00  0.00    -0.486 OA
ATOM     26  O   UNL A   1      31.531  28.769  22.428  1.00  0.00    -0.486 OA
ATOM     27  C   UNL A   1      33.770  28.051  21.902  1.00  0.00     0.271 C 
ATOM     28  C   UNL A   1      32.911  28.953  22.775  1.00  0.00     0.271 C 
ENDBRANCH  17  19
ENDBRANCH  14  17
ENDBRANCH  13  14
ENDBRANCH   7   8
ENDBRANCH   4   6
ENDBRANCH   1   2
BRANCH   1  29
ATOM     29  C   UNL A   1      33.278  34.756  28.748  1.00  0.00     0.042 C 
BRANCH  29  30
ATOM     30  C   UNL A   1      33.499  36.078  29.475  1.00  0.00     0.118 C 
BRANCH  30  31
ATOM     31  N   UNL A   1      32.530  36.320  30.536  1.00  0.00    -0.352 N 
ATOM     32  C   UNL A   1      32.528  35.887  31.841  1.00  0.00     0.251 C 
ATOM     33  H   UNL A   1      31.760  36.878  30.281  1.00  0.00     0.163 HD
ATOM     34  O   UNL A   1      31.553  36.100  32.555  1.00  0.00    -0.269 OA
BRANCH  32  35
ATOM     35  C   UNL A   1      33.684  35.139  32.382  1.00  0.00     0.039 A 
ATOM     36  C   UNL A   1      33.492  33.827  32.824  1.00  0.00     0.014 A 
ATOM     37  C   UNL A   1      34.948  35.726  32.459  1.00  0.00     0.014 A 
ATOM     38  C   UNL A   1      34.582  33.077  33.272  1.00  0.00     0.010 A 
ATOM     39  C   UNL A   1      36.045  34.958  32.841  1.00  0.00     0.010 A 
ATOM     40  C   UNL A   1      35.874  33.625  33.247  1.00  0.00    -0.014 A 
BRANCH  40  41
ATOM     41  C   UNL A   1      37.069  32.833  33.637  1.00  0.00     0.031 A 
ATOM     42  C   UNL A   1      37.769  33.125  34.934  1.00  0.00     0.074 A 
ATOM     43  C   UNL A   1      37.580  31.925  32.784  1.00  0.00     0.049 A 
ATOM     44  N   UNL A   1      38.910  32.667  35.383  1.00  0.00    -0.248 NA
ATOM     45  C   UNL A   1      37.109  34.084  35.833  1.00  0.00     0.031 C 
ATOM     46  C   UNL A   1      37.011  31.569  31.483  1.00  0.00     0.029 A 
ATOM     47  N   UNL A   1      38.710  31.149  32.875  1.00  0.00    -0.354 N 
ATOM     48  C   UNL A   1      39.117  33.301  36.602  1.00  0.00     0.074 A 
ATOM     49  C   UNL A   1      38.006  34.206  36.802  1.00  0.00     0.031 C 
ATOM     50  C   UNL A   1      37.791  30.644  30.901  1.00  0.00     0.029 A 
ATOM     51  C   UNL A   1      38.936  30.374  31.764  1.00  0.00     0.049 A 
ATOM     52  H   UNL A   1      39.302  31.149  33.662  1.00  0.00     0.167 HD
ATOM     53  C   UNL A   1      40.135  33.132  37.479  1.00  0.00     0.037 A 
ATOM     54  C   UNL A   1      39.961  29.553  31.467  1.00  0.00     0.037 A 
ATOM     55  C   UNL A   1      41.223  32.209  37.290  1.00  0.00     0.049 A 
ATOM     56  C   UNL A   1      41.084  29.389  32.455  1.00  0.00     0.074 A 
ATOM     57  C   UNL A   1      42.274  31.927  38.145  1.00  0.00     0.029 A 
ATOM     58  N   UNL A   1      41.398  31.414  36.166  1.00  0.00    -0.354 N 
ATOM     59  N   UNL A   1      41.248  29.959  33.625  1.00  0.00    -0.248 NA
ATOM     60  C   UNL A   1      42.165  28.464  32.084  1.00  0.00     0.031 C 
ATOM     61  C   UNL A   1      43.108  30.992  37.521  1.00  0.00     0.029 A 
ATOM     62  C   UNL A   1      42.548  30.654  36.300  1.00  0.00     0.049 A 
ATOM     63  H   UNL A   1      40.794  31.394  35.389  1.00  0.00     0.167 HD
ATOM     64  C   UNL A   1      42.426  29.437  34.143  1.00  0.00     0.074 A 
ATOM     65  C   UNL A   1      42.934  28.499  33.164  1.00  0.00     0.031 C 
ATOM     66  C   UNL A   1      43.029  29.708  35.326  1.00  0.00     0.037 A 
BRANCH  53  67
ATOM     67  C   UNL A   1      40.121  33.966  38.728  1.00  0.00     0.064 A 
ATOM     68  C   UNL A   1      40.770  35.207  38.791  1.00  0.00     0.173 A 
ATOM     69  C   UNL A   1      39.419  33.533  39.864  1.00  0.00     0.173 A 
ATOM     70  F   UNL A   1      41.465  35.661  37.736  1.00  0.00    -0.203 F 
ATOM     71  C   UNL A   1      40.744  35.971  39.955  1.00  0.00     0.198 A 
ATOM     72  C   UNL A   1      39.370  34.314  41.015  1.00  0.00     0.198 A 
ATOM     73  F   UNL A   1      38.776  32.356  39.855  1.00  0.00    -0.203 F 
ATOM     74  F   UNL A   1      41.415  37.130  40.009  1.00  0.00    -0.200 F 
ATOM     75  C   UNL A   1      40.039  35.528  41.064  1.00  0.00     0.200 A 
ATOM     76  F   UNL A   1      38.676  33.890  42.081  1.00  0.00    -0.200 F 
ATOM     77  F   UNL A   1      40.009  36.267  42.180  1.00  0.00    -0.200 F 
ENDBRANCH  53  67
BRANCH  54  78
ATOM     78  C   UNL A   1      39.969  28.810  30.180  1.00  0.00     0.064 A 
ATOM     79  C   UNL A   1      39.392  27.536  30.084  1.00  0.00     0.173 A 
ATOM     80  C   UNL A   1      40.556  29.349  29.026  1.00  0.00     0.173 A 
ATOM     81  F   UNL A   1      38.839  26.969  31.166  1.00  0.00    -0.203 F 
ATOM     82  C   UNL A   1      39.420  26.820  28.889  1.00  0.00     0.198 A 
ATOM     83  C   UNL A   1      40.558  28.644  27.824  1.00  0.00     0.198 A 
ATOM     84  F   UNL A   1      41.118  30.566  29.064  1.00  0.00    -0.203 F 
ATOM     85  F   UNL A   1      38.903  25.585  28.838  1.00  0.00    -0.200 F 
ATOM     86  C   UNL A   1      39.998  27.377  27.759  1.00  0.00     0.200 A 
ATOM     87  F   UNL A   1      41.106  29.191  26.730  1.00  0.00    -0.200 F 
ATOM     88  F   UNL A   1      40.023  26.690  26.608  1.00  0.00    -0.200 F 
ENDBRANCH  54  78
BRANCH  66  89
ATOM     89  C   UNL A   1      44.277  28.943  35.657  1.00  0.00     0.064 A 
ATOM     90  C   UNL A   1      45.550  29.419  35.315  1.00  0.00     0.173 A 
ATOM     91  C   UNL A   1      44.195  27.740  36.376  1.00  0.00     0.173 A 
ATOM     92  F   UNL A   1      45.679  30.556  34.615  1.00  0.00    -0.203 F 
ATOM     93  C   UNL A   1      46.696  28.708  35.662  1.00  0.00     0.198 A 
ATOM     94  C   UNL A   1      45.345  27.047  36.746  1.00  0.00     0.198 A 
ATOM     95  F   UNL A   1      43.001  27.245  36.732  1.00  0.00    -0.203 F 
ATOM     96  F   UNL A   1      47.901  29.161  35.289  1.00  0.00    -0.200 F 
ATOM     97  C   UNL A   1      46.593  27.529  36.384  1.00  0.00     0.200 A 
ATOM     98  F   UNL A   1      45.243  25.914  37.454  1.00  0.00    -0.200 F 
ATOM     99  F   UNL A   1      47.698  26.852  36.726  1.00  0.00    -0.200 F 
ENDBRANCH  66  89
ENDBRANCH  40  41
ENDBRANCH  32  35
ENDBRANCH  30  31
ENDBRANCH  29  30
ENDBRANCH   1  29
TORSDOF 14
ENDMDL
MODEL 2
REMARK VINA RESULT:     -12.9      1.833      3.084
REMARK SMILES O=C(/C=C/c1ccc(S(=O)(=O)Nc2ccc3c(c2)OCCO3)cc1)NCCCNC(=O)c1ccc(-c2c3nc(c(-c4c(F)c(F)c(F)c(F)c4F)c4ccc([nH]4)c(-c4c(F)c(F)c(F)c(F)c4F)c4nc(c(-c5c(F)c(F)c(F)c(F)c5F)c5ccc2[nH]5)C=C4)C=C3)cc1
REMARK SMILES IDX 26 1 25 2 1 3 2 4 3 6 4 7 5 8 6 9 24 10 7 11 23 12 8 13 9 14
REMARK SMILES IDX 10 15 11 16 12 17 13 19 14 20 18 21 15 22 17 23 16 24 19 25
REMARK SMILES IDX 22 26 20 27 21 28 27 29 28 30 29 31 30 32 31 34 32 35 33 36
REMARK SMILES IDX 94 37 34 38 93 39 35 40 36 41 37 42 87 43 38 44 92 45 86 46
REMARK SMILES IDX 88 47 39 48 91 49 85 50 84 51 40 53 72 54 52 55 71 56 53 57
REMARK SMILES IDX 56 58 70 59 89 60 54 61 55 62 69 64 90 65 57 66 41 67 42 68
REMARK SMILES IDX 50 69 43 70 44 71 48 72 51 73 45 74 46 75 49 76 47 77 73 78
REMARK SMILES IDX 74 79 82 80 75 81 76 82 80 83 83 84 77 85 78 86 81 87 79 88
REMARK SMILES IDX 58 89 59 90 67 91 60 92 61 93 65 94 68 95 62 96 63 97 66 98
REMARK SMILES IDX 64 99
REMARK H PARENT 25 5 12 18 29 33 88 52 56 63
REMARK Flexibility Score: inf
ROOT
ATOM      1  C   UNL A   1      34.484  34.013  28.556  1.00  0.00     0.118 C 
ENDROOT
BRANCH   1   2
ATOM      2  N   UNL A   1      34.138  32.663  28.146  1.00  0.00    -0.352 N 
ATOM      3  O   UNL A   1      36.309  31.946  27.969  1.00  0.00    -0.270 OA
ATOM      4  C   UNL A   1      35.105  31.726  27.888  1.00  0.00     0.244 C 
ATOM      5  H   UNL A   1      33.191  32.416  28.051  1.00  0.00     0.163 HD
BRANCH   4   6
ATOM      6  C   UNL A   1      34.639  30.349  27.574  1.00  0.00     0.072 C 
ATOM      7  C   UNL A   1      33.497  30.003  26.955  1.00  0.00     0.014 C 
BRANCH   7   8
ATOM      8  C   UNL A   1      33.077  28.614  26.646  1.00  0.00    -0.025 A 
ATOM      9  C   UNL A   1      31.756  28.229  26.924  1.00  0.00     0.009 A 
ATOM     10  C   UNL A   1      33.935  27.647  26.098  1.00  0.00     0.009 A 
ATOM     11  C   UNL A   1      31.329  26.906  26.724  1.00  0.00     0.023 A 
ATOM     12  C   UNL A   1      33.496  26.337  25.846  1.00  0.00     0.023 A 
ATOM     13  C   UNL A   1      32.209  25.949  26.206  1.00  0.00     0.087 A 
BRANCH  13  14
ATOM     14  S   UNL A   1      31.639  24.262  26.057  1.00  0.00     0.261 S 
ATOM     15  O   UNL A   1      31.596  23.716  27.399  1.00  0.00    -0.201 OA
ATOM     16  O   UNL A   1      30.447  24.282  25.237  1.00  0.00    -0.201 OA
BRANCH  14  17
ATOM     17  N   UNL A   1      32.813  23.306  25.224  1.00  0.00    -0.279 N 
ATOM     18  H   UNL A   1      33.749  23.598  25.138  1.00  0.00     0.180 HD
BRANCH  17  19
ATOM     19  C   UNL A   1      32.357  22.068  24.663  1.00  0.00     0.053 A 
ATOM     20  C   UNL A   1      32.202  22.018  23.273  1.00  0.00     0.031 A 
ATOM     21  C   UNL A   1      32.226  20.921  25.438  1.00  0.00     0.077 A 
ATOM     22  C   UNL A   1      32.158  20.783  22.631  1.00  0.00     0.052 A 
ATOM     23  C   UNL A   1      32.259  19.692  24.798  1.00  0.00     0.163 A 
ATOM     24  C   UNL A   1      32.292  19.631  23.399  1.00  0.00     0.161 A 
ATOM     25  O   UNL A   1      32.413  18.597  25.606  1.00  0.00    -0.486 OA
ATOM     26  O   UNL A   1      32.593  18.465  22.738  1.00  0.00    -0.486 OA
ATOM     27  C   UNL A   1      32.792  17.412  24.895  1.00  0.00     0.271 C 
ATOM     28  C   UNL A   1      33.485  17.718  23.576  1.00  0.00     0.271 C 
ENDBRANCH  17  19
ENDBRANCH  14  17
ENDBRANCH  13  14
ENDBRANCH   7   8
ENDBRANCH   4   6
ENDBRANCH   1   2
BRANCH   1  29
ATOM     29  C   UNL A   1      33.265  34.912  28.728  1.00  0.00     0.042 C 
BRANCH  29  30
ATOM     30  C   UNL A   1      33.524  36.165  29.557  1.00  0.00     0.118 C 
BRANCH  30  31
ATOM     31  N   UNL A   1      32.546  36.366  30.618  1.00  0.00    -0.352 N 
ATOM     32  C   UNL A   1      32.543  35.901  31.912  1.00  0.00     0.251 C 
ATOM     33  H   UNL A   1      31.769  36.919  30.373  1.00  0.00     0.163 HD
ATOM     34  O   UNL A   1      31.561  36.082  32.626  1.00  0.00    -0.269 OA
BRANCH  32  35
ATOM     35  C   UNL A   1      33.707  35.157  32.440  1.00  0.00     0.039 A 
ATOM     36  C   UNL A   1      33.516  33.860  32.925  1.00  0.00     0.014 A 
ATOM     37  C   UNL A   1      34.979  35.734  32.465  1.00  0.00     0.014 A 
ATOM     38  C   UNL A   1      34.612  33.112  33.363  1.00  0.00     0.010 A 
ATOM     39  C   UNL A   1      36.079  34.966  32.838  1.00  0.00     0.010 A 
ATOM     40  C   UNL A   1      35.908  33.647  33.286  1.00  0.00    -0.014 A 
BRANCH  40  41
ATOM     41  C   UNL A   1      37.106  32.855  33.664  1.00  0.00     0.031 A 
ATOM     42  C   UNL A   1      37.818  33.145  34.955  1.00  0.00     0.074 A 
ATOM     43  C   UNL A   1      37.609  31.946  32.807  1.00  0.00     0.049 A 
ATOM     44  N   UNL A   1      38.963  32.687  35.393  1.00  0.00    -0.248 NA
ATOM     45  C   UNL A   1      37.168  34.104  35.861  1.00  0.00     0.031 C 
ATOM     46  C   UNL A   1      37.028  31.592  31.511  1.00  0.00     0.029 A 
ATOM     47  N   UNL A   1      38.740  31.171  32.887  1.00  0.00    -0.354 N 
ATOM     48  C   UNL A   1      39.182  33.321  36.610  1.00  0.00     0.074 A 
ATOM     49  C   UNL A   1      38.074  34.226  36.822  1.00  0.00     0.031 C 
ATOM     50  C   UNL A   1      37.802  30.667  30.921  1.00  0.00     0.029 A 
ATOM     51  C   UNL A   1      38.955  30.396  31.773  1.00  0.00     0.049 A 
ATOM     52  H   UNL A   1      39.339  31.170  33.668  1.00  0.00     0.167 HD
ATOM     53  C   UNL A   1      40.208  33.151  37.478  1.00  0.00     0.037 A 
ATOM     54  C   UNL A   1      39.978  29.575  31.465  1.00  0.00     0.037 A 
ATOM     55  C   UNL A   1      41.295  32.228  37.278  1.00  0.00     0.049 A 
ATOM     56  C   UNL A   1      41.110  29.410  32.443  1.00  0.00     0.074 A 
ATOM     57  C   UNL A   1      42.353  31.945  38.122  1.00  0.00     0.029 A 
ATOM     58  N   UNL A   1      41.458  31.434  36.152  1.00  0.00    -0.354 N 
ATOM     59  N   UNL A   1      41.285  29.979  33.611  1.00  0.00    -0.248 NA
ATOM     60  C   UNL A   1      42.187  28.485  32.062  1.00  0.00     0.031 C 
ATOM     61  C   UNL A   1      43.181  31.010  37.490  1.00  0.00     0.029 A 
ATOM     62  C   UNL A   1      42.610  30.673  36.274  1.00  0.00     0.049 A 
ATOM     63  H   UNL A   1      40.848  31.415  35.380  1.00  0.00     0.167 HD
ATOM     64  C   UNL A   1      42.467  29.457  34.118  1.00  0.00     0.074 A 
ATOM     65  C   UNL A   1      42.966  28.520  33.134  1.00  0.00     0.031 C 
ATOM     66  C   UNL A   1      43.081  29.728  35.295  1.00  0.00     0.037 A 
BRANCH  53  67
ATOM     67  C   UNL A   1      40.206  33.984  38.727  1.00  0.00     0.064 A 
ATOM     68  C   UNL A   1      39.571  33.552  39.899  1.00  0.00     0.173 A 
ATOM     69  C   UNL A   1      40.879  35.216  38.761  1.00  0.00     0.173 A 
ATOM     70  F   UNL A   1      38.904  32.387  39.916  1.00  0.00    -0.203 F 
ATOM     71  C   UNL A   1      39.582  34.334  41.052  1.00  0.00     0.198 A 
ATOM     72  C   UNL A   1      40.914  35.981  39.923  1.00  0.00     0.198 A 
ATOM     73  F   UNL A   1      41.508  35.674  37.668  1.00  0.00    -0.203 F 
ATOM     74  F   UNL A   1      38.924  33.924  42.144  1.00  0.00    -0.200 F 
ATOM     75  C   UNL A   1      40.258  35.544  41.065  1.00  0.00     0.200 A 
ATOM     76  F   UNL A   1      41.580  37.144  39.938  1.00  0.00    -0.200 F 
ATOM     77  F   UNL A   1      40.274  36.292  42.175  1.00  0.00    -0.200 F 
ENDBRANCH  53  67
BRANCH  54  78
ATOM     78  C   UNL A   1      39.973  28.833  30.178  1.00  0.00     0.064 A 
ATOM     79  C   UNL A   1      39.386  27.563  30.085  1.00  0.00     0.173 A 
ATOM     80  C   UNL A   1      40.558  29.368  29.021  1.00  0.00     0.173 A 
ATOM     81  F   UNL A   1      38.834  27.000  31.170  1.00  0.00    -0.203 F 
ATOM     82  C   UNL A   1      39.402  26.847  28.889  1.00  0.00     0.198 A 
ATOM     83  C   UNL A   1      40.548  28.664  27.820  1.00  0.00     0.198 A 
ATOM     84  F   UNL A   1      41.129  30.581  29.057  1.00  0.00    -0.203 F 
ATOM     85  F   UNL A   1      38.876  25.616  28.841  1.00  0.00    -0.200 F 
ATOM     86  C   UNL A   1      39.979  27.401  27.756  1.00  0.00     0.200 A 
ATOM     87  F   UNL A   1      41.095  29.207  26.722  1.00  0.00    -0.200 F 
ATOM     88  F   UNL A   1      39.992  26.714  26.605  1.00  0.00    -0.200 F 
ENDBRANCH  54  78
BRANCH  66  89
ATOM     89  C   UNL A   1      44.332  28.962  35.615  1.00  0.00     0.064 A 
ATOM     90  C   UNL A   1      44.299  27.752  36.322  1.00  0.00     0.173 A 
ATOM     91  C   UNL A   1      45.576  29.424  35.159  1.00  0.00     0.173 A 
ATOM     92  F   UNL A   1      43.136  27.277  36.791  1.00  0.00    -0.203 F 
ATOM     93  C   UNL A   1      45.469  27.042  36.578  1.00  0.00     0.198 A 
ATOM     94  C   UNL A   1      46.741  28.697  35.393  1.00  0.00     0.198 A 
ATOM     95  F   UNL A   1      45.661  30.573  34.473  1.00  0.00    -0.203 F 
ATOM     96  F   UNL A   1      45.420  25.909  37.291  1.00  0.00    -0.200 F 
ATOM     97  C   UNL A   1      46.687  27.510  36.107  1.00  0.00     0.200 A 
ATOM     98  F   UNL A   1      47.914  29.145  34.925  1.00  0.00    -0.200 F 
ATOM     99  F   UNL A   1      47.810  26.820  36.346  1.00  0.00    -0.200 F 
ENDBRANCH  66  89
ENDBRANCH  40  41
ENDBRANCH  32  35
ENDBRANCH  30  31
ENDBRANCH  29  30
ENDBRANCH   1  29
TORSDOF 14
ENDMDL
MODEL 3
REMARK VINA RESULT:     -12.7      6.850     12.258
REMARK SMILES O=C(/C=C/c1ccc(S(=O)(=O)Nc2ccc3c(c2)OCCO3)cc1)NCCCNC(=O)c1ccc(-c2c3nc(c(-c4c(F)c(F)c(F)c(F)c4F)c4ccc([nH]4)c(-c4c(F)c(F)c(F)c(F)c4F)c4nc(c(-c5c(F)c(F)c(F)c(F)c5F)c5ccc2[nH]5)C=C4)C=C3)cc1
REMARK SMILES IDX 26 1 25 2 1 3 2 4 3 6 4 7 5 8 6 9 24 10 7 11 23 12 8 13 9 14
REMARK SMILES IDX 10 15 11 16 12 17 13 19 14 20 18 21 15 22 17 23 16 24 19 25
REMARK SMILES IDX 22 26 20 27 21 28 27 29 28 30 29 31 30 32 31 34 32 35 33 36
REMARK SMILES IDX 94 37 34 38 93 39 35 40 36 41 37 42 87 43 38 44 92 45 86 46
REMARK SMILES IDX 88 47 39 48 91 49 85 50 84 51 40 53 72 54 52 55 71 56 53 57
REMARK SMILES IDX 56 58 70 59 89 60 54 61 55 62 69 64 90 65 57 66 41 67 42 68
REMARK SMILES IDX 50 69 43 70 44 71 48 72 51 73 45 74 46 75 49 76 47 77 73 78
REMARK SMILES IDX 74 79 82 80 75 81 76 82 80 83 83 84 77 85 78 86 81 87 79 88
REMARK SMILES IDX 58 89 59 90 67 91 60 92 61 93 65 94 68 95 62 96 63 97 66 98
REMARK SMILES IDX 64 99
REMARK H PARENT 25 5 12 18 29 33 88 52 56 63
REMARK Flexibility Score: inf
ROOT
ATOM      1  C   UNL A   1      40.960  21.418  26.211  1.00  0.00     0.118 C 
ENDROOT
BRANCH   1   2
ATOM      2  N   UNL A   1      39.661  21.955  25.844  1.00  0.00    -0.352 N 
ATOM      3  O   UNL A   1      39.648  23.572  27.470  1.00  0.00    -0.270 OA
ATOM      4  C   UNL A   1      39.111  23.013  26.520  1.00  0.00     0.244 C 
ATOM      5  H   UNL A   1      39.166  21.551  25.096  1.00  0.00     0.163 HD
BRANCH   4   6
ATOM      6  C   UNL A   1      37.823  23.546  25.998  1.00  0.00     0.072 C 
ATOM      7  C   UNL A   1      36.993  22.948  25.127  1.00  0.00     0.014 C 
BRANCH   7   8
ATOM      8  C   UNL A   1      35.709  23.510  24.643  1.00  0.00    -0.025 A 
ATOM      9  C   UNL A   1      35.176  23.038  23.433  1.00  0.00     0.009 A 
ATOM     10  C   UNL A   1      34.991  24.505  25.325  1.00  0.00     0.009 A 
ATOM     11  C   UNL A   1      34.004  23.591  22.892  1.00  0.00     0.023 A 
ATOM     12  C   UNL A   1      33.790  25.022  24.815  1.00  0.00     0.023 A 
ATOM     13  C   UNL A   1      33.321  24.605  23.572  1.00  0.00     0.087 A 
BRANCH  13  14
ATOM     14  S   UNL A   1      31.886  25.334  22.795  1.00  0.00     0.261 S 
ATOM     15  O   UNL A   1      32.301  25.767  21.476  1.00  0.00    -0.201 OA
ATOM     16  O   UNL A   1      30.793  24.398  22.947  1.00  0.00    -0.201 OA
BRANCH  14  17
ATOM     17  N   UNL A   1      31.431  26.783  23.619  1.00  0.00    -0.279 N 
ATOM     18  H   UNL A   1      31.949  27.126  24.383  1.00  0.00     0.180 HD
BRANCH  17  19
ATOM     19  C   UNL A   1      30.264  27.461  23.136  1.00  0.00     0.053 A 
ATOM     20  C   UNL A   1      29.025  26.999  23.593  1.00  0.00     0.031 A 
ATOM     21  C   UNL A   1      30.357  28.622  22.376  1.00  0.00     0.077 A 
ATOM     22  C   UNL A   1      27.907  27.824  23.501  1.00  0.00     0.052 A 
ATOM     23  C   UNL A   1      29.265  29.476  22.350  1.00  0.00     0.163 A 
ATOM     24  C   UNL A   1      28.067  29.100  22.970  1.00  0.00     0.161 A 
ATOM     25  O   UNL A   1      29.491  30.724  21.834  1.00  0.00    -0.486 OA
ATOM     26  O   UNL A   1      27.062  30.008  23.200  1.00  0.00    -0.486 OA
ATOM     27  C   UNL A   1      28.457  31.666  22.147  1.00  0.00     0.271 C 
ATOM     28  C   UNL A   1      27.681  31.287  23.399  1.00  0.00     0.271 C 
ENDBRANCH  17  19
ENDBRANCH  14  17
ENDBRANCH  13  14
ENDBRANCH   7   8
ENDBRANCH   4   6
ENDBRANCH   1   2
BRANCH   1  29
ATOM     29  C   UNL A   1      41.104  19.936  25.883  1.00  0.00     0.042 C 
BRANCH  29  30
ATOM     30  C   UNL A   1      42.357  19.287  26.461  1.00  0.00     0.118 C 
BRANCH  30  31
ATOM     31  N   UNL A   1      43.259  18.769  25.440  1.00  0.00    -0.352 N 
ATOM     32  C   UNL A   1      44.218  19.421  24.700  1.00  0.00     0.251 C 
ATOM     33  H   UNL A   1      43.170  17.806  25.252  1.00  0.00     0.163 HD
ATOM     34  O   UNL A   1      44.800  18.829  23.796  1.00  0.00    -0.269 OA
BRANCH  32  35
ATOM     35  C   UNL A   1      44.531  20.841  24.969  1.00  0.00     0.039 A 
ATOM     36  C   UNL A   1      44.137  21.806  24.038  1.00  0.00     0.014 A 
ATOM     37  C   UNL A   1      45.213  21.221  26.126  1.00  0.00     0.014 A 
ATOM     38  C   UNL A   1      44.358  23.160  24.303  1.00  0.00     0.010 A 
ATOM     39  C   UNL A   1      45.372  22.572  26.422  1.00  0.00     0.010 A 
ATOM     40  C   UNL A   1      44.943  23.555  25.516  1.00  0.00    -0.014 A 
BRANCH  40  41
ATOM     41  C   UNL A   1      45.120  24.987  25.872  1.00  0.00     0.031 A 
ATOM     42  C   UNL A   1      46.477  25.623  25.758  1.00  0.00     0.074 A 
ATOM     43  C   UNL A   1      44.090  25.683  26.387  1.00  0.00     0.049 A 
ATOM     44  N   UNL A   1      46.878  26.800  26.166  1.00  0.00    -0.248 NA
ATOM     45  C   UNL A   1      47.530  24.814  25.127  1.00  0.00     0.031 C 
ATOM     46  C   UNL A   1      42.731  25.172  26.576  1.00  0.00     0.029 A 
ATOM     47  N   UNL A   1      44.031  26.967  26.871  1.00  0.00    -0.354 N 
ATOM     48  C   UNL A   1      48.233  26.861  25.866  1.00  0.00     0.074 A 
ATOM     49  C   UNL A   1      48.595  25.589  25.279  1.00  0.00     0.031 C 
ATOM     50  C   UNL A   1      41.973  26.133  27.127  1.00  0.00     0.029 A 
ATOM     51  C   UNL A   1      42.799  27.310  27.374  1.00  0.00     0.049 A 
ATOM     52  H   UNL A   1      44.798  27.584  26.858  1.00  0.00     0.167 HD
ATOM     53  C   UNL A   1      49.093  27.892  26.049  1.00  0.00     0.037 A 
ATOM     54  C   UNL A   1      42.390  28.438  27.985  1.00  0.00     0.037 A 
ATOM     55  C   UNL A   1      48.724  29.167  26.605  1.00  0.00     0.049 A 
ATOM     56  C   UNL A   1      43.367  29.565  28.184  1.00  0.00     0.074 A 
ATOM     57  C   UNL A   1      49.510  30.291  26.783  1.00  0.00     0.029 A 
ATOM     58  N   UNL A   1      47.457  29.487  27.071  1.00  0.00    -0.354 N 
ATOM     59  N   UNL A   1      44.634  29.630  27.855  1.00  0.00    -0.248 NA
ATOM     60  C   UNL A   1      42.856  30.779  28.837  1.00  0.00     0.031 C 
ATOM     61  C   UNL A   1      48.730  31.279  27.395  1.00  0.00     0.029 A 
ATOM     62  C   UNL A   1      47.445  30.787  27.552  1.00  0.00     0.049 A 
ATOM     63  H   UNL A   1      46.681  28.880  27.063  1.00  0.00     0.167 HD
ATOM     64  C   UNL A   1      45.061  30.898  28.227  1.00  0.00     0.074 A 
ATOM     65  C   UNL A   1      43.917  31.573  28.801  1.00  0.00     0.031 C 
ATOM     66  C   UNL A   1      46.291  31.453  28.099  1.00  0.00     0.037 A 
BRANCH  53  67
ATOM     67  C   UNL A   1      50.524  27.682  25.645  1.00  0.00     0.064 A 
ATOM     68  C   UNL A   1      51.505  27.312  26.576  1.00  0.00     0.173 A 
ATOM     69  C   UNL A   1      50.911  27.819  24.303  1.00  0.00     0.173 A 
ATOM     70  F   UNL A   1      51.190  27.179  27.873  1.00  0.00    -0.203 F 
ATOM     71  C   UNL A   1      52.828  27.116  26.184  1.00  0.00     0.198 A 
ATOM     72  C   UNL A   1      52.227  27.593  23.910  1.00  0.00     0.198 A 
ATOM     73  F   UNL A   1      50.011  28.166  23.370  1.00  0.00    -0.203 F 
ATOM     74  F   UNL A   1      53.758  26.814  27.100  1.00  0.00    -0.200 F 
ATOM     75  C   UNL A   1      53.186  27.251  24.851  1.00  0.00     0.200 A 
ATOM     76  F   UNL A   1      52.569  27.710  22.619  1.00  0.00    -0.200 F 
ATOM     77  F   UNL A   1      54.457  27.056  24.475  1.00  0.00    -0.200 F 
ENDBRANCH  53  67
BRANCH  54  78
ATOM     78  C   UNL A   1      40.981  28.566  28.441  1.00  0.00     0.064 A 
ATOM     79  C   UNL A   1      40.620  28.243  29.756  1.00  0.00     0.173 A 
ATOM     80  C   UNL A   1      39.968  29.005  27.575  1.00  0.00     0.173 A 
ATOM     81  F   UNL A   1      41.550  27.798  30.614  1.00  0.00    -0.203 F 
ATOM     82  C   UNL A   1      39.297  28.333  30.184  1.00  0.00     0.198 A 
ATOM     83  C   UNL A   1      38.650  29.121  28.012  1.00  0.00     0.198 A 
ATOM     84  F   UNL A   1      40.262  29.329  26.307  1.00  0.00    -0.203 F 
ATOM     85  F   UNL A   1      38.972  27.972  31.433  1.00  0.00    -0.200 F 
ATOM     86  C   UNL A   1      38.314  28.777  29.312  1.00  0.00     0.200 A 
ATOM     87  F   UNL A   1      37.705  29.564  27.170  1.00  0.00    -0.200 F 
ATOM     88  F   UNL A   1      37.041  28.867  29.724  1.00  0.00    -0.200 F 
ENDBRANCH  54  78
BRANCH  66  89
ATOM     89  C   UNL A   1      46.455  32.879  28.537  1.00  0.00     0.064 A 
ATOM     90  C   UNL A   1      46.882  33.212  29.829  1.00  0.00     0.173 A 
ATOM     91  C   UNL A   1      46.230  33.924  27.628  1.00  0.00     0.173 A 
ATOM     92  F   UNL A   1      47.096  32.250  30.739  1.00  0.00    -0.203 F 
ATOM     93  C   UNL A   1      47.059  34.542  30.203  1.00  0.00     0.198 A 
ATOM     94  C   UNL A   1      46.435  35.252  27.996  1.00  0.00     0.198 A 
ATOM     95  F   UNL A   1      45.825  33.658  26.377  1.00  0.00    -0.203 F 
ATOM     96  F   UNL A   1      47.428  34.840  31.456  1.00  0.00    -0.200 F 
ATOM     97  C   UNL A   1      46.844  35.559  29.284  1.00  0.00     0.200 A 
ATOM     98  F   UNL A   1      46.239  36.231  27.103  1.00  0.00    -0.200 F 
ATOM     99  F   UNL A   1      47.025  36.837  29.643  1.00  0.00    -0.200 F 
ENDBRANCH  66  89
ENDBRANCH  40  41
ENDBRANCH  32  35
ENDBRANCH  30  31
ENDBRANCH  29  30
ENDBRANCH   1  29
TORSDOF 14
ENDMDL
