MODEL 1
REMARK VINA RESULT:     -13.8      0.000      0.000
REMARK SMILES Cc1cc2c(cc1C(=O)c1ccccc1C(=O)NCCCNC(=O)c1ccc(-c3c4nc(c(-c5c(F)c(F)c(F)c(F)c5F)c5ccc([nH]5)c(-c5c(F)c(F)c(F)c(F)c5F)c5nc(c(-c6c(F)c(F)c(F)c(F)c6F)c6ccc3[nH]6)C=C5)C=C4)cc1)CCCC2
REMARK SMILES IDX 20 1 19 2 18 3 16 4 17 5 15 7 10 8 11 9 12 10 14 11 13 12
REMARK SMILES IDX 8 13 9 14 7 15 1 16 2 17 3 18 4 19 6 20 5 21 91 22 88 23
REMARK SMILES IDX 90 24 89 25 21 26 22 27 23 28 24 30 25 31 26 32 87 33 27 34
REMARK SMILES IDX 86 35 28 36 29 37 30 38 80 39 31 40 85 41 79 42 81 43 32 44
REMARK SMILES IDX 84 45 78 46 77 47 33 49 65 50 45 51 64 52 46 53 49 54 63 55
REMARK SMILES IDX 82 56 47 57 48 58 62 60 83 61 50 62 34 63 35 64 43 65 36 66
REMARK SMILES IDX 37 67 41 68 44 69 38 70 39 71 42 72 40 73 66 74 67 75 75 76
REMARK SMILES IDX 68 77 69 78 73 79 76 80 70 81 71 82 74 83 72 84 51 85 52 86
REMARK SMILES IDX 60 87 53 88 54 89 58 90 61 91 55 92 56 93 59 94 57 95
REMARK H PARENT 18 6 22 29 81 48 49 59
REMARK Flexibility Score: inf
ROOT
ATOM      1  C   UNL A   1      31.757  29.199  26.984  1.00  0.00     0.042 C 
ENDROOT
BRANCH   1   2
ATOM      2  C   UNL A   1      32.430  27.835  26.891  1.00  0.00     0.118 C 
BRANCH   2   3
ATOM      3  N   UNL A   1      31.554  26.693  26.937  1.00  0.00    -0.352 N 
ATOM      4  C   UNL A   1      31.653  25.427  26.425  1.00  0.00     0.252 C 
ATOM      5  O   UNL A   1      30.686  24.698  26.677  1.00  0.00    -0.269 OA
ATOM      6  H   UNL A   1      30.721  26.854  27.436  1.00  0.00     0.163 HD
BRANCH   4   7
ATOM      7  C   UNL A   1      32.745  24.851  25.569  1.00  0.00     0.050 A 
ATOM      8  C   UNL A   1      32.939  24.896  24.178  1.00  0.00     0.035 A 
ATOM      9  C   UNL A   1      34.174  24.514  23.606  1.00  0.00     0.013 A 
ATOM     10  C   UNL A   1      35.183  23.960  24.386  1.00  0.00     0.001 A 
ATOM     11  C   UNL A   1      33.791  24.271  26.329  1.00  0.00     0.014 A 
ATOM     12  C   UNL A   1      34.979  23.811  25.749  1.00  0.00     0.001 A 
BRANCH   8  13
ATOM     13  C   UNL A   1      31.952  25.326  23.190  1.00  0.00     0.194 C 
ATOM     14  O   UNL A   1      31.569  24.476  22.390  1.00  0.00    -0.289 OA
BRANCH  13  15
ATOM     15  C   UNL A   1      31.419  26.749  23.148  1.00  0.00     0.026 A 
ATOM     16  C   UNL A   1      33.589  28.009  22.444  1.00  0.00     0.045 C 
ATOM     17  C   UNL A   1      32.131  27.921  22.805  1.00  0.00    -0.040 A 
ATOM     18  C   UNL A   1      31.437  29.146  22.755  1.00  0.00     0.008 A 
ATOM     19  C   UNL A   1      30.053  29.223  22.916  1.00  0.00    -0.044 A 
ATOM     20  C   UNL A   1      30.019  26.845  23.323  1.00  0.00     0.016 A 
ATOM     21  C   UNL A   1      29.327  28.056  23.166  1.00  0.00    -0.044 A 
ATOM     22  C   UNL A   1      29.394  30.574  22.864  1.00  0.00     0.036 C 
ATOM     23  C   UNL A   1      27.819  28.053  23.139  1.00  0.00     0.036 C 
ATOM     24  C   UNL A   1      27.909  30.492  22.550  1.00  0.00     0.005 C 
ATOM     25  C   UNL A   1      27.218  29.432  23.398  1.00  0.00     0.005 C 
ENDBRANCH  13  15
ENDBRANCH   8  13
ENDBRANCH   4   7
ENDBRANCH   2   3
ENDBRANCH   1   2
BRANCH   1  26
ATOM     26  C   UNL A   1      32.368  30.274  26.099  1.00  0.00     0.118 C 
BRANCH  26  27
ATOM     27  N   UNL A   1      32.321  31.615  26.663  1.00  0.00    -0.352 N 
ATOM     28  C   UNL A   1      33.166  32.364  27.445  1.00  0.00     0.251 C 
ATOM     29  H   UNL A   1      31.493  32.095  26.431  1.00  0.00     0.163 HD
ATOM     30  O   UNL A   1      32.787  33.491  27.771  1.00  0.00    -0.269 OA
BRANCH  28  31
ATOM     31  C   UNL A   1      34.474  31.881  27.970  1.00  0.00     0.039 A 
ATOM     32  C   UNL A   1      34.710  30.581  28.396  1.00  0.00     0.014 A 
ATOM     33  C   UNL A   1      35.550  32.785  27.995  1.00  0.00     0.014 A 
ATOM     34  C   UNL A   1      35.915  30.243  29.017  1.00  0.00     0.010 A 
ATOM     35  C   UNL A   1      36.804  32.408  28.502  1.00  0.00     0.010 A 
ATOM     36  C   UNL A   1      36.984  31.150  29.086  1.00  0.00    -0.014 A 
BRANCH  36  37
ATOM     37  C   UNL A   1      38.246  30.729  29.765  1.00  0.00     0.031 A 
ATOM     38  C   UNL A   1      38.590  31.195  31.156  1.00  0.00     0.074 A 
ATOM     39  C   UNL A   1      39.053  29.826  29.171  1.00  0.00     0.049 A 
ATOM     40  N   UNL A   1      39.481  30.715  31.993  1.00  0.00    -0.248 NA
ATOM     41  C   UNL A   1      37.844  32.342  31.687  1.00  0.00     0.031 C 
ATOM     42  C   UNL A   1      38.881  29.304  27.815  1.00  0.00     0.029 A 
ATOM     43  N   UNL A   1      40.159  29.160  29.644  1.00  0.00    -0.354 N 
ATOM     44  C   UNL A   1      39.337  31.448  33.162  1.00  0.00     0.074 A 
ATOM     45  C   UNL A   1      38.364  32.477  32.898  1.00  0.00     0.031 C 
ATOM     46  C   UNL A   1      39.804  28.359  27.587  1.00  0.00     0.029 A 
ATOM     47  C   UNL A   1      40.671  28.246  28.757  1.00  0.00     0.049 A 
ATOM     48  H   UNL A   1      40.545  29.323  30.535  1.00  0.00     0.167 HD
ATOM     49  C   UNL A   1      39.928  31.266  34.366  1.00  0.00     0.037 A 
ATOM     50  C   UNL A   1      41.725  27.414  28.863  1.00  0.00     0.037 A 
ATOM     51  C   UNL A   1      40.994  30.336  34.612  1.00  0.00     0.049 A 
ATOM     52  C   UNL A   1      42.518  27.382  30.140  1.00  0.00     0.074 A 
ATOM     53  C   UNL A   1      41.678  30.096  35.791  1.00  0.00     0.029 A 
ATOM     54  N   UNL A   1      41.569  29.534  33.640  1.00  0.00    -0.354 N 
ATOM     55  N   UNL A   1      42.274  27.981  31.279  1.00  0.00    -0.248 NA
ATOM     56  C   UNL A   1      43.740  26.565  30.140  1.00  0.00     0.031 C 
ATOM     57  C   UNL A   1      42.721  29.207  35.512  1.00  0.00     0.029 A 
ATOM     58  C   UNL A   1      42.649  28.853  34.173  1.00  0.00     0.049 A 
ATOM     59  H   UNL A   1      41.256  29.461  32.710  1.00  0.00     0.167 HD
ATOM     60  C   UNL A   1      43.303  27.611  32.133  1.00  0.00     0.074 A 
ATOM     61  C   UNL A   1      44.165  26.718  31.387  1.00  0.00     0.031 C 
ATOM     62  C   UNL A   1      43.513  27.980  33.420  1.00  0.00     0.037 A 
BRANCH  49  63
ATOM     63  C   UNL A   1      39.427  32.087  35.516  1.00  0.00     0.064 A 
ATOM     64  C   UNL A   1      38.492  31.558  36.419  1.00  0.00     0.173 A 
ATOM     65  C   UNL A   1      39.920  33.377  35.757  1.00  0.00     0.173 A 
ATOM     66  F   UNL A   1      37.976  30.336  36.221  1.00  0.00    -0.203 F 
ATOM     67  C   UNL A   1      38.067  32.293  37.524  1.00  0.00     0.198 A 
ATOM     68  C   UNL A   1      39.504  34.103  36.871  1.00  0.00     0.198 A 
ATOM     69  F   UNL A   1      40.811  33.927  34.920  1.00  0.00    -0.203 F 
ATOM     70  F   UNL A   1      37.159  31.775  38.362  1.00  0.00    -0.200 F 
ATOM     71  C   UNL A   1      38.580  33.560  37.752  1.00  0.00     0.200 A 
ATOM     72  F   UNL A   1      40.000  35.327  37.094  1.00  0.00    -0.200 F 
ATOM     73  F   UNL A   1      38.179  34.263  38.821  1.00  0.00    -0.200 F 
ENDBRANCH  49  63
BRANCH  50  74
ATOM     74  C   UNL A   1      42.095  26.559  27.707  1.00  0.00     0.064 A 
ATOM     75  C   UNL A   1      43.078  26.957  26.792  1.00  0.00     0.173 A 
ATOM     76  C   UNL A   1      41.492  25.307  27.514  1.00  0.00     0.173 A 
ATOM     77  F   UNL A   1      43.666  28.156  26.920  1.00  0.00    -0.203 F 
ATOM     78  C   UNL A   1      43.448  26.132  25.731  1.00  0.00     0.198 A 
ATOM     79  C   UNL A   1      41.882  24.471  26.471  1.00  0.00     0.198 A 
ATOM     80  F   UNL A   1      40.541  24.883  28.361  1.00  0.00    -0.203 F 
ATOM     81  F   UNL A   1      44.374  26.545  24.856  1.00  0.00    -0.200 F 
ATOM     82  C   UNL A   1      42.858  24.886  25.578  1.00  0.00     0.200 A 
ATOM     83  F   UNL A   1      41.319  23.263  26.339  1.00  0.00    -0.200 F 
ATOM     84  F   UNL A   1      43.228  24.085  24.570  1.00  0.00    -0.200 F 
ENDBRANCH  50  74
BRANCH  62  85
ATOM     85  C   UNL A   1      44.726  27.440  34.113  1.00  0.00     0.064 A 
ATOM     86  C   UNL A   1      45.918  28.176  34.169  1.00  0.00     0.173 A 
ATOM     87  C   UNL A   1      44.676  26.215  34.793  1.00  0.00     0.173 A 
ATOM     88  F   UNL A   1      46.019  29.348  33.524  1.00  0.00    -0.203 F 
ATOM     89  C   UNL A   1      47.021  27.698  34.873  1.00  0.00     0.198 A 
ATOM     90  C   UNL A   1      45.769  25.754  35.520  1.00  0.00     0.198 A 
ATOM     91  F   UNL A   1      43.555  25.478  34.778  1.00  0.00    -0.203 F 
ATOM     92  F   UNL A   1      48.160  28.403  34.889  1.00  0.00    -0.200 F 
ATOM     93  C   UNL A   1      46.942  26.494  35.556  1.00  0.00     0.200 A 
ATOM     94  F   UNL A   1      45.686  24.598  36.193  1.00  0.00    -0.200 F 
ATOM     95  F   UNL A   1      47.997  26.044  36.249  1.00  0.00    -0.200 F 
ENDBRANCH  62  85
ENDBRANCH  36  37
ENDBRANCH  28  31
ENDBRANCH  26  27
ENDBRANCH   1  26
TORSDOF 12
ENDMDL
MODEL 2
REMARK VINA RESULT:     -13.8      0.410      1.186
REMARK SMILES Cc1cc2c(cc1C(=O)c1ccccc1C(=O)NCCCNC(=O)c1ccc(-c3c4nc(c(-c5c(F)c(F)c(F)c(F)c5F)c5ccc([nH]5)c(-c5c(F)c(F)c(F)c(F)c5F)c5nc(c(-c6c(F)c(F)c(F)c(F)c6F)c6ccc3[nH]6)C=C5)C=C4)cc1)CCCC2
REMARK SMILES IDX 20 1 19 2 18 3 16 4 17 5 15 7 10 8 11 9 12 10 14 11 13 12
REMARK SMILES IDX 8 13 9 14 7 15 1 16 2 17 3 18 4 19 6 20 5 21 91 22 88 23
REMARK SMILES IDX 90 24 89 25 21 26 22 27 23 28 24 30 25 31 26 32 87 33 27 34
REMARK SMILES IDX 86 35 28 36 29 37 30 38 80 39 31 40 85 41 79 42 81 43 32 44
REMARK SMILES IDX 84 45 78 46 77 47 33 49 65 50 45 51 64 52 46 53 49 54 63 55
REMARK SMILES IDX 82 56 47 57 48 58 62 60 83 61 50 62 34 63 35 64 43 65 36 66
REMARK SMILES IDX 37 67 41 68 44 69 38 70 39 71 42 72 40 73 66 74 67 75 75 76
REMARK SMILES IDX 68 77 69 78 73 79 76 80 70 81 71 82 74 83 72 84 51 85 52 86
REMARK SMILES IDX 60 87 53 88 54 89 58 90 61 91 55 92 56 93 59 94 57 95
REMARK H PARENT 18 6 22 29 81 48 49 59
REMARK Flexibility Score: inf
ROOT
ATOM      1  C   UNL A   1      31.732  29.004  26.276  1.00  0.00     0.042 C 
ENDROOT
BRANCH   1   2
ATOM      2  C   UNL A   1      32.216  27.771  27.030  1.00  0.00     0.118 C 
BRANCH   2   3
ATOM      3  N   UNL A   1      31.355  26.618  26.975  1.00  0.00    -0.352 N 
ATOM      4  C   UNL A   1      31.497  25.381  26.405  1.00  0.00     0.252 C 
ATOM      5  O   UNL A   1      30.529  24.629  26.572  1.00  0.00    -0.269 OA
ATOM      6  H   UNL A   1      30.497  26.743  27.440  1.00  0.00     0.163 HD
BRANCH   4   7
ATOM      7  C   UNL A   1      32.637  24.862  25.576  1.00  0.00     0.050 A 
ATOM      8  C   UNL A   1      32.887  24.962  24.196  1.00  0.00     0.035 A 
ATOM      9  C   UNL A   1      34.153  24.631  23.663  1.00  0.00     0.013 A 
ATOM     10  C   UNL A   1      35.143  24.073  24.464  1.00  0.00     0.001 A 
ATOM     11  C   UNL A   1      33.666  24.280  26.358  1.00  0.00     0.014 A 
ATOM     12  C   UNL A   1      34.888  23.870  25.812  1.00  0.00     0.001 A 
BRANCH   8  13
ATOM     13  C   UNL A   1      31.930  25.404  23.183  1.00  0.00     0.194 C 
ATOM     14  O   UNL A   1      31.551  24.556  22.379  1.00  0.00    -0.289 OA
BRANCH  13  15
ATOM     15  C   UNL A   1      31.423  26.836  23.123  1.00  0.00     0.026 A 
ATOM     16  C   UNL A   1      33.608  28.043  22.375  1.00  0.00     0.045 C 
ATOM     17  C   UNL A   1      32.153  27.988  22.752  1.00  0.00    -0.040 A 
ATOM     18  C   UNL A   1      31.481  29.225  22.688  1.00  0.00     0.008 A 
ATOM     19  C   UNL A   1      30.100  29.330  22.861  1.00  0.00    -0.044 A 
ATOM     20  C   UNL A   1      30.027  26.960  23.309  1.00  0.00     0.016 A 
ATOM     21  C   UNL A   1      29.356  28.181  23.139  1.00  0.00    -0.044 A 
ATOM     22  C   UNL A   1      29.466  30.692  22.793  1.00  0.00     0.036 C 
ATOM     23  C   UNL A   1      27.848  28.206  23.126  1.00  0.00     0.036 C 
ATOM     24  C   UNL A   1      27.977  30.632  22.495  1.00  0.00     0.005 C 
ATOM     25  C   UNL A   1      27.274  29.599  23.367  1.00  0.00     0.005 C 
ENDBRANCH  13  15
ENDBRANCH   8  13
ENDBRANCH   4   7
ENDBRANCH   2   3
ENDBRANCH   1   2
BRANCH   1  26
ATOM     26  C   UNL A   1      32.823  29.997  25.912  1.00  0.00     0.118 C 
BRANCH  26  27
ATOM     27  N   UNL A   1      32.709  31.287  26.577  1.00  0.00    -0.352 N 
ATOM     28  C   UNL A   1      33.500  32.000  27.445  1.00  0.00     0.251 C 
ATOM     29  H   UNL A   1      31.872  31.756  26.355  1.00  0.00     0.163 HD
ATOM     30  O   UNL A   1      33.068  33.084  27.846  1.00  0.00    -0.269 OA
BRANCH  28  31
ATOM     31  C   UNL A   1      34.806  31.521  27.977  1.00  0.00     0.039 A 
ATOM     32  C   UNL A   1      35.044  30.223  28.410  1.00  0.00     0.014 A 
ATOM     33  C   UNL A   1      35.881  32.427  28.002  1.00  0.00     0.014 A 
ATOM     34  C   UNL A   1      36.247  29.890  29.037  1.00  0.00     0.010 A 
ATOM     35  C   UNL A   1      37.134  32.054  28.516  1.00  0.00     0.010 A 
ATOM     36  C   UNL A   1      37.314  30.799  29.106  1.00  0.00    -0.014 A 
BRANCH  36  37
ATOM     37  C   UNL A   1      38.574  30.383  29.790  1.00  0.00     0.031 A 
ATOM     38  C   UNL A   1      38.910  30.852  31.183  1.00  0.00     0.074 A 
ATOM     39  C   UNL A   1      39.387  29.483  29.201  1.00  0.00     0.049 A 
ATOM     40  N   UNL A   1      39.799  30.376  32.024  1.00  0.00    -0.248 NA
ATOM     41  C   UNL A   1      38.157  31.997  31.710  1.00  0.00     0.031 C 
ATOM     42  C   UNL A   1      39.223  28.959  27.845  1.00  0.00     0.029 A 
ATOM     43  N   UNL A   1      40.493  28.821  29.680  1.00  0.00    -0.354 N 
ATOM     44  C   UNL A   1      39.647  31.109  33.193  1.00  0.00     0.074 A 
ATOM     45  C   UNL A   1      38.671  32.134  32.923  1.00  0.00     0.031 C 
ATOM     46  C   UNL A   1      40.151  28.018  27.622  1.00  0.00     0.029 A 
ATOM     47  C   UNL A   1      41.013  27.909  28.796  1.00  0.00     0.049 A 
ATOM     48  H   UNL A   1      40.875  28.987  30.573  1.00  0.00     0.167 HD
ATOM     49  C   UNL A   1      40.233  30.930  34.399  1.00  0.00     0.037 A 
ATOM     50  C   UNL A   1      42.069  27.081  28.908  1.00  0.00     0.037 A 
ATOM     51  C   UNL A   1      41.301  30.004  34.651  1.00  0.00     0.049 A 
ATOM     52  C   UNL A   1      42.856  27.052  30.188  1.00  0.00     0.074 A 
ATOM     53  C   UNL A   1      41.980  29.768  35.833  1.00  0.00     0.029 A 
ATOM     54  N   UNL A   1      41.884  29.204  33.682  1.00  0.00    -0.354 N 
ATOM     55  N   UNL A   1      42.605  27.652  31.326  1.00  0.00    -0.248 NA
ATOM     56  C   UNL A   1      44.081  26.240  30.194  1.00  0.00     0.031 C 
ATOM     57  C   UNL A   1      43.028  28.882  35.560  1.00  0.00     0.029 A 
ATOM     58  C   UNL A   1      42.964  28.527  34.221  1.00  0.00     0.049 A 
ATOM     59  H   UNL A   1      41.575  29.129  32.750  1.00  0.00     0.167 HD
ATOM     60  C   UNL A   1      43.632  27.286  32.185  1.00  0.00     0.074 A 
ATOM     61  C   UNL A   1      44.500  26.396  31.444  1.00  0.00     0.031 C 
ATOM     62  C   UNL A   1      43.834  27.657  33.473  1.00  0.00     0.037 A 
BRANCH  49  63
ATOM     63  C   UNL A   1      39.723  31.750  35.546  1.00  0.00     0.064 A 
ATOM     64  C   UNL A   1      40.245  33.028  35.801  1.00  0.00     0.173 A 
ATOM     65  C   UNL A   1      38.673  31.294  36.355  1.00  0.00     0.173 A 
ATOM     66  F   UNL A   1      41.263  33.502  35.066  1.00  0.00    -0.203 F 
ATOM     67  C   UNL A   1      39.735  33.820  36.827  1.00  0.00     0.198 A 
ATOM     68  C   UNL A   1      38.155  32.095  37.371  1.00  0.00     0.198 A 
ATOM     69  F   UNL A   1      38.144  30.078  36.154  1.00  0.00    -0.203 F 
ATOM     70  F   UNL A   1      40.263  35.029  37.064  1.00  0.00    -0.200 F 
ATOM     71  C   UNL A   1      38.686  33.355  37.605  1.00  0.00     0.200 A 
ATOM     72  F   UNL A   1      37.140  31.648  38.122  1.00  0.00    -0.200 F 
ATOM     73  F   UNL A   1      38.188  34.122  38.585  1.00  0.00    -0.200 F 
ENDBRANCH  49  63
BRANCH  50  74
ATOM     74  C   UNL A   1      42.448  26.226  27.754  1.00  0.00     0.064 A 
ATOM     75  C   UNL A   1      43.442  26.622  26.850  1.00  0.00     0.173 A 
ATOM     76  C   UNL A   1      41.842  24.976  27.553  1.00  0.00     0.173 A 
ATOM     77  F   UNL A   1      44.033  27.818  26.986  1.00  0.00    -0.203 F 
ATOM     78  C   UNL A   1      43.819  25.797  25.792  1.00  0.00     0.198 A 
ATOM     79  C   UNL A   1      42.240  24.141  26.513  1.00  0.00     0.198 A 
ATOM     80  F   UNL A   1      40.882  24.554  28.389  1.00  0.00    -0.203 F 
ATOM     81  F   UNL A   1      44.756  26.208  24.926  1.00  0.00    -0.200 F 
ATOM     82  C   UNL A   1      43.226  24.554  25.631  1.00  0.00     0.200 A 
ATOM     83  F   UNL A   1      41.674  22.935  26.373  1.00  0.00    -0.200 F 
ATOM     84  F   UNL A   1      43.603  23.752  24.625  1.00  0.00    -0.200 F 
ENDBRANCH  50  74
BRANCH  62  85
ATOM     85  C   UNL A   1      45.046  27.122  34.172  1.00  0.00     0.064 A 
ATOM     86  C   UNL A   1      46.243  27.851  34.211  1.00  0.00     0.173 A 
ATOM     87  C   UNL A   1      44.991  25.909  34.874  1.00  0.00     0.173 A 
ATOM     88  F   UNL A   1      46.349  29.011  33.545  1.00  0.00    -0.203 F 
ATOM     89  C   UNL A   1      47.344  27.379  34.921  1.00  0.00     0.198 A 
ATOM     90  C   UNL A   1      46.083  25.455  35.605  1.00  0.00     0.198 A 
ATOM     91  F   UNL A   1      43.865  25.179  34.875  1.00  0.00    -0.203 F 
ATOM     92  F   UNL A   1      48.488  28.077  34.920  1.00  0.00    -0.200 F 
ATOM     93  C   UNL A   1      47.260  26.188  35.625  1.00  0.00     0.200 A 
ATOM     94  F   UNL A   1      45.994  24.312  36.299  1.00  0.00    -0.200 F 
ATOM     95  F   UNL A   1      48.314  25.744  36.323  1.00  0.00    -0.200 F 
ENDBRANCH  62  85
ENDBRANCH  36  37
ENDBRANCH  28  31
ENDBRANCH  26  27
ENDBRANCH   1  26
TORSDOF 12
ENDMDL
MODEL 3
REMARK VINA RESULT:     -13.5      4.629     10.012
REMARK SMILES Cc1cc2c(cc1C(=O)c1ccccc1C(=O)NCCCNC(=O)c1ccc(-c3c4nc(c(-c5c(F)c(F)c(F)c(F)c5F)c5ccc([nH]5)c(-c5c(F)c(F)c(F)c(F)c5F)c5nc(c(-c6c(F)c(F)c(F)c(F)c6F)c6ccc3[nH]6)C=C5)C=C4)cc1)CCCC2
REMARK SMILES IDX 20 1 19 2 18 3 16 4 17 5 15 7 10 8 11 9 12 10 14 11 13 12
REMARK SMILES IDX 8 13 9 14 7 15 1 16 2 17 3 18 4 19 6 20 5 21 91 22 88 23
REMARK SMILES IDX 90 24 89 25 21 26 22 27 23 28 24 30 25 31 26 32 87 33 27 34
REMARK SMILES IDX 86 35 28 36 29 37 30 38 80 39 31 40 85 41 79 42 81 43 32 44
REMARK SMILES IDX 84 45 78 46 77 47 33 49 65 50 45 51 64 52 46 53 49 54 63 55
REMARK SMILES IDX 82 56 47 57 48 58 62 60 83 61 50 62 34 63 35 64 43 65 36 66
REMARK SMILES IDX 37 67 41 68 44 69 38 70 39 71 42 72 40 73 66 74 67 75 75 76
REMARK SMILES IDX 68 77 69 78 73 79 76 80 70 81 71 82 74 83 72 84 51 85 52 86
REMARK SMILES IDX 60 87 53 88 54 89 58 90 61 91 55 92 56 93 59 94 57 95
REMARK H PARENT 18 6 22 29 81 48 49 59
REMARK Flexibility Score: inf
ROOT
ATOM      1  C   UNL A   1      36.957  21.879  24.226  1.00  0.00     0.042 C 
ENDROOT
BRANCH   1   2
ATOM      2  C   UNL A   1      36.260  23.232  24.172  1.00  0.00     0.118 C 
BRANCH   2   3
ATOM      3  N   UNL A   1      35.294  23.405  23.118  1.00  0.00    -0.352 N 
ATOM      4  C   UNL A   1      34.123  24.110  23.040  1.00  0.00     0.252 C 
ATOM      5  O   UNL A   1      33.550  24.027  21.947  1.00  0.00    -0.269 OA
ATOM      6  H   UNL A   1      35.520  22.921  22.292  1.00  0.00     0.163 HD
BRANCH   4   7
ATOM      7  C   UNL A   1      33.443  24.910  24.114  1.00  0.00     0.050 A 
ATOM      8  C   UNL A   1      32.551  24.514  25.126  1.00  0.00     0.035 A 
ATOM      9  C   UNL A   1      32.237  25.381  26.196  1.00  0.00     0.013 A 
ATOM     10  C   UNL A   1      32.695  26.694  26.211  1.00  0.00     0.001 A 
ATOM     11  C   UNL A   1      33.880  26.257  24.158  1.00  0.00     0.014 A 
ATOM     12  C   UNL A   1      33.496  27.142  25.172  1.00  0.00     0.001 A 
BRANCH   8  13
ATOM     13  C   UNL A   1      31.871  23.222  25.209  1.00  0.00     0.194 C 
ATOM     14  O   UNL A   1      30.653  23.251  25.366  1.00  0.00    -0.289 OA
BRANCH  13  15
ATOM     15  C   UNL A   1      32.625  21.906  25.106  1.00  0.00     0.026 A 
ATOM     16  C   UNL A   1      33.930  21.969  27.361  1.00  0.00     0.045 C 
ATOM     17  C   UNL A   1      33.512  21.350  26.056  1.00  0.00    -0.040 A 
ATOM     18  C   UNL A   1      34.060  20.075  25.807  1.00  0.00     0.008 A 
ATOM     19  C   UNL A   1      33.664  19.297  24.719  1.00  0.00    -0.044 A 
ATOM     20  C   UNL A   1      32.245  21.111  24.000  1.00  0.00     0.016 A 
ATOM     21  C   UNL A   1      32.719  19.802  23.823  1.00  0.00    -0.044 A 
ATOM     22  C   UNL A   1      34.313  17.954  24.519  1.00  0.00     0.036 C 
ATOM     23  C   UNL A   1      32.107  18.926  22.758  1.00  0.00     0.036 C 
ATOM     24  C   UNL A   1      33.482  17.024  23.650  1.00  0.00     0.005 C 
ATOM     25  C   UNL A   1      32.983  17.731  22.395  1.00  0.00     0.005 C 
ENDBRANCH  13  15
ENDBRANCH   8  13
ENDBRANCH   4   7
ENDBRANCH   2   3
ENDBRANCH   1   2
BRANCH   1  26
ATOM     26  C   UNL A   1      37.246  21.365  25.628  1.00  0.00     0.118 C 
BRANCH  26  27
ATOM     27  N   UNL A   1      38.468  20.583  25.741  1.00  0.00    -0.352 N 
ATOM     28  C   UNL A   1      39.743  20.842  26.183  1.00  0.00     0.251 C 
ATOM     29  H   UNL A   1      38.356  19.656  25.430  1.00  0.00     0.163 HD
ATOM     30  O   UNL A   1      40.565  19.925  26.111  1.00  0.00    -0.269 OA
BRANCH  28  31
ATOM     31  C   UNL A   1      40.206  22.167  26.681  1.00  0.00     0.039 A 
ATOM     32  C   UNL A   1      39.804  23.384  26.149  1.00  0.00     0.014 A 
ATOM     33  C   UNL A   1      41.072  22.190  27.789  1.00  0.00     0.014 A 
ATOM     34  C   UNL A   1      40.398  24.576  26.569  1.00  0.00     0.010 A 
ATOM     35  C   UNL A   1      41.571  23.401  28.296  1.00  0.00     0.010 A 
ATOM     36  C   UNL A   1      41.296  24.609  27.647  1.00  0.00    -0.014 A 
BRANCH  36  37
ATOM     37  C   UNL A   1      41.899  25.915  28.047  1.00  0.00     0.031 A 
ATOM     38  C   UNL A   1      43.300  26.297  27.643  1.00  0.00     0.074 A 
ATOM     39  C   UNL A   1      41.144  26.828  28.693  1.00  0.00     0.049 A 
ATOM     40  N   UNL A   1      43.872  27.479  27.656  1.00  0.00    -0.248 NA
ATOM     41  C   UNL A   1      44.178  25.225  27.159  1.00  0.00     0.031 C 
ATOM     42  C   UNL A   1      39.785  26.602  29.185  1.00  0.00     0.029 A 
ATOM     43  N   UNL A   1      41.400  28.139  29.016  1.00  0.00    -0.354 N 
ATOM     44  C   UNL A   1      45.134  27.297  27.109  1.00  0.00     0.074 A 
ATOM     45  C   UNL A   1      45.295  25.883  26.882  1.00  0.00     0.031 C 
ATOM     46  C   UNL A   1      39.305  27.747  29.690  1.00  0.00     0.029 A 
ATOM     47  C   UNL A   1      40.340  28.775  29.612  1.00  0.00     0.049 A 
ATOM     48  H   UNL A   1      42.262  28.580  28.836  1.00  0.00     0.167 HD
ATOM     49  C   UNL A   1      46.068  28.219  26.783  1.00  0.00     0.037 A 
ATOM     50  C   UNL A   1      40.210  30.040  30.056  1.00  0.00     0.037 A 
ATOM     51  C   UNL A   1      45.983  29.612  27.122  1.00  0.00     0.049 A 
ATOM     52  C   UNL A   1      41.350  31.005  29.887  1.00  0.00     0.074 A 
ATOM     53  C   UNL A   1      46.891  30.623  26.861  1.00  0.00     0.029 A 
ATOM     54  N   UNL A   1      44.949  30.175  27.851  1.00  0.00    -0.354 N 
ATOM     55  N   UNL A   1      42.478  30.846  29.239  1.00  0.00    -0.248 NA
ATOM     56  C   UNL A   1      41.203  32.321  30.523  1.00  0.00     0.031 C 
ATOM     57  C   UNL A   1      46.444  31.782  27.503  1.00  0.00     0.029 A 
ATOM     58  C   UNL A   1      45.231  31.504  28.115  1.00  0.00     0.049 A 
ATOM     59  H   UNL A   1      44.136  29.700  28.138  1.00  0.00     0.167 HD
ATOM     60  C   UNL A   1      43.171  32.040  29.380  1.00  0.00     0.074 A 
ATOM     61  C   UNL A   1      42.329  32.923  30.160  1.00  0.00     0.031 C 
ATOM     62  C   UNL A   1      44.397  32.371  28.906  1.00  0.00     0.037 A 
BRANCH  49  63
ATOM     63  C   UNL A   1      47.265  27.751  26.011  1.00  0.00     0.064 A 
ATOM     64  C   UNL A   1      47.238  27.700  24.609  1.00  0.00     0.173 A 
ATOM     65  C   UNL A   1      48.461  27.412  26.660  1.00  0.00     0.173 A 
ATOM     66  F   UNL A   1      46.112  27.997  23.943  1.00  0.00    -0.203 F 
ATOM     67  C   UNL A   1      48.366  27.325  23.883  1.00  0.00     0.198 A 
ATOM     68  C   UNL A   1      49.591  27.051  25.930  1.00  0.00     0.198 A 
ATOM     69  F   UNL A   1      48.535  27.441  27.998  1.00  0.00    -0.203 F 
ATOM     70  F   UNL A   1      48.310  27.264  22.545  1.00  0.00    -0.200 F 
ATOM     71  C   UNL A   1      49.542  27.008  24.544  1.00  0.00     0.200 A 
ATOM     72  F   UNL A   1      50.730  26.747  26.568  1.00  0.00    -0.200 F 
ATOM     73  F   UNL A   1      50.631  26.657  23.844  1.00  0.00    -0.200 F 
ENDBRANCH  49  63
BRANCH  50  74
ATOM     74  C   UNL A   1      38.948  30.450  30.723  1.00  0.00     0.064 A 
ATOM     75  C   UNL A   1      38.808  30.389  32.115  1.00  0.00     0.173 A 
ATOM     76  C   UNL A   1      37.867  30.945  29.978  1.00  0.00     0.173 A 
ATOM     77  F   UNL A   1      39.804  29.901  32.868  1.00  0.00    -0.203 F 
ATOM     78  C   UNL A   1      37.635  30.813  32.737  1.00  0.00     0.198 A 
ATOM     79  C   UNL A   1      36.707  31.395  30.602  1.00  0.00     0.198 A 
ATOM     80  F   UNL A   1      37.952  31.019  28.641  1.00  0.00    -0.203 F 
ATOM     81  F   UNL A   1      37.515  30.722  34.069  1.00  0.00    -0.200 F 
ATOM     82  C   UNL A   1      36.590  31.325  31.982  1.00  0.00     0.200 A 
ATOM     83  F   UNL A   1      35.709  31.904  29.868  1.00  0.00    -0.200 F 
ATOM     84  F   UNL A   1      35.470  31.751  32.582  1.00  0.00    -0.200 F 
ENDBRANCH  50  74
BRANCH  62  85
ATOM     85  C   UNL A   1      44.921  33.738  29.222  1.00  0.00     0.064 A 
ATOM     86  C   UNL A   1      45.742  33.961  30.337  1.00  0.00     0.173 A 
ATOM     87  C   UNL A   1      44.669  34.818  28.363  1.00  0.00     0.173 A 
ATOM     88  F   UNL A   1      46.002  32.963  31.194  1.00  0.00    -0.203 F 
ATOM     89  C   UNL A   1      46.282  35.220  30.586  1.00  0.00     0.198 A 
ATOM     90  C   UNL A   1      45.234  36.067  28.599  1.00  0.00     0.198 A 
ATOM     91  F   UNL A   1      43.898  34.653  27.278  1.00  0.00    -0.203 F 
ATOM     92  F   UNL A   1      47.039  35.419  31.674  1.00  0.00    -0.200 F 
ATOM     93  C   UNL A   1      46.037  36.268  29.713  1.00  0.00     0.200 A 
ATOM     94  F   UNL A   1      45.009  37.075  27.744  1.00  0.00    -0.200 F 
ATOM     95  F   UNL A   1      46.573  37.475  29.943  1.00  0.00    -0.200 F 
ENDBRANCH  62  85
ENDBRANCH  36  37
ENDBRANCH  28  31
ENDBRANCH  26  27
ENDBRANCH   1  26
TORSDOF 12
ENDMDL
