MODEL 1
REMARK VINA RESULT:     -12.0      0.000      0.000
REMARK SMILES CC(C)[NH2+][C@]1(C(=O)NCCCNC(=O)c2ccc(-c3c4nc(c(-c5c(F)c(F)c(F)c(F)c5F)c5ccc([nH]5)c(-c5c(F)c(F)c(F)c(F)c5F)c5nc(c(-c6c(F)c(F)c(F)c(F)c6F)c6ccc3[nH]6)C=C5)C=C4)cc2)CC[C@H](Sc2ccncn2)C1
REMARK SMILES IDX 10 1 9 2 8 3 6 4 7 5 5 7 78 8 88 9 79 10 80 11 4 12 2 15
REMARK SMILES IDX 1 16 3 17 81 18 82 19 83 20 87 21 84 22 86 23 85 24 11 25
REMARK SMILES IDX 12 26 13 27 14 29 15 30 16 31 77 32 17 33 76 34 18 35 19 36
REMARK SMILES IDX 20 37 70 38 21 39 75 40 69 41 71 42 22 43 74 44 68 45 67 46
REMARK SMILES IDX 23 48 55 49 35 50 54 51 36 52 39 53 53 54 72 55 37 56 38 57
REMARK SMILES IDX 52 59 73 60 40 61 24 62 25 63 33 64 26 65 27 66 31 67 34 68
REMARK SMILES IDX 28 69 29 70 32 71 30 72 56 73 57 74 65 75 58 76 59 77 63 78
REMARK SMILES IDX 66 79 60 80 61 81 64 82 62 83 41 84 42 85 50 86 43 87 44 88
REMARK SMILES IDX 48 89 51 90 45 91 46 92 49 93 47 94
REMARK H PARENT 8 6 4 13 4 14 12 28 71 47 39 58
REMARK Flexibility Score: inf
ROOT
ATOM      1  C   UNL A   1      31.972  28.184  25.914  1.00  0.00     0.042 C 
ENDROOT
BRANCH   1   2
ATOM      2  C   UNL A   1      32.527  26.797  26.216  1.00  0.00     0.118 C 
BRANCH   2   3
ATOM      3  N   UNL A   1      31.533  25.827  26.656  1.00  0.00    -0.351 N 
ATOM      4  C   UNL A   1      31.370  24.483  26.507  1.00  0.00     0.281 C 
ATOM      5  O   UNL A   1      30.490  23.979  27.221  1.00  0.00    -0.268 OA
ATOM      6  H   UNL A   1      30.811  26.239  27.183  1.00  0.00     0.163 HD
BRANCH   4   7
ATOM      7  C   UNL A   1      32.123  23.606  25.468  1.00  0.00     0.176 C 
ATOM      8  C   UNL A   1      33.643  23.547  25.598  1.00  0.00     0.080 C 
ATOM      9  C   UNL A   1      31.767  22.116  25.765  1.00  0.00     0.094 C 
ATOM     10  C   UNL A   1      34.072  22.238  24.957  1.00  0.00     0.022 C 
ATOM     11  C   UNL A   1      32.957  21.254  25.305  1.00  0.00     0.060 C 
BRANCH   7  12
ATOM     12  N   UNL A   1      31.688  23.869  24.070  1.00  0.00    -0.332 N 
ATOM     13  H   UNL A   1      31.765  22.990  23.561  1.00  0.00     0.347 HD
ATOM     14  H   UNL A   1      30.747  24.250  24.169  1.00  0.00     0.347 HD
BRANCH  12  15
ATOM     15  C   UNL A   1      32.403  24.882  23.295  1.00  0.00     0.176 C 
ATOM     16  C   UNL A   1      32.977  24.198  22.051  1.00  0.00     0.075 C 
ATOM     17  C   UNL A   1      31.497  26.032  22.839  1.00  0.00     0.075 C 
ENDBRANCH  12  15
ENDBRANCH   7  12
BRANCH  11  18
ATOM     18  S   UNL A   1      32.527  20.145  23.913  1.00  0.00    -0.103 SA
BRANCH  18  19
ATOM     19  C   UNL A   1      33.083  18.541  24.473  1.00  0.00     0.100 A 
ATOM     20  C   UNL A   1      34.351  18.044  24.244  1.00  0.00     0.055 A 
ATOM     21  N   UNL A   1      32.163  17.845  25.169  1.00  0.00    -0.230 NA
ATOM     22  C   UNL A   1      34.614  16.786  24.733  1.00  0.00     0.115 A 
ATOM     23  C   UNL A   1      32.532  16.638  25.616  1.00  0.00     0.222 A 
ATOM     24  N   UNL A   1      33.723  16.056  25.423  1.00  0.00    -0.245 NA
ENDBRANCH  18  19
ENDBRANCH  11  18
ENDBRANCH   4   7
ENDBRANCH   2   3
ENDBRANCH   1   2
BRANCH   1  25
ATOM     25  C   UNL A   1      33.029  29.183  25.462  1.00  0.00     0.118 C 
BRANCH  25  26
ATOM     26  N   UNL A   1      32.749  30.522  25.960  1.00  0.00    -0.352 N 
ATOM     27  C   UNL A   1      33.303  31.216  27.004  1.00  0.00     0.251 C 
ATOM     28  H   UNL A   1      32.049  31.008  25.468  1.00  0.00     0.163 HD
ATOM     29  O   UNL A   1      32.721  32.213  27.434  1.00  0.00    -0.269 OA
BRANCH  27  30
ATOM     30  C   UNL A   1      34.588  30.805  27.613  1.00  0.00     0.039 A 
ATOM     31  C   UNL A   1      34.745  29.476  28.023  1.00  0.00     0.014 A 
ATOM     32  C   UNL A   1      35.599  31.733  27.880  1.00  0.00     0.014 A 
ATOM     33  C   UNL A   1      35.912  29.078  28.682  1.00  0.00     0.010 A 
ATOM     34  C   UNL A   1      36.795  31.319  28.461  1.00  0.00     0.010 A 
ATOM     35  C   UNL A   1      36.949  29.997  28.901  1.00  0.00    -0.014 A 
BRANCH  35  36
ATOM     36  C   UNL A   1      38.166  29.619  29.666  1.00  0.00     0.031 A 
ATOM     37  C   UNL A   1      38.379  30.176  31.049  1.00  0.00     0.074 A 
ATOM     38  C   UNL A   1      39.094  28.821  29.109  1.00  0.00     0.049 A 
ATOM     39  N   UNL A   1      39.405  30.041  31.851  1.00  0.00    -0.248 NA
ATOM     40  C   UNL A   1      37.306  31.027  31.591  1.00  0.00     0.031 C 
ATOM     41  C   UNL A   1      39.025  28.249  27.765  1.00  0.00     0.029 A 
ATOM     42  N   UNL A   1      40.288  28.359  29.606  1.00  0.00    -0.354 N 
ATOM     43  C   UNL A   1      39.114  30.811  32.970  1.00  0.00     0.074 A 
ATOM     44  C   UNL A   1      37.840  31.450  32.726  1.00  0.00     0.031 C 
ATOM     45  C   UNL A   1      40.116  27.495  27.551  1.00  0.00     0.029 A 
ATOM     46  C   UNL A   1      40.974  27.554  28.731  1.00  0.00     0.049 A 
ATOM     47  H   UNL A   1      40.620  28.584  30.505  1.00  0.00     0.167 HD
ATOM     48  C   UNL A   1      39.830  30.954  34.110  1.00  0.00     0.037 A 
ATOM     49  C   UNL A   1      42.161  26.933  28.868  1.00  0.00     0.037 A 
ATOM     50  C   UNL A   1      41.073  30.278  34.373  1.00  0.00     0.049 A 
ATOM     51  C   UNL A   1      42.919  27.074  30.161  1.00  0.00     0.074 A 
ATOM     52  C   UNL A   1      41.854  30.314  35.514  1.00  0.00     0.029 A 
ATOM     53  N   UNL A   1      41.710  29.429  33.480  1.00  0.00    -0.354 N 
ATOM     54  N   UNL A   1      42.611  27.767  31.231  1.00  0.00    -0.248 NA
ATOM     55  C   UNL A   1      44.184  26.334  30.270  1.00  0.00     0.031 C 
ATOM     56  C   UNL A   1      42.976  29.507  35.302  1.00  0.00     0.029 A 
ATOM     57  C   UNL A   1      42.874  28.936  34.045  1.00  0.00     0.049 A 
ATOM     58  H   UNL A   1      41.382  29.209  32.578  1.00  0.00     0.167 HD
ATOM     59  C   UNL A   1      43.622  27.522  32.149  1.00  0.00     0.074 A 
ATOM     60  C   UNL A   1      44.549  26.606  31.515  1.00  0.00     0.031 C 
ATOM     61  C   UNL A   1      43.770  28.007  33.405  1.00  0.00     0.037 A 
BRANCH  48  62
ATOM     62  C   UNL A   1      39.279  31.869  35.165  1.00  0.00     0.064 A 
ATOM     63  C   UNL A   1      38.501  31.383  36.227  1.00  0.00     0.173 A 
ATOM     64  C   UNL A   1      39.550  33.245  35.126  1.00  0.00     0.173 A 
ATOM     65  F   UNL A   1      38.202  30.077  36.302  1.00  0.00    -0.203 F 
ATOM     66  C   UNL A   1      37.987  32.245  37.193  1.00  0.00     0.198 A 
ATOM     67  C   UNL A   1      39.058  34.100  36.110  1.00  0.00     0.198 A 
ATOM     68  F   UNL A   1      40.293  33.762  34.136  1.00  0.00    -0.203 F 
ATOM     69  F   UNL A   1      37.202  31.764  38.166  1.00  0.00    -0.200 F 
ATOM     70  C   UNL A   1      38.271  33.600  37.137  1.00  0.00     0.200 A 
ATOM     71  F   UNL A   1      39.343  35.409  36.062  1.00  0.00    -0.200 F 
ATOM     72  F   UNL A   1      37.779  34.428  38.069  1.00  0.00    -0.200 F 
ENDBRANCH  48  62
BRANCH  49  73
ATOM     73  C   UNL A   1      42.684  26.083  27.770  1.00  0.00     0.064 A 
ATOM     74  C   UNL A   1      43.583  26.602  26.828  1.00  0.00     0.173 A 
ATOM     75  C   UNL A   1      42.299  24.741  27.636  1.00  0.00     0.173 A 
ATOM     76  F   UNL A   1      43.964  27.885  26.904  1.00  0.00    -0.203 F 
ATOM     77  C   UNL A   1      44.061  25.818  25.781  1.00  0.00     0.198 A 
ATOM     78  C   UNL A   1      42.799  23.950  26.604  1.00  0.00     0.198 A 
ATOM     79  F   UNL A   1      41.447  24.195  28.516  1.00  0.00    -0.203 F 
ATOM     80  F   UNL A   1      44.887  26.352  24.870  1.00  0.00    -0.200 F 
ATOM     81  C   UNL A   1      43.673  24.491  25.672  1.00  0.00     0.200 A 
ATOM     82  F   UNL A   1      42.432  22.664  26.509  1.00  0.00    -0.200 F 
ATOM     83  F   UNL A   1      44.137  23.735  24.667  1.00  0.00    -0.200 F 
ENDBRANCH  49  73
BRANCH  61  84
ATOM     84  C   UNL A   1      44.945  27.518  34.198  1.00  0.00     0.064 A 
ATOM     85  C   UNL A   1      46.169  28.201  34.199  1.00  0.00     0.173 A 
ATOM     86  C   UNL A   1      44.830  26.371  34.996  1.00  0.00     0.173 A 
ATOM     87  F   UNL A   1      46.332  29.296  33.439  1.00  0.00    -0.203 F 
ATOM     88  C   UNL A   1      47.244  27.739  34.952  1.00  0.00     0.198 A 
ATOM     89  C   UNL A   1      45.898  25.926  35.769  1.00  0.00     0.198 A 
ATOM     90  F   UNL A   1      43.676  25.686  35.034  1.00  0.00    -0.203 F 
ATOM     91  F   UNL A   1      48.419  28.381  34.904  1.00  0.00    -0.200 F 
ATOM     92  C   UNL A   1      47.106  26.606  35.741  1.00  0.00     0.200 A 
ATOM     93  F   UNL A   1      45.759  24.838  36.538  1.00  0.00    -0.200 F 
ATOM     94  F   UNL A   1      48.141  26.165  36.469  1.00  0.00    -0.200 F 
ENDBRANCH  61  84
ENDBRANCH  35  36
ENDBRANCH  27  30
ENDBRANCH  25  26
ENDBRANCH   1  25
TORSDOF 14
ENDMDL
MODEL 2
REMARK VINA RESULT:     -12.0      0.530      7.456
REMARK SMILES CC(C)[NH2+][C@]1(C(=O)NCCCNC(=O)c2ccc(-c3c4nc(c(-c5c(F)c(F)c(F)c(F)c5F)c5ccc([nH]5)c(-c5c(F)c(F)c(F)c(F)c5F)c5nc(c(-c6c(F)c(F)c(F)c(F)c6F)c6ccc3[nH]6)C=C5)C=C4)cc2)CC[C@H](Sc2ccncn2)C1
REMARK SMILES IDX 10 1 9 2 8 3 6 4 7 5 5 7 78 8 88 9 79 10 80 11 4 12 2 15
REMARK SMILES IDX 1 16 3 17 81 18 82 19 83 20 87 21 84 22 86 23 85 24 11 25
REMARK SMILES IDX 12 26 13 27 14 29 15 30 16 31 77 32 17 33 76 34 18 35 19 36
REMARK SMILES IDX 20 37 70 38 21 39 75 40 69 41 71 42 22 43 74 44 68 45 67 46
REMARK SMILES IDX 23 48 55 49 35 50 54 51 36 52 39 53 53 54 72 55 37 56 38 57
REMARK SMILES IDX 52 59 73 60 40 61 24 62 25 63 33 64 26 65 27 66 31 67 34 68
REMARK SMILES IDX 28 69 29 70 32 71 30 72 56 73 57 74 65 75 58 76 59 77 63 78
REMARK SMILES IDX 66 79 60 80 61 81 64 82 62 83 41 84 42 85 50 86 43 87 44 88
REMARK SMILES IDX 48 89 51 90 45 91 46 92 49 93 47 94
REMARK H PARENT 8 6 4 13 4 14 12 28 71 47 39 58
REMARK Flexibility Score: inf
ROOT
ATOM      1  C   UNL A   1      32.022  28.090  26.219  1.00  0.00     0.042 C 
ENDROOT
BRANCH   1   2
ATOM      2  C   UNL A   1      32.509  26.645  26.187  1.00  0.00     0.118 C 
BRANCH   2   3
ATOM      3  N   UNL A   1      31.532  25.664  26.639  1.00  0.00    -0.351 N 
ATOM      4  C   UNL A   1      31.385  24.317  26.495  1.00  0.00     0.281 C 
ATOM      5  O   UNL A   1      30.518  23.804  27.218  1.00  0.00    -0.268 OA
ATOM      6  H   UNL A   1      30.809  26.069  27.170  1.00  0.00     0.163 HD
BRANCH   4   7
ATOM      7  C   UNL A   1      32.140  23.448  25.452  1.00  0.00     0.176 C 
ATOM      8  C   UNL A   1      33.661  23.401  25.574  1.00  0.00     0.080 C 
ATOM      9  C   UNL A   1      31.798  21.954  25.750  1.00  0.00     0.094 C 
ATOM     10  C   UNL A   1      34.098  22.096  24.931  1.00  0.00     0.022 C 
ATOM     11  C   UNL A   1      32.993  21.102  25.284  1.00  0.00     0.060 C 
BRANCH   7  12
ATOM     12  N   UNL A   1      31.695  23.707  24.056  1.00  0.00    -0.332 N 
ATOM     13  H   UNL A   1      31.748  22.822  23.554  1.00  0.00     0.347 HD
ATOM     14  H   UNL A   1      30.763  24.109  24.161  1.00  0.00     0.347 HD
BRANCH  12  15
ATOM     15  C   UNL A   1      32.424  24.698  23.264  1.00  0.00     0.176 C 
ATOM     16  C   UNL A   1      33.020  23.978  22.051  1.00  0.00     0.075 C 
ATOM     17  C   UNL A   1      31.525  25.833  22.758  1.00  0.00     0.075 C 
ENDBRANCH  12  15
ENDBRANCH   7  12
BRANCH  11  18
ATOM     18  S   UNL A   1      32.565  19.990  23.893  1.00  0.00    -0.103 SA
BRANCH  18  19
ATOM     19  C   UNL A   1      33.117  18.387  24.460  1.00  0.00     0.100 A 
ATOM     20  C   UNL A   1      34.398  17.906  24.274  1.00  0.00     0.055 A 
ATOM     21  N   UNL A   1      32.179  17.676  25.115  1.00  0.00    -0.230 NA
ATOM     22  C   UNL A   1      34.656  16.645  24.761  1.00  0.00     0.115 A 
ATOM     23  C   UNL A   1      32.544  16.468  25.564  1.00  0.00     0.222 A 
ATOM     24  N   UNL A   1      33.748  15.901  25.411  1.00  0.00    -0.245 NA
ENDBRANCH  18  19
ENDBRANCH  11  18
ENDBRANCH   4   7
ENDBRANCH   2   3
ENDBRANCH   1   2
BRANCH   1  25
ATOM     25  C   UNL A   1      32.995  29.079  25.591  1.00  0.00     0.118 C 
BRANCH  25  26
ATOM     26  N   UNL A   1      32.673  30.451  25.955  1.00  0.00    -0.352 N 
ATOM     27  C   UNL A   1      33.194  31.257  26.934  1.00  0.00     0.251 C 
ATOM     28  H   UNL A   1      31.968  30.869  25.411  1.00  0.00     0.163 HD
ATOM     29  O   UNL A   1      32.580  32.274  27.260  1.00  0.00    -0.269 OA
BRANCH  27  30
ATOM     30  C   UNL A   1      34.481  30.942  27.594  1.00  0.00     0.039 A 
ATOM     31  C   UNL A   1      34.702  29.636  28.048  1.00  0.00     0.014 A 
ATOM     32  C   UNL A   1      35.425  31.935  27.865  1.00  0.00     0.014 A 
ATOM     33  C   UNL A   1      35.868  29.328  28.754  1.00  0.00     0.010 A 
ATOM     34  C   UNL A   1      36.624  31.610  28.495  1.00  0.00     0.010 A 
ATOM     35  C   UNL A   1      36.841  30.313  28.978  1.00  0.00    -0.014 A 
BRANCH  35  36
ATOM     36  C   UNL A   1      38.053  30.031  29.791  1.00  0.00     0.031 A 
ATOM     37  C   UNL A   1      39.125  29.127  29.241  1.00  0.00     0.074 A 
ATOM     38  C   UNL A   1      38.172  30.543  31.030  1.00  0.00     0.049 A 
ATOM     39  N   UNL A   1      40.218  28.688  29.814  1.00  0.00    -0.248 NA
ATOM     40  C   UNL A   1      38.926  28.624  27.871  1.00  0.00     0.031 C 
ATOM     41  C   UNL A   1      37.188  31.398  31.691  1.00  0.00     0.029 A 
ATOM     42  N   UNL A   1      39.174  30.408  31.959  1.00  0.00    -0.354 N 
ATOM     43  C   UNL A   1      40.813  27.837  28.890  1.00  0.00     0.074 A 
ATOM     44  C   UNL A   1      39.939  27.782  27.740  1.00  0.00     0.031 C 
ATOM     45  C   UNL A   1      37.644  31.731  32.910  1.00  0.00     0.029 A 
ATOM     46  C   UNL A   1      38.937  31.090  33.127  1.00  0.00     0.049 A 
ATOM     47  H   UNL A   1      39.986  29.874  31.801  1.00  0.00     0.167 HD
ATOM     48  C   UNL A   1      41.993  27.180  28.981  1.00  0.00     0.037 A 
ATOM     49  C   UNL A   1      39.682  31.184  34.244  1.00  0.00     0.037 A 
ATOM     50  C   UNL A   1      42.886  27.276  30.106  1.00  0.00     0.049 A 
ATOM     51  C   UNL A   1      41.010  30.478  34.305  1.00  0.00     0.074 A 
ATOM     52  C   UNL A   1      44.128  26.691  30.277  1.00  0.00     0.029 A 
ATOM     53  N   UNL A   1      42.632  28.018  31.249  1.00  0.00    -0.354 N 
ATOM     54  N   UNL A   1      41.584  29.715  33.407  1.00  0.00    -0.248 NA
ATOM     55  C   UNL A   1      41.799  30.660  35.531  1.00  0.00     0.031 C 
ATOM     56  C   UNL A   1      44.615  27.060  31.536  1.00  0.00     0.029 A 
ATOM     57  C   UNL A   1      43.694  27.906  32.131  1.00  0.00     0.049 A 
ATOM     58  H   UNL A   1      41.818  28.548  31.410  1.00  0.00     0.167 HD
ATOM     59  C   UNL A   1      42.812  29.353  33.942  1.00  0.00     0.074 A 
ATOM     60  C   UNL A   1      42.906  29.989  35.240  1.00  0.00     0.031 C 
ATOM     61  C   UNL A   1      43.778  28.567  33.407  1.00  0.00     0.037 A 
BRANCH  48  62
ATOM     62  C   UNL A   1      42.392  26.309  27.826  1.00  0.00     0.064 A 
ATOM     63  C   UNL A   1      43.265  26.766  26.827  1.00  0.00     0.173 A 
ATOM     64  C   UNL A   1      41.914  24.994  27.727  1.00  0.00     0.173 A 
ATOM     65  F   UNL A   1      43.740  28.021  26.868  1.00  0.00    -0.203 F 
ATOM     66  C   UNL A   1      43.619  25.951  25.755  1.00  0.00     0.198 A 
ATOM     67  C   UNL A   1      42.292  24.171  26.668  1.00  0.00     0.198 A 
ATOM     68  F   UNL A   1      41.080  24.504  28.657  1.00  0.00    -0.203 F 
ATOM     69  F   UNL A   1      44.411  26.429  24.785  1.00  0.00    -0.200 F 
ATOM     70  C   UNL A   1      43.137  24.653  25.680  1.00  0.00     0.200 A 
ATOM     71  F   UNL A   1      41.836  22.913  26.603  1.00  0.00    -0.200 F 
ATOM     72  F   UNL A   1      43.481  23.868  24.649  1.00  0.00    -0.200 F 
ENDBRANCH  48  62
BRANCH  49  73
ATOM     73  C   UNL A   1      39.212  32.018  35.379  1.00  0.00     0.064 A 
ATOM     74  C   UNL A   1      39.518  33.385  35.438  1.00  0.00     0.173 A 
ATOM     75  C   UNL A   1      38.453  31.473  36.424  1.00  0.00     0.173 A 
ATOM     76  F   UNL A   1      40.258  33.947  34.471  1.00  0.00    -0.203 F 
ATOM     77  C   UNL A   1      39.101  34.171  36.510  1.00  0.00     0.198 A 
ATOM     78  C   UNL A   1      38.014  32.265  37.482  1.00  0.00     0.198 A 
ATOM     79  F   UNL A   1      38.128  30.172  36.409  1.00  0.00    -0.203 F 
ATOM     80  F   UNL A   1      39.443  35.466  36.562  1.00  0.00    -0.200 F 
ATOM     81  C   UNL A   1      38.344  33.612  37.529  1.00  0.00     0.200 A 
ATOM     82  F   UNL A   1      37.272  31.725  38.459  1.00  0.00    -0.200 F 
ATOM     83  F   UNL A   1      37.940  34.368  38.558  1.00  0.00    -0.200 F 
ENDBRANCH  49  73
BRANCH  61  84
ATOM     84  C   UNL A   1      45.040  28.394  34.198  1.00  0.00     0.064 A 
ATOM     85  C   UNL A   1      45.212  27.325  35.088  1.00  0.00     0.173 A 
ATOM     86  C   UNL A   1      46.105  29.292  34.032  1.00  0.00     0.173 A 
ATOM     87  F   UNL A   1      44.215  26.450  35.292  1.00  0.00    -0.203 F 
ATOM     88  C   UNL A   1      46.396  27.175  35.803  1.00  0.00     0.198 A 
ATOM     89  C   UNL A   1      47.299  29.123  34.728  1.00  0.00     0.198 A 
ATOM     90  F   UNL A   1      45.992  30.327  33.186  1.00  0.00    -0.203 F 
ATOM     91  F   UNL A   1      46.523  26.171  36.682  1.00  0.00    -0.200 F 
ATOM     92  C   UNL A   1      47.441  28.069  35.617  1.00  0.00     0.200 A 
ATOM     93  F   UNL A   1      48.309  29.982  34.539  1.00  0.00    -0.200 F 
ATOM     94  F   UNL A   1      48.582  27.920  36.304  1.00  0.00    -0.200 F 
ENDBRANCH  61  84
ENDBRANCH  35  36
ENDBRANCH  27  30
ENDBRANCH  25  26
ENDBRANCH   1  25
TORSDOF 14
ENDMDL
MODEL 3
REMARK VINA RESULT:     -11.9      4.107      9.312
REMARK SMILES CC(C)[NH2+][C@]1(C(=O)NCCCNC(=O)c2ccc(-c3c4nc(c(-c5c(F)c(F)c(F)c(F)c5F)c5ccc([nH]5)c(-c5c(F)c(F)c(F)c(F)c5F)c5nc(c(-c6c(F)c(F)c(F)c(F)c6F)c6ccc3[nH]6)C=C5)C=C4)cc2)CC[C@H](Sc2ccncn2)C1
REMARK SMILES IDX 10 1 9 2 8 3 6 4 7 5 5 7 78 8 88 9 79 10 80 11 4 12 2 15
REMARK SMILES IDX 1 16 3 17 81 18 82 19 83 20 87 21 84 22 86 23 85 24 11 25
REMARK SMILES IDX 12 26 13 27 14 29 15 30 16 31 77 32 17 33 76 34 18 35 19 36
REMARK SMILES IDX 20 37 70 38 21 39 75 40 69 41 71 42 22 43 74 44 68 45 67 46
REMARK SMILES IDX 23 48 55 49 35 50 54 51 36 52 39 53 53 54 72 55 37 56 38 57
REMARK SMILES IDX 52 59 73 60 40 61 24 62 25 63 33 64 26 65 27 66 31 67 34 68
REMARK SMILES IDX 28 69 29 70 32 71 30 72 56 73 57 74 65 75 58 76 59 77 63 78
REMARK SMILES IDX 66 79 60 80 61 81 64 82 62 83 41 84 42 85 50 86 43 87 44 88
REMARK SMILES IDX 48 89 51 90 45 91 46 92 49 93 47 94
REMARK H PARENT 8 6 4 13 4 14 12 28 71 47 39 58
REMARK Flexibility Score: inf
ROOT
ATOM      1  C   UNL A   1      35.642  23.454  25.218  1.00  0.00     0.042 C 
ENDROOT
BRANCH   1   2
ATOM      2  C   UNL A   1      34.697  24.621  24.956  1.00  0.00     0.118 C 
BRANCH   2   3
ATOM      3  N   UNL A   1      34.374  24.839  23.552  1.00  0.00    -0.351 N 
ATOM      4  C   UNL A   1      33.489  25.628  22.880  1.00  0.00     0.281 C 
ATOM      5  O   UNL A   1      33.665  25.686  21.654  1.00  0.00    -0.268 OA
ATOM      6  H   UNL A   1      34.922  24.287  22.948  1.00  0.00     0.163 HD
BRANCH   4   7
ATOM      7  C   UNL A   1      32.270  26.343  23.525  1.00  0.00     0.176 C 
ATOM      8  C   UNL A   1      32.579  27.406  24.577  1.00  0.00     0.080 C 
ATOM      9  C   UNL A   1      31.612  27.233  22.425  1.00  0.00     0.094 C 
ATOM     10  C   UNL A   1      31.387  28.348  24.590  1.00  0.00     0.022 C 
ATOM     11  C   UNL A   1      30.938  28.423  23.132  1.00  0.00     0.060 C 
BRANCH   7  12
ATOM     12  N   UNL A   1      31.218  25.393  23.977  1.00  0.00    -0.332 N 
ATOM     13  H   UNL A   1      30.317  25.812  23.752  1.00  0.00     0.347 HD
ATOM     14  H   UNL A   1      31.442  24.523  23.493  1.00  0.00     0.347 HD
BRANCH  12  15
ATOM     15  C   UNL A   1      31.179  25.016  25.390  1.00  0.00     0.176 C 
ATOM     16  C   UNL A   1      29.836  25.482  25.960  1.00  0.00     0.075 C 
ATOM     17  C   UNL A   1      31.294  23.501  25.605  1.00  0.00     0.075 C 
ENDBRANCH  12  15
ENDBRANCH   7  12
BRANCH  11  18
ATOM     18  S   UNL A   1      29.116  28.413  22.947  1.00  0.00    -0.103 SA
BRANCH  18  19
ATOM     19  C   UNL A   1      28.731  30.111  22.541  1.00  0.00     0.100 A 
ATOM     20  C   UNL A   1      28.783  31.149  23.450  1.00  0.00     0.055 A 
ATOM     21  N   UNL A   1      28.400  30.313  21.251  1.00  0.00    -0.230 NA
ATOM     22  C   UNL A   1      28.444  32.395  22.978  1.00  0.00     0.115 A 
ATOM     23  C   UNL A   1      28.107  31.570  20.894  1.00  0.00     0.222 A 
ATOM     24  N   UNL A   1      28.100  32.638  21.703  1.00  0.00    -0.245 NA
ENDBRANCH  18  19
ENDBRANCH  11  18
ENDBRANCH   4   7
ENDBRANCH   2   3
ENDBRANCH   1   2
BRANCH   1  25
ATOM     25  C   UNL A   1      37.087  23.736  24.831  1.00  0.00     0.118 C 
BRANCH  25  26
ATOM     26  N   UNL A   1      37.999  22.768  25.423  1.00  0.00    -0.352 N 
ATOM     27  C   UNL A   1      39.122  22.955  26.186  1.00  0.00     0.251 C 
ATOM     28  H   UNL A   1      37.773  21.826  25.248  1.00  0.00     0.163 HD
ATOM     29  O   UNL A   1      39.905  22.016  26.336  1.00  0.00    -0.269 OA
BRANCH  27  30
ATOM     30  C   UNL A   1      39.405  24.250  26.844  1.00  0.00     0.039 A 
ATOM     31  C   UNL A   1      40.111  25.226  26.133  1.00  0.00     0.014 A 
ATOM     32  C   UNL A   1      39.076  24.475  28.184  1.00  0.00     0.014 A 
ATOM     33  C   UNL A   1      40.472  26.425  26.756  1.00  0.00     0.010 A 
ATOM     34  C   UNL A   1      39.361  25.702  28.779  1.00  0.00     0.010 A 
ATOM     35  C   UNL A   1      40.094  26.673  28.084  1.00  0.00    -0.014 A 
BRANCH  35  36
ATOM     36  C   UNL A   1      40.529  27.905  28.793  1.00  0.00     0.031 A 
ATOM     37  C   UNL A   1      41.961  28.038  29.243  1.00  0.00     0.074 A 
ATOM     38  C   UNL A   1      39.641  28.876  29.072  1.00  0.00     0.049 A 
ATOM     39  N   UNL A   1      42.526  28.988  29.946  1.00  0.00    -0.248 NA
ATOM     40  C   UNL A   1      42.871  26.939  28.882  1.00  0.00     0.031 C 
ATOM     41  C   UNL A   1      38.220  28.849  28.725  1.00  0.00     0.029 A 
ATOM     42  N   UNL A   1      39.803  30.074  29.722  1.00  0.00    -0.354 N 
ATOM     43  C   UNL A   1      43.843  28.584  30.134  1.00  0.00     0.074 A 
ATOM     44  C   UNL A   1      43.981  27.284  29.517  1.00  0.00     0.031 C 
ATOM     45  C   UNL A   1      37.645  29.988  29.146  1.00  0.00     0.029 A 
ATOM     46  C   UNL A   1      38.647  30.809  29.816  1.00  0.00     0.049 A 
ATOM     47  H   UNL A   1      40.666  30.377  30.086  1.00  0.00     0.167 HD
ATOM     48  C   UNL A   1      44.853  29.248  30.745  1.00  0.00     0.037 A 
ATOM     49  C   UNL A   1      38.426  32.012  30.380  1.00  0.00     0.037 A 
ATOM     50  C   UNL A   1      44.727  30.563  31.314  1.00  0.00     0.049 A 
ATOM     51  C   UNL A   1      39.574  32.748  31.016  1.00  0.00     0.074 A 
ATOM     52  C   UNL A   1      45.700  31.345  31.912  1.00  0.00     0.029 A 
ATOM     53  N   UNL A   1      43.551  31.297  31.344  1.00  0.00    -0.354 N 
ATOM     54  N   UNL A   1      40.825  32.378  31.147  1.00  0.00    -0.248 NA
ATOM     55  C   UNL A   1      39.281  34.077  31.571  1.00  0.00     0.031 C 
ATOM     56  C   UNL A   1      45.106  32.542  32.325  1.00  0.00     0.029 A 
ATOM     57  C   UNL A   1      43.773  32.523  31.949  1.00  0.00     0.049 A 
ATOM     58  H   UNL A   1      42.685  30.993  30.986  1.00  0.00     0.167 HD
ATOM     59  C   UNL A   1      41.474  33.437  31.766  1.00  0.00     0.074 A 
ATOM     60  C   UNL A   1      40.481  34.471  31.975  1.00  0.00     0.031 C 
ATOM     61  C   UNL A   1      42.776  33.546  32.126  1.00  0.00     0.037 A 
BRANCH  48  62
ATOM     62  C   UNL A   1      46.187  28.564  30.817  1.00  0.00     0.064 A 
ATOM     63  C   UNL A   1      47.150  28.723  29.808  1.00  0.00     0.173 A 
ATOM     64  C   UNL A   1      46.516  27.759  31.917  1.00  0.00     0.173 A 
ATOM     65  F   UNL A   1      46.880  29.471  28.728  1.00  0.00    -0.203 F 
ATOM     66  C   UNL A   1      48.380  28.074  29.883  1.00  0.00     0.198 A 
ATOM     67  C   UNL A   1      47.759  27.134  32.003  1.00  0.00     0.198 A 
ATOM     68  F   UNL A   1      45.635  27.577  32.912  1.00  0.00    -0.203 F 
ATOM     69  F   UNL A   1      49.262  28.197  28.881  1.00  0.00    -0.200 F 
ATOM     70  C   UNL A   1      48.685  27.286  30.982  1.00  0.00     0.200 A 
ATOM     71  F   UNL A   1      48.058  26.382  33.071  1.00  0.00    -0.200 F 
ATOM     72  F   UNL A   1      49.871  26.665  31.054  1.00  0.00    -0.200 F 
ENDBRANCH  48  62
BRANCH  49  73
ATOM     73  C   UNL A   1      37.072  32.617  30.326  1.00  0.00     0.064 A 
ATOM     74  C   UNL A   1      36.695  33.434  29.251  1.00  0.00     0.173 A 
ATOM     75  C   UNL A   1      36.130  32.396  31.341  1.00  0.00     0.173 A 
ATOM     76  F   UNL A   1      37.570  33.691  28.268  1.00  0.00    -0.203 F 
ATOM     77  C   UNL A   1      35.435  34.025  29.203  1.00  0.00     0.198 A 
ATOM     78  C   UNL A   1      34.860  32.966  31.278  1.00  0.00     0.198 A 
ATOM     79  F   UNL A   1      36.439  31.616  32.386  1.00  0.00    -0.203 F 
ATOM     80  F   UNL A   1      35.116  34.836  28.185  1.00  0.00    -0.200 F 
ATOM     81  C   UNL A   1      34.516  33.787  30.214  1.00  0.00     0.200 A 
ATOM     82  F   UNL A   1      33.969  32.724  32.251  1.00  0.00    -0.200 F 
ATOM     83  F   UNL A   1      33.302  34.352  30.166  1.00  0.00    -0.200 F 
ENDBRANCH  49  73
BRANCH  61  84
ATOM     84  C   UNL A   1      43.215  34.846  32.734  1.00  0.00     0.064 A 
ATOM     85  C   UNL A   1      43.619  35.930  31.943  1.00  0.00     0.173 A 
ATOM     86  C   UNL A   1      43.192  35.017  34.126  1.00  0.00     0.173 A 
ATOM     87  F   UNL A   1      43.671  35.809  30.607  1.00  0.00    -0.203 F 
ATOM     88  C   UNL A   1      44.010  37.132  32.525  1.00  0.00     0.198 A 
ATOM     89  C   UNL A   1      43.558  36.229  34.704  1.00  0.00     0.198 A 
ATOM     90  F   UNL A   1      42.806  34.011  34.925  1.00  0.00    -0.203 F 
ATOM     91  F   UNL A   1      44.435  38.141  31.753  1.00  0.00    -0.200 F 
ATOM     92  C   UNL A   1      43.972  37.283  33.904  1.00  0.00     0.200 A 
ATOM     93  F   UNL A   1      43.511  36.376  36.035  1.00  0.00    -0.200 F 
ATOM     94  F   UNL A   1      44.345  38.443  34.462  1.00  0.00    -0.200 F 
ENDBRANCH  61  84
ENDBRANCH  35  36
ENDBRANCH  27  30
ENDBRANCH  25  26
ENDBRANCH   1  25
TORSDOF 14
ENDMDL
