MODEL 1
REMARK VINA RESULT:     -12.2      0.000      0.000
REMARK SMILES CN(Cc1ncc(C(=O)NCCCNC(=O)c2ccc(-c3c4nc(c(-c5c(F)c(F)c(F)c(F)c5F)c5ccc([nH]5)c(-c5c(F)c(F)c(F)c(F)c5F)c5nc(c(-c6c(F)c(F)c(F)c(F)c6F)c6ccc3[nH]6)C=C5)C=C4)cc2)cn1)S(=O)(=O)c1ccc(Cl)cc1
REMARK SMILES IDX 11 1 10 2 8 3 9 4 7 6 4 7 5 8 81 9 6 10 80 11 3 12 2 13 1 14
REMARK SMILES IDX 82 15 83 16 84 17 85 18 86 19 91 20 87 21 90 22 88 23 89 24
REMARK SMILES IDX 12 25 13 26 14 27 15 28 16 30 17 31 18 32 79 33 19 34 78 35
REMARK SMILES IDX 20 36 21 37 22 38 72 39 23 40 77 41 71 42 73 43 24 44 76 45
REMARK SMILES IDX 70 46 69 47 25 49 57 50 37 51 56 52 38 53 41 54 55 55 74 56
REMARK SMILES IDX 39 57 40 58 54 60 75 61 42 62 26 63 27 64 35 65 28 66 29 67
REMARK SMILES IDX 33 68 36 69 30 70 31 71 34 72 32 73 58 74 59 75 67 76 60 77
REMARK SMILES IDX 61 78 65 79 68 80 62 81 63 82 66 83 64 84 43 85 44 86 52 87
REMARK SMILES IDX 45 88 46 89 50 90 53 91 47 92 48 93 51 94 49 95
REMARK H PARENT 10 5 14 29 73 48 41 59
REMARK Flexibility Score: inf
ROOT
ATOM      1  C   UNL A   1      31.060  30.818  25.428  1.00  0.00     0.118 C 
ENDROOT
BRANCH   1   2
ATOM      2  N   UNL A   1      30.274  31.089  24.239  1.00  0.00    -0.352 N 
ATOM      3  C   UNL A   1      29.670  30.286  23.307  1.00  0.00     0.254 C 
ATOM      4  O   UNL A   1      28.994  30.850  22.444  1.00  0.00    -0.269 OA
ATOM      5  H   UNL A   1      30.148  32.050  24.066  1.00  0.00     0.163 HD
BRANCH   3   6
ATOM      6  C   UNL A   1      29.767  28.813  23.268  1.00  0.00     0.076 A 
ATOM      7  C   UNL A   1      30.194  26.114  23.323  1.00  0.00     0.143 A 
ATOM      8  N   UNL A   1      28.938  26.563  23.511  1.00  0.00    -0.239 NA
ATOM      9  N   UNL A   1      31.242  26.902  23.022  1.00  0.00    -0.239 NA
ATOM     10  C   UNL A   1      28.773  27.904  23.533  1.00  0.00     0.128 A 
ATOM     11  C   UNL A   1      30.995  28.235  22.998  1.00  0.00     0.128 A 
BRANCH   7  12
ATOM     12  C   UNL A   1      30.454  24.644  23.602  1.00  0.00     0.179 C 
BRANCH  12  13
ATOM     13  N   UNL A   1      31.402  24.330  24.728  1.00  0.00    -0.193 NA
ATOM     14  C   UNL A   1      31.837  22.913  24.733  1.00  0.00     0.125 C 
BRANCH  13  15
ATOM     15  S   UNL A   1      30.940  24.883  26.279  1.00  0.00     0.243 S 
ATOM     16  O   UNL A   1      29.554  25.286  26.254  1.00  0.00    -0.207 OA
ATOM     17  O   UNL A   1      31.406  23.909  27.247  1.00  0.00    -0.207 OA
BRANCH  15  18
ATOM     18  C   UNL A   1      31.942  26.330  26.507  1.00  0.00     0.082 A 
ATOM     19  C   UNL A   1      33.218  26.361  25.936  1.00  0.00     0.023 A 
ATOM     20  C   UNL A   1      31.469  27.399  27.272  1.00  0.00     0.023 A 
ATOM     21  C   UNL A   1      34.032  27.476  26.135  1.00  0.00     0.022 A 
ATOM     22  C   UNL A   1      32.294  28.509  27.476  1.00  0.00     0.022 A 
ATOM     23  C   UNL A   1      33.569  28.542  26.908  1.00  0.00     0.041 A 
ATOM     24  Cl  UNL A   1      34.585  29.905  27.172  1.00  0.00    -0.084 Cl
ENDBRANCH  15  18
ENDBRANCH  13  15
ENDBRANCH  12  13
ENDBRANCH   7  12
ENDBRANCH   3   6
ENDBRANCH   1   2
BRANCH   1  25
ATOM     25  C   UNL A   1      30.980  31.962  26.439  1.00  0.00     0.042 C 
BRANCH  25  26
ATOM     26  C   UNL A   1      32.352  32.476  26.875  1.00  0.00     0.118 C 
BRANCH  26  27
ATOM     27  N   UNL A   1      32.281  33.852  27.354  1.00  0.00    -0.352 N 
ATOM     28  C   UNL A   1      32.961  34.484  28.361  1.00  0.00     0.251 C 
ATOM     29  H   UNL A   1      31.638  34.421  26.872  1.00  0.00     0.163 HD
ATOM     30  O   UNL A   1      32.576  35.587  28.742  1.00  0.00    -0.269 OA
BRANCH  28  31
ATOM     31  C   UNL A   1      34.147  33.867  28.993  1.00  0.00     0.039 A 
ATOM     32  C   UNL A   1      33.946  32.852  29.935  1.00  0.00     0.014 A 
ATOM     33  C   UNL A   1      35.438  34.331  28.734  1.00  0.00     0.014 A 
ATOM     34  C   UNL A   1      35.038  32.279  30.590  1.00  0.00     0.010 A 
ATOM     35  C   UNL A   1      36.534  33.720  29.343  1.00  0.00     0.010 A 
ATOM     36  C   UNL A   1      36.342  32.697  30.284  1.00  0.00    -0.014 A 
BRANCH  36  37
ATOM     37  C   UNL A   1      37.516  32.075  30.942  1.00  0.00     0.031 A 
ATOM     38  C   UNL A   1      38.299  31.001  30.241  1.00  0.00     0.074 A 
ATOM     39  C   UNL A   1      37.831  32.429  32.202  1.00  0.00     0.049 A 
ATOM     40  N   UNL A   1      39.307  30.291  30.680  1.00  0.00    -0.248 NA
ATOM     41  C   UNL A   1      37.870  30.657  28.877  1.00  0.00     0.031 C 
ATOM     42  C   UNL A   1      37.108  33.415  33.005  1.00  0.00     0.029 A 
ATOM     43  N   UNL A   1      38.826  31.984  33.034  1.00  0.00    -0.354 N 
ATOM     44  C   UNL A   1      39.615  29.401  29.660  1.00  0.00     0.074 A 
ATOM     45  C   UNL A   1      38.664  29.634  28.595  1.00  0.00     0.031 C 
ATOM     46  C   UNL A   1      37.685  33.504  34.214  1.00  0.00     0.029 A 
ATOM     47  C   UNL A   1      38.801  32.564  34.278  1.00  0.00     0.049 A 
ATOM     48  H   UNL A   1      39.496  31.315  32.764  1.00  0.00     0.167 HD
ATOM     49  C   UNL A   1      40.611  28.483  29.611  1.00  0.00     0.037 A 
ATOM     50  C   UNL A   1      39.581  32.353  35.354  1.00  0.00     0.037 A 
ATOM     51  C   UNL A   1      41.578  28.284  30.660  1.00  0.00     0.049 A 
ATOM     52  C   UNL A   1      40.708  31.364  35.261  1.00  0.00     0.074 A 
ATOM     53  C   UNL A   1      42.683  27.450  30.670  1.00  0.00     0.029 A 
ATOM     54  N   UNL A   1      41.550  28.924  31.890  1.00  0.00    -0.354 N 
ATOM     55  N   UNL A   1      41.046  30.588  34.259  1.00  0.00    -0.248 NA
ATOM     56  C   UNL A   1      41.570  31.228  36.442  1.00  0.00     0.031 C 
ATOM     57  C   UNL A   1      43.300  27.556  31.921  1.00  0.00     0.029 A 
ATOM     58  C   UNL A   1      42.605  28.488  32.676  1.00  0.00     0.049 A 
ATOM     59  H   UNL A   1      40.881  29.592  32.165  1.00  0.00     0.167 HD
ATOM     60  C   UNL A   1      42.164  29.885  34.679  1.00  0.00     0.074 A 
ATOM     61  C   UNL A   1      42.461  30.339  36.023  1.00  0.00     0.031 C 
ATOM     62  C   UNL A   1      42.881  28.946  34.013  1.00  0.00     0.037 A 
BRANCH  49  63
ATOM     63  C   UNL A   1      40.701  27.622  28.386  1.00  0.00     0.064 A 
ATOM     64  C   UNL A   1      41.468  27.999  27.273  1.00  0.00     0.173 A 
ATOM     65  C   UNL A   1      40.028  26.392  28.331  1.00  0.00     0.173 A 
ATOM     66  F   UNL A   1      42.124  29.169  27.269  1.00  0.00    -0.203 F 
ATOM     67  C   UNL A   1      41.529  27.194  26.137  1.00  0.00     0.198 A 
ATOM     68  C   UNL A   1      40.113  25.576  27.205  1.00  0.00     0.198 A 
ATOM     69  F   UNL A   1      39.286  25.980  29.370  1.00  0.00    -0.203 F 
ATOM     70  F   UNL A   1      42.224  27.601  25.066  1.00  0.00    -0.200 F 
ATOM     71  C   UNL A   1      40.856  25.983  26.107  1.00  0.00     0.200 A 
ATOM     72  F   UNL A   1      39.473  24.400  27.181  1.00  0.00    -0.200 F 
ATOM     73  F   UNL A   1      40.916  25.209  25.013  1.00  0.00    -0.200 F 
ENDBRANCH  49  63
BRANCH  50  74
ATOM     74  C   UNL A   1      39.329  33.120  36.599  1.00  0.00     0.064 A 
ATOM     75  C   UNL A   1      39.929  34.368  36.809  1.00  0.00     0.173 A 
ATOM     76  C   UNL A   1      38.457  32.636  37.586  1.00  0.00     0.173 A 
ATOM     77  F   UNL A   1      40.783  34.861  35.900  1.00  0.00    -0.203 F 
ATOM     78  C   UNL A   1      39.673  35.103  37.965  1.00  0.00     0.198 A 
ATOM     79  C   UNL A   1      38.184  33.383  38.730  1.00  0.00     0.198 A 
ATOM     80  F   UNL A   1      37.854  31.451  37.425  1.00  0.00    -0.203 F 
ATOM     81  F   UNL A   1      40.281  36.281  38.155  1.00  0.00    -0.200 F 
ATOM     82  C   UNL A   1      38.795  34.613  38.920  1.00  0.00     0.200 A 
ATOM     83  F   UNL A   1      37.324  32.913  39.645  1.00  0.00    -0.200 F 
ATOM     84  F   UNL A   1      38.540  35.326  40.027  1.00  0.00    -0.200 F 
ENDBRANCH  50  74
BRANCH  62  85
ATOM     85  C   UNL A   1      44.064  28.357  34.724  1.00  0.00     0.064 A 
ATOM     86  C   UNL A   1      45.329  28.959  34.662  1.00  0.00     0.173 A 
ATOM     87  C   UNL A   1      43.922  27.200  35.504  1.00  0.00     0.173 A 
ATOM     88  F   UNL A   1      45.517  30.058  33.916  1.00  0.00    -0.203 F 
ATOM     89  C   UNL A   1      46.415  28.411  35.339  1.00  0.00     0.198 A 
ATOM     90  C   UNL A   1      45.003  26.670  36.200  1.00  0.00     0.198 A 
ATOM     91  F   UNL A   1      42.730  26.590  35.598  1.00  0.00    -0.203 F 
ATOM     92  F   UNL A   1      47.625  28.978  35.232  1.00  0.00    -0.200 F 
ATOM     93  C   UNL A   1      46.250  27.271  36.113  1.00  0.00     0.200 A 
ATOM     94  F   UNL A   1      44.841  25.575  36.956  1.00  0.00    -0.200 F 
ATOM     95  F   UNL A   1      47.295  26.748  36.768  1.00  0.00    -0.200 F 
ENDBRANCH  62  85
ENDBRANCH  36  37
ENDBRANCH  28  31
ENDBRANCH  26  27
ENDBRANCH  25  26
ENDBRANCH   1  25
TORSDOF 14
ENDMDL
MODEL 2
REMARK VINA RESULT:     -12.2      0.475      7.254
REMARK SMILES CN(Cc1ncc(C(=O)NCCCNC(=O)c2ccc(-c3c4nc(c(-c5c(F)c(F)c(F)c(F)c5F)c5ccc([nH]5)c(-c5c(F)c(F)c(F)c(F)c5F)c5nc(c(-c6c(F)c(F)c(F)c(F)c6F)c6ccc3[nH]6)C=C5)C=C4)cc2)cn1)S(=O)(=O)c1ccc(Cl)cc1
REMARK SMILES IDX 11 1 10 2 8 3 9 4 7 6 4 7 5 8 81 9 6 10 80 11 3 12 2 13 1 14
REMARK SMILES IDX 82 15 83 16 84 17 85 18 86 19 91 20 87 21 90 22 88 23 89 24
REMARK SMILES IDX 12 25 13 26 14 27 15 28 16 30 17 31 18 32 79 33 19 34 78 35
REMARK SMILES IDX 20 36 21 37 22 38 72 39 23 40 77 41 71 42 73 43 24 44 76 45
REMARK SMILES IDX 70 46 69 47 25 49 57 50 37 51 56 52 38 53 41 54 55 55 74 56
REMARK SMILES IDX 39 57 40 58 54 60 75 61 42 62 26 63 27 64 35 65 28 66 29 67
REMARK SMILES IDX 33 68 36 69 30 70 31 71 34 72 32 73 58 74 59 75 67 76 60 77
REMARK SMILES IDX 61 78 65 79 68 80 62 81 63 82 66 83 64 84 43 85 44 86 52 87
REMARK SMILES IDX 45 88 46 89 50 90 53 91 47 92 48 93 51 94 49 95
REMARK H PARENT 10 5 14 29 73 48 41 59
REMARK Flexibility Score: inf
ROOT
ATOM      1  C   UNL A   1      31.026  30.941  25.408  1.00  0.00     0.118 C 
ENDROOT
BRANCH   1   2
ATOM      2  N   UNL A   1      30.177  31.205  24.263  1.00  0.00    -0.352 N 
ATOM      3  C   UNL A   1      29.530  30.397  23.364  1.00  0.00     0.254 C 
ATOM      4  O   UNL A   1      28.807  30.955  22.537  1.00  0.00    -0.269 OA
ATOM      5  H   UNL A   1      30.037  32.165  24.094  1.00  0.00     0.163 HD
BRANCH   3   6
ATOM      6  C   UNL A   1      29.633  28.924  23.324  1.00  0.00     0.076 A 
ATOM      7  C   UNL A   1      30.062  26.226  23.392  1.00  0.00     0.143 A 
ATOM      8  N   UNL A   1      28.795  26.671  23.493  1.00  0.00    -0.239 NA
ATOM      9  N   UNL A   1      31.127  27.017  23.171  1.00  0.00    -0.239 NA
ATOM     10  C   UNL A   1      28.626  28.011  23.511  1.00  0.00     0.128 A 
ATOM     11  C   UNL A   1      30.879  28.351  23.138  1.00  0.00     0.128 A 
BRANCH   7  12
ATOM     12  C   UNL A   1      30.305  24.755  23.680  1.00  0.00     0.179 C 
BRANCH  12  13
ATOM     13  N   UNL A   1      31.311  24.436  24.753  1.00  0.00    -0.193 NA
ATOM     14  C   UNL A   1      31.777  23.030  24.702  1.00  0.00     0.125 C 
BRANCH  13  15
ATOM     15  S   UNL A   1      30.910  24.941  26.336  1.00  0.00     0.243 S 
ATOM     16  O   UNL A   1      29.525  25.346  26.377  1.00  0.00    -0.207 OA
ATOM     17  O   UNL A   1      31.411  23.937  27.255  1.00  0.00    -0.207 OA
BRANCH  15  18
ATOM     18  C   UNL A   1      31.923  26.379  26.570  1.00  0.00     0.082 A 
ATOM     19  C   UNL A   1      33.210  26.392  26.021  1.00  0.00     0.023 A 
ATOM     20  C   UNL A   1      31.449  27.460  27.318  1.00  0.00     0.023 A 
ATOM     21  C   UNL A   1      34.032  27.501  26.225  1.00  0.00     0.022 A 
ATOM     22  C   UNL A   1      32.281  28.563  27.527  1.00  0.00     0.022 A 
ATOM     23  C   UNL A   1      33.567  28.577  26.982  1.00  0.00     0.041 A 
ATOM     24  Cl  UNL A   1      34.592  29.932  27.252  1.00  0.00    -0.084 Cl
ENDBRANCH  15  18
ENDBRANCH  13  15
ENDBRANCH  12  13
ENDBRANCH   7  12
ENDBRANCH   3   6
ENDBRANCH   1   2
BRANCH   1  25
ATOM     25  C   UNL A   1      31.018  32.100  26.406  1.00  0.00     0.042 C 
BRANCH  25  26
ATOM     26  C   UNL A   1      32.416  32.497  26.880  1.00  0.00     0.118 C 
BRANCH  26  27
ATOM     27  N   UNL A   1      32.456  33.882  27.332  1.00  0.00    -0.352 N 
ATOM     28  C   UNL A   1      33.169  34.472  28.341  1.00  0.00     0.251 C 
ATOM     29  H   UNL A   1      31.874  34.495  26.827  1.00  0.00     0.163 HD
ATOM     30  O   UNL A   1      32.874  35.612  28.694  1.00  0.00    -0.269 OA
BRANCH  28  31
ATOM     31  C   UNL A   1      34.285  33.768  29.009  1.00  0.00     0.039 A 
ATOM     32  C   UNL A   1      35.593  34.159  28.705  1.00  0.00     0.014 A 
ATOM     33  C   UNL A   1      34.061  32.681  29.856  1.00  0.00     0.014 A 
ATOM     34  C   UNL A   1      36.675  33.486  29.277  1.00  0.00     0.010 A 
ATOM     35  C   UNL A   1      35.138  32.046  30.474  1.00  0.00     0.010 A 
ATOM     36  C   UNL A   1      36.454  32.436  30.181  1.00  0.00    -0.014 A 
BRANCH  36  37
ATOM     37  C   UNL A   1      37.588  31.733  30.827  1.00  0.00     0.031 A 
ATOM     38  C   UNL A   1      38.026  32.113  32.213  1.00  0.00     0.074 A 
ATOM     39  C   UNL A   1      38.270  30.803  30.132  1.00  0.00     0.049 A 
ATOM     40  N   UNL A   1      39.038  31.665  32.914  1.00  0.00    -0.248 NA
ATOM     41  C   UNL A   1      37.242  33.156  32.889  1.00  0.00     0.031 C 
ATOM     42  C   UNL A   1      37.976  30.396  28.758  1.00  0.00     0.029 A 
ATOM     43  N   UNL A   1      39.362  30.050  30.479  1.00  0.00    -0.354 N 
ATOM     44  C   UNL A   1      39.027  32.389  34.098  1.00  0.00     0.074 A 
ATOM     45  C   UNL A   1      37.933  33.332  34.006  1.00  0.00     0.031 C 
ATOM     46  C   UNL A   1      38.864  29.463  28.379  1.00  0.00     0.029 A 
ATOM     47  C   UNL A   1      39.803  29.227  29.472  1.00  0.00     0.049 A 
ATOM     48  H   UNL A   1      39.789  30.093  31.366  1.00  0.00     0.167 HD
ATOM     49  C   UNL A   1      39.848  32.268  35.170  1.00  0.00     0.037 A 
ATOM     50  C   UNL A   1      40.852  28.386  29.431  1.00  0.00     0.037 A 
ATOM     51  C   UNL A   1      40.910  31.301  35.268  1.00  0.00     0.049 A 
ATOM     52  C   UNL A   1      41.720  28.234  30.648  1.00  0.00     0.074 A 
ATOM     53  C   UNL A   1      41.736  31.030  36.347  1.00  0.00     0.029 A 
ATOM     54  N   UNL A   1      41.299  30.448  34.245  1.00  0.00    -0.354 N 
ATOM     55  N   UNL A   1      41.649  28.862  31.796  1.00  0.00    -0.248 NA
ATOM     56  C   UNL A   1      42.807  27.249  30.568  1.00  0.00     0.031 C 
ATOM     57  C   UNL A   1      42.649  30.042  35.962  1.00  0.00     0.029 A 
ATOM     58  C   UNL A   1      42.366  29.667  34.658  1.00  0.00     0.049 A 
ATOM     59  H   UNL A   1      40.877  30.404  33.356  1.00  0.00     0.167 HD
ATOM     60  C   UNL A   1      42.666  28.341  32.581  1.00  0.00     0.074 A 
ATOM     61  C   UNL A   1      43.331  27.330  31.783  1.00  0.00     0.031 C 
ATOM     62  C   UNL A   1      43.019  28.671  33.848  1.00  0.00     0.037 A 
BRANCH  49  63
ATOM     63  C   UNL A   1      39.630  33.207  36.319  1.00  0.00     0.064 A 
ATOM     64  C   UNL A   1      38.797  32.874  37.398  1.00  0.00     0.173 A 
ATOM     65  C   UNL A   1      40.280  34.451  36.353  1.00  0.00     0.173 A 
ATOM     66  F   UNL A   1      38.144  31.702  37.411  1.00  0.00    -0.203 F 
ATOM     67  C   UNL A   1      38.595  33.764  38.451  1.00  0.00     0.198 A 
ATOM     68  C   UNL A   1      40.098  35.327  37.420  1.00  0.00     0.198 A 
ATOM     69  F   UNL A   1      41.093  34.817  35.351  1.00  0.00    -0.203 F 
ATOM     70  F   UNL A   1      37.753  33.446  39.443  1.00  0.00    -0.200 F 
ATOM     71  C   UNL A   1      39.249  34.987  38.462  1.00  0.00     0.200 A 
ATOM     72  F   UNL A   1      40.740  36.503  37.437  1.00  0.00    -0.200 F 
ATOM     73  F   UNL A   1      39.053  35.842  39.476  1.00  0.00    -0.200 F 
ENDBRANCH  49  63
BRANCH  50  74
ATOM     74  C   UNL A   1      41.115  27.607  28.195  1.00  0.00     0.064 A 
ATOM     75  C   UNL A   1      41.993  28.087  27.215  1.00  0.00     0.173 A 
ATOM     76  C   UNL A   1      40.520  26.354  27.986  1.00  0.00     0.173 A 
ATOM     77  F   UNL A   1      42.571  29.289  27.365  1.00  0.00    -0.203 F 
ATOM     78  C   UNL A   1      42.263  27.346  26.067  1.00  0.00     0.198 A 
ATOM     79  C   UNL A   1      40.809  25.603  26.848  1.00  0.00     0.198 A 
ATOM     80  F   UNL A   1      39.679  25.850  28.899  1.00  0.00    -0.203 F 
ATOM     81  F   UNL A   1      43.086  27.840  25.131  1.00  0.00    -0.200 F 
ATOM     82  C   UNL A   1      41.677  26.102  25.889  1.00  0.00     0.200 A 
ATOM     83  F   UNL A   1      40.252  24.396  26.686  1.00  0.00    -0.200 F 
ATOM     84  F   UNL A   1      41.946  25.384  24.789  1.00  0.00    -0.200 F 
ENDBRANCH  50  74
BRANCH  62  85
ATOM     85  C   UNL A   1      44.169  27.921  34.454  1.00  0.00     0.064 A 
ATOM     86  C   UNL A   1      45.481  28.411  34.382  1.00  0.00     0.173 A 
ATOM     87  C   UNL A   1      43.951  26.721  35.145  1.00  0.00     0.173 A 
ATOM     88  F   UNL A   1      45.741  29.547  33.718  1.00  0.00    -0.203 F 
ATOM     89  C   UNL A   1      46.538  27.714  34.963  1.00  0.00     0.198 A 
ATOM     90  C   UNL A   1      45.005  26.040  35.747  1.00  0.00     0.198 A 
ATOM     91  F   UNL A   1      42.713  26.213  35.246  1.00  0.00    -0.203 F 
ATOM     92  F   UNL A   1      47.789  28.178  34.846  1.00  0.00    -0.200 F 
ATOM     93  C   UNL A   1      46.297  26.533  35.650  1.00  0.00     0.200 A 
ATOM     94  F   UNL A   1      44.771  24.904  36.420  1.00  0.00    -0.200 F 
ATOM     95  F   UNL A   1      47.314  25.866  36.213  1.00  0.00    -0.200 F 
ENDBRANCH  62  85
ENDBRANCH  36  37
ENDBRANCH  28  31
ENDBRANCH  26  27
ENDBRANCH  25  26
ENDBRANCH   1  25
TORSDOF 14
ENDMDL
MODEL 3
REMARK VINA RESULT:     -12.1      6.896     11.578
REMARK SMILES CN(Cc1ncc(C(=O)NCCCNC(=O)c2ccc(-c3c4nc(c(-c5c(F)c(F)c(F)c(F)c5F)c5ccc([nH]5)c(-c5c(F)c(F)c(F)c(F)c5F)c5nc(c(-c6c(F)c(F)c(F)c(F)c6F)c6ccc3[nH]6)C=C5)C=C4)cc2)cn1)S(=O)(=O)c1ccc(Cl)cc1
REMARK SMILES IDX 11 1 10 2 8 3 9 4 7 6 4 7 5 8 81 9 6 10 80 11 3 12 2 13 1 14
REMARK SMILES IDX 82 15 83 16 84 17 85 18 86 19 91 20 87 21 90 22 88 23 89 24
REMARK SMILES IDX 12 25 13 26 14 27 15 28 16 30 17 31 18 32 79 33 19 34 78 35
REMARK SMILES IDX 20 36 21 37 22 38 72 39 23 40 77 41 71 42 73 43 24 44 76 45
REMARK SMILES IDX 70 46 69 47 25 49 57 50 37 51 56 52 38 53 41 54 55 55 74 56
REMARK SMILES IDX 39 57 40 58 54 60 75 61 42 62 26 63 27 64 35 65 28 66 29 67
REMARK SMILES IDX 33 68 36 69 30 70 31 71 34 72 32 73 58 74 59 75 67 76 60 77
REMARK SMILES IDX 61 78 65 79 68 80 62 81 63 82 66 83 64 84 43 85 44 86 52 87
REMARK SMILES IDX 45 88 46 89 50 90 53 91 47 92 48 93 51 94 49 95
REMARK H PARENT 10 5 14 29 73 48 41 59
REMARK Flexibility Score: inf
ROOT
ATOM      1  C   UNL A   1      41.782  19.247  27.719  1.00  0.00     0.118 C 
ENDROOT
BRANCH   1   2
ATOM      2  N   UNL A   1      42.348  20.552  28.001  1.00  0.00    -0.352 N 
ATOM      3  C   UNL A   1      41.875  21.832  27.868  1.00  0.00     0.254 C 
ATOM      4  O   UNL A   1      42.600  22.737  28.285  1.00  0.00    -0.269 OA
ATOM      5  H   UNL A   1      43.263  20.511  28.362  1.00  0.00     0.163 HD
BRANCH   3   6
ATOM      6  C   UNL A   1      40.573  22.195  27.273  1.00  0.00     0.076 A 
ATOM      7  C   UNL A   1      38.265  23.126  26.143  1.00  0.00     0.143 A 
ATOM      8  N   UNL A   1      38.659  21.873  25.844  1.00  0.00    -0.239 NA
ATOM      9  N   UNL A   1      38.885  23.923  27.032  1.00  0.00    -0.239 NA
ATOM     10  C   UNL A   1      39.833  21.466  26.377  1.00  0.00     0.128 A 
ATOM     11  C   UNL A   1      40.024  23.429  27.578  1.00  0.00     0.128 A 
BRANCH   7  12
ATOM     12  C   UNL A   1      37.128  23.709  25.322  1.00  0.00     0.179 C 
BRANCH  12  13
ATOM     13  N   UNL A   1      36.247  22.726  24.599  1.00  0.00    -0.193 NA
ATOM     14  C   UNL A   1      36.293  22.891  23.126  1.00  0.00     0.125 C 
BRANCH  13  15
ATOM     15  S   UNL A   1      34.653  22.563  25.194  1.00  0.00     0.243 S 
ATOM     16  O   UNL A   1      34.659  22.696  26.632  1.00  0.00    -0.207 OA
ATOM     17  O   UNL A   1      33.794  23.403  24.381  1.00  0.00    -0.207 OA
BRANCH  15  18
ATOM     18  C   UNL A   1      34.239  20.886  24.786  1.00  0.00     0.082 A 
ATOM     19  C   UNL A   1      35.205  19.891  24.975  1.00  0.00     0.023 A 
ATOM     20  C   UNL A   1      32.984  20.580  24.255  1.00  0.00     0.023 A 
ATOM     21  C   UNL A   1      34.908  18.573  24.627  1.00  0.00     0.022 A 
ATOM     22  C   UNL A   1      32.697  19.260  23.899  1.00  0.00     0.022 A 
ATOM     23  C   UNL A   1      33.659  18.264  24.085  1.00  0.00     0.041 A 
ATOM     24  Cl  UNL A   1      33.306  16.643  23.633  1.00  0.00    -0.084 Cl
ENDBRANCH  15  18
ENDBRANCH  13  15
ENDBRANCH  12  13
ENDBRANCH   7  12
ENDBRANCH   3   6
ENDBRANCH   1   2
BRANCH   1  25
ATOM     25  C   UNL A   1      42.634  18.457  26.725  1.00  0.00     0.042 C 
BRANCH  25  26
ATOM     26  C   UNL A   1      42.712  19.112  25.346  1.00  0.00     0.118 C 
BRANCH  26  27
ATOM     27  N   UNL A   1      43.948  18.763  24.655  1.00  0.00    -0.352 N 
ATOM     28  C   UNL A   1      44.986  19.548  24.230  1.00  0.00     0.251 C 
ATOM     29  H   UNL A   1      44.052  17.803  24.462  1.00  0.00     0.163 HD
ATOM     30  O   UNL A   1      45.821  19.071  23.464  1.00  0.00    -0.269 OA
BRANCH  28  31
ATOM     31  C   UNL A   1      45.123  20.950  24.677  1.00  0.00     0.039 A 
ATOM     32  C   UNL A   1      44.907  21.969  23.743  1.00  0.00     0.014 A 
ATOM     33  C   UNL A   1      45.542  21.267  25.971  1.00  0.00     0.014 A 
ATOM     34  C   UNL A   1      45.074  23.305  24.115  1.00  0.00     0.010 A 
ATOM     35  C   UNL A   1      45.653  22.602  26.360  1.00  0.00     0.010 A 
ATOM     36  C   UNL A   1      45.431  23.631  25.432  1.00  0.00    -0.014 A 
BRANCH  36  37
ATOM     37  C   UNL A   1      45.578  25.045  25.854  1.00  0.00     0.031 A 
ATOM     38  C   UNL A   1      46.925  25.711  25.822  1.00  0.00     0.074 A 
ATOM     39  C   UNL A   1      44.509  25.704  26.337  1.00  0.00     0.049 A 
ATOM     40  N   UNL A   1      47.265  26.911  26.218  1.00  0.00    -0.248 NA
ATOM     41  C   UNL A   1      48.044  24.910  25.305  1.00  0.00     0.031 C 
ATOM     42  C   UNL A   1      43.165  25.142  26.474  1.00  0.00     0.029 A 
ATOM     43  N   UNL A   1      44.389  26.981  26.822  1.00  0.00    -0.354 N 
ATOM     44  C   UNL A   1      48.637  26.999  26.024  1.00  0.00     0.074 A 
ATOM     45  C   UNL A   1      49.073  25.719  25.510  1.00  0.00     0.031 C 
ATOM     46  C   UNL A   1      42.354  26.071  27.005  1.00  0.00     0.029 A 
ATOM     47  C   UNL A   1      43.126  27.282  27.268  1.00  0.00     0.049 A 
ATOM     48  H   UNL A   1      45.137  27.622  26.847  1.00  0.00     0.167 HD
ATOM     49  C   UNL A   1      49.455  28.058  26.242  1.00  0.00     0.037 A 
ATOM     50  C   UNL A   1      42.646  28.404  27.836  1.00  0.00     0.037 A 
ATOM     51  C   UNL A   1      49.006  29.341  26.717  1.00  0.00     0.049 A 
ATOM     52  C   UNL A   1      43.562  29.581  28.023  1.00  0.00     0.074 A 
ATOM     53  C   UNL A   1      49.736  30.507  26.878  1.00  0.00     0.029 A 
ATOM     54  N   UNL A   1      47.707  29.626  27.113  1.00  0.00    -0.354 N 
ATOM     55  N   UNL A   1      44.841  29.683  27.755  1.00  0.00    -0.248 NA
ATOM     56  C   UNL A   1      42.965  30.802  28.582  1.00  0.00     0.031 C 
ATOM     57  C   UNL A   1      48.888  31.484  27.410  1.00  0.00     0.029 A 
ATOM     58  C   UNL A   1      47.619  30.941  27.541  1.00  0.00     0.049 A 
ATOM     59  H   UNL A   1      46.958  28.988  27.094  1.00  0.00     0.167 HD
ATOM     60  C   UNL A   1      45.201  30.978  28.095  1.00  0.00     0.074 A 
ATOM     61  C   UNL A   1      43.999  31.632  28.574  1.00  0.00     0.031 C 
ATOM     62  C   UNL A   1      46.417  31.573  28.020  1.00  0.00     0.037 A 
BRANCH  49  63
ATOM     63  C   UNL A   1      50.919  27.870  25.971  1.00  0.00     0.064 A 
ATOM     64  C   UNL A   1      51.468  28.085  24.697  1.00  0.00     0.173 A 
ATOM     65  C   UNL A   1      51.789  27.489  27.004  1.00  0.00     0.173 A 
ATOM     66  F   UNL A   1      50.679  28.440  23.673  1.00  0.00    -0.203 F 
ATOM     67  C   UNL A   1      52.827  27.891  24.461  1.00  0.00     0.198 A 
ATOM     68  C   UNL A   1      53.151  27.324  26.771  1.00  0.00     0.198 A 
ATOM     69  F   UNL A   1      51.317  27.278  28.242  1.00  0.00    -0.203 F 
ATOM     70  F   UNL A   1      53.319  28.051  23.225  1.00  0.00    -0.200 F 
ATOM     71  C   UNL A   1      53.667  27.516  25.498  1.00  0.00     0.200 A 
ATOM     72  F   UNL A   1      53.965  26.974  27.776  1.00  0.00    -0.200 F 
ATOM     73  F   UNL A   1      54.975  27.331  25.268  1.00  0.00    -0.200 F 
ENDBRANCH  49  63
BRANCH  50  74
ATOM     74  C   UNL A   1      41.220  28.465  28.240  1.00  0.00     0.064 A 
ATOM     75  C   UNL A   1      40.817  28.070  29.522  1.00  0.00     0.173 A 
ATOM     76  C   UNL A   1      40.237  28.951  27.365  1.00  0.00     0.173 A 
ATOM     77  F   UNL A   1      41.720  27.582  30.386  1.00  0.00    -0.203 F 
ATOM     78  C   UNL A   1      39.483  28.152  29.913  1.00  0.00     0.198 A 
ATOM     79  C   UNL A   1      38.907  29.055  27.765  1.00  0.00     0.198 A 
ATOM     80  F   UNL A   1      40.576  29.349  26.130  1.00  0.00    -0.203 F 
ATOM     81  F   UNL A   1      39.119  27.742  31.136  1.00  0.00    -0.200 F 
ATOM     82  C   UNL A   1      38.531  28.652  29.038  1.00  0.00     0.200 A 
ATOM     83  F   UNL A   1      37.992  29.551  26.921  1.00  0.00    -0.200 F 
ATOM     84  F   UNL A   1      37.249  28.741  29.419  1.00  0.00    -0.200 F 
ENDBRANCH  50  74
BRANCH  62  85
ATOM     85  C   UNL A   1      46.505  33.007  28.452  1.00  0.00     0.064 A 
ATOM     86  C   UNL A   1      46.286  34.058  27.550  1.00  0.00     0.173 A 
ATOM     87  C   UNL A   1      46.776  33.332  29.789  1.00  0.00     0.173 A 
ATOM     88  F   UNL A   1      46.040  33.797  26.258  1.00  0.00    -0.203 F 
ATOM     89  C   UNL A   1      46.356  35.385  27.968  1.00  0.00     0.198 A 
ATOM     90  C   UNL A   1      46.819  34.657  30.209  1.00  0.00     0.198 A 
ATOM     91  F   UNL A   1      46.989  32.361  30.691  1.00  0.00    -0.203 F 
ATOM     92  F   UNL A   1      46.184  36.374  27.081  1.00  0.00    -0.200 F 
ATOM     93  C   UNL A   1      46.615  35.682  29.298  1.00  0.00     0.200 A 
ATOM     94  F   UNL A   1      47.059  34.944  31.497  1.00  0.00    -0.200 F 
ATOM     95  F   UNL A   1      46.676  36.959  29.700  1.00  0.00    -0.200 F 
ENDBRANCH  62  85
ENDBRANCH  36  37
ENDBRANCH  28  31
ENDBRANCH  26  27
ENDBRANCH  25  26
ENDBRANCH   1  25
TORSDOF 14
ENDMDL
