MODEL 1
REMARK VINA RESULT:     -11.0      0.000      0.000
REMARK SMILES O=C(CS(=O)(=O)[C@@H]1CCOC2(CCCCC2)C1)NCCCNC(=O)c1ccc(-c2c3nc(c(-c4c(F)c(F)c(F)c(F)c4F)c4ccc([nH]4)c(-c4c(F)c(F)c(F)c(F)c4F)c4nc(c(-c5c(F)c(F)c(F)c(F)c5F)c5ccc2[nH]5)C=C4)C=C3)cc1
REMARK SMILES IDX 20 1 19 2 18 3 1 4 2 5 3 7 4 8 5 9 6 10 7 11 8 12 17 13 9 14
REMARK SMILES IDX 11 15 10 16 12 17 16 18 13 19 15 20 14 21 21 22 22 23 23 24
REMARK SMILES IDX 24 26 25 27 26 28 87 29 27 30 86 31 28 32 29 33 30 34 80 35
REMARK SMILES IDX 31 36 85 37 79 38 81 39 32 40 84 41 78 42 77 43 33 45 65 46
REMARK SMILES IDX 45 47 64 48 46 49 49 50 63 51 82 52 47 53 48 54 62 56 83 57
REMARK SMILES IDX 50 58 34 59 35 60 43 61 36 62 37 63 41 64 44 65 38 66 39 67
REMARK SMILES IDX 42 68 40 69 66 70 67 71 75 72 68 73 69 74 73 75 76 76 70 77
REMARK SMILES IDX 71 78 74 79 72 80 51 81 52 82 60 83 53 84 54 85 58 86 61 87
REMARK SMILES IDX 55 88 56 89 59 90 57 91
REMARK H PARENT 18 6 22 25 81 44 49 55
REMARK Flexibility Score: inf
ROOT
ATOM      1  C   UNL A   1      41.060  20.513  27.262  1.00  0.00     0.042 C 
ENDROOT
BRANCH   1   2
ATOM      2  C   UNL A   1      41.911  19.585  26.406  1.00  0.00     0.117 C 
BRANCH   2   3
ATOM      3  N   UNL A   1      42.792  20.313  25.518  1.00  0.00    -0.355 N 
ATOM      4  O   UNL A   1      44.403  18.713  25.532  1.00  0.00    -0.274 OA
ATOM      5  C   UNL A   1      43.990  19.795  25.116  1.00  0.00     0.235 C 
ATOM      6  H   UNL A   1      42.521  21.203  25.196  1.00  0.00     0.163 HD
BRANCH   5   7
ATOM      7  C   UNL A   1      44.836  20.638  24.224  1.00  0.00     0.236 C 
BRANCH   7   8
ATOM      8  S   UNL A   1      44.873  22.379  24.595  1.00  0.00     0.162 S 
ATOM      9  O   UNL A   1      45.787  22.945  23.611  1.00  0.00    -0.228 OA
ATOM     10  O   UNL A   1      43.488  22.817  24.579  1.00  0.00    -0.228 OA
BRANCH   8  11
ATOM     11  C   UNL A   1      45.554  22.833  26.217  1.00  0.00     0.114 C 
ATOM     12  C   UNL A   1      44.578  22.778  27.376  1.00  0.00     0.048 C 
ATOM     13  C   UNL A   1      46.436  24.099  26.295  1.00  0.00     0.055 C 
ATOM     14  C   UNL A   1      43.827  24.085  27.526  1.00  0.00     0.162 C 
ATOM     15  C   UNL A   1      45.650  25.394  26.572  1.00  0.00     0.069 C 
ATOM     16  O   UNL A   1      44.716  25.175  27.637  1.00  0.00    -0.375 OA
ATOM     17  C   UNL A   1      45.038  25.915  25.267  1.00  0.00     0.035 C 
ATOM     18  C   UNL A   1      46.529  26.548  27.106  1.00  0.00     0.035 C 
ATOM     19  C   UNL A   1      44.118  27.101  25.473  1.00  0.00     0.003 C 
ATOM     20  C   UNL A   1      45.686  27.824  27.329  1.00  0.00     0.003 C 
ATOM     21  C   UNL A   1      44.894  28.252  26.092  1.00  0.00     0.000 C 
ENDBRANCH   8  11
ENDBRANCH   7   8
ENDBRANCH   5   7
ENDBRANCH   2   3
ENDBRANCH   1   2
BRANCH   1  22
ATOM     22  C   UNL A   1      41.020  21.945  26.750  1.00  0.00     0.118 C 
BRANCH  22  23
ATOM     23  N   UNL A   1      39.806  22.243  26.006  1.00  0.00    -0.352 N 
ATOM     24  C   UNL A   1      38.960  23.316  26.097  1.00  0.00     0.251 C 
ATOM     25  H   UNL A   1      39.552  21.568  25.335  1.00  0.00     0.163 HD
ATOM     26  O   UNL A   1      37.884  23.298  25.510  1.00  0.00    -0.269 OA
BRANCH  24  27
ATOM     27  C   UNL A   1      39.337  24.488  26.913  1.00  0.00     0.039 A 
ATOM     28  C   UNL A   1      40.106  25.493  26.325  1.00  0.00     0.014 A 
ATOM     29  C   UNL A   1      38.963  24.584  28.257  1.00  0.00     0.014 A 
ATOM     30  C   UNL A   1      40.472  26.610  27.074  1.00  0.00     0.010 A 
ATOM     31  C   UNL A   1      39.247  25.740  28.975  1.00  0.00     0.010 A 
ATOM     32  C   UNL A   1      40.029  26.752  28.400  1.00  0.00    -0.014 A 
BRANCH  32  33
ATOM     33  C   UNL A   1      40.423  27.930  29.210  1.00  0.00     0.031 A 
ATOM     34  C   UNL A   1      41.804  28.007  29.801  1.00  0.00     0.074 A 
ATOM     35  C   UNL A   1      39.532  28.913  29.438  1.00  0.00     0.049 A 
ATOM     36  N   UNL A   1      42.336  28.942  30.547  1.00  0.00    -0.248 NA
ATOM     37  C   UNL A   1      42.702  26.869  29.541  1.00  0.00     0.031 C 
ATOM     38  C   UNL A   1      38.149  28.928  28.961  1.00  0.00     0.029 A 
ATOM     39  N   UNL A   1      39.658  30.092  30.129  1.00  0.00    -0.354 N 
ATOM     40  C   UNL A   1      43.617  28.500  30.852  1.00  0.00     0.074 A 
ATOM     41  C   UNL A   1      43.761  27.184  30.270  1.00  0.00     0.031 C 
ATOM     42  C   UNL A   1      37.564  30.074  29.345  1.00  0.00     0.029 A 
ATOM     43  C   UNL A   1      38.518  30.857  30.124  1.00  0.00     0.049 A 
ATOM     44  H   UNL A   1      40.487  30.362  30.586  1.00  0.00     0.167 HD
ATOM     45  C   UNL A   1      44.596  29.144  31.529  1.00  0.00     0.037 A 
ATOM     46  C   UNL A   1      38.273  32.057  30.684  1.00  0.00     0.037 A 
ATOM     47  C   UNL A   1      44.455  30.464  32.086  1.00  0.00     0.049 A 
ATOM     48  C   UNL A   1      39.379  32.752  31.434  1.00  0.00     0.074 A 
ATOM     49  C   UNL A   1      45.401  31.227  32.748  1.00  0.00     0.029 A 
ATOM     50  N   UNL A   1      43.290  31.215  32.046  1.00  0.00    -0.354 N 
ATOM     51  N   UNL A   1      40.608  32.355  31.655  1.00  0.00    -0.248 NA
ATOM     52  C   UNL A   1      39.063  34.069  32.002  1.00  0.00     0.031 C 
ATOM     53  C   UNL A   1      44.792  32.419  33.155  1.00  0.00     0.029 A 
ATOM     54  C   UNL A   1      43.486  32.426  32.690  1.00  0.00     0.049 A 
ATOM     55  H   UNL A   1      42.448  30.931  31.624  1.00  0.00     0.167 HD
ATOM     56  C   UNL A   1      41.224  33.388  32.351  1.00  0.00     0.074 A 
ATOM     57  C   UNL A   1      40.235  34.434  32.503  1.00  0.00     0.031 C 
ATOM     58  C   UNL A   1      42.494  33.464  32.819  1.00  0.00     0.037 A 
BRANCH  45  59
ATOM     59  C   UNL A   1      45.907  28.431  31.702  1.00  0.00     0.064 A 
ATOM     60  C   UNL A   1      46.110  27.497  32.730  1.00  0.00     0.173 A 
ATOM     61  C   UNL A   1      46.967  28.663  30.812  1.00  0.00     0.173 A 
ATOM     62  F   UNL A   1      45.136  27.246  33.617  1.00  0.00    -0.203 F 
ATOM     63  C   UNL A   1      47.334  26.851  32.882  1.00  0.00     0.198 A 
ATOM     64  C   UNL A   1      48.177  27.987  30.945  1.00  0.00     0.198 A 
ATOM     65  F   UNL A   1      46.828  29.542  29.807  1.00  0.00    -0.203 F 
ATOM     66  F   UNL A   1      47.522  26.006  33.906  1.00  0.00    -0.200 F 
ATOM     67  C   UNL A   1      48.363  27.089  31.984  1.00  0.00     0.200 A 
ATOM     68  F   UNL A   1      49.167  28.210  30.068  1.00  0.00    -0.200 F 
ATOM     69  F   UNL A   1      49.538  26.460  32.127  1.00  0.00    -0.200 F 
ENDBRANCH  45  59
BRANCH  46  70
ATOM     70  C   UNL A   1      36.939  32.694  30.528  1.00  0.00     0.064 A 
ATOM     71  C   UNL A   1      36.627  33.445  29.386  1.00  0.00     0.173 A 
ATOM     72  C   UNL A   1      35.954  32.577  31.520  1.00  0.00     0.173 A 
ATOM     73  F   UNL A   1      37.542  33.601  28.417  1.00  0.00    -0.203 F 
ATOM     74  C   UNL A   1      35.393  34.078  29.254  1.00  0.00     0.198 A 
ATOM     75  C   UNL A   1      34.709  33.184  31.372  1.00  0.00     0.198 A 
ATOM     76  F   UNL A   1      36.198  31.864  32.629  1.00  0.00    -0.203 F 
ATOM     77  F   UNL A   1      35.142  34.834  28.177  1.00  0.00    -0.200 F 
ATOM     78  C   UNL A   1      34.433  33.943  30.245  1.00  0.00     0.200 A 
ATOM     79  F   UNL A   1      33.777  33.038  32.324  1.00  0.00    -0.200 F 
ATOM     80  F   UNL A   1      33.245  34.551  30.118  1.00  0.00    -0.200 F 
ENDBRANCH  46  70
BRANCH  58  81
ATOM     81  C   UNL A   1      42.906  34.744  33.491  1.00  0.00     0.064 A 
ATOM     82  C   UNL A   1      43.359  35.853  32.763  1.00  0.00     0.173 A 
ATOM     83  C   UNL A   1      42.812  34.868  34.886  1.00  0.00     0.173 A 
ATOM     84  F   UNL A   1      43.479  35.782  31.428  1.00  0.00    -0.203 F 
ATOM     85  C   UNL A   1      43.739  37.027  33.409  1.00  0.00     0.198 A 
ATOM     86  C   UNL A   1      43.158  36.056  35.525  1.00  0.00     0.198 A 
ATOM     87  F   UNL A   1      42.375  33.841  35.630  1.00  0.00    -0.203 F 
ATOM     88  F   UNL A   1      44.225  38.053  32.697  1.00  0.00    -0.200 F 
ATOM     89  C   UNL A   1      43.630  37.129  34.787  1.00  0.00     0.200 A 
ATOM     90  F   UNL A   1      43.035  36.159  36.856  1.00  0.00    -0.200 F 
ATOM     91  F   UNL A   1      43.990  38.263  35.406  1.00  0.00    -0.200 F 
ENDBRANCH  58  81
ENDBRANCH  32  33
ENDBRANCH  24  27
ENDBRANCH  22  23
ENDBRANCH   1  22
TORSDOF 12
ENDMDL
MODEL 2
REMARK VINA RESULT:     -10.9      4.618     10.058
REMARK SMILES O=C(CS(=O)(=O)[C@@H]1CCOC2(CCCCC2)C1)NCCCNC(=O)c1ccc(-c2c3nc(c(-c4c(F)c(F)c(F)c(F)c4F)c4ccc([nH]4)c(-c4c(F)c(F)c(F)c(F)c4F)c4nc(c(-c5c(F)c(F)c(F)c(F)c5F)c5ccc2[nH]5)C=C4)C=C3)cc1
REMARK SMILES IDX 20 1 19 2 18 3 1 4 2 5 3 7 4 8 5 9 6 10 7 11 8 12 17 13 9 14
REMARK SMILES IDX 11 15 10 16 12 17 16 18 13 19 15 20 14 21 21 22 22 23 23 24
REMARK SMILES IDX 24 26 25 27 26 28 87 29 27 30 86 31 28 32 29 33 30 34 80 35
REMARK SMILES IDX 31 36 85 37 79 38 81 39 32 40 84 41 78 42 77 43 33 45 65 46
REMARK SMILES IDX 45 47 64 48 46 49 49 50 63 51 82 52 47 53 48 54 62 56 83 57
REMARK SMILES IDX 50 58 34 59 35 60 43 61 36 62 37 63 41 64 44 65 38 66 39 67
REMARK SMILES IDX 42 68 40 69 66 70 67 71 75 72 68 73 69 74 73 75 76 76 70 77
REMARK SMILES IDX 71 78 74 79 72 80 51 81 52 82 60 83 53 84 54 85 58 86 61 87
REMARK SMILES IDX 55 88 56 89 59 90 57 91
REMARK H PARENT 18 6 22 25 81 44 49 55
REMARK Flexibility Score: inf
ROOT
ATOM      1  C   UNL A   1      31.776  28.796  25.896  1.00  0.00     0.042 C 
ENDROOT
BRANCH   1   2
ATOM      2  C   UNL A   1      31.749  27.628  26.871  1.00  0.00     0.117 C 
BRANCH   2   3
ATOM      3  N   UNL A   1      31.998  26.361  26.216  1.00  0.00    -0.355 N 
ATOM      4  O   UNL A   1      29.880  25.600  26.515  1.00  0.00    -0.274 OA
ATOM      5  C   UNL A   1      31.010  25.430  26.059  1.00  0.00     0.235 C 
ATOM      6  H   UNL A   1      32.901  26.166  25.876  1.00  0.00     0.163 HD
BRANCH   5   7
ATOM      7  C   UNL A   1      31.378  24.147  25.398  1.00  0.00     0.236 C 
BRANCH   7   8
ATOM      8  S   UNL A   1      31.556  24.202  23.626  1.00  0.00     0.162 S 
ATOM      9  O   UNL A   1      30.208  23.983  23.115  1.00  0.00    -0.228 OA
ATOM     10  O   UNL A   1      32.205  25.468  23.333  1.00  0.00    -0.228 OA
BRANCH   8  11
ATOM     11  C   UNL A   1      32.581  22.897  22.888  1.00  0.00     0.114 C 
ATOM     12  C   UNL A   1      32.440  21.522  23.510  1.00  0.00     0.048 C 
ATOM     13  C   UNL A   1      34.064  23.226  22.602  1.00  0.00     0.055 C 
ATOM     14  C   UNL A   1      33.382  21.349  24.684  1.00  0.00     0.162 C 
ATOM     15  C   UNL A   1      35.011  22.921  23.777  1.00  0.00     0.069 C 
ATOM     16  O   UNL A   1      34.715  21.625  24.313  1.00  0.00    -0.375 OA
ATOM     17  C   UNL A   1      34.963  24.071  24.790  1.00  0.00     0.035 C 
ATOM     18  C   UNL A   1      36.494  22.800  23.360  1.00  0.00     0.035 C 
ATOM     19  C   UNL A   1      35.747  23.783  26.055  1.00  0.00     0.003 C 
ATOM     20  C   UNL A   1      37.392  22.528  24.588  1.00  0.00     0.003 C 
ATOM     21  C   UNL A   1      37.210  23.553  25.711  1.00  0.00     0.000 C 
ENDBRANCH   8  11
ENDBRANCH   7   8
ENDBRANCH   5   7
ENDBRANCH   2   3
ENDBRANCH   1   2
BRANCH   1  22
ATOM     22  C   UNL A   1      33.057  29.615  25.965  1.00  0.00     0.118 C 
BRANCH  22  23
ATOM     23  N   UNL A   1      32.815  31.012  26.289  1.00  0.00    -0.352 N 
ATOM     24  C   UNL A   1      33.428  31.820  27.209  1.00  0.00     0.251 C 
ATOM     25  H   UNL A   1      32.100  31.443  25.767  1.00  0.00     0.163 HD
ATOM     26  O   UNL A   1      32.958  32.924  27.464  1.00  0.00    -0.269 OA
BRANCH  24  27
ATOM     27  C   UNL A   1      34.645  31.357  27.907  1.00  0.00     0.039 A 
ATOM     28  C   UNL A   1      35.714  32.243  28.045  1.00  0.00     0.014 A 
ATOM     29  C   UNL A   1      34.745  30.051  28.396  1.00  0.00     0.014 A 
ATOM     30  C   UNL A   1      36.873  31.829  28.701  1.00  0.00     0.010 A 
ATOM     31  C   UNL A   1      35.861  29.670  29.132  1.00  0.00     0.010 A 
ATOM     32  C   UNL A   1      36.948  30.546  29.268  1.00  0.00    -0.014 A 
BRANCH  32  33
ATOM     33  C   UNL A   1      38.180  30.092  29.958  1.00  0.00     0.031 A 
ATOM     34  C   UNL A   1      38.484  30.579  31.348  1.00  0.00     0.074 A 
ATOM     35  C   UNL A   1      39.036  29.268  29.325  1.00  0.00     0.049 A 
ATOM     36  N   UNL A   1      39.511  30.311  32.114  1.00  0.00    -0.248 NA
ATOM     37  C   UNL A   1      37.518  31.512  31.950  1.00  0.00     0.031 C 
ATOM     38  C   UNL A   1      38.875  28.768  27.959  1.00  0.00     0.029 A 
ATOM     39  N   UNL A   1      40.214  28.705  29.749  1.00  0.00    -0.354 N 
ATOM     40  C   UNL A   1      39.320  31.050  33.275  1.00  0.00     0.074 A 
ATOM     41  C   UNL A   1      38.117  31.829  33.088  1.00  0.00     0.031 C 
ATOM     42  C   UNL A   1      39.897  27.946  27.669  1.00  0.00     0.029 A 
ATOM     43  C   UNL A   1      40.802  27.890  28.813  1.00  0.00     0.049 A 
ATOM     44  H   UNL A   1      40.599  28.870  30.639  1.00  0.00     0.167 HD
ATOM     45  C   UNL A   1      40.063  31.054  34.407  1.00  0.00     0.037 A 
ATOM     46  C   UNL A   1      41.942  27.177  28.874  1.00  0.00     0.037 A 
ATOM     47  C   UNL A   1      41.247  30.258  34.597  1.00  0.00     0.049 A 
ATOM     48  C   UNL A   1      42.751  27.202  30.144  1.00  0.00     0.074 A 
ATOM     49  C   UNL A   1      42.045  30.152  35.722  1.00  0.00     0.029 A 
ATOM     50  N   UNL A   1      41.803  29.432  33.631  1.00  0.00    -0.354 N 
ATOM     51  N   UNL A   1      42.522  27.848  31.261  1.00  0.00    -0.248 NA
ATOM     52  C   UNL A   1      43.972  26.385  30.164  1.00  0.00     0.031 C 
ATOM     53  C   UNL A   1      43.114  29.303  35.420  1.00  0.00     0.029 A 
ATOM     54  C   UNL A   1      42.946  28.828  34.128  1.00  0.00     0.049 A 
ATOM     55  H   UNL A   1      41.440  29.296  32.727  1.00  0.00     0.167 HD
ATOM     56  C   UNL A   1      43.545  27.486  32.128  1.00  0.00     0.074 A 
ATOM     57  C   UNL A   1      44.388  26.553  31.411  1.00  0.00     0.031 C 
ATOM     58  C   UNL A   1      43.766  27.888  33.405  1.00  0.00     0.037 A 
BRANCH  45  59
ATOM     59  C   UNL A   1      39.613  31.946  35.530  1.00  0.00     0.064 A 
ATOM     60  C   UNL A   1      40.122  33.245  35.690  1.00  0.00     0.173 A 
ATOM     61  C   UNL A   1      38.640  31.508  36.441  1.00  0.00     0.173 A 
ATOM     62  F   UNL A   1      41.063  33.710  34.855  1.00  0.00    -0.203 F 
ATOM     63  C   UNL A   1      39.701  34.056  36.741  1.00  0.00     0.198 A 
ATOM     64  C   UNL A   1      38.195  32.336  37.469  1.00  0.00     0.198 A 
ATOM     65  F   UNL A   1      38.115  30.278  36.333  1.00  0.00    -0.203 F 
ATOM     66  F   UNL A   1      40.245  35.270  36.907  1.00  0.00    -0.200 F 
ATOM     67  C   UNL A   1      38.732  33.605  37.624  1.00  0.00     0.200 A 
ATOM     68  F   UNL A   1      37.249  31.903  38.313  1.00  0.00    -0.200 F 
ATOM     69  F   UNL A   1      38.322  34.391  38.630  1.00  0.00    -0.200 F 
ENDBRANCH  45  59
BRANCH  46  70
ATOM     70  C   UNL A   1      42.370  26.353  27.713  1.00  0.00     0.064 A 
ATOM     71  C   UNL A   1      41.839  25.072  27.503  1.00  0.00     0.173 A 
ATOM     72  C   UNL A   1      43.323  26.821  26.797  1.00  0.00     0.173 A 
ATOM     73  F   UNL A   1      40.937  24.572  28.361  1.00  0.00    -0.203 F 
ATOM     74  C   UNL A   1      42.267  24.280  26.440  1.00  0.00     0.198 A 
ATOM     75  C   UNL A   1      43.726  26.040  25.716  1.00  0.00     0.198 A 
ATOM     76  F   UNL A   1      43.856  28.042  26.947  1.00  0.00    -0.203 F 
ATOM     77  F   UNL A   1      41.784  23.038  26.296  1.00  0.00    -0.200 F 
ATOM     78  C   UNL A   1      43.207  24.766  25.544  1.00  0.00     0.200 A 
ATOM     79  F   UNL A   1      44.622  26.520  24.843  1.00  0.00    -0.200 F 
ATOM     80  F   UNL A   1      43.618  24.005  24.521  1.00  0.00    -0.200 F 
ENDBRANCH  46  70
BRANCH  58  81
ATOM     81  C   UNL A   1      44.933  27.278  34.128  1.00  0.00     0.064 A 
ATOM     82  C   UNL A   1      46.201  27.879  34.132  1.00  0.00     0.173 A 
ATOM     83  C   UNL A   1      44.768  26.089  34.855  1.00  0.00     0.173 A 
ATOM     84  F   UNL A   1      46.415  29.010  33.442  1.00  0.00    -0.203 F 
ATOM     85  C   UNL A   1      47.268  27.292  34.806  1.00  0.00     0.198 A 
ATOM     86  C   UNL A   1      45.829  25.525  35.558  1.00  0.00     0.198 A 
ATOM     87  F   UNL A   1      43.574  25.479  34.893  1.00  0.00    -0.203 F 
ATOM     88  F   UNL A   1      48.485  27.853  34.747  1.00  0.00    -0.200 F 
ATOM     89  C   UNL A   1      47.080  26.121  35.524  1.00  0.00     0.200 A 
ATOM     90  F   UNL A   1      45.640  24.403  36.266  1.00  0.00    -0.200 F 
ATOM     91  F   UNL A   1      48.107  25.562  36.178  1.00  0.00    -0.200 F 
ENDBRANCH  58  81
ENDBRANCH  32  33
ENDBRANCH  24  27
ENDBRANCH  22  23
ENDBRANCH   1  22
TORSDOF 12
ENDMDL
MODEL 3
REMARK VINA RESULT:     -10.9      4.633      9.998
REMARK SMILES O=C(CS(=O)(=O)[C@@H]1CCOC2(CCCCC2)C1)NCCCNC(=O)c1ccc(-c2c3nc(c(-c4c(F)c(F)c(F)c(F)c4F)c4ccc([nH]4)c(-c4c(F)c(F)c(F)c(F)c4F)c4nc(c(-c5c(F)c(F)c(F)c(F)c5F)c5ccc2[nH]5)C=C4)C=C3)cc1
REMARK SMILES IDX 20 1 19 2 18 3 1 4 2 5 3 7 4 8 5 9 6 10 7 11 8 12 17 13 9 14
REMARK SMILES IDX 11 15 10 16 12 17 16 18 13 19 15 20 14 21 21 22 22 23 23 24
REMARK SMILES IDX 24 26 25 27 26 28 87 29 27 30 86 31 28 32 29 33 30 34 80 35
REMARK SMILES IDX 31 36 85 37 79 38 81 39 32 40 84 41 78 42 77 43 33 45 65 46
REMARK SMILES IDX 45 47 64 48 46 49 49 50 63 51 82 52 47 53 48 54 62 56 83 57
REMARK SMILES IDX 50 58 34 59 35 60 43 61 36 62 37 63 41 64 44 65 38 66 39 67
REMARK SMILES IDX 42 68 40 69 66 70 67 71 75 72 68 73 69 74 73 75 76 76 70 77
REMARK SMILES IDX 71 78 74 79 72 80 51 81 52 82 60 83 53 84 54 85 58 86 61 87
REMARK SMILES IDX 55 88 56 89 59 90 57 91
REMARK H PARENT 18 6 22 25 81 44 49 55
REMARK Flexibility Score: inf
ROOT
ATOM      1  C   UNL A   1      31.787  28.760  25.715  1.00  0.00     0.042 C 
ENDROOT
BRANCH   1   2
ATOM      2  C   UNL A   1      31.632  27.604  26.693  1.00  0.00     0.117 C 
BRANCH   2   3
ATOM      3  N   UNL A   1      31.904  26.323  26.075  1.00  0.00    -0.355 N 
ATOM      4  O   UNL A   1      29.830  25.496  26.487  1.00  0.00    -0.274 OA
ATOM      5  C   UNL A   1      30.947  25.352  25.992  1.00  0.00     0.235 C 
ATOM      6  H   UNL A   1      32.800  26.149  25.706  1.00  0.00     0.163 HD
BRANCH   5   7
ATOM      7  C   UNL A   1      31.338  24.059  25.363  1.00  0.00     0.236 C 
BRANCH   7   8
ATOM      8  S   UNL A   1      31.537  24.077  23.593  1.00  0.00     0.162 S 
ATOM      9  O   UNL A   1      30.198  23.835  23.070  1.00  0.00    -0.228 OA
ATOM     10  O   UNL A   1      32.179  25.342  23.280  1.00  0.00    -0.228 OA
BRANCH   8  11
ATOM     11  C   UNL A   1      32.583  22.766  22.896  1.00  0.00     0.114 C 
ATOM     12  C   UNL A   1      32.463  21.408  23.561  1.00  0.00     0.048 C 
ATOM     13  C   UNL A   1      34.060  23.108  22.600  1.00  0.00     0.055 C 
ATOM     14  C   UNL A   1      33.407  21.287  24.740  1.00  0.00     0.162 C 
ATOM     15  C   UNL A   1      35.012  22.855  23.784  1.00  0.00     0.069 C 
ATOM     16  O   UNL A   1      34.736  21.572  24.360  1.00  0.00    -0.375 OA
ATOM     17  C   UNL A   1      34.946  24.035  24.760  1.00  0.00     0.035 C 
ATOM     18  C   UNL A   1      36.497  22.744  23.371  1.00  0.00     0.035 C 
ATOM     19  C   UNL A   1      35.733  23.799  26.033  1.00  0.00     0.003 C 
ATOM     20  C   UNL A   1      37.398  22.525  24.607  1.00  0.00     0.003 C 
ATOM     21  C   UNL A   1      37.200  23.581  25.697  1.00  0.00     0.000 C 
ENDBRANCH   8  11
ENDBRANCH   7   8
ENDBRANCH   5   7
ENDBRANCH   2   3
ENDBRANCH   1   2
BRANCH   1  22
ATOM     22  C   UNL A   1      33.064  29.563  25.923  1.00  0.00     0.118 C 
BRANCH  22  23
ATOM     23  N   UNL A   1      32.804  30.957  26.250  1.00  0.00    -0.352 N 
ATOM     24  C   UNL A   1      33.401  31.768  27.178  1.00  0.00     0.251 C 
ATOM     25  H   UNL A   1      32.089  31.382  25.723  1.00  0.00     0.163 HD
ATOM     26  O   UNL A   1      32.917  32.866  27.432  1.00  0.00    -0.269 OA
BRANCH  24  27
ATOM     27  C   UNL A   1      34.616  31.315  27.885  1.00  0.00     0.039 A 
ATOM     28  C   UNL A   1      35.687  32.202  28.007  1.00  0.00     0.014 A 
ATOM     29  C   UNL A   1      34.714  30.019  28.397  1.00  0.00     0.014 A 
ATOM     30  C   UNL A   1      36.845  31.798  28.671  1.00  0.00     0.010 A 
ATOM     31  C   UNL A   1      35.829  29.649  29.141  1.00  0.00     0.010 A 
ATOM     32  C   UNL A   1      36.917  30.525  29.261  1.00  0.00    -0.014 A 
BRANCH  32  33
ATOM     33  C   UNL A   1      38.148  30.081  29.960  1.00  0.00     0.031 A 
ATOM     34  C   UNL A   1      38.442  30.576  31.349  1.00  0.00     0.074 A 
ATOM     35  C   UNL A   1      39.013  29.259  29.335  1.00  0.00     0.049 A 
ATOM     36  N   UNL A   1      39.467  30.318  32.122  1.00  0.00    -0.248 NA
ATOM     37  C   UNL A   1      37.467  31.507  31.942  1.00  0.00     0.031 C 
ATOM     38  C   UNL A   1      38.862  28.752  27.970  1.00  0.00     0.029 A 
ATOM     39  N   UNL A   1      40.191  28.705  29.767  1.00  0.00    -0.354 N 
ATOM     40  C   UNL A   1      39.265  31.060  33.279  1.00  0.00     0.074 A 
ATOM     41  C   UNL A   1      38.058  31.831  33.082  1.00  0.00     0.031 C 
ATOM     42  C   UNL A   1      39.890  27.936  27.689  1.00  0.00     0.029 A 
ATOM     43  C   UNL A   1      40.789  27.890  28.838  1.00  0.00     0.049 A 
ATOM     44  H   UNL A   1      40.571  28.876  30.659  1.00  0.00     0.167 HD
ATOM     45  C   UNL A   1      40.001  31.074  34.415  1.00  0.00     0.037 A 
ATOM     46  C   UNL A   1      41.934  27.184  28.909  1.00  0.00     0.037 A 
ATOM     47  C   UNL A   1      41.189  30.286  34.614  1.00  0.00     0.049 A 
ATOM     48  C   UNL A   1      42.735  27.219  30.183  1.00  0.00     0.074 A 
ATOM     49  C   UNL A   1      41.982  30.189  35.744  1.00  0.00     0.029 A 
ATOM     50  N   UNL A   1      41.755  29.459  33.655  1.00  0.00    -0.354 N 
ATOM     51  N   UNL A   1      42.497  27.869  31.296  1.00  0.00    -0.248 NA
ATOM     52  C   UNL A   1      43.961  26.409  30.213  1.00  0.00     0.031 C 
ATOM     53  C   UNL A   1      43.057  29.345  35.451  1.00  0.00     0.029 A 
ATOM     54  C   UNL A   1      42.899  28.863  34.161  1.00  0.00     0.049 A 
ATOM     55  H   UNL A   1      41.398  29.316  32.749  1.00  0.00     0.167 HD
ATOM     56  C   UNL A   1      43.517  27.516  32.170  1.00  0.00     0.074 A 
ATOM     57  C   UNL A   1      44.369  26.586  31.461  1.00  0.00     0.031 C 
ATOM     58  C   UNL A   1      43.728  27.926  33.446  1.00  0.00     0.037 A 
BRANCH  45  59
ATOM     59  C   UNL A   1      39.540  31.969  35.531  1.00  0.00     0.064 A 
ATOM     60  C   UNL A   1      38.617  31.531  36.493  1.00  0.00     0.173 A 
ATOM     61  C   UNL A   1      40.046  33.271  35.655  1.00  0.00     0.173 A 
ATOM     62  F   UNL A   1      38.090  30.300  36.415  1.00  0.00    -0.203 F 
ATOM     63  C   UNL A   1      38.192  32.375  37.517  1.00  0.00     0.198 A 
ATOM     64  C   UNL A   1      39.647  34.099  36.701  1.00  0.00     0.198 A 
ATOM     65  F   UNL A   1      40.934  33.740  34.766  1.00  0.00    -0.203 F 
ATOM     66  F   UNL A   1      37.266  31.954  38.390  1.00  0.00    -0.200 F 
ATOM     67  C   UNL A   1      38.714  33.655  37.625  1.00  0.00     0.200 A 
ATOM     68  F   UNL A   1      40.162  35.332  36.811  1.00  0.00    -0.200 F 
ATOM     69  F   UNL A   1      38.310  34.463  38.615  1.00  0.00    -0.200 F 
ENDBRANCH  45  59
BRANCH  46  70
ATOM     70  C   UNL A   1      42.372  26.357  27.754  1.00  0.00     0.064 A 
ATOM     71  C   UNL A   1      43.322  26.838  26.842  1.00  0.00     0.173 A 
ATOM     72  C   UNL A   1      41.844  25.077  27.530  1.00  0.00     0.173 A 
ATOM     73  F   UNL A   1      43.845  28.063  27.003  1.00  0.00    -0.203 F 
ATOM     74  C   UNL A   1      43.706  26.084  25.736  1.00  0.00     0.198 A 
ATOM     75  C   UNL A   1      42.252  24.311  26.440  1.00  0.00     0.198 A 
ATOM     76  F   UNL A   1      40.937  24.566  28.376  1.00  0.00    -0.203 F 
ATOM     77  F   UNL A   1      44.575  26.591  24.850  1.00  0.00    -0.200 F 
ATOM     78  C   UNL A   1      43.174  24.819  25.538  1.00  0.00     0.200 A 
ATOM     79  F   UNL A   1      41.748  23.082  26.261  1.00  0.00    -0.200 F 
ATOM     80  F   UNL A   1      43.543  24.092  24.474  1.00  0.00    -0.200 F 
ENDBRANCH  46  70
BRANCH  58  81
ATOM     81  C   UNL A   1      44.895  27.326  34.178  1.00  0.00     0.064 A 
ATOM     82  C   UNL A   1      44.774  26.150  34.932  1.00  0.00     0.173 A 
ATOM     83  C   UNL A   1      46.162  27.924  34.095  1.00  0.00     0.173 A 
ATOM     84  F   UNL A   1      43.582  25.545  35.055  1.00  0.00    -0.203 F 
ATOM     85  C   UNL A   1      45.870  25.615  35.605  1.00  0.00     0.198 A 
ATOM     86  C   UNL A   1      47.263  27.367  34.739  1.00  0.00     0.198 A 
ATOM     87  F   UNL A   1      46.336  29.045  33.378  1.00  0.00    -0.203 F 
ATOM     88  F   UNL A   1      45.717  24.523  36.368  1.00  0.00    -0.200 F 
ATOM     89  C   UNL A   1      47.113  26.219  35.502  1.00  0.00     0.200 A 
ATOM     90  F   UNL A   1      48.468  27.942  34.623  1.00  0.00    -0.200 F 
ATOM     91  F   UNL A   1      48.168  25.699  36.145  1.00  0.00    -0.200 F 
ENDBRANCH  58  81
ENDBRANCH  32  33
ENDBRANCH  24  27
ENDBRANCH  22  23
ENDBRANCH   1  22
TORSDOF 12
ENDMDL
