MODEL 1
REMARK VINA RESULT:     -11.9      0.000      0.000
REMARK SMILES Cc1cc(NC[C@H](C)[NH+](C)C)cc(C(=O)NCCCNC(=O)c2ccc(-c3c4nc(c(-c5c(F)c(F)c(F)c(F)c5F)c5ccc([nH]5)c(-c5c(F)c(F)c(F)c(F)c5F)c5nc(c(-c6c(F)c(F)c(F)c(F)c6F)c6ccc3[nH]6)C=C5)C=C4)cc2)c1N
REMARK SMILES IDX 17 1 16 2 14 3 15 4 13 6 1 7 2 8 3 9 86 10 4 11 12 12 87 13
REMARK SMILES IDX 5 16 6 18 7 19 8 20 9 21 10 22 11 23 18 25 19 26 20 27 21 28
REMARK SMILES IDX 22 30 23 31 24 32 85 33 25 34 84 35 26 36 27 37 28 38 78 39
REMARK SMILES IDX 29 40 83 41 77 42 79 43 30 44 82 45 76 46 75 47 31 49 63 50
REMARK SMILES IDX 43 51 62 52 44 53 47 54 61 55 80 56 45 57 46 58 60 60 81 61
REMARK SMILES IDX 48 62 32 63 33 64 41 65 34 66 35 67 39 68 42 69 36 70 37 71
REMARK SMILES IDX 40 72 38 73 64 74 65 75 73 76 66 77 67 78 71 79 74 80 68 81
REMARK SMILES IDX 69 82 72 83 70 84 49 85 50 86 58 87 51 88 52 89 56 90 59 91
REMARK SMILES IDX 53 92 54 93 57 94 55 95
REMARK H PARENT 16 5 87 14 87 15 5 17 9 24 20 29 79 48 47 59
REMARK Flexibility Score: inf
ROOT
ATOM      1  C   UNL A   1      31.390  30.735  26.832  1.00  0.00     0.118 C 
ENDROOT
BRANCH   1   2
ATOM      2  N   UNL A   1      32.753  30.231  26.892  1.00  0.00    -0.352 N 
ATOM      3  C   UNL A   1      33.474  29.358  26.108  1.00  0.00     0.253 C 
ATOM      4  O   UNL A   1      34.645  29.164  26.448  1.00  0.00    -0.269 OA
ATOM      5  H   UNL A   1      33.267  30.588  27.651  1.00  0.00     0.163 HD
BRANCH   3   6
ATOM      6  C   UNL A   1      32.930  28.685  24.883  1.00  0.00     0.065 A 
ATOM      7  C   UNL A   1      32.967  25.277  23.141  1.00  0.00     0.046 C 
ATOM      8  C   UNL A   1      32.720  26.730  23.449  1.00  0.00    -0.025 A 
ATOM      9  C   UNL A   1      31.988  27.505  22.526  1.00  0.00     0.031 A 
ATOM     10  C   UNL A   1      33.204  27.319  24.638  1.00  0.00     0.047 A 
ATOM     11  C   UNL A   1      31.699  28.847  22.767  1.00  0.00     0.035 A 
ATOM     12  C   UNL A   1      32.102  29.374  23.993  1.00  0.00     0.041 A 
BRANCH  10  13
ATOM     13  N   UNL A   1      34.062  26.592  25.471  1.00  0.00    -0.398 N 
ATOM     14  H   UNL A   1      34.740  25.993  25.078  1.00  0.00     0.156 HD
ATOM     15  H   UNL A   1      33.990  26.677  26.449  1.00  0.00     0.156 HD
ENDBRANCH  10  13
BRANCH  11  16
ATOM     16  N   UNL A   1      31.023  29.606  21.821  1.00  0.00    -0.379 N 
ATOM     17  H   UNL A   1      31.527  30.022  21.084  1.00  0.00     0.160 HD
BRANCH  16  18
ATOM     18  C   UNL A   1      29.574  29.797  21.900  1.00  0.00     0.177 C 
BRANCH  18  19
ATOM     19  C   UNL A   1      29.150  30.999  22.791  1.00  0.00     0.199 C 
ATOM     20  C   UNL A   1      27.770  30.691  23.403  1.00  0.00     0.077 C 
BRANCH  19  21
ATOM     21  N   UNL A   1      29.143  32.346  22.167  1.00  0.00    -0.336 N 
ATOM     22  C   UNL A   1      28.104  32.489  21.149  1.00  0.00     0.332 C 
ATOM     23  C   UNL A   1      29.068  33.459  23.112  1.00  0.00     0.332 C 
ATOM     24  H   UNL A   1      30.058  32.404  21.720  1.00  0.00     0.347 HD
ENDBRANCH  19  21
ENDBRANCH  18  19
ENDBRANCH  16  18
ENDBRANCH  11  16
ENDBRANCH   3   6
ENDBRANCH   1   2
BRANCH   1  25
ATOM     25  C   UNL A   1      31.372  32.261  26.717  1.00  0.00     0.042 C 
BRANCH  25  26
ATOM     26  C   UNL A   1      32.683  32.914  27.146  1.00  0.00     0.118 C 
BRANCH  26  27
ATOM     27  N   UNL A   1      32.478  34.274  27.621  1.00  0.00    -0.352 N 
ATOM     28  C   UNL A   1      33.055  34.937  28.675  1.00  0.00     0.251 C 
ATOM     29  H   UNL A   1      31.824  34.800  27.106  1.00  0.00     0.163 HD
ATOM     30  O   UNL A   1      32.581  36.003  29.051  1.00  0.00    -0.269 OA
BRANCH  28  31
ATOM     31  C   UNL A   1      34.235  34.373  29.367  1.00  0.00     0.039 A 
ATOM     32  C   UNL A   1      34.039  33.655  30.551  1.00  0.00     0.014 A 
ATOM     33  C   UNL A   1      35.531  34.592  28.890  1.00  0.00     0.014 A 
ATOM     34  C   UNL A   1      35.135  33.112  31.227  1.00  0.00     0.010 A 
ATOM     35  C   UNL A   1      36.616  33.994  29.527  1.00  0.00     0.010 A 
ATOM     36  C   UNL A   1      36.430  33.254  30.704  1.00  0.00    -0.014 A 
BRANCH  36  37
ATOM     37  C   UNL A   1      37.603  32.636  31.372  1.00  0.00     0.031 A 
ATOM     38  C   UNL A   1      38.325  31.489  30.722  1.00  0.00     0.074 A 
ATOM     39  C   UNL A   1      37.968  33.059  32.598  1.00  0.00     0.049 A 
ATOM     40  N   UNL A   1      39.301  30.753  31.190  1.00  0.00    -0.248 NA
ATOM     41  C   UNL A   1      37.872  31.100  29.378  1.00  0.00     0.031 C 
ATOM     42  C   UNL A   1      37.319  34.135  33.347  1.00  0.00     0.029 A 
ATOM     43  N   UNL A   1      38.964  32.623  33.436  1.00  0.00    -0.354 N 
ATOM     44  C   UNL A   1      39.563  29.805  30.210  1.00  0.00     0.074 A 
ATOM     45  C   UNL A   1      38.615  30.030  29.140  1.00  0.00     0.031 C 
ATOM     46  C   UNL A   1      37.939  34.284  34.529  1.00  0.00     0.029 A 
ATOM     47  C   UNL A   1      39.002  33.289  34.636  1.00  0.00     0.049 A 
ATOM     48  H   UNL A   1      39.590  31.902  33.199  1.00  0.00     0.167 HD
ATOM     49  C   UNL A   1      40.521  28.847  30.196  1.00  0.00     0.037 A 
ATOM     50  C   UNL A   1      39.794  33.106  35.710  1.00  0.00     0.037 A 
ATOM     51  C   UNL A   1      41.480  28.647  31.250  1.00  0.00     0.049 A 
ATOM     52  C   UNL A   1      40.849  32.034  35.669  1.00  0.00     0.074 A 
ATOM     53  C   UNL A   1      42.530  27.746  31.303  1.00  0.00     0.029 A 
ATOM     54  N   UNL A   1      41.504  29.359  32.441  1.00  0.00    -0.354 N 
ATOM     55  N   UNL A   1      41.129  31.186  34.711  1.00  0.00    -0.248 NA
ATOM     56  C   UNL A   1      41.702  31.899  36.859  1.00  0.00     0.031 C 
ATOM     57  C   UNL A   1      43.160  27.882  32.544  1.00  0.00     0.029 A 
ATOM     58  C   UNL A   1      42.537  28.902  33.244  1.00  0.00     0.049 A 
ATOM     59  H   UNL A   1      40.879  30.081  32.680  1.00  0.00     0.167 HD
ATOM     60  C   UNL A   1      42.205  30.435  35.166  1.00  0.00     0.074 A 
ATOM     61  C   UNL A   1      42.536  30.938  36.483  1.00  0.00     0.031 C 
ATOM     62  C   UNL A   1      42.859  29.422  34.549  1.00  0.00     0.037 A 
BRANCH  49  63
ATOM     63  C   UNL A   1      40.582  27.939  29.000  1.00  0.00     0.064 A 
ATOM     64  C   UNL A   1      39.804  26.775  28.918  1.00  0.00     0.173 A 
ATOM     65  C   UNL A   1      41.398  28.261  27.904  1.00  0.00     0.173 A 
ATOM     66  F   UNL A   1      39.015  26.417  29.942  1.00  0.00    -0.203 F 
ATOM     67  C   UNL A   1      39.861  25.951  27.796  1.00  0.00     0.198 A 
ATOM     68  C   UNL A   1      41.429  27.451  26.772  1.00  0.00     0.198 A 
ATOM     69  F   UNL A   1      42.157  29.367  27.927  1.00  0.00    -0.203 F 
ATOM     70  F   UNL A   1      39.144  24.820  27.762  1.00  0.00    -0.200 F 
ATOM     71  C   UNL A   1      40.667  26.294  26.722  1.00  0.00     0.200 A 
ATOM     72  F   UNL A   1      42.198  27.791  25.727  1.00  0.00    -0.200 F 
ATOM     73  F   UNL A   1      40.713  25.505  25.640  1.00  0.00    -0.200 F 
ENDBRANCH  49  63
BRANCH  50  74
ATOM     74  C   UNL A   1      39.630  33.972  36.907  1.00  0.00     0.064 A 
ATOM     75  C   UNL A   1      40.247  35.229  36.976  1.00  0.00     0.173 A 
ATOM     76  C   UNL A   1      38.854  33.565  38.002  1.00  0.00     0.173 A 
ATOM     77  F   UNL A   1      41.015  35.654  35.962  1.00  0.00    -0.203 F 
ATOM     78  C   UNL A   1      40.110  36.037  38.102  1.00  0.00     0.198 A 
ATOM     79  C   UNL A   1      38.694  34.387  39.116  1.00  0.00     0.198 A 
ATOM     80  F   UNL A   1      38.237  32.374  37.984  1.00  0.00    -0.203 F 
ATOM     81  F   UNL A   1      40.745  37.216  38.160  1.00  0.00    -0.200 F 
ATOM     82  C   UNL A   1      39.328  35.619  39.169  1.00  0.00     0.200 A 
ATOM     83  F   UNL A   1      37.925  33.985  40.138  1.00  0.00    -0.200 F 
ATOM     84  F   UNL A   1      39.191  36.399  40.249  1.00  0.00    -0.200 F 
ENDBRANCH  50  74
BRANCH  62  85
ATOM     85  C   UNL A   1      44.021  28.809  35.273  1.00  0.00     0.064 A 
ATOM     86  C   UNL A   1      45.331  29.277  35.092  1.00  0.00     0.173 A 
ATOM     87  C   UNL A   1      43.814  27.773  36.196  1.00  0.00     0.173 A 
ATOM     88  F   UNL A   1      45.583  30.255  34.211  1.00  0.00    -0.203 F 
ATOM     89  C   UNL A   1      46.394  28.715  35.796  1.00  0.00     0.198 A 
ATOM     90  C   UNL A   1      44.874  27.233  36.918  1.00  0.00     0.198 A 
ATOM     91  F   UNL A   1      42.579  27.294  36.409  1.00  0.00    -0.203 F 
ATOM     92  F   UNL A   1      47.643  29.148  35.576  1.00  0.00    -0.200 F 
ATOM     93  C   UNL A   1      46.164  27.701  36.713  1.00  0.00     0.200 A 
ATOM     94  F   UNL A   1      44.648  26.263  37.815  1.00  0.00    -0.200 F 
ATOM     95  F   UNL A   1      47.186  27.168  37.397  1.00  0.00    -0.200 F 
ENDBRANCH  62  85
ENDBRANCH  36  37
ENDBRANCH  28  31
ENDBRANCH  26  27
ENDBRANCH  25  26
ENDBRANCH   1  25
TORSDOF 15
ENDMDL
MODEL 2
REMARK VINA RESULT:     -11.8      6.148     11.383
REMARK SMILES Cc1cc(NC[C@H](C)[NH+](C)C)cc(C(=O)NCCCNC(=O)c2ccc(-c3c4nc(c(-c5c(F)c(F)c(F)c(F)c5F)c5ccc([nH]5)c(-c5c(F)c(F)c(F)c(F)c5F)c5nc(c(-c6c(F)c(F)c(F)c(F)c6F)c6ccc3[nH]6)C=C5)C=C4)cc2)c1N
REMARK SMILES IDX 17 1 16 2 14 3 15 4 13 6 1 7 2 8 3 9 86 10 4 11 12 12 87 13
REMARK SMILES IDX 5 16 6 18 7 19 8 20 9 21 10 22 11 23 18 25 19 26 20 27 21 28
REMARK SMILES IDX 22 30 23 31 24 32 85 33 25 34 84 35 26 36 27 37 28 38 78 39
REMARK SMILES IDX 29 40 83 41 77 42 79 43 30 44 82 45 76 46 75 47 31 49 63 50
REMARK SMILES IDX 43 51 62 52 44 53 47 54 61 55 80 56 45 57 46 58 60 60 81 61
REMARK SMILES IDX 48 62 32 63 33 64 41 65 34 66 35 67 39 68 42 69 36 70 37 71
REMARK SMILES IDX 40 72 38 73 64 74 65 75 73 76 66 77 67 78 71 79 74 80 68 81
REMARK SMILES IDX 69 82 72 83 70 84 49 85 50 86 58 87 51 88 52 89 56 90 59 91
REMARK SMILES IDX 53 92 54 93 57 94 55 95
REMARK H PARENT 16 5 87 14 87 15 5 17 9 24 20 29 79 48 47 59
REMARK Flexibility Score: inf
ROOT
ATOM      1  C   UNL A   1      37.957  21.810  25.402  1.00  0.00     0.118 C 
ENDROOT
BRANCH   1   2
ATOM      2  N   UNL A   1      37.413  22.381  24.180  1.00  0.00    -0.352 N 
ATOM      3  C   UNL A   1      36.134  22.666  23.756  1.00  0.00     0.253 C 
ATOM      4  O   UNL A   1      36.035  23.177  22.636  1.00  0.00    -0.269 OA
ATOM      5  H   UNL A   1      38.103  22.612  23.517  1.00  0.00     0.163 HD
BRANCH   3   6
ATOM      6  C   UNL A   1      34.904  22.425  24.580  1.00  0.00     0.065 A 
ATOM      7  C   UNL A   1      32.181  24.370  26.437  1.00  0.00     0.046 C 
ATOM      8  C   UNL A   1      33.029  23.252  25.891  1.00  0.00    -0.025 A 
ATOM      9  C   UNL A   1      32.683  21.922  26.207  1.00  0.00     0.031 A 
ATOM     10  C   UNL A   1      34.152  23.515  25.076  1.00  0.00     0.047 A 
ATOM     11  C   UNL A   1      33.409  20.841  25.709  1.00  0.00     0.035 A 
ATOM     12  C   UNL A   1      34.450  21.126  24.826  1.00  0.00     0.041 A 
BRANCH  10  13
ATOM     13  N   UNL A   1      34.584  24.834  24.898  1.00  0.00    -0.398 N 
ATOM     14  H   UNL A   1      34.213  25.379  24.166  1.00  0.00     0.156 HD
ATOM     15  H   UNL A   1      35.258  25.218  25.505  1.00  0.00     0.156 HD
ENDBRANCH  10  13
BRANCH  11  16
ATOM     16  N   UNL A   1      33.083  19.542  26.075  1.00  0.00    -0.379 N 
ATOM     17  H   UNL A   1      33.091  19.291  27.027  1.00  0.00     0.160 HD
BRANCH  16  18
ATOM     18  C   UNL A   1      32.729  18.539  25.068  1.00  0.00     0.177 C 
BRANCH  18  19
ATOM     19  C   UNL A   1      33.906  17.601  24.679  1.00  0.00     0.199 C 
ATOM     20  C   UNL A   1      33.727  17.175  23.210  1.00  0.00     0.077 C 
BRANCH  19  21
ATOM     21  N   UNL A   1      34.145  16.409  25.532  1.00  0.00    -0.336 N 
ATOM     22  C   UNL A   1      33.096  15.400  25.393  1.00  0.00     0.332 C 
ATOM     23  C   UNL A   1      35.457  15.787  25.363  1.00  0.00     0.332 C 
ATOM     24  H   UNL A   1      34.121  16.788  26.479  1.00  0.00     0.347 HD
ENDBRANCH  19  21
ENDBRANCH  18  19
ENDBRANCH  16  18
ENDBRANCH  11  16
ENDBRANCH   3   6
ENDBRANCH   1   2
BRANCH   1  25
ATOM     25  C   UNL A   1      38.784  20.557  25.103  1.00  0.00     0.042 C 
BRANCH  25  26
ATOM     26  C   UNL A   1      39.411  19.937  26.348  1.00  0.00     0.118 C 
BRANCH  26  27
ATOM     27  N   UNL A   1      40.592  19.151  26.023  1.00  0.00    -0.352 N 
ATOM     28  C   UNL A   1      41.907  19.531  25.935  1.00  0.00     0.251 C 
ATOM     29  H   UNL A   1      40.420  18.200  25.838  1.00  0.00     0.163 HD
ATOM     30  O   UNL A   1      42.723  18.772  25.424  1.00  0.00    -0.269 OA
BRANCH  28  31
ATOM     31  C   UNL A   1      42.349  20.850  26.440  1.00  0.00     0.039 A 
ATOM     32  C   UNL A   1      42.682  21.845  25.515  1.00  0.00     0.014 A 
ATOM     33  C   UNL A   1      42.487  21.095  27.809  1.00  0.00     0.014 A 
ATOM     34  C   UNL A   1      43.103  23.100  25.962  1.00  0.00     0.010 A 
ATOM     35  C   UNL A   1      42.842  22.366  28.255  1.00  0.00     0.010 A 
ATOM     36  C   UNL A   1      43.159  23.379  27.337  1.00  0.00    -0.014 A 
BRANCH  36  37
ATOM     37  C   UNL A   1      43.546  24.723  27.836  1.00  0.00     0.031 A 
ATOM     38  C   UNL A   1      42.489  25.742  28.160  1.00  0.00     0.074 A 
ATOM     39  C   UNL A   1      44.850  25.049  27.924  1.00  0.00     0.049 A 
ATOM     40  N   UNL A   1      42.626  26.996  28.508  1.00  0.00    -0.248 NA
ATOM     41  C   UNL A   1      41.091  25.299  28.052  1.00  0.00     0.031 C 
ATOM     42  C   UNL A   1      45.965  24.160  27.597  1.00  0.00     0.029 A 
ATOM     43  N   UNL A   1      45.457  26.222  28.296  1.00  0.00    -0.354 N 
ATOM     44  C   UNL A   1      41.338  27.495  28.640  1.00  0.00     0.074 A 
ATOM     45  C   UNL A   1      40.431  26.423  28.292  1.00  0.00     0.031 C 
ATOM     46  C   UNL A   1      47.121  24.814  27.795  1.00  0.00     0.029 A 
ATOM     47  C   UNL A   1      46.827  26.179  28.222  1.00  0.00     0.049 A 
ATOM     48  H   UNL A   1      44.957  27.018  28.588  1.00  0.00     0.167 HD
ATOM     49  C   UNL A   1      40.947  28.731  29.035  1.00  0.00     0.037 A 
ATOM     50  C   UNL A   1      47.744  27.137  28.456  1.00  0.00     0.037 A 
ATOM     51  C   UNL A   1      41.853  29.785  29.408  1.00  0.00     0.049 A 
ATOM     52  C   UNL A   1      47.284  28.501  28.892  1.00  0.00     0.074 A 
ATOM     53  C   UNL A   1      41.557  31.050  29.883  1.00  0.00     0.029 A 
ATOM     54  N   UNL A   1      43.237  29.695  29.345  1.00  0.00    -0.354 N 
ATOM     55  N   UNL A   1      46.064  28.943  29.075  1.00  0.00    -0.248 NA
ATOM     56  C   UNL A   1      48.329  29.500  29.159  1.00  0.00     0.031 C 
ATOM     57  C   UNL A   1      42.759  31.742  30.064  1.00  0.00     0.029 A 
ATOM     58  C   UNL A   1      43.806  30.891  29.752  1.00  0.00     0.049 A 
ATOM     59  H   UNL A   1      43.738  28.900  29.054  1.00  0.00     0.167 HD
ATOM     60  C   UNL A   1      46.192  30.257  29.504  1.00  0.00     0.074 A 
ATOM     61  C   UNL A   1      47.611  30.538  29.567  1.00  0.00     0.031 C 
ATOM     62  C   UNL A   1      45.222  31.150  29.818  1.00  0.00     0.037 A 
BRANCH  49  63
ATOM     63  C   UNL A   1      39.472  29.013  29.086  1.00  0.00     0.064 A 
ATOM     64  C   UNL A   1      38.751  28.952  30.288  1.00  0.00     0.173 A 
ATOM     65  C   UNL A   1      38.779  29.391  27.925  1.00  0.00     0.173 A 
ATOM     66  F   UNL A   1      39.364  28.587  31.425  1.00  0.00    -0.203 F 
ATOM     67  C   UNL A   1      37.387  29.231  30.322  1.00  0.00     0.198 A 
ATOM     68  C   UNL A   1      37.422  29.698  27.969  1.00  0.00     0.198 A 
ATOM     69  F   UNL A   1      39.421  29.472  26.750  1.00  0.00    -0.203 F 
ATOM     70  F   UNL A   1      36.711  29.120  31.473  1.00  0.00    -0.200 F 
ATOM     71  C   UNL A   1      36.726  29.611  29.164  1.00  0.00     0.200 A 
ATOM     72  F   UNL A   1      36.787  30.080  26.851  1.00  0.00    -0.200 F 
ATOM     73  F   UNL A   1      35.415  29.888  29.200  1.00  0.00    -0.200 F 
ENDBRANCH  49  63
BRANCH  50  74
ATOM     74  C   UNL A   1      49.191  26.833  28.300  1.00  0.00     0.064 A 
ATOM     75  C   UNL A   1      49.961  26.420  29.395  1.00  0.00     0.173 A 
ATOM     76  C   UNL A   1      49.830  26.943  27.057  1.00  0.00     0.173 A 
ATOM     77  F   UNL A   1      49.399  26.319  30.608  1.00  0.00    -0.203 F 
ATOM     78  C   UNL A   1      51.321  26.149  29.257  1.00  0.00     0.198 A 
ATOM     79  C   UNL A   1      51.183  26.644  26.914  1.00  0.00     0.198 A 
ATOM     80  F   UNL A   1      49.136  27.327  25.975  1.00  0.00    -0.203 F 
ATOM     81  F   UNL A   1      52.044  25.798  30.329  1.00  0.00    -0.200 F 
ATOM     82  C   UNL A   1      51.930  26.255  28.015  1.00  0.00     0.200 A 
ATOM     83  F   UNL A   1      51.764  26.732  25.709  1.00  0.00    -0.200 F 
ATOM     84  F   UNL A   1      53.236  25.988  27.883  1.00  0.00    -0.200 F 
ENDBRANCH  50  74
BRANCH  62  85
ATOM     85  C   UNL A   1      45.660  32.504  30.292  1.00  0.00     0.064 A 
ATOM     86  C   UNL A   1      45.904  32.767  31.648  1.00  0.00     0.173 A 
ATOM     87  C   UNL A   1      45.884  33.539  29.371  1.00  0.00     0.173 A 
ATOM     88  F   UNL A   1      45.690  31.817  32.569  1.00  0.00    -0.203 F 
ATOM     89  C   UNL A   1      46.337  34.023  32.066  1.00  0.00     0.198 A 
ATOM     90  C   UNL A   1      46.345  34.783  29.788  1.00  0.00     0.198 A 
ATOM     91  F   UNL A   1      45.671  33.336  28.061  1.00  0.00    -0.203 F 
ATOM     92  F   UNL A   1      46.523  34.266  33.370  1.00  0.00    -0.200 F 
ATOM     93  C   UNL A   1      46.566  35.026  31.136  1.00  0.00     0.200 A 
ATOM     94  F   UNL A   1      46.579  35.747  28.887  1.00  0.00    -0.200 F 
ATOM     95  F   UNL A   1      46.993  36.231  31.539  1.00  0.00    -0.200 F 
ENDBRANCH  62  85
ENDBRANCH  36  37
ENDBRANCH  28  31
ENDBRANCH  26  27
ENDBRANCH  25  26
ENDBRANCH   1  25
TORSDOF 15
ENDMDL
MODEL 3
REMARK VINA RESULT:     -11.7      6.416     11.934
REMARK SMILES Cc1cc(NC[C@H](C)[NH+](C)C)cc(C(=O)NCCCNC(=O)c2ccc(-c3c4nc(c(-c5c(F)c(F)c(F)c(F)c5F)c5ccc([nH]5)c(-c5c(F)c(F)c(F)c(F)c5F)c5nc(c(-c6c(F)c(F)c(F)c(F)c6F)c6ccc3[nH]6)C=C5)C=C4)cc2)c1N
REMARK SMILES IDX 17 1 16 2 14 3 15 4 13 6 1 7 2 8 3 9 86 10 4 11 12 12 87 13
REMARK SMILES IDX 5 16 6 18 7 19 8 20 9 21 10 22 11 23 18 25 19 26 20 27 21 28
REMARK SMILES IDX 22 30 23 31 24 32 85 33 25 34 84 35 26 36 27 37 28 38 78 39
REMARK SMILES IDX 29 40 83 41 77 42 79 43 30 44 82 45 76 46 75 47 31 49 63 50
REMARK SMILES IDX 43 51 62 52 44 53 47 54 61 55 80 56 45 57 46 58 60 60 81 61
REMARK SMILES IDX 48 62 32 63 33 64 41 65 34 66 35 67 39 68 42 69 36 70 37 71
REMARK SMILES IDX 40 72 38 73 64 74 65 75 73 76 66 77 67 78 71 79 74 80 68 81
REMARK SMILES IDX 69 82 72 83 70 84 49 85 50 86 58 87 51 88 52 89 56 90 59 91
REMARK SMILES IDX 53 92 54 93 57 94 55 95
REMARK H PARENT 16 5 87 14 87 15 5 17 9 24 20 29 79 48 47 59
REMARK Flexibility Score: inf
ROOT
ATOM      1  C   UNL A   1      38.046  22.345  26.079  1.00  0.00     0.118 C 
ENDROOT
BRANCH   1   2
ATOM      2  N   UNL A   1      37.730  22.576  24.678  1.00  0.00    -0.352 N 
ATOM      3  C   UNL A   1      36.551  22.604  23.966  1.00  0.00     0.253 C 
ATOM      4  O   UNL A   1      36.651  22.854  22.761  1.00  0.00    -0.269 OA
ATOM      5  H   UNL A   1      38.524  22.749  24.123  1.00  0.00     0.163 HD
BRANCH   3   6
ATOM      6  C   UNL A   1      35.198  22.386  24.575  1.00  0.00     0.065 A 
ATOM      7  C   UNL A   1      32.156  24.379  25.770  1.00  0.00     0.046 C 
ATOM      8  C   UNL A   1      33.106  23.250  25.468  1.00  0.00    -0.025 A 
ATOM      9  C   UNL A   1      32.730  21.936  25.817  1.00  0.00     0.031 A 
ATOM     10  C   UNL A   1      34.352  23.487  24.847  1.00  0.00     0.047 A 
ATOM     11  C   UNL A   1      33.550  20.844  25.537  1.00  0.00     0.035 A 
ATOM     12  C   UNL A   1      34.727  21.096  24.834  1.00  0.00     0.041 A 
BRANCH  10  13
ATOM     13  N   UNL A   1      34.788  24.802  24.650  1.00  0.00    -0.398 N 
ATOM     14  H   UNL A   1      34.162  25.552  24.776  1.00  0.00     0.156 HD
ATOM     15  H   UNL A   1      35.719  24.978  24.386  1.00  0.00     0.156 HD
ENDBRANCH  10  13
BRANCH  11  16
ATOM     16  N   UNL A   1      33.185  19.565  25.936  1.00  0.00    -0.379 N 
ATOM     17  H   UNL A   1      33.185  19.339  26.894  1.00  0.00     0.160 HD
BRANCH  16  18
ATOM     18  C   UNL A   1      32.800  18.548  24.955  1.00  0.00     0.177 C 
BRANCH  18  19
ATOM     19  C   UNL A   1      33.952  17.572  24.582  1.00  0.00     0.199 C 
ATOM     20  C   UNL A   1      33.721  17.071  23.144  1.00  0.00     0.077 C 
BRANCH  19  21
ATOM     21  N   UNL A   1      34.200  16.425  25.491  1.00  0.00    -0.336 N 
ATOM     22  C   UNL A   1      33.179  15.385  25.375  1.00  0.00     0.332 C 
ATOM     23  C   UNL A   1      35.530  15.828  25.376  1.00  0.00     0.332 C 
ATOM     24  H   UNL A   1      34.147  16.843  26.420  1.00  0.00     0.347 HD
ENDBRANCH  19  21
ENDBRANCH  18  19
ENDBRANCH  16  18
ENDBRANCH  11  16
ENDBRANCH   3   6
ENDBRANCH   1   2
BRANCH   1  25
ATOM     25  C   UNL A   1      39.268  21.436  26.224  1.00  0.00     0.042 C 
BRANCH  25  26
ATOM     26  C   UNL A   1      39.195  20.183  25.356  1.00  0.00     0.118 C 
BRANCH  26  27
ATOM     27  N   UNL A   1      40.187  19.195  25.752  1.00  0.00    -0.352 N 
ATOM     28  C   UNL A   1      41.496  19.360  26.128  1.00  0.00     0.251 C 
ATOM     29  H   UNL A   1      39.870  18.262  25.749  1.00  0.00     0.163 HD
ATOM     30  O   UNL A   1      42.232  18.383  26.203  1.00  0.00    -0.269 OA
BRANCH  28  31
ATOM     31  C   UNL A   1      42.030  20.706  26.435  1.00  0.00     0.039 A 
ATOM     32  C   UNL A   1      42.342  21.562  25.373  1.00  0.00     0.014 A 
ATOM     33  C   UNL A   1      42.275  21.108  27.751  1.00  0.00     0.014 A 
ATOM     34  C   UNL A   1      42.849  22.837  25.632  1.00  0.00     0.010 A 
ATOM     35  C   UNL A   1      42.716  22.404  28.010  1.00  0.00     0.010 A 
ATOM     36  C   UNL A   1      43.013  23.279  26.954  1.00  0.00    -0.014 A 
BRANCH  36  37
ATOM     37  C   UNL A   1      43.493  24.651  27.255  1.00  0.00     0.031 A 
ATOM     38  C   UNL A   1      42.542  25.684  27.791  1.00  0.00     0.074 A 
ATOM     39  C   UNL A   1      44.767  24.985  26.974  1.00  0.00     0.049 A 
ATOM     40  N   UNL A   1      42.743  26.957  28.019  1.00  0.00    -0.248 NA
ATOM     41  C   UNL A   1      41.173  25.232  28.085  1.00  0.00     0.031 C 
ATOM     42  C   UNL A   1      45.772  24.082  26.413  1.00  0.00     0.029 A 
ATOM     43  N   UNL A   1      45.430  26.181  27.104  1.00  0.00    -0.354 N 
ATOM     44  C   UNL A   1      41.526  27.460  28.461  1.00  0.00     0.074 A 
ATOM     45  C   UNL A   1      40.580  26.366  28.428  1.00  0.00     0.031 C 
ATOM     46  C   UNL A   1      46.927  24.750  26.259  1.00  0.00     0.029 A 
ATOM     47  C   UNL A   1      46.731  26.137  26.670  1.00  0.00     0.049 A 
ATOM     48  H   UNL A   1      45.011  26.991  27.473  1.00  0.00     0.167 HD
ATOM     49  C   UNL A   1      41.231  28.715  28.874  1.00  0.00     0.037 A 
ATOM     50  C   UNL A   1      47.659  27.111  26.597  1.00  0.00     0.037 A 
ATOM     51  C   UNL A   1      42.184  29.793  28.933  1.00  0.00     0.049 A 
ATOM     52  C   UNL A   1      47.306  28.497  27.062  1.00  0.00     0.074 A 
ATOM     53  C   UNL A   1      42.001  31.083  29.397  1.00  0.00     0.029 A 
ATOM     54  N   UNL A   1      43.503  29.704  28.508  1.00  0.00    -0.354 N 
ATOM     55  N   UNL A   1      46.170  28.945  27.538  1.00  0.00    -0.248 NA
ATOM     56  C   UNL A   1      48.366  29.512  26.984  1.00  0.00     0.031 C 
ATOM     57  C   UNL A   1      43.196  31.788  29.211  1.00  0.00     0.029 A 
ATOM     58  C   UNL A   1      44.138  30.923  28.680  1.00  0.00     0.049 A 
ATOM     59  H   UNL A   1      43.924  28.894  28.140  1.00  0.00     0.167 HD
ATOM     60  C   UNL A   1      46.383  30.283  27.843  1.00  0.00     0.074 A 
ATOM     61  C   UNL A   1      47.763  30.571  27.509  1.00  0.00     0.031 C 
ATOM     62  C   UNL A   1      45.515  31.189  28.352  1.00  0.00     0.037 A 
BRANCH  49  63
ATOM     63  C   UNL A   1      39.819  28.996  29.301  1.00  0.00     0.064 A 
ATOM     64  C   UNL A   1      38.851  29.451  28.393  1.00  0.00     0.173 A 
ATOM     65  C   UNL A   1      39.416  28.764  30.626  1.00  0.00     0.173 A 
ATOM     66  F   UNL A   1      39.186  29.698  27.117  1.00  0.00    -0.203 F 
ATOM     67  C   UNL A   1      37.541  29.693  28.801  1.00  0.00     0.198 A 
ATOM     68  C   UNL A   1      38.098  28.977  31.022  1.00  0.00     0.198 A 
ATOM     69  F   UNL A   1      40.299  28.321  31.533  1.00  0.00    -0.203 F 
ATOM     70  F   UNL A   1      36.648  30.174  27.926  1.00  0.00    -0.200 F 
ATOM     71  C   UNL A   1      37.165  29.448  30.112  1.00  0.00     0.200 A 
ATOM     72  F   UNL A   1      37.732  28.726  32.288  1.00  0.00    -0.200 F 
ATOM     73  F   UNL A   1      35.902  29.672  30.500  1.00  0.00    -0.200 F 
ENDBRANCH  49  63
BRANCH  50  74
ATOM     74  C   UNL A   1      49.018  26.802  26.078  1.00  0.00     0.064 A 
ATOM     75  C   UNL A   1      49.337  27.008  24.730  1.00  0.00     0.173 A 
ATOM     76  C   UNL A   1      50.022  26.300  26.918  1.00  0.00     0.173 A 
ATOM     77  F   UNL A   1      48.404  27.468  23.884  1.00  0.00    -0.203 F 
ATOM     78  C   UNL A   1      50.604  26.705  24.236  1.00  0.00     0.198 A 
ATOM     79  C   UNL A   1      51.298  26.024  26.429  1.00  0.00     0.198 A 
ATOM     80  F   UNL A   1      49.771  26.091  28.219  1.00  0.00    -0.203 F 
ATOM     81  F   UNL A   1      50.870  26.871  22.933  1.00  0.00    -0.200 F 
ATOM     82  C   UNL A   1      51.586  26.220  25.087  1.00  0.00     0.200 A 
ATOM     83  F   UNL A   1      52.248  25.570  27.258  1.00  0.00    -0.200 F 
ATOM     84  F   UNL A   1      52.806  25.935  24.612  1.00  0.00    -0.200 F 
ENDBRANCH  50  74
BRANCH  62  85
ATOM     85  C   UNL A   1      46.038  32.571  28.615  1.00  0.00     0.064 A 
ATOM     86  C   UNL A   1      45.949  33.587  27.653  1.00  0.00     0.173 A 
ATOM     87  C   UNL A   1      46.590  32.894  29.865  1.00  0.00     0.173 A 
ATOM     88  F   UNL A   1      45.445  33.326  26.439  1.00  0.00    -0.203 F 
ATOM     89  C   UNL A   1      46.414  34.872  27.926  1.00  0.00     0.198 A 
ATOM     90  C   UNL A   1      47.025  34.185  30.144  1.00  0.00     0.198 A 
ATOM     91  F   UNL A   1      46.691  31.958  30.821  1.00  0.00    -0.203 F 
ATOM     92  F   UNL A   1      46.360  35.817  26.977  1.00  0.00    -0.200 F 
ATOM     93  C   UNL A   1      46.943  35.172  29.172  1.00  0.00     0.200 A 
ATOM     94  F   UNL A   1      47.523  34.477  31.353  1.00  0.00    -0.200 F 
ATOM     95  F   UNL A   1      47.379  36.411  29.436  1.00  0.00    -0.200 F 
ENDBRANCH  62  85
ENDBRANCH  36  37
ENDBRANCH  28  31
ENDBRANCH  26  27
ENDBRANCH  25  26
ENDBRANCH   1  25
TORSDOF 15
ENDMDL
