MODEL 1
REMARK VINA RESULT:     -11.3      0.000      0.000
REMARK SMILES C[N@@H+]1CC[N@@H+](C)[C@H](C[NH2+]Cc2ccc(C(=O)NCCCNC(=O)c3ccc(-c4c5nc(c(-c6c(F)c(F)c(F)c(F)c6F)c6ccc([nH]6)c(-c6c(F)c(F)c(F)c(F)c6F)c6nc(c(-c7c(F)c(F)c(F)c(F)c7F)c7ccc4[nH]7)C=C6)C=C5)cc3)cn2)C1
REMARK SMILES IDX 18 1 17 2 15 3 16 4 14 6 11 7 12 8 88 9 13 10 87 11 10 12
REMARK SMILES IDX 9 13 8 16 7 17 1 18 2 19 3 20 89 21 4 23 5 24 6 25 19 27
REMARK SMILES IDX 20 28 21 29 22 30 23 32 24 33 25 34 86 35 26 36 85 37 27 38
REMARK SMILES IDX 28 39 29 40 79 41 30 42 84 43 78 44 80 45 31 46 83 47 77 48
REMARK SMILES IDX 76 49 32 51 64 52 44 53 63 54 45 55 48 56 62 57 81 58 46 59
REMARK SMILES IDX 47 60 61 62 82 63 49 64 33 65 34 66 42 67 35 68 36 69 40 70
REMARK SMILES IDX 43 71 37 72 38 73 41 74 39 75 65 76 66 77 74 78 67 79 68 80
REMARK SMILES IDX 72 81 75 82 69 83 70 84 73 85 71 86 50 87 51 88 59 89 52 90
REMARK SMILES IDX 53 91 57 92 60 93 54 94 55 95 58 96 56 97
REMARK H PARENT 17 5 9 14 9 15 2 22 5 26 21 31 80 50 48 61
REMARK Flexibility Score: inf
ROOT
ATOM      1  C   UNL A   1      31.702  30.700  26.740  1.00  0.00     0.118 C 
ENDROOT
BRANCH   1   2
ATOM      2  N   UNL A   1      33.003  30.348  27.274  1.00  0.00    -0.352 N 
ATOM      3  C   UNL A   1      33.901  29.362  26.951  1.00  0.00     0.252 C 
ATOM      4  O   UNL A   1      34.938  29.306  27.613  1.00  0.00    -0.269 OA
ATOM      5  H   UNL A   1      33.301  30.928  28.010  1.00  0.00     0.163 HD
BRANCH   3   6
ATOM      6  C   UNL A   1      33.716  28.421  25.821  1.00  0.00     0.058 A 
ATOM      7  C   UNL A   1      33.673  26.431  23.914  1.00  0.00     0.094 A 
ATOM      8  C   UNL A   1      33.644  27.757  23.506  1.00  0.00     0.030 A 
ATOM      9  N   UNL A   1      33.599  26.071  25.219  1.00  0.00    -0.255 NA
ATOM     10  C   UNL A   1      33.641  28.757  24.473  1.00  0.00     0.017 A 
ATOM     11  C   UNL A   1      33.638  27.068  26.136  1.00  0.00     0.125 A 
BRANCH   7  12
ATOM     12  C   UNL A   1      33.943  25.351  22.892  1.00  0.00     0.318 C 
BRANCH  12  13
ATOM     13  N   UNL A   1      32.697  24.911  22.256  1.00  0.00    -0.336 N 
ATOM     14  H   UNL A   1      31.991  25.637  22.370  1.00  0.00     0.346 HD
ATOM     15  H   UNL A   1      32.883  24.742  21.267  1.00  0.00     0.346 HD
BRANCH  13  16
ATOM     16  C   UNL A   1      32.203  23.659  22.859  1.00  0.00     0.332 C 
BRANCH  16  17
ATOM     17  C   UNL A   1      31.024  23.926  23.848  1.00  0.00     0.295 C 
ATOM     18  C   UNL A   1      28.492  26.780  23.874  1.00  0.00     0.333 C 
ATOM     19  N   UNL A   1      29.188  25.578  24.320  1.00  0.00    -0.328 N 
ATOM     20  C   UNL A   1      29.735  25.747  25.675  1.00  0.00     0.324 C 
ATOM     21  C   UNL A   1      30.303  25.239  23.415  1.00  0.00     0.334 C 
ATOM     22  H   UNL A   1      28.498  24.826  24.318  1.00  0.00     0.348 HD
ATOM     23  C   UNL A   1      30.410  24.448  26.161  1.00  0.00     0.324 C 
ATOM     24  N   UNL A   1      31.489  23.952  25.277  1.00  0.00    -0.321 N 
ATOM     25  C   UNL A   1      31.911  22.626  25.741  1.00  0.00     0.333 C 
ATOM     26  H   UNL A   1      32.291  24.581  25.318  1.00  0.00     0.348 HD
ENDBRANCH  16  17
ENDBRANCH  13  16
ENDBRANCH  12  13
ENDBRANCH   7  12
ENDBRANCH   3   6
ENDBRANCH   1   2
BRANCH   1  27
ATOM     27  C   UNL A   1      31.447  32.202  26.874  1.00  0.00     0.042 C 
BRANCH  27  28
ATOM     28  C   UNL A   1      32.730  33.024  26.923  1.00  0.00     0.118 C 
BRANCH  28  29
ATOM     29  N   UNL A   1      32.538  34.283  27.624  1.00  0.00    -0.352 N 
ATOM     30  C   UNL A   1      33.079  34.722  28.803  1.00  0.00     0.251 C 
ATOM     31  H   UNL A   1      31.926  34.916  27.184  1.00  0.00     0.163 HD
ATOM     32  O   UNL A   1      32.607  35.710  29.355  1.00  0.00    -0.269 OA
BRANCH  30  33
ATOM     33  C   UNL A   1      34.224  34.014  29.418  1.00  0.00     0.039 A 
ATOM     34  C   UNL A   1      35.519  34.399  29.058  1.00  0.00     0.014 A 
ATOM     35  C   UNL A   1      34.031  32.940  30.291  1.00  0.00     0.014 A 
ATOM     36  C   UNL A   1      36.619  33.731  29.601  1.00  0.00     0.010 A 
ATOM     37  C   UNL A   1      35.127  32.322  30.888  1.00  0.00     0.010 A 
ATOM     38  C   UNL A   1      36.430  32.701  30.535  1.00  0.00    -0.014 A 
BRANCH  38  39
ATOM     39  C   UNL A   1      37.587  31.991  31.138  1.00  0.00     0.031 A 
ATOM     40  C   UNL A   1      38.058  32.357  32.517  1.00  0.00     0.074 A 
ATOM     41  C   UNL A   1      38.243  31.062  30.420  1.00  0.00     0.049 A 
ATOM     42  N   UNL A   1      39.088  31.906  33.188  1.00  0.00    -0.248 NA
ATOM     43  C   UNL A   1      37.284  33.387  33.229  1.00  0.00     0.031 C 
ATOM     44  C   UNL A   1      37.906  30.655  29.054  1.00  0.00     0.029 A 
ATOM     45  N   UNL A   1      39.340  30.299  30.733  1.00  0.00    -0.354 N 
ATOM     46  C   UNL A   1      39.096  32.608  34.387  1.00  0.00     0.074 A 
ATOM     47  C   UNL A   1      37.999  33.549  34.333  1.00  0.00     0.031 C 
ATOM     48  C   UNL A   1      38.765  29.705  28.655  1.00  0.00     0.029 A 
ATOM     49  C   UNL A   1      39.732  29.460  29.720  1.00  0.00     0.049 A 
ATOM     50  H   UNL A   1      39.800  30.349  31.601  1.00  0.00     0.167 HD
ATOM     51  C   UNL A   1      39.930  32.466  35.444  1.00  0.00     0.037 A 
ATOM     52  C   UNL A   1      40.762  28.594  29.658  1.00  0.00     0.037 A 
ATOM     53  C   UNL A   1      41.001  31.505  35.503  1.00  0.00     0.049 A 
ATOM     54  C   UNL A   1      41.668  28.447  30.850  1.00  0.00     0.074 A 
ATOM     55  C   UNL A   1      41.866  31.239  36.549  1.00  0.00     0.029 A 
ATOM     56  N   UNL A   1      41.352  30.652  34.467  1.00  0.00    -0.354 N 
ATOM     57  N   UNL A   1      41.628  29.072  32.001  1.00  0.00    -0.248 NA
ATOM     58  C   UNL A   1      42.757  27.468  30.735  1.00  0.00     0.031 C 
ATOM     59  C   UNL A   1      42.765  30.251  36.133  1.00  0.00     0.029 A 
ATOM     60  C   UNL A   1      42.432  29.870  34.843  1.00  0.00     0.049 A 
ATOM     61  H   UNL A   1      40.901  30.609  33.593  1.00  0.00     0.167 HD
ATOM     62  C   UNL A   1      42.665  28.545  32.758  1.00  0.00     0.074 A 
ATOM     63  C   UNL A   1      43.308  27.538  31.939  1.00  0.00     0.031 C 
ATOM     64  C   UNL A   1      43.052  28.867  34.016  1.00  0.00     0.037 A 
BRANCH  51  65
ATOM     65  C   UNL A   1      39.714  33.366  36.626  1.00  0.00     0.064 A 
ATOM     66  C   UNL A   1      40.368  34.602  36.738  1.00  0.00     0.173 A 
ATOM     67  C   UNL A   1      38.819  33.003  37.644  1.00  0.00     0.173 A 
ATOM     68  F   UNL A   1      41.242  34.992  35.798  1.00  0.00    -0.203 F 
ATOM     69  C   UNL A   1      40.156  35.428  37.839  1.00  0.00     0.198 A 
ATOM     70  C   UNL A   1      38.587  33.844  38.729  1.00  0.00     0.198 A 
ATOM     71  F   UNL A   1      38.163  31.834  37.584  1.00  0.00    -0.203 F 
ATOM     72  F   UNL A   1      40.830  36.581  37.948  1.00  0.00    -0.200 F 
ATOM     73  C   UNL A   1      39.262  35.052  38.830  1.00  0.00     0.200 A 
ATOM     74  F   UNL A   1      37.714  33.486  39.680  1.00  0.00    -0.200 F 
ATOM     75  F   UNL A   1      39.055  35.851  39.886  1.00  0.00    -0.200 F 
ENDBRANCH  51  65
BRANCH  52  76
ATOM     76  C   UNL A   1      40.971  27.779  28.434  1.00  0.00     0.064 A 
ATOM     77  C   UNL A   1      41.825  28.221  27.415  1.00  0.00     0.173 A 
ATOM     78  C   UNL A   1      40.330  26.543  28.260  1.00  0.00     0.173 A 
ATOM     79  F   UNL A   1      42.445  29.404  27.529  1.00  0.00    -0.203 F 
ATOM     80  C   UNL A   1      42.015  27.468  26.258  1.00  0.00     0.198 A 
ATOM     81  C   UNL A   1      40.543  25.778  27.115  1.00  0.00     0.198 A 
ATOM     82  F   UNL A   1      39.509  26.072  29.210  1.00  0.00    -0.203 F 
ATOM     83  F   UNL A   1      42.803  27.935  25.281  1.00  0.00    -0.200 F 
ATOM     84  C   UNL A   1      41.379  26.245  26.111  1.00  0.00     0.200 A 
ATOM     85  F   UNL A   1      39.938  24.590  26.983  1.00  0.00    -0.200 F 
ATOM     86  F   UNL A   1      41.566  25.519  25.001  1.00  0.00    -0.200 F 
ENDBRANCH  52  76
BRANCH  64  87
ATOM     87  C   UNL A   1      44.203  28.097  34.596  1.00  0.00     0.064 A 
ATOM     88  C   UNL A   1      45.522  28.561  34.496  1.00  0.00     0.173 A 
ATOM     89  C   UNL A   1      43.975  26.900  35.291  1.00  0.00     0.173 A 
ATOM     90  F   UNL A   1      45.791  29.693  33.828  1.00  0.00    -0.203 F 
ATOM     91  C   UNL A   1      46.576  27.840  35.049  1.00  0.00     0.198 A 
ATOM     92  C   UNL A   1      45.029  26.197  35.867  1.00  0.00     0.198 A 
ATOM     93  F   UNL A   1      42.731  26.418  35.419  1.00  0.00    -0.203 F 
ATOM     94  F   UNL A   1      47.835  28.277  34.901  1.00  0.00    -0.200 F 
ATOM     95  C   UNL A   1      46.329  26.663  35.739  1.00  0.00     0.200 A 
ATOM     96  F   UNL A   1      44.786  25.065  36.544  1.00  0.00    -0.200 F 
ATOM     97  F   UNL A   1      47.345  25.973  36.276  1.00  0.00    -0.200 F 
ENDBRANCH  64  87
ENDBRANCH  38  39
ENDBRANCH  30  33
ENDBRANCH  28  29
ENDBRANCH  27  28
ENDBRANCH   1  27
TORSDOF 14
ENDMDL
MODEL 2
REMARK VINA RESULT:     -11.2      0.989      7.513
REMARK SMILES C[N@@H+]1CC[N@@H+](C)[C@H](C[NH2+]Cc2ccc(C(=O)NCCCNC(=O)c3ccc(-c4c5nc(c(-c6c(F)c(F)c(F)c(F)c6F)c6ccc([nH]6)c(-c6c(F)c(F)c(F)c(F)c6F)c6nc(c(-c7c(F)c(F)c(F)c(F)c7F)c7ccc4[nH]7)C=C6)C=C5)cc3)cn2)C1
REMARK SMILES IDX 18 1 17 2 15 3 16 4 14 6 11 7 12 8 88 9 13 10 87 11 10 12
REMARK SMILES IDX 9 13 8 16 7 17 1 18 2 19 3 20 89 21 4 23 5 24 6 25 19 27
REMARK SMILES IDX 20 28 21 29 22 30 23 32 24 33 25 34 86 35 26 36 85 37 27 38
REMARK SMILES IDX 28 39 29 40 79 41 30 42 84 43 78 44 80 45 31 46 83 47 77 48
REMARK SMILES IDX 76 49 32 51 64 52 44 53 63 54 45 55 48 56 62 57 81 58 46 59
REMARK SMILES IDX 47 60 61 62 82 63 49 64 33 65 34 66 42 67 35 68 36 69 40 70
REMARK SMILES IDX 43 71 37 72 38 73 41 74 39 75 65 76 66 77 74 78 67 79 68 80
REMARK SMILES IDX 72 81 75 82 69 83 70 84 73 85 71 86 50 87 51 88 59 89 52 90
REMARK SMILES IDX 53 91 57 92 60 93 54 94 55 95 58 96 56 97
REMARK H PARENT 17 5 9 14 9 15 2 22 5 26 21 31 80 50 48 61
REMARK Flexibility Score: inf
ROOT
ATOM      1  C   UNL A   1      31.569  30.543  26.745  1.00  0.00     0.118 C 
ENDROOT
BRANCH   1   2
ATOM      2  N   UNL A   1      32.879  30.175  27.246  1.00  0.00    -0.352 N 
ATOM      3  C   UNL A   1      33.771  29.199  26.881  1.00  0.00     0.252 C 
ATOM      4  O   UNL A   1      34.819  29.125  27.523  1.00  0.00    -0.269 OA
ATOM      5  H   UNL A   1      33.190  30.735  27.994  1.00  0.00     0.163 HD
BRANCH   3   6
ATOM      6  C   UNL A   1      33.566  28.290  25.729  1.00  0.00     0.058 A 
ATOM      7  C   UNL A   1      33.437  26.323  23.801  1.00  0.00     0.094 A 
ATOM      8  C   UNL A   1      33.608  27.643  23.408  1.00  0.00     0.030 A 
ATOM      9  N   UNL A   1      33.208  25.973  25.091  1.00  0.00    -0.255 NA
ATOM     10  C   UNL A   1      33.648  28.634  24.383  1.00  0.00     0.017 A 
ATOM     11  C   UNL A   1      33.294  26.957  26.020  1.00  0.00     0.125 A 
BRANCH   7  12
ATOM     12  C   UNL A   1      33.655  25.219  22.793  1.00  0.00     0.318 C 
BRANCH  12  13
ATOM     13  N   UNL A   1      32.590  24.215  22.878  1.00  0.00    -0.336 N 
ATOM     14  H   UNL A   1      31.988  24.436  23.670  1.00  0.00     0.346 HD
ATOM     15  H   UNL A   1      32.060  24.235  22.007  1.00  0.00     0.346 HD
BRANCH  13  16
ATOM     16  C   UNL A   1      33.146  22.861  23.056  1.00  0.00     0.332 C 
BRANCH  16  17
ATOM     17  C   UNL A   1      32.966  22.357  24.524  1.00  0.00     0.295 C 
ATOM     18  C   UNL A   1      29.916  22.596  26.803  1.00  0.00     0.333 C 
ATOM     19  N   UNL A   1      31.283  22.297  26.391  1.00  0.00    -0.328 N 
ATOM     20  C   UNL A   1      32.262  22.980  27.250  1.00  0.00     0.324 C 
ATOM     21  C   UNL A   1      31.524  22.718  24.997  1.00  0.00     0.334 C 
ATOM     22  H   UNL A   1      31.396  21.287  26.474  1.00  0.00     0.348 HD
ATOM     23  C   UNL A   1      33.703  22.604  26.846  1.00  0.00     0.324 C 
ATOM     24  N   UNL A   1      34.036  22.891  25.433  1.00  0.00    -0.321 N 
ATOM     25  C   UNL A   1      35.352  22.316  25.129  1.00  0.00     0.333 C 
ATOM     26  H   UNL A   1      34.080  23.899  25.282  1.00  0.00     0.348 HD
ENDBRANCH  16  17
ENDBRANCH  13  16
ENDBRANCH  12  13
ENDBRANCH   7  12
ENDBRANCH   3   6
ENDBRANCH   1   2
BRANCH   1  27
ATOM     27  C   UNL A   1      31.429  32.062  26.649  1.00  0.00     0.042 C 
BRANCH  27  28
ATOM     28  C   UNL A   1      32.742  32.799  26.889  1.00  0.00     0.118 C 
BRANCH  28  29
ATOM     29  N   UNL A   1      32.526  34.096  27.510  1.00  0.00    -0.352 N 
ATOM     30  C   UNL A   1      33.073  34.625  28.649  1.00  0.00     0.251 C 
ATOM     31  H   UNL A   1      31.890  34.683  27.040  1.00  0.00     0.163 HD
ATOM     32  O   UNL A   1      32.583  35.634  29.144  1.00  0.00    -0.269 OA
BRANCH  30  33
ATOM     33  C   UNL A   1      34.246  33.989  29.289  1.00  0.00     0.039 A 
ATOM     34  C   UNL A   1      34.029  32.930  30.178  1.00  0.00     0.014 A 
ATOM     35  C   UNL A   1      35.541  34.465  29.072  1.00  0.00     0.014 A 
ATOM     36  C   UNL A   1      35.114  32.327  30.818  1.00  0.00     0.010 A 
ATOM     37  C   UNL A   1      36.628  33.818  29.653  1.00  0.00     0.010 A 
ATOM     38  C   UNL A   1      36.423  32.754  30.545  1.00  0.00    -0.014 A 
BRANCH  38  39
ATOM     39  C   UNL A   1      37.590  32.114  31.201  1.00  0.00     0.031 A 
ATOM     40  C   UNL A   1      38.371  31.052  30.478  1.00  0.00     0.074 A 
ATOM     41  C   UNL A   1      37.908  32.449  32.465  1.00  0.00     0.049 A 
ATOM     42  N   UNL A   1      39.374  30.327  30.904  1.00  0.00    -0.248 NA
ATOM     43  C   UNL A   1      37.952  30.746  29.101  1.00  0.00     0.031 C 
ATOM     44  C   UNL A   1      37.196  33.432  33.283  1.00  0.00     0.029 A 
ATOM     45  N   UNL A   1      38.905  31.989  33.289  1.00  0.00    -0.354 N 
ATOM     46  C   UNL A   1      39.691  29.469  29.858  1.00  0.00     0.074 A 
ATOM     47  C   UNL A   1      38.745  29.729  28.795  1.00  0.00     0.031 C 
ATOM     48  C   UNL A   1      37.790  33.516  34.483  1.00  0.00     0.029 A 
ATOM     49  C   UNL A   1      38.900  32.570  34.533  1.00  0.00     0.049 A 
ATOM     50  H   UNL A   1      39.560  31.308  33.014  1.00  0.00     0.167 HD
ATOM     51  C   UNL A   1      40.694  28.562  29.784  1.00  0.00     0.037 A 
ATOM     52  C   UNL A   1      39.700  32.357  35.595  1.00  0.00     0.037 A 
ATOM     53  C   UNL A   1      41.652  28.330  30.833  1.00  0.00     0.049 A 
ATOM     54  C   UNL A   1      40.813  31.351  35.483  1.00  0.00     0.074 A 
ATOM     55  C   UNL A   1      42.741  27.477  30.836  1.00  0.00     0.029 A 
ATOM     56  N   UNL A   1      41.632  28.957  32.071  1.00  0.00    -0.354 N 
ATOM     57  N   UNL A   1      41.141  30.590  34.467  1.00  0.00    -0.248 NA
ATOM     58  C   UNL A   1      41.671  31.181  36.663  1.00  0.00     0.031 C 
ATOM     59  C   UNL A   1      43.359  27.560  32.089  1.00  0.00     0.029 A 
ATOM     60  C   UNL A   1      42.681  28.498  32.851  1.00  0.00     0.049 A 
ATOM     61  H   UNL A   1      40.970  29.629  32.353  1.00  0.00     0.167 HD
ATOM     62  C   UNL A   1      42.258  29.872  34.873  1.00  0.00     0.074 A 
ATOM     63  C   UNL A   1      42.558  30.299  36.224  1.00  0.00     0.031 C 
ATOM     64  C   UNL A   1      42.968  28.942  34.191  1.00  0.00     0.037 A 
BRANCH  51  65
ATOM     65  C   UNL A   1      40.810  27.755  28.523  1.00  0.00     0.064 A 
ATOM     66  C   UNL A   1      40.165  26.518  28.379  1.00  0.00     0.173 A 
ATOM     67  C   UNL A   1      41.548  28.240  27.432  1.00  0.00     0.173 A 
ATOM     68  F   UNL A   1      39.455  26.004  29.394  1.00  0.00    -0.203 F 
ATOM     69  C   UNL A   1      40.279  25.782  27.202  1.00  0.00     0.198 A 
ATOM     70  C   UNL A   1      41.637  27.515  26.247  1.00  0.00     0.198 A 
ATOM     71  F   UNL A   1      42.181  29.420  27.514  1.00  0.00    -0.203 F 
ATOM     72  F   UNL A   1      39.695  24.580  27.107  1.00  0.00    -0.200 F 
ATOM     73  C   UNL A   1      41.009  26.284  26.135  1.00  0.00     0.200 A 
ATOM     74  F   UNL A   1      42.332  28.006  25.212  1.00  0.00    -0.200 F 
ATOM     75  F   UNL A   1      41.113  25.576  25.001  1.00  0.00    -0.200 F 
ENDBRANCH  51  65
BRANCH  52  76
ATOM     76  C   UNL A   1      39.495  33.134  36.844  1.00  0.00     0.064 A 
ATOM     77  C   UNL A   1      38.581  32.702  37.815  1.00  0.00     0.173 A 
ATOM     78  C   UNL A   1      40.208  34.315  37.096  1.00  0.00     0.173 A 
ATOM     79  F   UNL A   1      37.863  31.588  37.609  1.00  0.00    -0.203 F 
ATOM     80  C   UNL A   1      38.373  33.433  38.983  1.00  0.00     0.198 A 
ATOM     81  C   UNL A   1      40.019  35.030  38.277  1.00  0.00     0.198 A 
ATOM     82  F   UNL A   1      41.099  34.766  36.202  1.00  0.00    -0.203 F 
ATOM     83  F   UNL A   1      37.463  33.019  39.875  1.00  0.00    -0.200 F 
ATOM     84  C   UNL A   1      39.096  34.592  39.216  1.00  0.00     0.200 A 
ATOM     85  F   UNL A   1      40.730  36.142  38.506  1.00  0.00    -0.200 F 
ATOM     86  F   UNL A   1      38.900  35.292  40.342  1.00  0.00    -0.200 F 
ENDBRANCH  52  76
BRANCH  64  87
ATOM     87  C   UNL A   1      44.161  28.349  34.881  1.00  0.00     0.064 A 
ATOM     88  C   UNL A   1      45.427  28.947  34.804  1.00  0.00     0.173 A 
ATOM     89  C   UNL A   1      44.026  27.189  35.658  1.00  0.00     0.173 A 
ATOM     90  F   UNL A   1      45.609  30.048  34.060  1.00  0.00    -0.203 F 
ATOM     91  C   UNL A   1      46.521  28.389  35.459  1.00  0.00     0.198 A 
ATOM     92  C   UNL A   1      45.116  26.651  36.335  1.00  0.00     0.198 A 
ATOM     93  F   UNL A   1      42.835  26.583  35.769  1.00  0.00    -0.203 F 
ATOM     94  F   UNL A   1      47.732  28.950  35.333  1.00  0.00    -0.200 F 
ATOM     95  C   UNL A   1      46.365  27.247  36.229  1.00  0.00     0.200 A 
ATOM     96  F   UNL A   1      44.960  25.553  37.089  1.00  0.00    -0.200 F 
ATOM     97  F   UNL A   1      47.418  26.714  36.864  1.00  0.00    -0.200 F 
ENDBRANCH  64  87
ENDBRANCH  38  39
ENDBRANCH  30  33
ENDBRANCH  28  29
ENDBRANCH  27  28
ENDBRANCH   1  27
TORSDOF 14
ENDMDL
MODEL 3
REMARK VINA RESULT:     -11.2      0.448      7.341
REMARK SMILES C[N@@H+]1CC[N@@H+](C)[C@H](C[NH2+]Cc2ccc(C(=O)NCCCNC(=O)c3ccc(-c4c5nc(c(-c6c(F)c(F)c(F)c(F)c6F)c6ccc([nH]6)c(-c6c(F)c(F)c(F)c(F)c6F)c6nc(c(-c7c(F)c(F)c(F)c(F)c7F)c7ccc4[nH]7)C=C6)C=C5)cc3)cn2)C1
REMARK SMILES IDX 18 1 17 2 15 3 16 4 14 6 11 7 12 8 88 9 13 10 87 11 10 12
REMARK SMILES IDX 9 13 8 16 7 17 1 18 2 19 3 20 89 21 4 23 5 24 6 25 19 27
REMARK SMILES IDX 20 28 21 29 22 30 23 32 24 33 25 34 86 35 26 36 85 37 27 38
REMARK SMILES IDX 28 39 29 40 79 41 30 42 84 43 78 44 80 45 31 46 83 47 77 48
REMARK SMILES IDX 76 49 32 51 64 52 44 53 63 54 45 55 48 56 62 57 81 58 46 59
REMARK SMILES IDX 47 60 61 62 82 63 49 64 33 65 34 66 42 67 35 68 36 69 40 70
REMARK SMILES IDX 43 71 37 72 38 73 41 74 39 75 65 76 66 77 74 78 67 79 68 80
REMARK SMILES IDX 72 81 75 82 69 83 70 84 73 85 71 86 50 87 51 88 59 89 52 90
REMARK SMILES IDX 53 91 57 92 60 93 54 94 55 95 58 96 56 97
REMARK H PARENT 17 5 9 14 9 15 2 22 5 26 21 31 80 50 48 61
REMARK Flexibility Score: inf
ROOT
ATOM      1  C   UNL A   1      31.693  30.709  26.527  1.00  0.00     0.118 C 
ENDROOT
BRANCH   1   2
ATOM      2  N   UNL A   1      32.942  30.318  27.153  1.00  0.00    -0.352 N 
ATOM      3  C   UNL A   1      33.816  29.288  26.914  1.00  0.00     0.252 C 
ATOM      4  O   UNL A   1      34.805  29.209  27.643  1.00  0.00    -0.269 OA
ATOM      5  H   UNL A   1      33.217  30.907  27.892  1.00  0.00     0.163 HD
BRANCH   3   6
ATOM      6  C   UNL A   1      33.662  28.324  25.799  1.00  0.00     0.058 A 
ATOM      7  C   UNL A   1      33.704  26.317  23.909  1.00  0.00     0.094 A 
ATOM      8  C   UNL A   1      33.560  27.633  23.493  1.00  0.00     0.030 A 
ATOM      9  N   UNL A   1      33.703  25.966  25.219  1.00  0.00    -0.255 NA
ATOM     10  C   UNL A   1      33.515  28.639  24.452  1.00  0.00     0.017 A 
ATOM     11  C   UNL A   1      33.699  26.973  26.126  1.00  0.00     0.125 A 
BRANCH   7  12
ATOM     12  C   UNL A   1      34.019  25.250  22.886  1.00  0.00     0.318 C 
BRANCH  12  13
ATOM     13  N   UNL A   1      32.799  24.800  22.210  1.00  0.00    -0.336 N 
ATOM     14  H   UNL A   1      32.093  25.532  22.273  1.00  0.00     0.346 HD
ATOM     15  H   UNL A   1      33.026  24.602  21.235  1.00  0.00     0.346 HD
BRANCH  13  16
ATOM     16  C   UNL A   1      32.271  23.567  22.826  1.00  0.00     0.332 C 
BRANCH  16  17
ATOM     17  C   UNL A   1      31.113  23.878  23.827  1.00  0.00     0.295 C 
ATOM     18  C   UNL A   1      28.668  26.806  23.859  1.00  0.00     0.333 C 
ATOM     19  N   UNL A   1      29.333  25.588  24.307  1.00  0.00    -0.328 N 
ATOM     20  C   UNL A   1      29.902  25.753  25.653  1.00  0.00     0.324 C 
ATOM     21  C   UNL A   1      30.426  25.208  23.390  1.00  0.00     0.334 C 
ATOM     22  H   UNL A   1      28.621  24.856  24.321  1.00  0.00     0.348 HD
ATOM     23  C   UNL A   1      30.545  24.439  26.142  1.00  0.00     0.324 C 
ATOM     24  N   UNL A   1      31.597  23.904  25.250  1.00  0.00    -0.321 N 
ATOM     25  C   UNL A   1      31.986  22.569  25.721  1.00  0.00     0.333 C 
ATOM     26  H   UNL A   1      32.419  24.508  25.274  1.00  0.00     0.348 HD
ENDBRANCH  16  17
ENDBRANCH  13  16
ENDBRANCH  12  13
ENDBRANCH   7  12
ENDBRANCH   3   6
ENDBRANCH   1   2
BRANCH   1  27
ATOM     27  C   UNL A   1      31.469  32.216  26.655  1.00  0.00     0.042 C 
BRANCH  27  28
ATOM     28  C   UNL A   1      32.760  32.997  26.866  1.00  0.00     0.118 C 
BRANCH  28  29
ATOM     29  N   UNL A   1      32.517  34.278  27.510  1.00  0.00    -0.352 N 
ATOM     30  C   UNL A   1      33.042  34.792  28.667  1.00  0.00     0.251 C 
ATOM     31  H   UNL A   1      31.878  34.864  27.044  1.00  0.00     0.163 HD
ATOM     32  O   UNL A   1      32.530  35.783  29.175  1.00  0.00    -0.269 OA
BRANCH  30  33
ATOM     33  C   UNL A   1      34.216  34.160  29.309  1.00  0.00     0.039 A 
ATOM     34  C   UNL A   1      33.998  33.241  30.341  1.00  0.00     0.014 A 
ATOM     35  C   UNL A   1      35.519  34.511  28.948  1.00  0.00     0.014 A 
ATOM     36  C   UNL A   1      35.087  32.648  30.984  1.00  0.00     0.010 A 
ATOM     37  C   UNL A   1      36.603  33.867  29.540  1.00  0.00     0.010 A 
ATOM     38  C   UNL A   1      36.397  32.943  30.574  1.00  0.00    -0.014 A 
BRANCH  38  39
ATOM     39  C   UNL A   1      37.567  32.310  31.233  1.00  0.00     0.031 A 
ATOM     40  C   UNL A   1      38.299  31.188  30.551  1.00  0.00     0.074 A 
ATOM     41  C   UNL A   1      37.930  32.707  32.467  1.00  0.00     0.049 A 
ATOM     42  N   UNL A   1      39.296  30.462  30.990  1.00  0.00    -0.248 NA
ATOM     43  C   UNL A   1      37.832  30.816  29.206  1.00  0.00     0.031 C 
ATOM     44  C   UNL A   1      37.268  33.754  33.247  1.00  0.00     0.029 A 
ATOM     45  N   UNL A   1      38.939  32.268  33.288  1.00  0.00    -0.354 N 
ATOM     46  C   UNL A   1      39.560  29.538  29.986  1.00  0.00     0.074 A 
ATOM     47  C   UNL A   1      38.589  29.762  28.937  1.00  0.00     0.031 C 
ATOM     48  C   UNL A   1      37.898  33.890  34.423  1.00  0.00     0.029 A 
ATOM     49  C   UNL A   1      38.985  32.919  34.495  1.00  0.00     0.049 A 
ATOM     50  H   UNL A   1      39.568  31.556  33.034  1.00  0.00     0.167 HD
ATOM     51  C   UNL A   1      40.537  28.601  29.936  1.00  0.00     0.037 A 
ATOM     52  C   UNL A   1      39.811  32.745  35.545  1.00  0.00     0.037 A 
ATOM     53  C   UNL A   1      41.519  28.404  30.970  1.00  0.00     0.049 A 
ATOM     54  C   UNL A   1      40.894  31.705  35.460  1.00  0.00     0.074 A 
ATOM     55  C   UNL A   1      42.586  27.523  30.991  1.00  0.00     0.029 A 
ATOM     56  N   UNL A   1      41.552  29.100  32.170  1.00  0.00    -0.354 N 
ATOM     57  N   UNL A   1      41.173  30.879  34.481  1.00  0.00    -0.248 NA
ATOM     58  C   UNL A   1      41.782  31.579  36.624  1.00  0.00     0.031 C 
ATOM     59  C   UNL A   1      43.243  27.661  32.220  1.00  0.00     0.029 A 
ATOM     60  C   UNL A   1      42.611  28.658  32.945  1.00  0.00     0.049 A 
ATOM     61  H   UNL A   1      40.916  29.804  32.431  1.00  0.00     0.167 HD
ATOM     62  C   UNL A   1      42.283  30.156  34.896  1.00  0.00     0.074 A 
ATOM     63  C   UNL A   1      42.634  30.651  36.212  1.00  0.00     0.031 C 
ATOM     64  C   UNL A   1      42.949  29.169  34.249  1.00  0.00     0.037 A 
BRANCH  51  65
ATOM     65  C   UNL A   1      40.595  27.722  28.721  1.00  0.00     0.064 A 
ATOM     66  C   UNL A   1      41.391  28.050  27.613  1.00  0.00     0.173 A 
ATOM     67  C   UNL A   1      39.872  26.520  28.675  1.00  0.00     0.173 A 
ATOM     68  F   UNL A   1      42.093  29.193  27.600  1.00  0.00    -0.203 F 
ATOM     69  C   UNL A   1      41.437  27.224  26.493  1.00  0.00     0.198 A 
ATOM     70  C   UNL A   1      39.944  25.682  27.566  1.00  0.00     0.198 A 
ATOM     71  F   UNL A   1      39.099  26.155  29.710  1.00  0.00    -0.203 F 
ATOM     72  F   UNL A   1      42.165  27.584  25.427  1.00  0.00    -0.200 F 
ATOM     73  C   UNL A   1      40.719  26.038  26.473  1.00  0.00     0.200 A 
ATOM     74  F   UNL A   1      39.259  24.530  27.552  1.00  0.00    -0.200 F 
ATOM     75  F   UNL A   1      40.769  25.241  25.396  1.00  0.00    -0.200 F 
ENDBRANCH  51  65
BRANCH  52  76
ATOM     76  C   UNL A   1      39.662  33.596  36.753  1.00  0.00     0.064 A 
ATOM     77  C   UNL A   1      38.839  33.197  37.815  1.00  0.00     0.173 A 
ATOM     78  C   UNL A   1      40.340  34.819  36.875  1.00  0.00     0.173 A 
ATOM     79  F   UNL A   1      38.157  32.046  37.736  1.00  0.00    -0.203 F 
ATOM     80  C   UNL A   1      38.684  33.998  38.945  1.00  0.00     0.198 A 
ATOM     81  C   UNL A   1      40.205  35.604  38.017  1.00  0.00     0.198 A 
ATOM     82  F   UNL A   1      41.145  35.241  35.890  1.00  0.00    -0.203 F 
ATOM     83  F   UNL A   1      37.858  33.612  39.927  1.00  0.00    -0.200 F 
ATOM     84  C   UNL A   1      39.372  35.197  39.048  1.00  0.00     0.200 A 
ATOM     85  F   UNL A   1      40.883  36.756  38.120  1.00  0.00    -0.200 F 
ATOM     86  F   UNL A   1      39.226  35.963  40.137  1.00  0.00    -0.200 F 
ENDBRANCH  52  76
BRANCH  64  87
ATOM     87  C   UNL A   1      44.147  28.585  34.939  1.00  0.00     0.064 A 
ATOM     88  C   UNL A   1      45.391  29.232  34.925  1.00  0.00     0.173 A 
ATOM     89  C   UNL A   1      44.037  27.381  35.650  1.00  0.00     0.173 A 
ATOM     90  F   UNL A   1      45.548  30.377  34.245  1.00  0.00    -0.203 F 
ATOM     91  C   UNL A   1      46.489  28.681  35.579  1.00  0.00     0.198 A 
ATOM     92  C   UNL A   1      45.130  26.849  36.326  1.00  0.00     0.198 A 
ATOM     93  F   UNL A   1      42.867  26.727  35.698  1.00  0.00    -0.203 F 
ATOM     94  F   UNL A   1      47.680  29.291  35.514  1.00  0.00    -0.200 F 
ATOM     95  C   UNL A   1      46.357  27.494  36.284  1.00  0.00     0.200 A 
ATOM     96  F   UNL A   1      44.997  25.707  37.018  1.00  0.00    -0.200 F 
ATOM     97  F   UNL A   1      47.414  26.968  36.918  1.00  0.00    -0.200 F 
ENDBRANCH  64  87
ENDBRANCH  38  39
ENDBRANCH  30  33
ENDBRANCH  28  29
ENDBRANCH  27  28
ENDBRANCH   1  27
TORSDOF 14
ENDMDL
