MODEL 1
REMARK VINA RESULT:     -12.5      0.000      0.000
REMARK SMILES C[C@@H]1OCC[C@@H]1c1nnc(-c2cccc(C(=O)NCCCNC(=O)c3ccc(-c4c5nc(c(-c6c(F)c(F)c(F)c(F)c6F)c6ccc([nH]6)c(-c6c(F)c(F)c(F)c(F)c6F)c6nc(c(-c7c(F)c(F)c(F)c(F)c7F)c7ccc4[nH]7)C=C6)C=C5)cc3)c2)o1
REMARK SMILES IDX 20 1 19 2 18 3 16 4 17 5 15 7 11 8 12 9 88 10 13 11 14 12
REMARK SMILES IDX 10 13 7 14 8 15 89 16 9 17 6 18 1 19 2 20 3 21 4 22 5 23
REMARK SMILES IDX 21 24 22 25 23 26 24 28 25 29 26 30 87 31 27 32 86 33 28 34
REMARK SMILES IDX 29 35 30 36 80 37 31 38 85 39 79 40 81 41 32 42 84 43 78 44
REMARK SMILES IDX 77 45 33 47 65 48 45 49 64 50 46 51 49 52 63 53 82 54 47 55
REMARK SMILES IDX 48 56 62 58 83 59 50 60 34 61 35 62 43 63 36 64 37 65 41 66
REMARK SMILES IDX 44 67 38 68 39 69 42 70 40 71 66 72 67 73 75 74 68 75 69 76
REMARK SMILES IDX 73 77 76 78 70 79 71 80 74 81 72 82 51 83 52 84 60 85 53 86
REMARK SMILES IDX 54 87 58 88 61 89 55 90 56 91 59 92 57 93
REMARK H PARENT 18 6 22 27 81 46 49 57
REMARK Flexibility Score: inf
ROOT
ATOM      1  C   UNL A   1      31.378  32.353  26.634  1.00  0.00     0.042 C 
ENDROOT
BRANCH   1   2
ATOM      2  C   UNL A   1      31.406  30.834  26.516  1.00  0.00     0.118 C 
BRANCH   2   3
ATOM      3  N   UNL A   1      32.157  30.355  25.366  1.00  0.00    -0.352 N 
ATOM      4  C   UNL A   1      32.073  29.306  24.486  1.00  0.00     0.251 C 
ATOM      5  O   UNL A   1      32.932  29.280  23.601  1.00  0.00    -0.269 OA
ATOM      6  H   UNL A   1      32.928  30.934  25.167  1.00  0.00     0.163 HD
BRANCH   4   7
ATOM      7  C   UNL A   1      31.084  28.187  24.543  1.00  0.00     0.040 A 
ATOM      8  C   UNL A   1      30.299  25.982  25.245  1.00  0.00     0.040 A 
ATOM      9  C   UNL A   1      29.244  26.055  24.334  1.00  0.00     0.014 A 
ATOM     10  C   UNL A   1      31.161  27.082  25.386  1.00  0.00     0.027 A 
ATOM     11  C   UNL A   1      29.071  27.202  23.564  1.00  0.00     0.002 A 
ATOM     12  C   UNL A   1      29.998  28.246  23.650  1.00  0.00     0.014 A 
BRANCH   8  13
ATOM     13  C   UNL A   1      30.603  24.748  25.949  1.00  0.00     0.247 A 
ATOM     14  C   UNL A   1      31.441  22.807  26.186  1.00  0.00     0.222 A 
ATOM     15  N   UNL A   1      30.532  22.942  27.128  1.00  0.00    -0.112 NA
ATOM     16  O   UNL A   1      31.556  23.925  25.401  1.00  0.00    -0.420 OA
ATOM     17  N   UNL A   1      29.997  24.203  26.981  1.00  0.00    -0.108 NA
BRANCH  14  18
ATOM     18  C   UNL A   1      32.376  21.682  25.974  1.00  0.00     0.109 C 
ATOM     19  C   UNL A   1      34.397  22.853  27.144  1.00  0.00     0.039 C 
ATOM     20  C   UNL A   1      33.613  21.573  26.862  1.00  0.00     0.127 C 
ATOM     21  O   UNL A   1      34.514  20.699  26.138  1.00  0.00    -0.378 OA
ATOM     22  C   UNL A   1      34.078  20.613  24.772  1.00  0.00     0.161 C 
ATOM     23  C   UNL A   1      32.989  21.648  24.589  1.00  0.00     0.044 C 
ENDBRANCH  14  18
ENDBRANCH   8  13
ENDBRANCH   4   7
ENDBRANCH   2   3
ENDBRANCH   1   2
BRANCH   1  24
ATOM     24  C   UNL A   1      32.670  32.941  27.192  1.00  0.00     0.118 C 
BRANCH  24  25
ATOM     25  N   UNL A   1      32.503  34.318  27.649  1.00  0.00    -0.352 N 
ATOM     26  C   UNL A   1      33.058  35.005  28.700  1.00  0.00     0.251 C 
ATOM     27  H   UNL A   1      31.880  34.851  27.104  1.00  0.00     0.163 HD
ATOM     28  O   UNL A   1      32.564  36.074  29.045  1.00  0.00    -0.269 OA
BRANCH  26  29
ATOM     29  C   UNL A   1      34.233  34.477  29.425  1.00  0.00     0.039 A 
ATOM     30  C   UNL A   1      34.042  33.857  30.665  1.00  0.00     0.014 A 
ATOM     31  C   UNL A   1      35.525  34.642  28.926  1.00  0.00     0.014 A 
ATOM     32  C   UNL A   1      35.136  33.337  31.361  1.00  0.00     0.010 A 
ATOM     33  C   UNL A   1      36.603  34.047  29.573  1.00  0.00     0.010 A 
ATOM     34  C   UNL A   1      36.422  33.389  30.798  1.00  0.00    -0.014 A 
BRANCH  34  35
ATOM     35  C   UNL A   1      37.587  32.751  31.459  1.00  0.00     0.031 A 
ATOM     36  C   UNL A   1      38.276  31.578  30.818  1.00  0.00     0.074 A 
ATOM     37  C   UNL A   1      37.962  33.167  32.685  1.00  0.00     0.049 A 
ATOM     38  N   UNL A   1      39.234  30.819  31.290  1.00  0.00    -0.248 NA
ATOM     39  C   UNL A   1      37.804  31.185  29.482  1.00  0.00     0.031 C 
ATOM     40  C   UNL A   1      37.333  34.255  33.436  1.00  0.00     0.029 A 
ATOM     41  N   UNL A   1      38.948  32.712  33.524  1.00  0.00    -0.354 N 
ATOM     42  C   UNL A   1      39.458  29.848  30.324  1.00  0.00     0.074 A 
ATOM     43  C   UNL A   1      38.507  30.083  29.260  1.00  0.00     0.031 C 
ATOM     44  C   UNL A   1      37.954  34.392  34.616  1.00  0.00     0.029 A 
ATOM     45  C   UNL A   1      38.998  33.378  34.725  1.00  0.00     0.049 A 
ATOM     46  H   UNL A   1      39.560  31.978  33.289  1.00  0.00     0.167 HD
ATOM     47  C   UNL A   1      40.388  28.864  30.317  1.00  0.00     0.037 A 
ATOM     48  C   UNL A   1      39.786  33.183  35.798  1.00  0.00     0.037 A 
ATOM     49  C   UNL A   1      41.355  28.658  31.363  1.00  0.00     0.049 A 
ATOM     50  C   UNL A   1      40.819  32.092  35.759  1.00  0.00     0.074 A 
ATOM     51  C   UNL A   1      42.394  27.746  31.411  1.00  0.00     0.029 A 
ATOM     52  N   UNL A   1      41.396  29.375  32.550  1.00  0.00    -0.354 N 
ATOM     53  N   UNL A   1      41.077  31.231  34.805  1.00  0.00    -0.248 NA
ATOM     54  C   UNL A   1      41.675  31.948  36.945  1.00  0.00     0.031 C 
ATOM     55  C   UNL A   1      43.035  27.876  32.647  1.00  0.00     0.029 A 
ATOM     56  C   UNL A   1      42.427  28.905  33.350  1.00  0.00     0.049 A 
ATOM     57  H   UNL A   1      40.785  30.108  32.789  1.00  0.00     0.167 HD
ATOM     58  C   UNL A   1      42.134  30.457  35.264  1.00  0.00     0.074 A 
ATOM     59  C   UNL A   1      42.483  30.963  36.576  1.00  0.00     0.031 C 
ATOM     60  C   UNL A   1      42.757  29.419  34.655  1.00  0.00     0.037 A 
BRANCH  47  61
ATOM     61  C   UNL A   1      40.408  27.933  29.138  1.00  0.00     0.064 A 
ATOM     62  C   UNL A   1      39.639  26.759  29.111  1.00  0.00     0.173 A 
ATOM     63  C   UNL A   1      41.178  28.237  28.005  1.00  0.00     0.173 A 
ATOM     64  F   UNL A   1      38.893  26.417  30.171  1.00  0.00    -0.203 F 
ATOM     65  C   UNL A   1      39.666  25.909  28.008  1.00  0.00     0.198 A 
ATOM     66  C   UNL A   1      41.178  27.401  26.891  1.00  0.00     0.198 A 
ATOM     67  F   UNL A   1      41.927  29.350  27.974  1.00  0.00    -0.203 F 
ATOM     68  F   UNL A   1      38.964  24.768  28.028  1.00  0.00    -0.200 F 
ATOM     69  C   UNL A   1      40.430  26.234  26.897  1.00  0.00     0.200 A 
ATOM     70  F   UNL A   1      41.906  27.723  25.813  1.00  0.00    -0.200 F 
ATOM     71  F   UNL A   1      40.449  25.417  25.834  1.00  0.00    -0.200 F 
ENDBRANCH  47  61
BRANCH  48  72
ATOM     72  C   UNL A   1      39.635  34.055  36.992  1.00  0.00     0.064 A 
ATOM     73  C   UNL A   1      38.844  33.655  38.078  1.00  0.00     0.173 A 
ATOM     74  C   UNL A   1      40.286  35.294  37.079  1.00  0.00     0.173 A 
ATOM     75  F   UNL A   1      38.186  32.486  38.033  1.00  0.00    -0.203 F 
ATOM     76  C   UNL A   1      38.695  34.470  39.199  1.00  0.00     0.198 A 
ATOM     77  C   UNL A   1      40.160  36.095  38.212  1.00  0.00     0.198 A 
ATOM     78  F   UNL A   1      41.061  35.718  36.070  1.00  0.00    -0.203 F 
ATOM     79  F   UNL A   1      37.901  34.082  40.205  1.00  0.00    -0.200 F 
ATOM     80  C   UNL A   1      39.360  35.686  39.268  1.00  0.00     0.200 A 
ATOM     81  F   UNL A   1      40.816  37.260  38.282  1.00  0.00    -0.200 F 
ATOM     82  F   UNL A   1      39.224  36.464  40.349  1.00  0.00    -0.200 F 
ENDBRANCH  48  72
BRANCH  60  83
ATOM     83  C   UNL A   1      43.893  28.773  35.393  1.00  0.00     0.064 A 
ATOM     84  C   UNL A   1      45.219  29.192  35.209  1.00  0.00     0.173 A 
ATOM     85  C   UNL A   1      43.649  27.752  36.324  1.00  0.00     0.173 A 
ATOM     86  F   UNL A   1      45.506  30.153  34.317  1.00  0.00    -0.203 F 
ATOM     87  C   UNL A   1      46.262  28.596  35.914  1.00  0.00     0.198 A 
ATOM     88  C   UNL A   1      44.690  27.180  37.049  1.00  0.00     0.198 A 
ATOM     89  F   UNL A   1      42.397  27.319  36.541  1.00  0.00    -0.203 F 
ATOM     90  F   UNL A   1      47.526  28.981  35.689  1.00  0.00    -0.200 F 
ATOM     91  C   UNL A   1      45.996  27.597  36.838  1.00  0.00     0.200 A 
ATOM     92  F   UNL A   1      44.430  26.224  37.952  1.00  0.00    -0.200 F 
ATOM     93  F   UNL A   1      46.999  27.031  37.523  1.00  0.00    -0.200 F 
ENDBRANCH  60  83
ENDBRANCH  34  35
ENDBRANCH  26  29
ENDBRANCH  24  25
ENDBRANCH   1  24
TORSDOF 12
ENDMDL
MODEL 2
REMARK VINA RESULT:     -12.5      5.331     10.859
REMARK SMILES C[C@@H]1OCC[C@@H]1c1nnc(-c2cccc(C(=O)NCCCNC(=O)c3ccc(-c4c5nc(c(-c6c(F)c(F)c(F)c(F)c6F)c6ccc([nH]6)c(-c6c(F)c(F)c(F)c(F)c6F)c6nc(c(-c7c(F)c(F)c(F)c(F)c7F)c7ccc4[nH]7)C=C6)C=C5)cc3)c2)o1
REMARK SMILES IDX 20 1 19 2 18 3 16 4 17 5 15 7 11 8 12 9 88 10 13 11 14 12
REMARK SMILES IDX 10 13 7 14 8 15 89 16 9 17 6 18 1 19 2 20 3 21 4 22 5 23
REMARK SMILES IDX 21 24 22 25 23 26 24 28 25 29 26 30 87 31 27 32 86 33 28 34
REMARK SMILES IDX 29 35 30 36 80 37 31 38 85 39 79 40 81 41 32 42 84 43 78 44
REMARK SMILES IDX 77 45 33 47 65 48 45 49 64 50 46 51 49 52 63 53 82 54 47 55
REMARK SMILES IDX 48 56 62 58 83 59 50 60 34 61 35 62 43 63 36 64 37 65 41 66
REMARK SMILES IDX 44 67 38 68 39 69 42 70 40 71 66 72 67 73 75 74 68 75 69 76
REMARK SMILES IDX 73 77 76 78 70 79 71 80 74 81 72 82 51 83 52 84 60 85 53 86
REMARK SMILES IDX 54 87 58 88 61 89 55 90 56 91 59 92 57 93
REMARK H PARENT 18 6 22 27 81 46 49 57
REMARK Flexibility Score: inf
ROOT
ATOM      1  C   UNL A   1      37.951  19.798  24.988  1.00  0.00     0.042 C 
ENDROOT
BRANCH   1   2
ATOM      2  C   UNL A   1      37.402  21.020  24.264  1.00  0.00     0.118 C 
BRANCH   2   3
ATOM      3  N   UNL A   1      37.621  22.267  24.982  1.00  0.00    -0.352 N 
ATOM      4  C   UNL A   1      36.879  23.102  25.779  1.00  0.00     0.251 C 
ATOM      5  O   UNL A   1      37.478  24.084  26.227  1.00  0.00    -0.269 OA
ATOM      6  H   UNL A   1      38.540  22.598  24.866  1.00  0.00     0.163 HD
BRANCH   4   7
ATOM      7  C   UNL A   1      35.426  22.957  26.094  1.00  0.00     0.040 A 
ATOM      8  C   UNL A   1      33.145  23.788  26.374  1.00  0.00     0.040 A 
ATOM      9  C   UNL A   1      32.770  22.587  26.979  1.00  0.00     0.014 A 
ATOM     10  C   UNL A   1      34.451  23.926  25.876  1.00  0.00     0.027 A 
ATOM     11  C   UNL A   1      33.695  21.553  27.100  1.00  0.00     0.002 A 
ATOM     12  C   UNL A   1      35.016  21.748  26.685  1.00  0.00     0.014 A 
BRANCH   8  13
ATOM     13  C   UNL A   1      32.258  24.939  26.372  1.00  0.00     0.247 A 
ATOM     14  C   UNL A   1      31.722  26.974  26.681  1.00  0.00     0.222 A 
ATOM     15  N   UNL A   1      30.597  26.298  26.590  1.00  0.00    -0.112 NA
ATOM     16  O   UNL A   1      32.828  26.178  26.536  1.00  0.00    -0.420 OA
ATOM     17  N   UNL A   1      30.944  24.982  26.379  1.00  0.00    -0.108 NA
BRANCH  14  18
ATOM     18  C   UNL A   1      31.901  28.436  26.801  1.00  0.00     0.109 C 
ATOM     19  C   UNL A   1      32.275  28.823  24.245  1.00  0.00     0.039 C 
ATOM     20  C   UNL A   1      31.688  29.310  25.568  1.00  0.00     0.127 C 
ATOM     21  O   UNL A   1      32.362  30.556  25.874  1.00  0.00    -0.378 OA
ATOM     22  C   UNL A   1      33.253  30.341  26.981  1.00  0.00     0.161 C 
ATOM     23  C   UNL A   1      33.294  28.849  27.233  1.00  0.00     0.044 C 
ENDBRANCH  14  18
ENDBRANCH   8  13
ENDBRANCH   4   7
ENDBRANCH   2   3
ENDBRANCH   1   2
BRANCH   1  24
ATOM     24  C   UNL A   1      38.996  20.140  26.047  1.00  0.00     0.118 C 
BRANCH  24  25
ATOM     25  N   UNL A   1      40.126  19.214  26.033  1.00  0.00    -0.352 N 
ATOM     26  C   UNL A   1      41.481  19.427  26.094  1.00  0.00     0.251 C 
ATOM     27  H   UNL A   1      39.870  18.266  25.967  1.00  0.00     0.163 HD
ATOM     28  O   UNL A   1      42.245  18.514  25.797  1.00  0.00    -0.269 OA
BRANCH  26  29
ATOM     29  C   UNL A   1      42.032  20.735  26.507  1.00  0.00     0.039 A 
ATOM     30  C   UNL A   1      42.345  21.679  25.523  1.00  0.00     0.014 A 
ATOM     31  C   UNL A   1      42.302  21.016  27.846  1.00  0.00     0.014 A 
ATOM     32  C   UNL A   1      42.853  22.928  25.890  1.00  0.00     0.010 A 
ATOM     33  C   UNL A   1      42.723  22.289  28.219  1.00  0.00     0.010 A 
ATOM     34  C   UNL A   1      43.005  23.258  27.246  1.00  0.00    -0.014 A 
BRANCH  34  35
ATOM     35  C   UNL A   1      43.438  24.612  27.673  1.00  0.00     0.031 A 
ATOM     36  C   UNL A   1      42.419  25.653  28.049  1.00  0.00     0.074 A 
ATOM     37  C   UNL A   1      44.746  24.933  27.629  1.00  0.00     0.049 A 
ATOM     38  N   UNL A   1      42.594  26.918  28.338  1.00  0.00    -0.248 NA
ATOM     39  C   UNL A   1      41.013  25.223  28.069  1.00  0.00     0.031 C 
ATOM     40  C   UNL A   1      45.823  24.028  27.223  1.00  0.00     0.029 A 
ATOM     41  N   UNL A   1      45.390  26.112  27.906  1.00  0.00    -0.354 N 
ATOM     42  C   UNL A   1      41.324  27.437  28.548  1.00  0.00     0.074 A 
ATOM     43  C   UNL A   1      40.384  26.365  28.307  1.00  0.00     0.031 C 
ATOM     44  C   UNL A   1      46.994  24.679  27.291  1.00  0.00     0.029 A 
ATOM     45  C   UNL A   1      46.748  26.057  27.704  1.00  0.00     0.049 A 
ATOM     46  H   UNL A   1      44.924  26.921  28.219  1.00  0.00     0.167 HD
ATOM     47  C   UNL A   1      40.977  28.690  28.928  1.00  0.00     0.037 A 
ATOM     48  C   UNL A   1      47.687  27.014  27.822  1.00  0.00     0.037 A 
ATOM     49  C   UNL A   1      41.919  29.743  29.200  1.00  0.00     0.049 A 
ATOM     50  C   UNL A   1      47.277  28.393  28.258  1.00  0.00     0.074 A 
ATOM     51  C   UNL A   1      41.675  31.019  29.674  1.00  0.00     0.029 A 
ATOM     52  N   UNL A   1      43.291  29.640  29.015  1.00  0.00    -0.354 N 
ATOM     53  N   UNL A   1      46.080  28.850  28.533  1.00  0.00    -0.248 NA
ATOM     54  C   UNL A   1      48.348  29.388  28.405  1.00  0.00     0.031 C 
ATOM     55  C   UNL A   1      42.893  31.706  29.731  1.00  0.00     0.029 A 
ATOM     56  C   UNL A   1      43.903  30.841  29.340  1.00  0.00     0.049 A 
ATOM     57  H   UNL A   1      43.760  28.834  28.701  1.00  0.00     0.167 HD
ATOM     58  C   UNL A   1      46.254  30.177  28.904  1.00  0.00     0.074 A 
ATOM     59  C   UNL A   1      47.676  30.446  28.837  1.00  0.00     0.031 C 
ATOM     60  C   UNL A   1      45.320  31.091  29.263  1.00  0.00     0.037 A 
BRANCH  47  61
ATOM     61  C   UNL A   1      39.512  28.992  29.075  1.00  0.00     0.064 A 
ATOM     62  C   UNL A   1      38.855  28.874  30.309  1.00  0.00     0.173 A 
ATOM     63  C   UNL A   1      38.765  29.441  27.975  1.00  0.00     0.173 A 
ATOM     64  F   UNL A   1      39.520  28.440  31.390  1.00  0.00    -0.203 F 
ATOM     65  C   UNL A   1      37.497  29.162  30.429  1.00  0.00     0.198 A 
ATOM     66  C   UNL A   1      37.415  29.758  28.106  1.00  0.00     0.198 A 
ATOM     67  F   UNL A   1      39.345  29.578  26.773  1.00  0.00    -0.203 F 
ATOM     68  F   UNL A   1      36.880  28.991  31.606  1.00  0.00    -0.200 F 
ATOM     69  C   UNL A   1      36.781  29.610  29.329  1.00  0.00     0.200 A 
ATOM     70  F   UNL A   1      36.727  30.203  27.045  1.00  0.00    -0.200 F 
ATOM     71  F   UNL A   1      35.475  29.892  29.449  1.00  0.00    -0.200 F 
ENDBRANCH  47  61
BRANCH  48  72
ATOM     72  C   UNL A   1      49.109  26.691  27.538  1.00  0.00     0.064 A 
ATOM     73  C   UNL A   1      49.614  26.756  26.232  1.00  0.00     0.173 A 
ATOM     74  C   UNL A   1      49.994  26.324  28.563  1.00  0.00     0.173 A 
ATOM     75  F   UNL A   1      48.802  27.084  25.216  1.00  0.00    -0.203 F 
ATOM     76  C   UNL A   1      50.946  26.451  25.959  1.00  0.00     0.198 A 
ATOM     77  C   UNL A   1      51.332  26.046  28.293  1.00  0.00     0.198 A 
ATOM     78  F   UNL A   1      49.562  26.254  29.830  1.00  0.00    -0.203 F 
ATOM     79  F   UNL A   1      51.393  26.483  24.696  1.00  0.00    -0.200 F 
ATOM     80  C   UNL A   1      51.806  26.103  26.991  1.00  0.00     0.200 A 
ATOM     81  F   UNL A   1      52.163  25.727  29.294  1.00  0.00    -0.200 F 
ATOM     82  F   UNL A   1      53.088  25.818  26.729  1.00  0.00    -0.200 F 
ENDBRANCH  48  72
BRANCH  60  83
ATOM     83  C   UNL A   1      45.808  32.462  29.631  1.00  0.00     0.064 A 
ATOM     84  C   UNL A   1      45.893  33.489  28.680  1.00  0.00     0.173 A 
ATOM     85  C   UNL A   1      46.154  32.762  30.957  1.00  0.00     0.173 A 
ATOM     86  F   UNL A   1      45.589  33.248  27.396  1.00  0.00    -0.203 F 
ATOM     87  C   UNL A   1      46.330  34.762  29.039  1.00  0.00     0.198 A 
ATOM     88  C   UNL A   1      46.562  34.042  31.318  1.00  0.00     0.198 A 
ATOM     89  F   UNL A   1      46.085  31.815  31.905  1.00  0.00    -0.203 F 
ATOM     90  F   UNL A   1      46.447  35.716  28.106  1.00  0.00    -0.200 F 
ATOM     91  C   UNL A   1      46.656  35.039  30.359  1.00  0.00     0.200 A 
ATOM     92  F   UNL A   1      46.864  34.313  32.596  1.00  0.00    -0.200 F 
ATOM     93  F   UNL A   1      47.067  36.267  30.705  1.00  0.00    -0.200 F 
ENDBRANCH  60  83
ENDBRANCH  34  35
ENDBRANCH  26  29
ENDBRANCH  24  25
ENDBRANCH   1  24
TORSDOF 12
ENDMDL
MODEL 3
REMARK VINA RESULT:     -12.5      1.505      2.138
REMARK SMILES C[C@@H]1OCC[C@@H]1c1nnc(-c2cccc(C(=O)NCCCNC(=O)c3ccc(-c4c5nc(c(-c6c(F)c(F)c(F)c(F)c6F)c6ccc([nH]6)c(-c6c(F)c(F)c(F)c(F)c6F)c6nc(c(-c7c(F)c(F)c(F)c(F)c7F)c7ccc4[nH]7)C=C6)C=C5)cc3)c2)o1
REMARK SMILES IDX 20 1 19 2 18 3 16 4 17 5 15 7 11 8 12 9 88 10 13 11 14 12
REMARK SMILES IDX 10 13 7 14 8 15 89 16 9 17 6 18 1 19 2 20 3 21 4 22 5 23
REMARK SMILES IDX 21 24 22 25 23 26 24 28 25 29 26 30 87 31 27 32 86 33 28 34
REMARK SMILES IDX 29 35 30 36 80 37 31 38 85 39 79 40 81 41 32 42 84 43 78 44
REMARK SMILES IDX 77 45 33 47 65 48 45 49 64 50 46 51 49 52 63 53 82 54 47 55
REMARK SMILES IDX 48 56 62 58 83 59 50 60 34 61 35 62 43 63 36 64 37 65 41 66
REMARK SMILES IDX 44 67 38 68 39 69 42 70 40 71 66 72 67 73 75 74 68 75 69 76
REMARK SMILES IDX 73 77 76 78 70 79 71 80 74 81 72 82 51 83 52 84 60 85 53 86
REMARK SMILES IDX 54 87 58 88 61 89 55 90 56 91 59 92 57 93
REMARK H PARENT 18 6 22 27 81 46 49 57
REMARK Flexibility Score: inf
ROOT
ATOM      1  C   UNL A   1      31.420  32.253  26.491  1.00  0.00     0.042 C 
ENDROOT
BRANCH   1   2
ATOM      2  C   UNL A   1      31.453  30.739  26.321  1.00  0.00     0.118 C 
BRANCH   2   3
ATOM      3  N   UNL A   1      31.407  30.311  24.932  1.00  0.00    -0.352 N 
ATOM      4  C   UNL A   1      31.544  29.130  24.247  1.00  0.00     0.251 C 
ATOM      5  O   UNL A   1      31.401  29.201  23.023  1.00  0.00    -0.269 OA
ATOM      6  H   UNL A   1      31.232  31.065  24.323  1.00  0.00     0.163 HD
BRANCH   4   7
ATOM      7  C   UNL A   1      31.902  27.805  24.839  1.00  0.00     0.040 A 
ATOM      8  C   UNL A   1      33.092  25.672  24.893  1.00  0.00     0.040 A 
ATOM      9  C   UNL A   1      32.271  25.227  25.930  1.00  0.00     0.014 A 
ATOM     10  C   UNL A   1      32.941  26.983  24.413  1.00  0.00     0.027 A 
ATOM     11  C   UNL A   1      31.302  26.075  26.460  1.00  0.00     0.002 A 
ATOM     12  C   UNL A   1      31.104  27.342  25.901  1.00  0.00     0.014 A 
BRANCH   8  13
ATOM     13  C   UNL A   1      34.003  24.767  24.212  1.00  0.00     0.247 A 
ATOM     14  C   UNL A   1      35.797  23.653  23.955  1.00  0.00     0.222 A 
ATOM     15  N   UNL A   1      35.223  23.722  22.772  1.00  0.00    -0.112 NA
ATOM     16  O   UNL A   1      35.070  24.285  24.930  1.00  0.00    -0.420 OA
ATOM     17  N   UNL A   1      34.056  24.434  22.941  1.00  0.00    -0.108 NA
BRANCH  14  18
ATOM     18  C   UNL A   1      37.016  22.909  24.336  1.00  0.00     0.109 C 
ATOM     19  C   UNL A   1      35.740  20.739  25.031  1.00  0.00     0.039 C 
ATOM     20  C   UNL A   1      36.965  21.385  24.387  1.00  0.00     0.127 C 
ATOM     21  O   UNL A   1      38.099  21.002  25.203  1.00  0.00    -0.378 OA
ATOM     22  C   UNL A   1      38.557  22.154  25.930  1.00  0.00     0.161 C 
ATOM     23  C   UNL A   1      37.530  23.245  25.722  1.00  0.00     0.044 C 
ENDBRANCH  14  18
ENDBRANCH   8  13
ENDBRANCH   4   7
ENDBRANCH   2   3
ENDBRANCH   1   2
BRANCH   1  24
ATOM     24  C   UNL A   1      32.666  32.813  27.170  1.00  0.00     0.118 C 
BRANCH  24  25
ATOM     25  N   UNL A   1      32.484  34.193  27.615  1.00  0.00    -0.352 N 
ATOM     26  C   UNL A   1      33.027  34.892  28.664  1.00  0.00     0.251 C 
ATOM     27  H   UNL A   1      31.859  34.715  27.063  1.00  0.00     0.163 HD
ATOM     28  O   UNL A   1      32.523  35.960  28.998  1.00  0.00    -0.269 OA
BRANCH  26  29
ATOM     29  C   UNL A   1      34.203  34.380  29.399  1.00  0.00     0.039 A 
ATOM     30  C   UNL A   1      34.010  33.750  30.633  1.00  0.00     0.014 A 
ATOM     31  C   UNL A   1      35.498  34.569  28.914  1.00  0.00     0.014 A 
ATOM     32  C   UNL A   1      35.105  33.245  31.338  1.00  0.00     0.010 A 
ATOM     33  C   UNL A   1      36.579  33.989  29.570  1.00  0.00     0.010 A 
ATOM     34  C   UNL A   1      36.396  33.322  30.790  1.00  0.00    -0.014 A 
BRANCH  34  35
ATOM     35  C   UNL A   1      37.564  32.700  31.460  1.00  0.00     0.031 A 
ATOM     36  C   UNL A   1      38.262  31.523  30.834  1.00  0.00     0.074 A 
ATOM     37  C   UNL A   1      37.935  33.134  32.680  1.00  0.00     0.049 A 
ATOM     38  N   UNL A   1      39.224  30.777  31.317  1.00  0.00    -0.248 NA
ATOM     39  C   UNL A   1      37.794  31.110  29.503  1.00  0.00     0.031 C 
ATOM     40  C   UNL A   1      37.298  34.227  33.417  1.00  0.00     0.029 A 
ATOM     41  N   UNL A   1      38.923  32.696  33.526  1.00  0.00    -0.354 N 
ATOM     42  C   UNL A   1      39.456  29.795  30.363  1.00  0.00     0.074 A 
ATOM     43  C   UNL A   1      38.504  30.010  29.295  1.00  0.00     0.031 C 
ATOM     44  C   UNL A   1      37.918  34.383  34.596  1.00  0.00     0.029 A 
ATOM     45  C   UNL A   1      38.968  33.377  34.718  1.00  0.00     0.049 A 
ATOM     46  H   UNL A   1      39.541  31.963  33.301  1.00  0.00     0.167 HD
ATOM     47  C   UNL A   1      40.392  28.817  30.370  1.00  0.00     0.037 A 
ATOM     48  C   UNL A   1      39.756  33.202  35.795  1.00  0.00     0.037 A 
ATOM     49  C   UNL A   1      41.360  28.631  31.419  1.00  0.00     0.049 A 
ATOM     50  C   UNL A   1      40.796  32.116  35.771  1.00  0.00     0.074 A 
ATOM     51  C   UNL A   1      42.405  27.727  31.479  1.00  0.00     0.029 A 
ATOM     52  N   UNL A   1      41.395  29.363  32.598  1.00  0.00    -0.354 N 
ATOM     53  N   UNL A   1      41.061  31.246  34.828  1.00  0.00    -0.248 NA
ATOM     54  C   UNL A   1      41.652  31.993  36.959  1.00  0.00     0.031 C 
ATOM     55  C   UNL A   1      43.043  27.877  32.715  1.00  0.00     0.029 A 
ATOM     56  C   UNL A   1      42.427  28.910  33.404  1.00  0.00     0.049 A 
ATOM     57  H   UNL A   1      40.779  30.095  32.826  1.00  0.00     0.167 HD
ATOM     58  C   UNL A   1      42.122  30.485  35.298  1.00  0.00     0.074 A 
ATOM     59  C   UNL A   1      42.467  31.009  36.604  1.00  0.00     0.031 C 
ATOM     60  C   UNL A   1      42.753  29.443  34.703  1.00  0.00     0.037 A 
BRANCH  47  61
ATOM     61  C   UNL A   1      40.420  27.872  29.202  1.00  0.00     0.064 A 
ATOM     62  C   UNL A   1      39.641  26.704  29.180  1.00  0.00     0.173 A 
ATOM     63  C   UNL A   1      41.207  28.156  28.076  1.00  0.00     0.173 A 
ATOM     64  F   UNL A   1      38.879  26.381  30.235  1.00  0.00    -0.203 F 
ATOM     65  C   UNL A   1      39.676  25.840  28.088  1.00  0.00     0.198 A 
ATOM     66  C   UNL A   1      41.213  27.305  26.973  1.00  0.00     0.198 A 
ATOM     67  F   UNL A   1      41.965  29.261  28.040  1.00  0.00    -0.203 F 
ATOM     68  F   UNL A   1      38.963  24.705  28.113  1.00  0.00    -0.200 F 
ATOM     69  C   UNL A   1      40.456  26.145  26.983  1.00  0.00     0.200 A 
ATOM     70  F   UNL A   1      41.958  27.608  25.900  1.00  0.00    -0.200 F 
ATOM     71  F   UNL A   1      40.482  25.314  25.931  1.00  0.00    -0.200 F 
ENDBRANCH  47  61
BRANCH  48  72
ATOM     72  C   UNL A   1      39.598  34.087  36.978  1.00  0.00     0.064 A 
ATOM     73  C   UNL A   1      38.825  33.687  38.077  1.00  0.00     0.173 A 
ATOM     74  C   UNL A   1      40.223  35.340  37.040  1.00  0.00     0.173 A 
ATOM     75  F   UNL A   1      38.192  32.505  38.055  1.00  0.00    -0.203 F 
ATOM     76  C   UNL A   1      38.670  34.515  39.187  1.00  0.00     0.198 A 
ATOM     77  C   UNL A   1      40.091  36.155  38.163  1.00  0.00     0.198 A 
ATOM     78  F   UNL A   1      40.981  35.766  36.019  1.00  0.00    -0.203 F 
ATOM     79  F   UNL A   1      37.893  34.125  40.206  1.00  0.00    -0.200 F 
ATOM     80  C   UNL A   1      39.310  35.745  39.233  1.00  0.00     0.200 A 
ATOM     81  F   UNL A   1      40.724  37.335  38.210  1.00  0.00    -0.200 F 
ATOM     82  F   UNL A   1      39.168  36.536  40.304  1.00  0.00    -0.200 F 
ENDBRANCH  48  72
BRANCH  60  83
ATOM     83  C   UNL A   1      43.892  28.813  35.450  1.00  0.00     0.064 A 
ATOM     84  C   UNL A   1      43.680  27.781  36.377  1.00  0.00     0.173 A 
ATOM     85  C   UNL A   1      45.213  29.218  35.206  1.00  0.00     0.173 A 
ATOM     86  F   UNL A   1      42.434  27.371  36.657  1.00  0.00    -0.203 F 
ATOM     87  C   UNL A   1      44.749  27.194  37.049  1.00  0.00     0.198 A 
ATOM     88  C   UNL A   1      46.281  28.608  35.858  1.00  0.00     0.198 A 
ATOM     89  F   UNL A   1      45.469  30.197  34.325  1.00  0.00    -0.203 F 
ATOM     90  F   UNL A   1      44.520  26.241  37.964  1.00  0.00    -0.200 F 
ATOM     91  C   UNL A   1      46.048  27.602  36.784  1.00  0.00     0.200 A 
ATOM     92  F   UNL A   1      47.536  28.993  35.591  1.00  0.00    -0.200 F 
ATOM     93  F   UNL A   1      47.076  27.029  37.425  1.00  0.00    -0.200 F 
ENDBRANCH  60  83
ENDBRANCH  34  35
ENDBRANCH  26  29
ENDBRANCH  24  25
ENDBRANCH   1  24
TORSDOF 12
ENDMDL
