MODEL 1
REMARK VINA RESULT:     -10.5      0.000      0.000
REMARK SMILES CCN(CC(=O)NCCCNC(=O)c1ccc(-c2c3nc(c(-c4c(F)c(F)c(F)c(F)c4F)c4ccc([nH]4)c(-c4c(F)c(F)c(F)c(F)c4F)c4nc(c(-c5c(F)c(F)c(F)c(F)c5F)c5ccc2[nH]5)C=C4)C=C3)cc1)C(=O)[C@@H]1CC[NH2+][C@@H]1C
REMARK SMILES IDX 8 1 7 2 5 3 6 4 4 6 3 7 2 8 1 9 77 10 78 11 79 12 80 13
REMARK SMILES IDX 83 14 81 15 82 16 84 17 9 20 10 21 11 22 12 23 13 25 14 26
REMARK SMILES IDX 15 27 76 28 16 29 75 30 17 31 18 32 19 33 69 34 20 35 74 36
REMARK SMILES IDX 68 37 70 38 21 39 73 40 67 41 66 42 22 44 54 45 34 46 53 47
REMARK SMILES IDX 35 48 38 49 52 50 71 51 36 52 37 53 51 55 72 56 39 57 23 58
REMARK SMILES IDX 24 59 32 60 25 61 26 62 30 63 33 64 27 65 28 66 31 67 29 68
REMARK SMILES IDX 55 69 56 70 64 71 57 72 58 73 62 74 65 75 59 76 60 77 63 78
REMARK SMILES IDX 61 79 40 80 41 81 49 82 42 83 43 84 47 85 50 86 44 87 45 88
REMARK SMILES IDX 48 89 46 90
REMARK H PARENT 7 5 82 18 82 19 11 24 70 43 38 54
REMARK Flexibility Score: inf
ROOT
ATOM      1  C   UNL A   1      34.562  23.424  24.394  1.00  0.00     0.117 C 
ENDROOT
BRANCH   1   2
ATOM      2  N   UNL A   1      34.176  23.805  23.051  1.00  0.00    -0.354 N 
ATOM      3  C   UNL A   1      33.302  24.770  22.643  1.00  0.00     0.239 C 
ATOM      4  O   UNL A   1      33.299  25.073  21.448  1.00  0.00    -0.273 OA
ATOM      5  H   UNL A   1      34.606  23.294  22.328  1.00  0.00     0.163 HD
BRANCH   3   6
ATOM      6  C   UNL A   1      32.429  25.536  23.648  1.00  0.00     0.219 C 
BRANCH   6   7
ATOM      7  N   UNL A   1      32.928  26.859  24.041  1.00  0.00    -0.333 N 
BRANCH   7   8
ATOM      8  C   UNL A   1      32.736  27.962  23.091  1.00  0.00     0.116 C 
ATOM      9  C   UNL A   1      34.021  28.354  22.376  1.00  0.00     0.027 C 
ENDBRANCH   7   8
BRANCH   7  10
ATOM     10  C   UNL A   1      33.443  27.182  25.298  1.00  0.00     0.232 C 
ATOM     11  O   UNL A   1      33.832  26.279  26.042  1.00  0.00    -0.274 OA
BRANCH  10  12
ATOM     12  C   UNL A   1      33.438  28.637  25.774  1.00  0.00     0.142 C 
ATOM     13  C   UNL A   1      34.504  29.025  26.791  1.00  0.00     0.081 C 
ATOM     14  C   UNL A   1      32.150  29.088  26.486  1.00  0.00     0.192 C 
ATOM     15  C   UNL A   1      33.950  30.279  27.457  1.00  0.00     0.261 C 
ATOM     16  N   UNL A   1      32.554  30.398  27.031  1.00  0.00    -0.343 N 
ATOM     17  C   UNL A   1      31.621  28.208  27.627  1.00  0.00     0.076 C 
ATOM     18  H   UNL A   1      32.468  31.116  26.314  1.00  0.00     0.346 HD
ATOM     19  H   UNL A   1      31.958  30.662  27.816  1.00  0.00     0.346 HD
ENDBRANCH  10  12
ENDBRANCH   7  10
ENDBRANCH   6   7
ENDBRANCH   3   6
ENDBRANCH   1   2
BRANCH   1  20
ATOM     20  C   UNL A   1      36.038  23.669  24.693  1.00  0.00     0.042 C 
BRANCH  20  21
ATOM     21  C   UNL A   1      36.472  23.281  26.103  1.00  0.00     0.118 C 
BRANCH  21  22
ATOM     22  N   UNL A   1      37.661  22.440  26.118  1.00  0.00    -0.352 N 
ATOM     23  C   UNL A   1      38.975  22.749  26.352  1.00  0.00     0.251 C 
ATOM     24  H   UNL A   1      37.492  21.489  25.926  1.00  0.00     0.163 HD
ATOM     25  O   UNL A   1      39.838  21.895  26.134  1.00  0.00    -0.269 OA
BRANCH  23  26
ATOM     26  C   UNL A   1      39.384  24.082  26.845  1.00  0.00     0.039 A 
ATOM     27  C   UNL A   1      39.123  24.411  28.181  1.00  0.00     0.014 A 
ATOM     28  C   UNL A   1      39.961  25.034  26.001  1.00  0.00     0.014 A 
ATOM     29  C   UNL A   1      39.487  25.664  28.680  1.00  0.00     0.010 A 
ATOM     30  C   UNL A   1      40.386  26.259  26.515  1.00  0.00     0.010 A 
ATOM     31  C   UNL A   1      40.149  26.590  27.858  1.00  0.00    -0.014 A 
BRANCH  31  32
ATOM     32  C   UNL A   1      40.593  27.907  28.383  1.00  0.00     0.031 A 
ATOM     33  C   UNL A   1      42.044  28.149  28.696  1.00  0.00     0.074 A 
ATOM     34  C   UNL A   1      39.681  28.865  28.639  1.00  0.00     0.049 A 
ATOM     35  N   UNL A   1      42.613  29.199  29.236  1.00  0.00    -0.248 NA
ATOM     36  C   UNL A   1      42.980  27.056  28.385  1.00  0.00     0.031 C 
ATOM     37  C   UNL A   1      38.239  28.741  28.416  1.00  0.00     0.029 A 
ATOM     38  N   UNL A   1      39.830  30.128  29.156  1.00  0.00    -0.354 N 
ATOM     39  C   UNL A   1      43.960  28.883  29.352  1.00  0.00     0.074 A 
ATOM     40  C   UNL A   1      44.122  27.532  28.861  1.00  0.00     0.031 C 
ATOM     41  C   UNL A   1      37.639  29.887  28.775  1.00  0.00     0.029 A 
ATOM     42  C   UNL A   1      38.645  30.812  29.289  1.00  0.00     0.049 A 
ATOM     43  H   UNL A   1      40.702  30.508  29.407  1.00  0.00     0.167 HD
ATOM     44  C   UNL A   1      44.973  29.657  29.812  1.00  0.00     0.037 A 
ATOM     45  C   UNL A   1      38.399  32.041  29.779  1.00  0.00     0.037 A 
ATOM     46  C   UNL A   1      44.818  31.017  30.259  1.00  0.00     0.049 A 
ATOM     47  C   UNL A   1      39.545  32.880  30.277  1.00  0.00     0.074 A 
ATOM     48  C   UNL A   1      45.795  31.907  30.669  1.00  0.00     0.029 A 
ATOM     49  N   UNL A   1      43.605  31.682  30.355  1.00  0.00    -0.354 N 
ATOM     50  N   UNL A   1      40.824  32.597  30.311  1.00  0.00    -0.248 NA
ATOM     51  C   UNL A   1      39.212  34.214  30.796  1.00  0.00     0.031 C 
ATOM     52  C   UNL A   1      45.170  33.098  31.052  1.00  0.00     0.029 A 
ATOM     53  C   UNL A   1      43.809  32.965  30.837  1.00  0.00     0.049 A 
ATOM     54  H   UNL A   1      42.729  31.300  30.117  1.00  0.00     0.167 HD
ATOM     55  C   UNL A   1      41.450  33.727  30.821  1.00  0.00     0.074 A 
ATOM     56  C   UNL A   1      40.412  34.703  31.072  1.00  0.00     0.031 C 
ATOM     57  C   UNL A   1      42.768  33.936  31.059  1.00  0.00     0.037 A 
BRANCH  44  58
ATOM     58  C   UNL A   1      46.348  29.059  29.853  1.00  0.00     0.064 A 
ATOM     59  C   UNL A   1      46.821  28.376  30.983  1.00  0.00     0.173 A 
ATOM     60  C   UNL A   1      47.181  29.117  28.725  1.00  0.00     0.173 A 
ATOM     61  F   UNL A   1      46.068  28.301  32.091  1.00  0.00    -0.203 F 
ATOM     62  C   UNL A   1      48.086  27.792  30.989  1.00  0.00     0.198 A 
ATOM     63  C   UNL A   1      48.433  28.508  28.726  1.00  0.00     0.198 A 
ATOM     64  F   UNL A   1      46.773  29.752  27.616  1.00  0.00    -0.203 F 
ATOM     65  F   UNL A   1      48.532  27.177  32.093  1.00  0.00    -0.200 F 
ATOM     66  C   UNL A   1      48.886  27.851  29.859  1.00  0.00     0.200 A 
ATOM     67  F   UNL A   1      49.200  28.555  27.627  1.00  0.00    -0.200 F 
ATOM     68  F   UNL A   1      50.097  27.276  29.862  1.00  0.00    -0.200 F 
ENDBRANCH  44  58
BRANCH  45  69
ATOM     69  C   UNL A   1      37.010  32.571  29.805  1.00  0.00     0.064 A 
ATOM     70  C   UNL A   1      36.493  33.277  28.709  1.00  0.00     0.173 A 
ATOM     71  C   UNL A   1      36.184  32.411  30.926  1.00  0.00     0.173 A 
ATOM     72  F   UNL A   1      37.254  33.476  27.623  1.00  0.00    -0.203 F 
ATOM     73  C   UNL A   1      35.213  33.824  28.743  1.00  0.00     0.198 A 
ATOM     74  C   UNL A   1      34.893  32.934  30.949  1.00  0.00     0.198 A 
ATOM     75  F   UNL A   1      36.630  31.741  32.000  1.00  0.00    -0.203 F 
ATOM     76  F   UNL A   1      34.765  34.540  27.704  1.00  0.00    -0.200 F 
ATOM     77  C   UNL A   1      34.413  33.649  29.862  1.00  0.00     0.200 A 
ATOM     78  F   UNL A   1      34.118  32.753  32.026  1.00  0.00    -0.200 F 
ATOM     79  F   UNL A   1      33.182  34.179  29.897  1.00  0.00    -0.200 F 
ENDBRANCH  45  69
BRANCH  57  80
ATOM     80  C   UNL A   1      43.169  35.288  31.568  1.00  0.00     0.064 A 
ATOM     81  C   UNL A   1      43.160  35.595  32.936  1.00  0.00     0.173 A 
ATOM     82  C   UNL A   1      43.605  36.278  30.674  1.00  0.00     0.173 A 
ATOM     83  F   UNL A   1      42.737  34.686  33.828  1.00  0.00    -0.203 F 
ATOM     84  C   UNL A   1      43.548  36.853  33.389  1.00  0.00     0.198 A 
ATOM     85  C   UNL A   1      44.018  37.526  31.133  1.00  0.00     0.198 A 
ATOM     86  F   UNL A   1      43.638  36.033  29.356  1.00  0.00    -0.203 F 
ATOM     87  F   UNL A   1      43.486  37.140  34.696  1.00  0.00    -0.200 F 
ATOM     88  C   UNL A   1      43.982  37.814  32.489  1.00  0.00     0.200 A 
ATOM     89  F   UNL A   1      44.451  38.449  30.262  1.00  0.00    -0.200 F 
ATOM     90  F   UNL A   1      44.361  39.023  32.927  1.00  0.00    -0.200 F 
ENDBRANCH  57  80
ENDBRANCH  31  32
ENDBRANCH  23  26
ENDBRANCH  21  22
ENDBRANCH  20  21
ENDBRANCH   1  20
TORSDOF 14
ENDMDL
MODEL 2
REMARK VINA RESULT:     -10.5      4.509      8.203
REMARK SMILES CCN(CC(=O)NCCCNC(=O)c1ccc(-c2c3nc(c(-c4c(F)c(F)c(F)c(F)c4F)c4ccc([nH]4)c(-c4c(F)c(F)c(F)c(F)c4F)c4nc(c(-c5c(F)c(F)c(F)c(F)c5F)c5ccc2[nH]5)C=C4)C=C3)cc1)C(=O)[C@@H]1CC[NH2+][C@@H]1C
REMARK SMILES IDX 8 1 7 2 5 3 6 4 4 6 3 7 2 8 1 9 77 10 78 11 79 12 80 13
REMARK SMILES IDX 83 14 81 15 82 16 84 17 9 20 10 21 11 22 12 23 13 25 14 26
REMARK SMILES IDX 15 27 76 28 16 29 75 30 17 31 18 32 19 33 69 34 20 35 74 36
REMARK SMILES IDX 68 37 70 38 21 39 73 40 67 41 66 42 22 44 54 45 34 46 53 47
REMARK SMILES IDX 35 48 38 49 52 50 71 51 36 52 37 53 51 55 72 56 39 57 23 58
REMARK SMILES IDX 24 59 32 60 25 61 26 62 30 63 33 64 27 65 28 66 31 67 29 68
REMARK SMILES IDX 55 69 56 70 64 71 57 72 58 73 62 74 65 75 59 76 60 77 63 78
REMARK SMILES IDX 61 79 40 80 41 81 49 82 42 83 43 84 47 85 50 86 44 87 45 88
REMARK SMILES IDX 48 89 46 90
REMARK H PARENT 7 5 82 18 82 19 11 24 70 43 38 54
REMARK Flexibility Score: inf
ROOT
ATOM      1  C   UNL A   1      31.354  30.710  26.249  1.00  0.00     0.117 C 
ENDROOT
BRANCH   1   2
ATOM      2  N   UNL A   1      32.412  30.270  25.362  1.00  0.00    -0.354 N 
ATOM      3  C   UNL A   1      32.451  29.187  24.533  1.00  0.00     0.239 C 
ATOM      4  O   UNL A   1      33.360  29.134  23.702  1.00  0.00    -0.273 OA
ATOM      5  H   UNL A   1      33.219  30.833  25.358  1.00  0.00     0.163 HD
BRANCH   3   6
ATOM      6  C   UNL A   1      31.342  28.125  24.551  1.00  0.00     0.219 C 
BRANCH   6   7
ATOM      7  N   UNL A   1      30.449  28.122  23.385  1.00  0.00    -0.333 N 
BRANCH   7   8
ATOM      8  C   UNL A   1      30.680  27.095  22.362  1.00  0.00     0.116 C 
ATOM      9  C   UNL A   1      31.685  26.040  22.802  1.00  0.00     0.027 C 
ENDBRANCH   7   8
BRANCH   7  10
ATOM     10  C   UNL A   1      29.316  28.925  23.240  1.00  0.00     0.232 C 
ATOM     11  O   UNL A   1      28.203  28.396  23.185  1.00  0.00    -0.274 OA
BRANCH  10  12
ATOM     12  C   UNL A   1      29.470  30.437  23.060  1.00  0.00     0.142 C 
ATOM     13  C   UNL A   1      28.514  31.318  23.853  1.00  0.00     0.081 C 
ATOM     14  C   UNL A   1      29.250  30.951  21.626  1.00  0.00     0.192 C 
ATOM     15  C   UNL A   1      28.520  32.647  23.106  1.00  0.00     0.261 C 
ATOM     16  N   UNL A   1      29.209  32.411  21.836  1.00  0.00    -0.343 N 
ATOM     17  C   UNL A   1      27.973  30.509  20.899  1.00  0.00     0.076 C 
ATOM     18  H   UNL A   1      30.156  32.784  21.877  1.00  0.00     0.346 HD
ATOM     19  H   UNL A   1      28.720  32.872  21.068  1.00  0.00     0.346 HD
ENDBRANCH  10  12
ENDBRANCH   7  10
ENDBRANCH   6   7
ENDBRANCH   3   6
ENDBRANCH   1   2
BRANCH   1  20
ATOM     20  C   UNL A   1      31.352  32.216  26.489  1.00  0.00     0.042 C 
BRANCH  20  21
ATOM     21  C   UNL A   1      32.608  32.750  27.173  1.00  0.00     0.118 C 
BRANCH  21  22
ATOM     22  N   UNL A   1      32.459  34.124  27.636  1.00  0.00    -0.352 N 
ATOM     23  C   UNL A   1      33.101  34.808  28.633  1.00  0.00     0.251 C 
ATOM     24  H   UNL A   1      31.782  34.648  27.150  1.00  0.00     0.163 HD
ATOM     25  O   UNL A   1      32.681  35.919  28.963  1.00  0.00    -0.269 OA
BRANCH  23  26
ATOM     26  C   UNL A   1      34.277  34.243  29.332  1.00  0.00     0.039 A 
ATOM     27  C   UNL A   1      34.069  33.500  30.500  1.00  0.00     0.014 A 
ATOM     28  C   UNL A   1      35.581  34.486  28.892  1.00  0.00     0.014 A 
ATOM     29  C   UNL A   1      35.156  32.958  31.192  1.00  0.00     0.010 A 
ATOM     30  C   UNL A   1      36.661  33.889  29.543  1.00  0.00     0.010 A 
ATOM     31  C   UNL A   1      36.461  33.124  30.702  1.00  0.00    -0.014 A 
BRANCH  31  32
ATOM     32  C   UNL A   1      37.626  32.512  31.392  1.00  0.00     0.031 A 
ATOM     33  C   UNL A   1      38.374  31.374  30.753  1.00  0.00     0.074 A 
ATOM     34  C   UNL A   1      37.971  32.937  32.623  1.00  0.00     0.049 A 
ATOM     35  N   UNL A   1      39.362  30.658  31.231  1.00  0.00    -0.248 NA
ATOM     36  C   UNL A   1      37.941  30.971  29.406  1.00  0.00     0.031 C 
ATOM     37  C   UNL A   1      37.301  34.004  33.368  1.00  0.00     0.029 A 
ATOM     38  N   UNL A   1      38.963  32.512  33.472  1.00  0.00    -0.354 N 
ATOM     39  C   UNL A   1      39.647  29.708  30.260  1.00  0.00     0.074 A 
ATOM     40  C   UNL A   1      38.708  29.913  29.179  1.00  0.00     0.031 C 
ATOM     41  C   UNL A   1      37.912  34.164  34.553  1.00  0.00     0.029 A 
ATOM     42  C   UNL A   1      38.990  33.188  34.669  1.00  0.00     0.049 A 
ATOM     43  H   UNL A   1      39.595  31.793  33.245  1.00  0.00     0.167 HD
ATOM     44  C   UNL A   1      40.615  28.761  30.263  1.00  0.00     0.037 A 
ATOM     45  C   UNL A   1      39.790  33.029  35.740  1.00  0.00     0.037 A 
ATOM     46  C   UNL A   1      41.577  28.586  31.319  1.00  0.00     0.049 A 
ATOM     47  C   UNL A   1      40.861  31.972  35.711  1.00  0.00     0.074 A 
ATOM     48  C   UNL A   1      42.645  27.706  31.378  1.00  0.00     0.029 A 
ATOM     49  N   UNL A   1      41.588  29.306  32.504  1.00  0.00    -0.354 N 
ATOM     50  N   UNL A   1      41.168  31.130  34.756  1.00  0.00    -0.248 NA
ATOM     51  C   UNL A   1      41.703  31.851  36.911  1.00  0.00     0.031 C 
ATOM     52  C   UNL A   1      43.276  27.865  32.615  1.00  0.00     0.029 A 
ATOM     53  C   UNL A   1      42.631  28.876  33.308  1.00  0.00     0.049 A 
ATOM     54  H   UNL A   1      40.950  30.018  32.740  1.00  0.00     0.167 HD
ATOM     55  C   UNL A   1      42.257  30.405  35.222  1.00  0.00     0.074 A 
ATOM     56  C   UNL A   1      42.564  30.914  36.541  1.00  0.00     0.031 C 
ATOM     57  C   UNL A   1      42.940  29.408  34.610  1.00  0.00     0.037 A 
BRANCH  44  58
ATOM     58  C   UNL A   1      40.694  27.835  29.084  1.00  0.00     0.064 A 
ATOM     59  C   UNL A   1      39.855  26.716  28.969  1.00  0.00     0.173 A 
ATOM     60  C   UNL A   1      41.576  28.105  28.028  1.00  0.00     0.173 A 
ATOM     61  F   UNL A   1      39.000  26.409  29.956  1.00  0.00    -0.203 F 
ATOM     62  C   UNL A   1      39.914  25.891  27.849  1.00  0.00     0.198 A 
ATOM     63  C   UNL A   1      41.612  27.294  26.898  1.00  0.00     0.198 A 
ATOM     64  F   UNL A   1      42.395  29.167  28.086  1.00  0.00    -0.203 F 
ATOM     65  F   UNL A   1      39.129  24.806  27.777  1.00  0.00    -0.200 F 
ATOM     66  C   UNL A   1      40.784  26.184  26.811  1.00  0.00     0.200 A 
ATOM     67  F   UNL A   1      42.446  27.587  25.889  1.00  0.00    -0.200 F 
ATOM     68  F   UNL A   1      40.829  25.396  25.728  1.00  0.00    -0.200 F 
ENDBRANCH  44  58
BRANCH  45  69
ATOM     69  C   UNL A   1      39.629  33.907  36.930  1.00  0.00     0.064 A 
ATOM     70  C   UNL A   1      38.842  33.500  38.017  1.00  0.00     0.173 A 
ATOM     71  C   UNL A   1      40.229  35.172  36.995  1.00  0.00     0.173 A 
ATOM     72  F   UNL A   1      38.229  32.308  37.990  1.00  0.00    -0.203 F 
ATOM     73  C   UNL A   1      38.640  34.336  39.112  1.00  0.00     0.198 A 
ATOM     74  C   UNL A   1      40.050  35.997  38.103  1.00  0.00     0.198 A 
ATOM     75  F   UNL A   1      40.993  35.606  35.981  1.00  0.00    -0.203 F 
ATOM     76  F   UNL A   1      37.841  33.945  40.113  1.00  0.00    -0.200 F 
ATOM     77  C   UNL A   1      39.247  35.583  39.156  1.00  0.00     0.200 A 
ATOM     78  F   UNL A   1      40.647  37.195  38.148  1.00  0.00    -0.200 F 
ATOM     79  F   UNL A   1      39.050  36.389  40.208  1.00  0.00    -0.200 F 
ENDBRANCH  45  69
BRANCH  57  80
ATOM     80  C   UNL A   1      44.121  28.837  35.337  1.00  0.00     0.064 A 
ATOM     81  C   UNL A   1      45.420  29.326  35.134  1.00  0.00     0.173 A 
ATOM     82  C   UNL A   1      43.944  27.812  36.278  1.00  0.00     0.173 A 
ATOM     83  F   UNL A   1      45.642  30.295  34.233  1.00  0.00    -0.203 F 
ATOM     84  C   UNL A   1      46.501  28.790  35.828  1.00  0.00     0.198 A 
ATOM     85  C   UNL A   1      45.024  27.298  36.991  1.00  0.00     0.198 A 
ATOM     86  F   UNL A   1      42.721  27.314  36.514  1.00  0.00    -0.203 F 
ATOM     87  F   UNL A   1      47.740  29.240  35.584  1.00  0.00    -0.200 F 
ATOM     88  C   UNL A   1      46.302  27.783  36.760  1.00  0.00     0.200 A 
ATOM     89  F   UNL A   1      44.827  26.334  37.901  1.00  0.00    -0.200 F 
ATOM     90  F   UNL A   1      47.344  27.273  37.431  1.00  0.00    -0.200 F 
ENDBRANCH  57  80
ENDBRANCH  31  32
ENDBRANCH  23  26
ENDBRANCH  21  22
ENDBRANCH  20  21
ENDBRANCH   1  20
TORSDOF 14
ENDMDL
MODEL 3
REMARK VINA RESULT:     -10.4      4.051      9.981
REMARK SMILES CCN(CC(=O)NCCCNC(=O)c1ccc(-c2c3nc(c(-c4c(F)c(F)c(F)c(F)c4F)c4ccc([nH]4)c(-c4c(F)c(F)c(F)c(F)c4F)c4nc(c(-c5c(F)c(F)c(F)c(F)c5F)c5ccc2[nH]5)C=C4)C=C3)cc1)C(=O)[C@@H]1CC[NH2+][C@@H]1C
REMARK SMILES IDX 8 1 7 2 5 3 6 4 4 6 3 7 2 8 1 9 77 10 78 11 79 12 80 13
REMARK SMILES IDX 83 14 81 15 82 16 84 17 9 20 10 21 11 22 12 23 13 25 14 26
REMARK SMILES IDX 15 27 76 28 16 29 75 30 17 31 18 32 19 33 69 34 20 35 74 36
REMARK SMILES IDX 68 37 70 38 21 39 73 40 67 41 66 42 22 44 54 45 34 46 53 47
REMARK SMILES IDX 35 48 38 49 52 50 71 51 36 52 37 53 51 55 72 56 39 57 23 58
REMARK SMILES IDX 24 59 32 60 25 61 26 62 30 63 33 64 27 65 28 66 31 67 29 68
REMARK SMILES IDX 55 69 56 70 64 71 57 72 58 73 62 74 65 75 59 76 60 77 63 78
REMARK SMILES IDX 61 79 40 80 41 81 49 82 42 83 43 84 47 85 50 86 44 87 45 88
REMARK SMILES IDX 48 89 46 90
REMARK H PARENT 7 5 82 18 82 19 11 24 70 43 38 54
REMARK Flexibility Score: inf
ROOT
ATOM      1  C   UNL A   1      33.874  34.663  30.634  1.00  0.00     0.117 C 
ENDROOT
BRANCH   1   2
ATOM      2  N   UNL A   1      33.960  33.816  31.807  1.00  0.00    -0.354 N 
ATOM      3  C   UNL A   1      34.756  33.943  32.908  1.00  0.00     0.239 C 
ATOM      4  O   UNL A   1      34.500  33.234  33.884  1.00  0.00    -0.273 OA
ATOM      5  H   UNL A   1      33.359  33.037  31.809  1.00  0.00     0.163 HD
BRANCH   3   6
ATOM      6  C   UNL A   1      35.862  35.006  32.979  1.00  0.00     0.219 C 
BRANCH   6   7
ATOM      7  N   UNL A   1      37.220  34.494  33.201  1.00  0.00    -0.333 N 
BRANCH   7   8
ATOM      8  C   UNL A   1      38.135  34.495  32.054  1.00  0.00     0.116 C 
ATOM      9  C   UNL A   1      37.787  33.433  31.021  1.00  0.00     0.027 C 
ENDBRANCH   7   8
BRANCH   7  10
ATOM     10  C   UNL A   1      37.751  34.138  34.442  1.00  0.00     0.232 C 
ATOM     11  O   UNL A   1      38.471  34.938  35.044  1.00  0.00    -0.274 OA
BRANCH  10  12
ATOM     12  C   UNL A   1      37.511  32.733  35.000  1.00  0.00     0.142 C 
ATOM     13  C   UNL A   1      37.904  32.501  36.454  1.00  0.00     0.081 C 
ATOM     14  C   UNL A   1      38.279  31.606  34.287  1.00  0.00     0.192 C 
ATOM     15  C   UNL A   1      38.069  30.989  36.562  1.00  0.00     0.261 C 
ATOM     16  N   UNL A   1      38.046  30.466  35.195  1.00  0.00    -0.343 N 
ATOM     17  C   UNL A   1      39.788  31.789  34.084  1.00  0.00     0.076 C 
ATOM     18  H   UNL A   1      37.141  30.042  34.998  1.00  0.00     0.346 HD
ATOM     19  H   UNL A   1      38.765  29.753  35.070  1.00  0.00     0.346 HD
ENDBRANCH  10  12
ENDBRANCH   7  10
ENDBRANCH   6   7
ENDBRANCH   3   6
ENDBRANCH   1   2
BRANCH   1  20
ATOM     20  C   UNL A   1      34.106  33.912  29.327  1.00  0.00     0.042 C 
BRANCH  20  21
ATOM     21  C   UNL A   1      34.817  32.571  29.484  1.00  0.00     0.118 C 
BRANCH  21  22
ATOM     22  N   UNL A   1      34.212  31.513  28.685  1.00  0.00    -0.352 N 
ATOM     23  C   UNL A   1      34.762  30.395  28.116  1.00  0.00     0.251 C 
ATOM     24  H   UNL A   1      33.247  31.622  28.526  1.00  0.00     0.163 HD
ATOM     25  O   UNL A   1      34.084  29.731  27.328  1.00  0.00    -0.269 OA
BRANCH  23  26
ATOM     26  C   UNL A   1      36.148  29.972  28.414  1.00  0.00     0.039 A 
ATOM     27  C   UNL A   1      37.120  30.116  27.417  1.00  0.00     0.014 A 
ATOM     28  C   UNL A   1      36.490  29.378  29.631  1.00  0.00     0.014 A 
ATOM     29  C   UNL A   1      38.438  29.719  27.659  1.00  0.00     0.010 A 
ATOM     30  C   UNL A   1      37.819  29.044  29.898  1.00  0.00     0.010 A 
ATOM     31  C   UNL A   1      38.806  29.206  28.913  1.00  0.00    -0.014 A 
BRANCH  31  32
ATOM     32  C   UNL A   1      40.212  28.828  29.209  1.00  0.00     0.031 A 
ATOM     33  C   UNL A   1      41.113  29.777  29.950  1.00  0.00     0.074 A 
ATOM     34  C   UNL A   1      40.697  27.656  28.755  1.00  0.00     0.049 A 
ATOM     35  N   UNL A   1      42.387  29.663  30.231  1.00  0.00    -0.248 NA
ATOM     36  C   UNL A   1      40.508  31.035  30.418  1.00  0.00     0.031 C 
ATOM     37  C   UNL A   1      39.937  26.665  27.990  1.00  0.00     0.029 A 
ATOM     38  N   UNL A   1      41.950  27.106  28.857  1.00  0.00    -0.354 N 
ATOM     39  C   UNL A   1      42.740  30.838  30.880  1.00  0.00     0.074 A 
ATOM     40  C   UNL A   1      41.557  31.670  30.923  1.00  0.00     0.031 C 
ATOM     41  C   UNL A   1      40.733  25.621  27.710  1.00  0.00     0.029 A 
ATOM     42  C   UNL A   1      42.068  25.883  28.240  1.00  0.00     0.049 A 
ATOM     43  H   UNL A   1      42.694  27.544  29.329  1.00  0.00     0.167 HD
ATOM     44  C   UNL A   1      43.939  31.186  31.407  1.00  0.00     0.037 A 
ATOM     45  C   UNL A   1      43.134  25.072  28.109  1.00  0.00     0.037 A 
ATOM     46  C   UNL A   1      45.104  30.340  31.403  1.00  0.00     0.049 A 
ATOM     47  C   UNL A   1      44.451  25.482  28.711  1.00  0.00     0.074 A 
ATOM     48  C   UNL A   1      46.340  30.572  31.981  1.00  0.00     0.029 A 
ATOM     49  N   UNL A   1      45.176  29.099  30.790  1.00  0.00    -0.354 N 
ATOM     50  N   UNL A   1      44.751  26.563  29.388  1.00  0.00    -0.248 NA
ATOM     51  C   UNL A   1      45.576  24.552  28.537  1.00  0.00     0.031 C 
ATOM     52  C   UNL A   1      47.173  29.489  31.682  1.00  0.00     0.029 A 
ATOM     53  C   UNL A   1      46.442  28.562  30.958  1.00  0.00     0.049 A 
ATOM     54  H   UNL A   1      44.437  28.662  30.306  1.00  0.00     0.167 HD
ATOM     55  C   UNL A   1      46.085  26.428  29.750  1.00  0.00     0.074 A 
ATOM     56  C   UNL A   1      46.534  25.155  29.227  1.00  0.00     0.031 C 
ATOM     57  C   UNL A   1      46.868  27.283  30.453  1.00  0.00     0.037 A 
BRANCH  44  58
ATOM     58  C   UNL A   1      44.059  32.540  32.042  1.00  0.00     0.064 A 
ATOM     59  C   UNL A   1      43.774  32.745  33.400  1.00  0.00     0.173 A 
ATOM     60  C   UNL A   1      44.523  33.634  31.297  1.00  0.00     0.173 A 
ATOM     61  F   UNL A   1      43.318  31.733  34.154  1.00  0.00    -0.203 F 
ATOM     62  C   UNL A   1      43.929  34.001  33.982  1.00  0.00     0.198 A 
ATOM     63  C   UNL A   1      44.703  34.881  31.889  1.00  0.00     0.198 A 
ATOM     64  F   UNL A   1      44.816  33.490  29.995  1.00  0.00    -0.203 F 
ATOM     65  F   UNL A   1      43.615  34.182  35.273  1.00  0.00    -0.200 F 
ATOM     66  C   UNL A   1      44.401  35.064  33.230  1.00  0.00     0.200 A 
ATOM     67  F   UNL A   1      45.173  35.906  31.162  1.00  0.00    -0.200 F 
ATOM     68  F   UNL A   1      44.563  36.269  33.795  1.00  0.00    -0.200 F 
ENDBRANCH  44  58
BRANCH  45  69
ATOM     69  C   UNL A   1      43.003  23.773  27.397  1.00  0.00     0.064 A 
ATOM     70  C   UNL A   1      43.339  23.665  26.040  1.00  0.00     0.173 A 
ATOM     71  C   UNL A   1      42.516  22.629  28.042  1.00  0.00     0.173 A 
ATOM     72  F   UNL A   1      43.787  24.739  25.374  1.00  0.00    -0.203 F 
ATOM     73  C   UNL A   1      43.169  22.468  25.349  1.00  0.00     0.198 A 
ATOM     74  C   UNL A   1      42.373  21.423  27.358  1.00  0.00     0.198 A 
ATOM     75  F   UNL A   1      42.183  22.679  29.341  1.00  0.00    -0.203 F 
ATOM     76  F   UNL A   1      43.447  22.406  24.041  1.00  0.00    -0.200 F 
ATOM     77  C   UNL A   1      42.689  21.347  26.010  1.00  0.00     0.200 A 
ATOM     78  F   UNL A   1      41.920  20.339  28.002  1.00  0.00    -0.200 F 
ATOM     79  F   UNL A   1      42.522  20.196  25.344  1.00  0.00    -0.200 F 
ENDBRANCH  45  69
BRANCH  57  80
ATOM     80  C   UNL A   1      48.272  26.847  30.745  1.00  0.00     0.064 A 
ATOM     81  C   UNL A   1      49.345  27.210  29.918  1.00  0.00     0.173 A 
ATOM     82  C   UNL A   1      48.552  26.086  31.890  1.00  0.00     0.173 A 
ATOM     83  F   UNL A   1      49.125  27.924  28.803  1.00  0.00    -0.203 F 
ATOM     84  C   UNL A   1      50.644  26.805  30.214  1.00  0.00     0.198 A 
ATOM     85  C   UNL A   1      49.856  25.707  32.198  1.00  0.00     0.198 A 
ATOM     86  F   UNL A   1      47.562  25.718  32.717  1.00  0.00    -0.203 F 
ATOM     87  F   UNL A   1      51.647  27.123  29.384  1.00  0.00    -0.200 F 
ATOM     88  C   UNL A   1      50.899  26.060  31.355  1.00  0.00     0.200 A 
ATOM     89  F   UNL A   1      50.102  24.999  33.309  1.00  0.00    -0.200 F 
ATOM     90  F   UNL A   1      52.151  25.676  31.642  1.00  0.00    -0.200 F 
ENDBRANCH  57  80
ENDBRANCH  31  32
ENDBRANCH  23  26
ENDBRANCH  21  22
ENDBRANCH  20  21
ENDBRANCH   1  20
TORSDOF 14
ENDMDL
