MODEL 1
REMARK VINA RESULT:     -13.2      0.000      0.000
REMARK SMILES O=C(NCCCNC(=O)C1(Cc2ccncc2)Cc2ccccc2C1)c1ccc(-c2c3nc(c(-c4c(F)c(F)c(F)c(F)c4F)c4ccc([nH]4)c(-c4c(F)c(F)c(F)c(F)c4F)c4nc(c(-c5c(F)c(F)c(F)c(F)c5F)c5ccc2[nH]5)C=C4)C=C3)cc1
REMARK SMILES IDX 5 1 4 2 3 3 1 4 2 5 26 7 27 8 88 9 28 10 87 11 29 12 30 13
REMARK SMILES IDX 31 14 81 15 32 16 86 17 80 18 82 19 33 20 85 21 79 22 78 23
REMARK SMILES IDX 34 25 66 26 46 27 65 28 47 29 50 30 64 31 83 32 48 33 49 34
REMARK SMILES IDX 63 36 84 37 51 38 35 39 36 40 44 41 37 42 38 43 42 44 45 45
REMARK SMILES IDX 39 46 40 47 43 48 41 49 67 50 68 51 76 52 69 53 70 54 74 55
REMARK SMILES IDX 77 56 71 57 72 58 75 59 73 60 52 61 53 62 61 63 54 64 55 65
REMARK SMILES IDX 59 66 62 67 56 68 57 69 60 70 58 71 6 72 7 73 8 74 9 76
REMARK SMILES IDX 10 77 18 78 25 79 19 80 24 81 20 82 23 83 21 84 22 85 11 86
REMARK SMILES IDX 12 87 13 88 17 89 14 90 16 91 15 92
REMARK H PARENT 3 6 82 24 50 35 7 75
REMARK Flexibility Score: inf
ROOT
ATOM      1  C   UNL A   1      33.471  28.996  23.490  1.00  0.00     0.042 C 
ENDROOT
BRANCH   1   2
ATOM      2  C   UNL A   1      33.646  29.022  24.998  1.00  0.00     0.118 C 
BRANCH   2   3
ATOM      3  N   UNL A   1      32.926  30.124  25.640  1.00  0.00    -0.352 N 
ATOM      4  O   UNL A   1      32.350  31.614  27.234  1.00  0.00    -0.269 OA
ATOM      5  C   UNL A   1      33.196  30.850  26.779  1.00  0.00     0.251 C 
ATOM      6  H   UNL A   1      32.102  30.394  25.176  1.00  0.00     0.163 HD
BRANCH   5   7
ATOM      7  C   UNL A   1      34.497  30.704  27.459  1.00  0.00     0.039 A 
ATOM      8  C   UNL A   1      34.877  29.462  27.950  1.00  0.00     0.014 A 
ATOM      9  C   UNL A   1      35.358  31.798  27.602  1.00  0.00     0.014 A 
ATOM     10  C   UNL A   1      35.965  29.360  28.794  1.00  0.00     0.010 A 
ATOM     11  C   UNL A   1      36.559  31.651  28.307  1.00  0.00     0.010 A 
ATOM     12  C   UNL A   1      36.853  30.436  28.944  1.00  0.00    -0.014 A 
BRANCH  12  13
ATOM     13  C   UNL A   1      38.106  30.182  29.699  1.00  0.00     0.031 A 
ATOM     14  C   UNL A   1      38.284  30.647  31.115  1.00  0.00     0.074 A 
ATOM     15  C   UNL A   1      39.041  29.405  29.111  1.00  0.00     0.049 A 
ATOM     16  N   UNL A   1      39.276  30.405  31.936  1.00  0.00    -0.248 NA
ATOM     17  C   UNL A   1      37.231  31.499  31.685  1.00  0.00     0.031 C 
ATOM     18  C   UNL A   1      38.970  28.911  27.730  1.00  0.00     0.029 A 
ATOM     19  N   UNL A   1      40.186  28.836  29.602  1.00  0.00    -0.354 N 
ATOM     20  C   UNL A   1      38.981  31.093  33.106  1.00  0.00     0.074 A 
ATOM     21  C   UNL A   1      37.724  31.776  32.886  1.00  0.00     0.031 C 
ATOM     22  C   UNL A   1      39.955  28.030  27.524  1.00  0.00     0.029 A 
ATOM     23  C   UNL A   1      40.789  27.976  28.716  1.00  0.00     0.049 A 
ATOM     24  H   UNL A   1      40.542  29.025  30.500  1.00  0.00     0.167 HD
ATOM     25  C   UNL A   1      39.699  31.142  34.253  1.00  0.00     0.037 A 
ATOM     26  C   UNL A   1      41.903  27.233  28.840  1.00  0.00     0.037 A 
ATOM     27  C   UNL A   1      40.937  30.436  34.465  1.00  0.00     0.049 A 
ATOM     28  C   UNL A   1      42.668  27.307  30.127  1.00  0.00     0.074 A 
ATOM     29  C   UNL A   1      41.739  30.416  35.593  1.00  0.00     0.029 A 
ATOM     30  N   UNL A   1      41.551  29.619  33.525  1.00  0.00    -0.354 N 
ATOM     31  N   UNL A   1      42.378  27.967  31.222  1.00  0.00    -0.248 NA
ATOM     32  C   UNL A   1      43.924  26.551  30.190  1.00  0.00     0.031 C 
ATOM     33  C   UNL A   1      42.856  29.617  35.324  1.00  0.00     0.029 A 
ATOM     34  C   UNL A   1      42.729  29.102  34.043  1.00  0.00     0.049 A 
ATOM     35  H   UNL A   1      41.202  29.434  32.624  1.00  0.00     0.167 HD
ATOM     36  C   UNL A   1      43.416  27.714  32.102  1.00  0.00     0.074 A 
ATOM     37  C   UNL A   1      44.321  26.802  31.430  1.00  0.00     0.031 C 
ATOM     38  C   UNL A   1      43.616  28.205  33.349  1.00  0.00     0.037 A 
BRANCH  25  39
ATOM     39  C   UNL A   1      39.181  32.002  35.369  1.00  0.00     0.064 A 
ATOM     40  C   UNL A   1      38.399  31.474  36.408  1.00  0.00     0.173 A 
ATOM     41  C   UNL A   1      39.526  33.361  35.437  1.00  0.00     0.173 A 
ATOM     42  F   UNL A   1      38.031  30.184  36.385  1.00  0.00    -0.203 F 
ATOM     43  C   UNL A   1      37.977  32.275  37.466  1.00  0.00     0.198 A 
ATOM     44  C   UNL A   1      39.122  34.154  36.507  1.00  0.00     0.198 A 
ATOM     45  F   UNL A   1      40.274  33.916  34.471  1.00  0.00    -0.203 F 
ATOM     46  F   UNL A   1      37.207  31.755  38.433  1.00  0.00    -0.200 F 
ATOM     47  C   UNL A   1      38.345  33.612  37.520  1.00  0.00     0.200 A 
ATOM     48  F   UNL A   1      39.489  35.442  36.563  1.00  0.00    -0.200 F 
ATOM     49  F   UNL A   1      37.949  34.377  38.546  1.00  0.00    -0.200 F 
ENDBRANCH  25  39
BRANCH  26  50
ATOM     50  C   UNL A   1      42.370  26.395  27.704  1.00  0.00     0.064 A 
ATOM     51  C   UNL A   1      41.857  25.110  27.488  1.00  0.00     0.173 A 
ATOM     52  C   UNL A   1      43.335  26.871  26.802  1.00  0.00     0.173 A 
ATOM     53  F   UNL A   1      40.946  24.601  28.332  1.00  0.00    -0.203 F 
ATOM     54  C   UNL A   1      42.302  24.327  26.424  1.00  0.00     0.198 A 
ATOM     55  C   UNL A   1      43.750  26.104  25.717  1.00  0.00     0.198 A 
ATOM     56  F   UNL A   1      43.855  28.097  26.960  1.00  0.00    -0.203 F 
ATOM     57  F   UNL A   1      41.829  23.084  26.266  1.00  0.00    -0.200 F 
ATOM     58  C   UNL A   1      43.240  24.829  25.534  1.00  0.00     0.200 A 
ATOM     59  F   UNL A   1      44.641  26.603  24.850  1.00  0.00    -0.200 F 
ATOM     60  F   UNL A   1      43.659  24.080  24.505  1.00  0.00    -0.200 F 
ENDBRANCH  26  50
BRANCH  38  61
ATOM     61  C   UNL A   1      44.859  27.755  34.053  1.00  0.00     0.064 A 
ATOM     62  C   UNL A   1      46.055  28.483  33.959  1.00  0.00     0.173 A 
ATOM     63  C   UNL A   1      44.856  26.586  34.826  1.00  0.00     0.173 A 
ATOM     64  F   UNL A   1      46.110  29.597  33.214  1.00  0.00    -0.203 F 
ATOM     65  C   UNL A   1      47.213  28.036  34.586  1.00  0.00     0.198 A 
ATOM     66  C   UNL A   1      46.010  26.158  35.476  1.00  0.00     0.198 A 
ATOM     67  F   UNL A   1      43.737  25.858  34.949  1.00  0.00    -0.203 F 
ATOM     68  F   UNL A   1      48.360  28.714  34.435  1.00  0.00    -0.200 F 
ATOM     69  C   UNL A   1      47.189  26.876  35.348  1.00  0.00     0.200 A 
ATOM     70  F   UNL A   1      45.983  25.041  36.218  1.00  0.00    -0.200 F 
ATOM     71  F   UNL A   1      48.306  26.445  35.948  1.00  0.00    -0.200 F 
ENDBRANCH  38  61
ENDBRANCH  12  13
ENDBRANCH   5   7
ENDBRANCH   2   3
ENDBRANCH   1   2
BRANCH   1  72
ATOM     72  C   UNL A   1      32.548  27.881  23.055  1.00  0.00     0.117 C 
BRANCH  72  73
ATOM     73  N   UNL A   1      33.030  27.127  21.915  1.00  0.00    -0.356 N 
ATOM     74  C   UNL A   1      33.102  25.783  21.717  1.00  0.00     0.227 C 
ATOM     75  H   UNL A   1      33.357  27.674  21.166  1.00  0.00     0.163 HD
ATOM     76  O   UNL A   1      33.235  25.421  20.543  1.00  0.00    -0.274 OA
BRANCH  74  77
ATOM     77  C   UNL A   1      32.999  24.768  22.863  1.00  0.00     0.061 C 
ATOM     78  C   UNL A   1      33.859  23.514  22.444  1.00  0.00     0.053 C 
ATOM     79  C   UNL A   1      33.718  25.269  24.149  1.00  0.00     0.053 C 
ATOM     80  C   UNL A   1      34.398  23.026  23.753  1.00  0.00    -0.044 A 
ATOM     81  C   UNL A   1      34.335  24.032  24.714  1.00  0.00    -0.044 A 
ATOM     82  C   UNL A   1      34.957  21.795  24.046  1.00  0.00     0.004 A 
ATOM     83  C   UNL A   1      34.841  23.843  25.988  1.00  0.00     0.004 A 
ATOM     84  C   UNL A   1      35.451  21.583  25.335  1.00  0.00     0.000 A 
ATOM     85  C   UNL A   1      35.399  22.602  26.298  1.00  0.00     0.000 A 
BRANCH  77  86
ATOM     86  C   UNL A   1      31.532  24.260  23.049  1.00  0.00     0.053 C 
BRANCH  86  87
ATOM     87  C   UNL A   1      30.932  24.187  24.433  1.00  0.00    -0.044 A 
ATOM     88  C   UNL A   1      30.346  25.311  25.026  1.00  0.00     0.024 A 
ATOM     89  C   UNL A   1      30.951  22.995  25.165  1.00  0.00     0.024 A 
ATOM     90  C   UNL A   1      29.889  25.217  26.335  1.00  0.00     0.111 A 
ATOM     91  C   UNL A   1      30.473  22.999  26.467  1.00  0.00     0.111 A 
ATOM     92  N   UNL A   1      29.962  24.090  27.073  1.00  0.00    -0.265 NA
ENDBRANCH  86  87
ENDBRANCH  77  86
ENDBRANCH  74  77
ENDBRANCH  72  73
ENDBRANCH   1  72
TORSDOF 12
ENDMDL
MODEL 2
REMARK VINA RESULT:     -13.2      0.152      1.684
REMARK SMILES O=C(NCCCNC(=O)C1(Cc2ccncc2)Cc2ccccc2C1)c1ccc(-c2c3nc(c(-c4c(F)c(F)c(F)c(F)c4F)c4ccc([nH]4)c(-c4c(F)c(F)c(F)c(F)c4F)c4nc(c(-c5c(F)c(F)c(F)c(F)c5F)c5ccc2[nH]5)C=C4)C=C3)cc1
REMARK SMILES IDX 5 1 4 2 3 3 1 4 2 5 26 7 27 8 88 9 28 10 87 11 29 12 30 13
REMARK SMILES IDX 31 14 81 15 32 16 86 17 80 18 82 19 33 20 85 21 79 22 78 23
REMARK SMILES IDX 34 25 66 26 46 27 65 28 47 29 50 30 64 31 83 32 48 33 49 34
REMARK SMILES IDX 63 36 84 37 51 38 35 39 36 40 44 41 37 42 38 43 42 44 45 45
REMARK SMILES IDX 39 46 40 47 43 48 41 49 67 50 68 51 76 52 69 53 70 54 74 55
REMARK SMILES IDX 77 56 71 57 72 58 75 59 73 60 52 61 53 62 61 63 54 64 55 65
REMARK SMILES IDX 59 66 62 67 56 68 57 69 60 70 58 71 6 72 7 73 8 74 9 76
REMARK SMILES IDX 10 77 18 78 25 79 19 80 24 81 20 82 23 83 21 84 22 85 11 86
REMARK SMILES IDX 12 87 13 88 17 89 14 90 16 91 15 92
REMARK H PARENT 3 6 82 24 50 35 7 75
REMARK Flexibility Score: inf
ROOT
ATOM      1  C   UNL A   1      33.520  28.973  23.532  1.00  0.00     0.042 C 
ENDROOT
BRANCH   1   2
ATOM      2  C   UNL A   1      33.617  28.980  25.047  1.00  0.00     0.118 C 
BRANCH   2   3
ATOM      3  N   UNL A   1      32.906  30.103  25.663  1.00  0.00    -0.352 N 
ATOM      4  O   UNL A   1      32.343  31.635  27.220  1.00  0.00    -0.269 OA
ATOM      5  C   UNL A   1      33.183  30.854  26.783  1.00  0.00     0.251 C 
ATOM      6  H   UNL A   1      32.084  30.368  25.192  1.00  0.00     0.163 HD
BRANCH   5   7
ATOM      7  C   UNL A   1      34.483  30.714  27.466  1.00  0.00     0.039 A 
ATOM      8  C   UNL A   1      34.877  29.470  27.940  1.00  0.00     0.014 A 
ATOM      9  C   UNL A   1      35.329  31.817  27.629  1.00  0.00     0.014 A 
ATOM     10  C   UNL A   1      35.963  29.369  28.786  1.00  0.00     0.010 A 
ATOM     11  C   UNL A   1      36.530  31.674  28.337  1.00  0.00     0.010 A 
ATOM     12  C   UNL A   1      36.837  30.454  28.956  1.00  0.00    -0.014 A 
BRANCH  12  13
ATOM     13  C   UNL A   1      38.090  30.204  29.713  1.00  0.00     0.031 A 
ATOM     14  C   UNL A   1      38.260  30.656  31.133  1.00  0.00     0.074 A 
ATOM     15  C   UNL A   1      39.034  29.442  29.119  1.00  0.00     0.049 A 
ATOM     16  N   UNL A   1      39.252  30.415  31.955  1.00  0.00    -0.248 NA
ATOM     17  C   UNL A   1      37.197  31.492  31.709  1.00  0.00     0.031 C 
ATOM     18  C   UNL A   1      38.972  28.961  27.733  1.00  0.00     0.029 A 
ATOM     19  N   UNL A   1      40.183  28.879  29.607  1.00  0.00    -0.354 N 
ATOM     20  C   UNL A   1      38.947  31.089  33.130  1.00  0.00     0.074 A 
ATOM     21  C   UNL A   1      37.683  31.762  32.914  1.00  0.00     0.031 C 
ATOM     22  C   UNL A   1      39.965  28.091  27.521  1.00  0.00     0.029 A 
ATOM     23  C   UNL A   1      40.797  28.033  28.714  1.00  0.00     0.049 A 
ATOM     24  H   UNL A   1      40.535  29.062  30.508  1.00  0.00     0.167 HD
ATOM     25  C   UNL A   1      39.661  31.133  34.280  1.00  0.00     0.037 A 
ATOM     26  C   UNL A   1      41.918  27.300  28.834  1.00  0.00     0.037 A 
ATOM     27  C   UNL A   1      40.906  30.437  34.488  1.00  0.00     0.049 A 
ATOM     28  C   UNL A   1      42.678  27.368  30.124  1.00  0.00     0.074 A 
ATOM     29  C   UNL A   1      41.704  30.413  35.618  1.00  0.00     0.029 A 
ATOM     30  N   UNL A   1      41.530  29.635  33.542  1.00  0.00    -0.354 N 
ATOM     31  N   UNL A   1      42.379  28.014  31.225  1.00  0.00    -0.248 NA
ATOM     32  C   UNL A   1      43.941  26.624  30.183  1.00  0.00     0.031 C 
ATOM     33  C   UNL A   1      42.830  29.627  35.345  1.00  0.00     0.029 A 
ATOM     34  C   UNL A   1      42.711  29.124  34.058  1.00  0.00     0.049 A 
ATOM     35  H   UNL A   1      41.185  29.456  32.638  1.00  0.00     0.167 HD
ATOM     36  C   UNL A   1      43.417  27.762  32.105  1.00  0.00     0.074 A 
ATOM     37  C   UNL A   1      44.332  26.866  31.426  1.00  0.00     0.031 C 
ATOM     38  C   UNL A   1      43.608  28.243  33.358  1.00  0.00     0.037 A 
BRANCH  25  39
ATOM     39  C   UNL A   1      39.131  31.977  35.403  1.00  0.00     0.064 A 
ATOM     40  C   UNL A   1      38.358  31.429  36.438  1.00  0.00     0.173 A 
ATOM     41  C   UNL A   1      39.459  33.339  35.482  1.00  0.00     0.173 A 
ATOM     42  F   UNL A   1      38.006  30.135  36.404  1.00  0.00    -0.203 F 
ATOM     43  C   UNL A   1      37.925  32.216  37.502  1.00  0.00     0.198 A 
ATOM     44  C   UNL A   1      39.044  34.118  36.559  1.00  0.00     0.198 A 
ATOM     45  F   UNL A   1      40.198  33.913  34.521  1.00  0.00    -0.203 F 
ATOM     46  F   UNL A   1      37.162  31.678  38.465  1.00  0.00    -0.200 F 
ATOM     47  C   UNL A   1      38.275  33.557  37.567  1.00  0.00     0.200 A 
ATOM     48  F   UNL A   1      39.393  35.411  36.625  1.00  0.00    -0.200 F 
ATOM     49  F   UNL A   1      37.869  34.309  38.600  1.00  0.00    -0.200 F 
ENDBRANCH  25  39
BRANCH  26  50
ATOM     50  C   UNL A   1      42.396  26.478  27.692  1.00  0.00     0.064 A 
ATOM     51  C   UNL A   1      43.361  26.962  26.800  1.00  0.00     0.173 A 
ATOM     52  C   UNL A   1      41.902  25.181  27.476  1.00  0.00     0.173 A 
ATOM     53  F   UNL A   1      43.852  28.201  26.951  1.00  0.00    -0.203 F 
ATOM     54  C   UNL A   1      43.802  26.188  25.727  1.00  0.00     0.198 A 
ATOM     55  C   UNL A   1      42.371  24.395  26.427  1.00  0.00     0.198 A 
ATOM     56  F   UNL A   1      40.981  24.667  28.304  1.00  0.00    -0.203 F 
ATOM     57  F   UNL A   1      44.692  26.692  24.862  1.00  0.00    -0.200 F 
ATOM     58  C   UNL A   1      43.314  24.903  25.548  1.00  0.00     0.200 A 
ATOM     59  F   UNL A   1      41.911  23.146  26.273  1.00  0.00    -0.200 F 
ATOM     60  F   UNL A   1      43.747  24.155  24.523  1.00  0.00    -0.200 F 
ENDBRANCH  26  50
BRANCH  38  61
ATOM     61  C   UNL A   1      44.853  27.798  34.061  1.00  0.00     0.064 A 
ATOM     62  C   UNL A   1      44.877  26.626  34.832  1.00  0.00     0.173 A 
ATOM     63  C   UNL A   1      46.033  28.549  33.965  1.00  0.00     0.173 A 
ATOM     64  F   UNL A   1      43.766  25.885  34.969  1.00  0.00    -0.203 F 
ATOM     65  C   UNL A   1      46.028  26.241  35.511  1.00  0.00     0.198 A 
ATOM     66  C   UNL A   1      47.191  28.145  34.622  1.00  0.00     0.198 A 
ATOM     67  F   UNL A   1      46.061  29.675  33.237  1.00  0.00    -0.203 F 
ATOM     68  F   UNL A   1      46.012  25.150  36.290  1.00  0.00    -0.200 F 
ATOM     69  C   UNL A   1      47.186  26.998  35.402  1.00  0.00     0.200 A 
ATOM     70  F   UNL A   1      48.311  28.873  34.509  1.00  0.00    -0.200 F 
ATOM     71  F   UNL A   1      48.293  26.629  36.059  1.00  0.00    -0.200 F 
ENDBRANCH  38  61
ENDBRANCH  12  13
ENDBRANCH   5   7
ENDBRANCH   2   3
ENDBRANCH   1   2
BRANCH   1  72
ATOM     72  C   UNL A   1      32.527  27.946  23.041  1.00  0.00     0.117 C 
BRANCH  72  73
ATOM     73  N   UNL A   1      32.970  27.207  21.875  1.00  0.00    -0.356 N 
ATOM     74  C   UNL A   1      33.085  25.866  21.676  1.00  0.00     0.227 C 
ATOM     75  H   UNL A   1      33.229  27.763  21.106  1.00  0.00     0.163 HD
ATOM     76  O   UNL A   1      33.162  25.504  20.497  1.00  0.00    -0.274 OA
BRANCH  74  77
ATOM     77  C   UNL A   1      33.094  24.854  22.829  1.00  0.00     0.061 C 
ATOM     78  C   UNL A   1      34.032  23.664  22.388  1.00  0.00     0.053 C 
ATOM     79  C   UNL A   1      33.812  25.414  24.089  1.00  0.00     0.053 C 
ATOM     80  C   UNL A   1      34.645  23.226  23.681  1.00  0.00    -0.044 A 
ATOM     81  C   UNL A   1      34.537  24.230  24.640  1.00  0.00    -0.044 A 
ATOM     82  C   UNL A   1      35.303  22.042  23.961  1.00  0.00     0.004 A 
ATOM     83  C   UNL A   1      35.095  24.087  25.899  1.00  0.00     0.004 A 
ATOM     84  C   UNL A   1      35.852  21.875  25.235  1.00  0.00     0.000 A 
ATOM     85  C   UNL A   1      35.753  22.893  26.196  1.00  0.00     0.000 A 
BRANCH  77  86
ATOM     86  C   UNL A   1      31.675  24.239  23.063  1.00  0.00     0.053 C 
BRANCH  86  87
ATOM     87  C   UNL A   1      31.050  24.293  24.436  1.00  0.00    -0.044 A 
ATOM     88  C   UNL A   1      31.085  23.184  25.289  1.00  0.00     0.024 A 
ATOM     89  C   UNL A   1      30.413  25.451  24.893  1.00  0.00     0.024 A 
ATOM     90  C   UNL A   1      30.419  23.253  26.506  1.00  0.00     0.111 A 
ATOM     91  C   UNL A   1      29.773  25.423  26.123  1.00  0.00     0.111 A 
ATOM     92  N   UNL A   1      29.745  24.342  26.929  1.00  0.00    -0.265 NA
ENDBRANCH  86  87
ENDBRANCH  77  86
ENDBRANCH  74  77
ENDBRANCH  72  73
ENDBRANCH   1  72
TORSDOF 12
ENDMDL
MODEL 3
REMARK VINA RESULT:     -13.0      1.221      1.629
REMARK SMILES O=C(NCCCNC(=O)C1(Cc2ccncc2)Cc2ccccc2C1)c1ccc(-c2c3nc(c(-c4c(F)c(F)c(F)c(F)c4F)c4ccc([nH]4)c(-c4c(F)c(F)c(F)c(F)c4F)c4nc(c(-c5c(F)c(F)c(F)c(F)c5F)c5ccc2[nH]5)C=C4)C=C3)cc1
REMARK SMILES IDX 5 1 4 2 3 3 1 4 2 5 26 7 27 8 88 9 28 10 87 11 29 12 30 13
REMARK SMILES IDX 31 14 81 15 32 16 86 17 80 18 82 19 33 20 85 21 79 22 78 23
REMARK SMILES IDX 34 25 66 26 46 27 65 28 47 29 50 30 64 31 83 32 48 33 49 34
REMARK SMILES IDX 63 36 84 37 51 38 35 39 36 40 44 41 37 42 38 43 42 44 45 45
REMARK SMILES IDX 39 46 40 47 43 48 41 49 67 50 68 51 76 52 69 53 70 54 74 55
REMARK SMILES IDX 77 56 71 57 72 58 75 59 73 60 52 61 53 62 61 63 54 64 55 65
REMARK SMILES IDX 59 66 62 67 56 68 57 69 60 70 58 71 6 72 7 73 8 74 9 76
REMARK SMILES IDX 10 77 18 78 25 79 19 80 24 81 20 82 23 83 21 84 22 85 11 86
REMARK SMILES IDX 12 87 13 88 17 89 14 90 16 91 15 92
REMARK H PARENT 3 6 82 24 50 35 7 75
REMARK Flexibility Score: inf
ROOT
ATOM      1  C   UNL A   1      32.744  28.184  24.103  1.00  0.00     0.042 C 
ENDROOT
BRANCH   1   2
ATOM      2  C   UNL A   1      33.603  28.931  25.108  1.00  0.00     0.118 C 
BRANCH   2   3
ATOM      3  N   UNL A   1      32.924  30.088  25.696  1.00  0.00    -0.352 N 
ATOM      4  O   UNL A   1      32.407  31.676  27.213  1.00  0.00    -0.269 OA
ATOM      5  C   UNL A   1      33.225  30.863  26.793  1.00  0.00     0.251 C 
ATOM      6  H   UNL A   1      32.105  30.360  25.222  1.00  0.00     0.163 HD
BRANCH   5   7
ATOM      7  C   UNL A   1      34.525  30.710  27.473  1.00  0.00     0.039 A 
ATOM      8  C   UNL A   1      34.907  29.462  27.948  1.00  0.00     0.014 A 
ATOM      9  C   UNL A   1      35.384  31.804  27.631  1.00  0.00     0.014 A 
ATOM     10  C   UNL A   1      35.995  29.351  28.792  1.00  0.00     0.010 A 
ATOM     11  C   UNL A   1      36.585  31.649  28.336  1.00  0.00     0.010 A 
ATOM     12  C   UNL A   1      36.881  30.427  28.957  1.00  0.00    -0.014 A 
BRANCH  12  13
ATOM     13  C   UNL A   1      38.133  30.165  29.710  1.00  0.00     0.031 A 
ATOM     14  C   UNL A   1      38.318  30.631  31.124  1.00  0.00     0.074 A 
ATOM     15  C   UNL A   1      39.061  29.380  29.121  1.00  0.00     0.049 A 
ATOM     16  N   UNL A   1      39.309  30.384  31.944  1.00  0.00    -0.248 NA
ATOM     17  C   UNL A   1      37.272  31.492  31.696  1.00  0.00     0.031 C 
ATOM     18  C   UNL A   1      38.984  28.885  27.742  1.00  0.00     0.029 A 
ATOM     19  N   UNL A   1      40.203  28.804  29.611  1.00  0.00    -0.354 N 
ATOM     20  C   UNL A   1      39.021  31.076  33.113  1.00  0.00     0.074 A 
ATOM     21  C   UNL A   1      37.769  31.768  32.895  1.00  0.00     0.031 C 
ATOM     22  C   UNL A   1      39.962  27.995  27.535  1.00  0.00     0.029 A 
ATOM     23  C   UNL A   1      40.798  27.937  28.726  1.00  0.00     0.049 A 
ATOM     24  H   UNL A   1      40.562  28.992  30.508  1.00  0.00     0.167 HD
ATOM     25  C   UNL A   1      39.742  31.122  34.259  1.00  0.00     0.037 A 
ATOM     26  C   UNL A   1      41.907  27.187  28.849  1.00  0.00     0.037 A 
ATOM     27  C   UNL A   1      40.976  30.407  34.469  1.00  0.00     0.049 A 
ATOM     28  C   UNL A   1      42.675  27.257  30.134  1.00  0.00     0.074 A 
ATOM     29  C   UNL A   1      41.780  30.383  35.596  1.00  0.00     0.029 A 
ATOM     30  N   UNL A   1      41.582  29.584  33.530  1.00  0.00    -0.354 N 
ATOM     31  N   UNL A   1      42.392  27.922  31.228  1.00  0.00    -0.248 NA
ATOM     32  C   UNL A   1      43.926  26.493  30.196  1.00  0.00     0.031 C 
ATOM     33  C   UNL A   1      42.890  29.576  35.326  1.00  0.00     0.029 A 
ATOM     34  C   UNL A   1      42.757  29.060  34.047  1.00  0.00     0.049 A 
ATOM     35  H   UNL A   1      41.230  29.400  32.630  1.00  0.00     0.167 HD
ATOM     36  C   UNL A   1      43.430  27.663  32.107  1.00  0.00     0.074 A 
ATOM     37  C   UNL A   1      44.327  26.744  31.434  1.00  0.00     0.031 C 
ATOM     38  C   UNL A   1      43.635  28.155  33.353  1.00  0.00     0.037 A 
BRANCH  25  39
ATOM     39  C   UNL A   1      39.232  31.988  35.375  1.00  0.00     0.064 A 
ATOM     40  C   UNL A   1      38.451  31.466  36.417  1.00  0.00     0.173 A 
ATOM     41  C   UNL A   1      39.586  33.345  35.438  1.00  0.00     0.173 A 
ATOM     42  F   UNL A   1      38.074  30.179  36.398  1.00  0.00    -0.203 F 
ATOM     43  C   UNL A   1      38.037  32.273  37.474  1.00  0.00     0.198 A 
ATOM     44  C   UNL A   1      39.190  34.142  36.508  1.00  0.00     0.198 A 
ATOM     45  F   UNL A   1      40.334  33.893  34.469  1.00  0.00    -0.203 F 
ATOM     46  F   UNL A   1      37.266  31.760  38.445  1.00  0.00    -0.200 F 
ATOM     47  C   UNL A   1      38.413  33.607  37.523  1.00  0.00     0.200 A 
ATOM     48  F   UNL A   1      39.564  35.429  36.559  1.00  0.00    -0.200 F 
ATOM     49  F   UNL A   1      38.025  34.378  38.549  1.00  0.00    -0.200 F 
ENDBRANCH  25  39
BRANCH  26  50
ATOM     50  C   UNL A   1      42.366  26.344  27.714  1.00  0.00     0.064 A 
ATOM     51  C   UNL A   1      41.829  25.069  27.490  1.00  0.00     0.173 A 
ATOM     52  C   UNL A   1      43.345  26.804  26.819  1.00  0.00     0.173 A 
ATOM     53  F   UNL A   1      40.902  24.576  28.325  1.00  0.00    -0.203 F 
ATOM     54  C   UNL A   1      42.266  24.281  26.426  1.00  0.00     0.198 A 
ATOM     55  C   UNL A   1      43.754  26.032  25.735  1.00  0.00     0.198 A 
ATOM     56  F   UNL A   1      43.888  28.019  26.985  1.00  0.00    -0.203 F 
ATOM     57  F   UNL A   1      41.770  23.048  26.261  1.00  0.00    -0.200 F 
ATOM     58  C   UNL A   1      43.220  24.767  25.545  1.00  0.00     0.200 A 
ATOM     59  F   UNL A   1      44.660  26.516  24.876  1.00  0.00    -0.200 F 
ATOM     60  F   UNL A   1      43.632  24.014  24.516  1.00  0.00    -0.200 F 
ENDBRANCH  26  50
BRANCH  38  61
ATOM     61  C   UNL A   1      44.877  27.697  34.055  1.00  0.00     0.064 A 
ATOM     62  C   UNL A   1      46.081  28.410  33.948  1.00  0.00     0.173 A 
ATOM     63  C   UNL A   1      44.865  26.535  34.839  1.00  0.00     0.173 A 
ATOM     64  F   UNL A   1      46.145  29.517  33.193  1.00  0.00    -0.203 F 
ATOM     65  C   UNL A   1      47.237  27.956  34.574  1.00  0.00     0.198 A 
ATOM     66  C   UNL A   1      46.016  26.100  35.487  1.00  0.00     0.198 A 
ATOM     67  F   UNL A   1      43.737  25.821  34.973  1.00  0.00    -0.203 F 
ATOM     68  F   UNL A   1      48.390  28.620  34.411  1.00  0.00    -0.200 F 
ATOM     69  C   UNL A   1      47.203  26.804  35.347  1.00  0.00     0.200 A 
ATOM     70  F   UNL A   1      45.980  24.991  36.240  1.00  0.00    -0.200 F 
ATOM     71  F   UNL A   1      48.318  26.365  35.945  1.00  0.00    -0.200 F 
ENDBRANCH  38  61
ENDBRANCH  12  13
ENDBRANCH   5   7
ENDBRANCH   2   3
ENDBRANCH   1   2
BRANCH   1  72
ATOM     72  C   UNL A   1      32.849  26.687  24.282  1.00  0.00     0.117 C 
BRANCH  72  73
ATOM     73  N   UNL A   1      33.174  25.969  23.066  1.00  0.00    -0.356 N 
ATOM     74  C   UNL A   1      33.641  24.703  22.890  1.00  0.00     0.227 C 
ATOM     75  H   UNL A   1      33.035  26.478  22.235  1.00  0.00     0.163 HD
ATOM     76  O   UNL A   1      33.510  24.237  21.753  1.00  0.00    -0.274 OA
BRANCH  74  77
ATOM     77  C   UNL A   1      34.267  23.885  24.026  1.00  0.00     0.061 C 
ATOM     78  C   UNL A   1      35.208  22.811  23.354  1.00  0.00     0.053 C 
ATOM     79  C   UNL A   1      35.257  24.731  24.876  1.00  0.00     0.053 C 
ATOM     80  C   UNL A   1      36.318  22.671  24.348  1.00  0.00    -0.044 A 
ATOM     81  C   UNL A   1      36.356  23.773  25.199  1.00  0.00    -0.044 A 
ATOM     82  C   UNL A   1      37.260  21.663  24.447  1.00  0.00     0.004 A 
ATOM     83  C   UNL A   1      37.343  23.907  26.160  1.00  0.00     0.004 A 
ATOM     84  C   UNL A   1      38.248  21.774  25.427  1.00  0.00     0.000 A 
ATOM     85  C   UNL A   1      38.293  22.892  26.275  1.00  0.00     0.000 A 
BRANCH  77  86
ATOM     86  C   UNL A   1      33.182  23.088  24.824  1.00  0.00     0.053 C 
BRANCH  86  87
ATOM     87  C   UNL A   1      32.939  21.631  24.511  1.00  0.00    -0.044 A 
ATOM     88  C   UNL A   1      33.333  20.626  25.402  1.00  0.00     0.024 A 
ATOM     89  C   UNL A   1      32.319  21.244  23.319  1.00  0.00     0.024 A 
ATOM     90  C   UNL A   1      33.168  19.298  25.029  1.00  0.00     0.111 A 
ATOM     91  C   UNL A   1      32.202  19.892  23.032  1.00  0.00     0.111 A 
ATOM     92  N   UNL A   1      32.632  18.912  23.853  1.00  0.00    -0.265 NA
ENDBRANCH  86  87
ENDBRANCH  77  86
ENDBRANCH  74  77
ENDBRANCH  72  73
ENDBRANCH   1  72
TORSDOF 12
ENDMDL
