MODEL 1
REMARK VINA RESULT:     -11.1      0.000      0.000
REMARK SMILES O=C(N[C@H](CCBr)C(=O)NCCCNC(=O)c1ccc(-c2c3nc(c(-c4c(F)c(F)c(F)c(F)c4F)c4ccc([nH]4)c(-c4c(F)c(F)c(F)c(F)c4F)c4nc(c(-c5c(F)c(F)c(F)c(F)c5F)c5ccc2[nH]5)C=C4)C=C3)cc1)OCc1ccccc1
REMARK SMILES IDX 11 1 10 2 8 3 9 4 4 6 3 7 1 8 2 9 80 11 81 12 82 13 83 14
REMARK SMILES IDX 87 15 84 16 86 17 85 18 5 19 6 20 7 21 12 22 13 23 14 24
REMARK SMILES IDX 15 25 16 27 17 28 18 29 79 30 19 31 78 32 20 33 21 34 22 35
REMARK SMILES IDX 72 36 23 37 77 38 71 39 73 40 24 41 76 42 70 43 69 44 25 46
REMARK SMILES IDX 57 47 37 48 56 49 38 50 41 51 55 52 74 53 39 54 40 55 54 57
REMARK SMILES IDX 75 58 42 59 26 60 27 61 35 62 28 63 29 64 33 65 36 66 30 67
REMARK SMILES IDX 31 68 34 69 32 70 58 71 59 72 67 73 60 74 61 75 65 76 68 77
REMARK SMILES IDX 62 78 63 79 66 80 64 81 43 82 44 83 52 84 45 85 46 86 50 87
REMARK SMILES IDX 53 88 47 89 48 90 51 91 49 92
REMARK H PARENT 10 5 3 10 14 26 73 45 41 56
REMARK Flexibility Score: inf
ROOT
ATOM      1  C   UNL A   1      31.529  30.594  26.017  1.00  0.00     0.117 C 
ENDROOT
BRANCH   1   2
ATOM      2  N   UNL A   1      32.771  29.950  26.420  1.00  0.00    -0.354 N 
ATOM      3  C   UNL A   1      33.339  28.765  26.050  1.00  0.00     0.242 C 
ATOM      4  O   UNL A   1      34.397  28.438  26.595  1.00  0.00    -0.273 OA
ATOM      5  H   UNL A   1      33.296  30.461  27.078  1.00  0.00     0.163 HD
BRANCH   3   6
ATOM      6  C   UNL A   1      32.657  27.833  25.035  1.00  0.00     0.175 C 
BRANCH   6   7
ATOM      7  N   UNL A   1      31.797  26.936  25.829  1.00  0.00    -0.310 N 
ATOM      8  O   UNL A   1      29.903  25.812  26.331  1.00  0.00    -0.225 OA
ATOM      9  C   UNL A   1      30.626  26.332  25.498  1.00  0.00     0.408 C 
ATOM     10  H   UNL A   1      32.121  26.746  26.739  1.00  0.00     0.167 HD
BRANCH   9  11
ATOM     11  O   UNL A   1      30.344  26.402  24.180  1.00  0.00    -0.445 OA
BRANCH  11  12
ATOM     12  C   UNL A   1      28.975  26.700  23.889  1.00  0.00     0.270 C 
BRANCH  12  13
ATOM     13  C   UNL A   1      28.899  28.005  23.125  1.00  0.00    -0.011 A 
ATOM     14  C   UNL A   1      30.043  28.580  22.551  1.00  0.00     0.007 A 
ATOM     15  C   UNL A   1      27.701  28.737  23.126  1.00  0.00     0.007 A 
ATOM     16  C   UNL A   1      29.991  29.867  22.011  1.00  0.00     0.000 A 
ATOM     17  C   UNL A   1      27.653  30.024  22.595  1.00  0.00     0.000 A 
ATOM     18  C   UNL A   1      28.799  30.590  22.040  1.00  0.00     0.000 A 
ENDBRANCH  12  13
ENDBRANCH  11  12
ENDBRANCH   9  11
ENDBRANCH   6   7
BRANCH   6  19
ATOM     19  C   UNL A   1      33.645  27.165  24.062  1.00  0.00     0.047 C 
BRANCH  19  20
ATOM     20  C   UNL A   1      33.428  27.428  22.581  1.00  0.00     0.083 C 
ATOM     21  Br  UNL A   1      32.774  25.893  21.602  1.00  0.00    -0.093 Br
ENDBRANCH  19  20
ENDBRANCH   6  19
ENDBRANCH   3   6
ENDBRANCH   1   2
BRANCH   1  22
ATOM     22  C   UNL A   1      31.399  32.032  26.501  1.00  0.00     0.042 C 
BRANCH  22  23
ATOM     23  C   UNL A   1      32.718  32.671  26.892  1.00  0.00     0.118 C 
BRANCH  23  24
ATOM     24  N   UNL A   1      32.528  33.981  27.487  1.00  0.00    -0.352 N 
ATOM     25  C   UNL A   1      33.138  34.529  28.585  1.00  0.00     0.251 C 
ATOM     26  H   UNL A   1      31.868  34.557  27.038  1.00  0.00     0.163 HD
ATOM     27  O   UNL A   1      32.692  35.560  29.079  1.00  0.00    -0.269 OA
BRANCH  25  28
ATOM     28  C   UNL A   1      34.318  33.872  29.187  1.00  0.00     0.039 A 
ATOM     29  C   UNL A   1      34.114  32.832  30.096  1.00  0.00     0.014 A 
ATOM     30  C   UNL A   1      35.617  34.293  28.884  1.00  0.00     0.014 A 
ATOM     31  C   UNL A   1      35.210  32.192  30.674  1.00  0.00     0.010 A 
ATOM     32  C   UNL A   1      36.709  33.595  29.388  1.00  0.00     0.010 A 
ATOM     33  C   UNL A   1      36.517  32.556  30.309  1.00  0.00    -0.014 A 
BRANCH  33  34
ATOM     34  C   UNL A   1      37.693  31.887  30.919  1.00  0.00     0.031 A 
ATOM     35  C   UNL A   1      38.129  32.258  32.310  1.00  0.00     0.074 A 
ATOM     36  C   UNL A   1      38.384  30.973  30.214  1.00  0.00     0.049 A 
ATOM     37  N   UNL A   1      39.138  31.805  33.011  1.00  0.00    -0.248 NA
ATOM     38  C   UNL A   1      37.343  33.297  32.993  1.00  0.00     0.031 C 
ATOM     39  C   UNL A   1      38.082  30.558  28.844  1.00  0.00     0.029 A 
ATOM     40  N   UNL A   1      39.484  30.228  30.553  1.00  0.00    -0.354 N 
ATOM     41  C   UNL A   1      39.110  32.509  34.207  1.00  0.00     0.074 A 
ATOM     42  C   UNL A   1      38.029  33.465  34.112  1.00  0.00     0.031 C 
ATOM     43  C   UNL A   1      38.951  29.606  28.472  1.00  0.00     0.029 A 
ATOM     44  C   UNL A   1      39.893  29.370  29.563  1.00  0.00     0.049 A 
ATOM     45  H   UNL A   1      39.938  30.301  31.424  1.00  0.00     0.167 HD
ATOM     46  C   UNL A   1      39.895  32.353  35.301  1.00  0.00     0.037 A 
ATOM     47  C   UNL A   1      40.913  28.491  29.540  1.00  0.00     0.037 A 
ATOM     48  C   UNL A   1      40.960  31.390  35.396  1.00  0.00     0.049 A 
ATOM     49  C   UNL A   1      41.788  28.351  30.755  1.00  0.00     0.074 A 
ATOM     50  C   UNL A   1      41.785  31.117  36.472  1.00  0.00     0.029 A 
ATOM     51  N   UNL A   1      41.351  30.543  34.367  1.00  0.00    -0.354 N 
ATOM     52  N   UNL A   1      41.713  28.974  31.906  1.00  0.00    -0.248 NA
ATOM     53  C   UNL A   1      42.886  27.380  30.670  1.00  0.00     0.031 C 
ATOM     54  C   UNL A   1      42.708  30.141  36.079  1.00  0.00     0.029 A 
ATOM     55  C   UNL A   1      42.422  29.765  34.776  1.00  0.00     0.049 A 
ATOM     56  H   UNL A   1      40.929  30.502  33.479  1.00  0.00     0.167 HD
ATOM     57  C   UNL A   1      42.731  28.451  32.692  1.00  0.00     0.074 A 
ATOM     58  C   UNL A   1      43.403  27.450  31.888  1.00  0.00     0.031 C 
ATOM     59  C   UNL A   1      43.077  28.769  33.964  1.00  0.00     0.037 A 
BRANCH  46  60
ATOM     60  C   UNL A   1      39.628  33.253  36.474  1.00  0.00     0.064 A 
ATOM     61  C   UNL A   1      40.291  34.483  36.625  1.00  0.00     0.173 A 
ATOM     62  C   UNL A   1      38.702  32.884  37.461  1.00  0.00     0.173 A 
ATOM     63  F   UNL A   1      41.196  34.879  35.717  1.00  0.00    -0.203 F 
ATOM     64  C   UNL A   1      40.069  35.286  37.741  1.00  0.00     0.198 A 
ATOM     65  C   UNL A   1      38.457  33.707  38.558  1.00  0.00     0.198 A 
ATOM     66  F   UNL A   1      38.037  31.724  37.365  1.00  0.00    -0.203 F 
ATOM     67  F   UNL A   1      40.763  36.422  37.896  1.00  0.00    -0.200 F 
ATOM     68  C   UNL A   1      39.149  34.900  38.704  1.00  0.00     0.200 A 
ATOM     69  F   UNL A   1      37.557  33.340  39.480  1.00  0.00    -0.200 F 
ATOM     70  F   UNL A   1      38.936  35.673  39.778  1.00  0.00    -0.200 F 
ENDBRANCH  46  60
BRANCH  47  71
ATOM     71  C   UNL A   1      41.128  27.642  28.340  1.00  0.00     0.064 A 
ATOM     72  C   UNL A   1      41.998  28.052  27.320  1.00  0.00     0.173 A 
ATOM     73  C   UNL A   1      40.490  26.402  28.196  1.00  0.00     0.173 A 
ATOM     74  F   UNL A   1      42.617  29.239  27.405  1.00  0.00    -0.203 F 
ATOM     75  C   UNL A   1      42.209  27.259  26.194  1.00  0.00     0.198 A 
ATOM     76  C   UNL A   1      40.723  25.598  27.082  1.00  0.00     0.198 A 
ATOM     77  F   UNL A   1      39.653  25.962  29.147  1.00  0.00    -0.203 F 
ATOM     78  F   UNL A   1      43.017  27.692  25.216  1.00  0.00    -0.200 F 
ATOM     79  C   UNL A   1      41.578  26.031  26.079  1.00  0.00     0.200 A 
ATOM     80  F   UNL A   1      40.123  24.404  26.981  1.00  0.00    -0.200 F 
ATOM     81  F   UNL A   1      41.789  25.265  25.001  1.00  0.00    -0.200 F 
ENDBRANCH  47  71
BRANCH  59  82
ATOM     82  C   UNL A   1      44.209  28.000  34.580  1.00  0.00     0.064 A 
ATOM     83  C   UNL A   1      45.531  28.465  34.532  1.00  0.00     0.173 A 
ATOM     84  C   UNL A   1      43.961  26.797  35.261  1.00  0.00     0.173 A 
ATOM     85  F   UNL A   1      45.823  29.601  33.879  1.00  0.00    -0.203 F 
ATOM     86  C   UNL A   1      46.568  27.741  35.117  1.00  0.00     0.198 A 
ATOM     87  C   UNL A   1      44.994  26.092  35.873  1.00  0.00     0.198 A 
ATOM     88  F   UNL A   1      42.714  26.312  35.343  1.00  0.00    -0.203 F 
ATOM     89  F   UNL A   1      47.830  28.179  35.013  1.00  0.00    -0.200 F 
ATOM     90  C   UNL A   1      46.297  26.561  35.793  1.00  0.00     0.200 A 
ATOM     91  F   UNL A   1      44.729  24.960  36.537  1.00  0.00    -0.200 F 
ATOM     92  F   UNL A   1      47.294  25.869  36.362  1.00  0.00    -0.200 F 
ENDBRANCH  59  82
ENDBRANCH  33  34
ENDBRANCH  25  28
ENDBRANCH  23  24
ENDBRANCH  22  23
ENDBRANCH   1  22
TORSDOF 16
ENDMDL
MODEL 2
REMARK VINA RESULT:     -11.0      1.658      3.458
REMARK SMILES O=C(N[C@H](CCBr)C(=O)NCCCNC(=O)c1ccc(-c2c3nc(c(-c4c(F)c(F)c(F)c(F)c4F)c4ccc([nH]4)c(-c4c(F)c(F)c(F)c(F)c4F)c4nc(c(-c5c(F)c(F)c(F)c(F)c5F)c5ccc2[nH]5)C=C4)C=C3)cc1)OCc1ccccc1
REMARK SMILES IDX 11 1 10 2 8 3 9 4 4 6 3 7 1 8 2 9 80 11 81 12 82 13 83 14
REMARK SMILES IDX 87 15 84 16 86 17 85 18 5 19 6 20 7 21 12 22 13 23 14 24
REMARK SMILES IDX 15 25 16 27 17 28 18 29 79 30 19 31 78 32 20 33 21 34 22 35
REMARK SMILES IDX 72 36 23 37 77 38 71 39 73 40 24 41 76 42 70 43 69 44 25 46
REMARK SMILES IDX 57 47 37 48 56 49 38 50 41 51 55 52 74 53 39 54 40 55 54 57
REMARK SMILES IDX 75 58 42 59 26 60 27 61 35 62 28 63 29 64 33 65 36 66 30 67
REMARK SMILES IDX 31 68 34 69 32 70 58 71 59 72 67 73 60 74 61 75 65 76 68 77
REMARK SMILES IDX 62 78 63 79 66 80 64 81 43 82 44 83 52 84 45 85 46 86 50 87
REMARK SMILES IDX 53 88 47 89 48 90 51 91 49 92
REMARK H PARENT 10 5 3 10 14 26 73 45 41 56
REMARK Flexibility Score: inf
ROOT
ATOM      1  C   UNL A   1      31.387  30.169  25.505  1.00  0.00     0.117 C 
ENDROOT
BRANCH   1   2
ATOM      2  N   UNL A   1      30.834  30.087  24.161  1.00  0.00    -0.354 N 
ATOM      3  C   UNL A   1      30.783  29.060  23.263  1.00  0.00     0.242 C 
ATOM      4  O   UNL A   1      30.286  29.286  22.156  1.00  0.00    -0.273 OA
ATOM      5  H   UNL A   1      30.423  30.923  23.841  1.00  0.00     0.163 HD
BRANCH   3   6
ATOM      6  C   UNL A   1      31.379  27.681  23.590  1.00  0.00     0.175 C 
BRANCH   6   7
ATOM      7  N   UNL A   1      31.839  27.127  22.303  1.00  0.00    -0.310 N 
ATOM      8  O   UNL A   1      33.277  26.089  20.905  1.00  0.00    -0.225 OA
ATOM      9  C   UNL A   1      32.861  26.272  22.036  1.00  0.00     0.408 C 
ATOM     10  H   UNL A   1      31.327  27.423  21.516  1.00  0.00     0.167 HD
BRANCH   9  11
ATOM     11  O   UNL A   1      33.372  25.693  23.141  1.00  0.00    -0.445 OA
BRANCH  11  12
ATOM     12  C   UNL A   1      33.546  24.276  23.034  1.00  0.00     0.270 C 
BRANCH  12  13
ATOM     13  C   UNL A   1      34.834  23.877  23.723  1.00  0.00    -0.011 A 
ATOM     14  C   UNL A   1      35.718  22.958  23.139  1.00  0.00     0.007 A 
ATOM     15  C   UNL A   1      35.074  24.305  25.038  1.00  0.00     0.007 A 
ATOM     16  C   UNL A   1      36.804  22.464  23.864  1.00  0.00     0.000 A 
ATOM     17  C   UNL A   1      36.153  23.804  25.763  1.00  0.00     0.000 A 
ATOM     18  C   UNL A   1      37.016  22.881  25.177  1.00  0.00     0.000 A 
ENDBRANCH  12  13
ENDBRANCH  11  12
ENDBRANCH   9  11
ENDBRANCH   6   7
BRANCH   6  19
ATOM     19  C   UNL A   1      30.442  26.795  24.430  1.00  0.00     0.047 C 
BRANCH  19  20
ATOM     20  C   UNL A   1      30.962  26.345  25.786  1.00  0.00     0.083 C 
ATOM     21  Br  UNL A   1      31.074  24.424  25.981  1.00  0.00    -0.093 Br
ENDBRANCH  19  20
ENDBRANCH   6  19
ENDBRANCH   3   6
ENDBRANCH   1   2
BRANCH   1  22
ATOM     22  C   UNL A   1      31.282  31.556  26.127  1.00  0.00     0.042 C 
BRANCH  22  23
ATOM     23  C   UNL A   1      32.505  31.968  26.923  1.00  0.00     0.118 C 
BRANCH  23  24
ATOM     24  N   UNL A   1      32.495  33.385  27.233  1.00  0.00    -0.352 N 
ATOM     25  C   UNL A   1      33.249  34.076  28.145  1.00  0.00     0.251 C 
ATOM     26  H   UNL A   1      31.857  33.927  26.715  1.00  0.00     0.163 HD
ATOM     27  O   UNL A   1      32.950  35.231  28.434  1.00  0.00    -0.269 OA
BRANCH  25  28
ATOM     28  C   UNL A   1      34.408  33.429  28.796  1.00  0.00     0.039 A 
ATOM     29  C   UNL A   1      35.694  33.819  28.415  1.00  0.00     0.014 A 
ATOM     30  C   UNL A   1      34.236  32.423  29.753  1.00  0.00     0.014 A 
ATOM     31  C   UNL A   1      36.804  33.227  29.018  1.00  0.00     0.010 A 
ATOM     32  C   UNL A   1      35.339  31.901  30.419  1.00  0.00     0.010 A 
ATOM     33  C   UNL A   1      36.635  32.278  30.040  1.00  0.00    -0.014 A 
BRANCH  33  34
ATOM     34  C   UNL A   1      37.807  31.637  30.686  1.00  0.00     0.031 A 
ATOM     35  C   UNL A   1      38.220  32.054  32.071  1.00  0.00     0.074 A 
ATOM     36  C   UNL A   1      38.516  30.709  30.018  1.00  0.00     0.049 A 
ATOM     37  N   UNL A   1      39.223  31.631  32.799  1.00  0.00    -0.248 NA
ATOM     38  C   UNL A   1      37.416  33.106  32.712  1.00  0.00     0.031 C 
ATOM     39  C   UNL A   1      38.236  30.251  28.657  1.00  0.00     0.029 A 
ATOM     40  N   UNL A   1      39.617  29.984  30.395  1.00  0.00    -0.354 N 
ATOM     41  C   UNL A   1      39.173  32.370  33.974  1.00  0.00     0.074 A 
ATOM     42  C   UNL A   1      38.086  33.313  33.834  1.00  0.00     0.031 C 
ATOM     43  C   UNL A   1      39.119  29.296  28.326  1.00  0.00     0.029 A 
ATOM     44  C   UNL A   1      40.048  29.101  29.436  1.00  0.00     0.049 A 
ATOM     45  H   UNL A   1      40.058  30.087  31.269  1.00  0.00     0.167 HD
ATOM     46  C   UNL A   1      39.944  32.253  35.082  1.00  0.00     0.037 A 
ATOM     47  C   UNL A   1      41.075  28.230  29.454  1.00  0.00     0.037 A 
ATOM     48  C   UNL A   1      41.015  31.303  35.221  1.00  0.00     0.049 A 
ATOM     49  C   UNL A   1      41.934  28.135  30.685  1.00  0.00     0.074 A 
ATOM     50  C   UNL A   1      41.827  31.069  36.316  1.00  0.00     0.029 A 
ATOM     51  N   UNL A   1      41.428  30.429  34.223  1.00  0.00    -0.354 N 
ATOM     52  N   UNL A   1      41.837  28.791  31.816  1.00  0.00    -0.248 NA
ATOM     53  C   UNL A   1      43.041  27.171  30.644  1.00  0.00     0.031 C 
ATOM     54  C   UNL A   1      42.763  30.090  35.965  1.00  0.00     0.029 A 
ATOM     55  C   UNL A   1      42.499  29.673  34.670  1.00  0.00     0.049 A 
ATOM     56  H   UNL A   1      41.018  30.358  33.331  1.00  0.00     0.167 HD
ATOM     57  C   UNL A   1      42.849  28.301  32.631  1.00  0.00     0.074 A 
ATOM     58  C   UNL A   1      43.539  27.281  31.867  1.00  0.00     0.031 C 
ATOM     59  C   UNL A   1      43.173  28.659  33.898  1.00  0.00     0.037 A 
BRANCH  46  60
ATOM     60  C   UNL A   1      39.653  33.186  36.224  1.00  0.00     0.064 A 
ATOM     61  C   UNL A   1      38.735  32.851  37.233  1.00  0.00     0.173 A 
ATOM     62  C   UNL A   1      40.295  34.431  36.310  1.00  0.00     0.173 A 
ATOM     63  F   UNL A   1      38.083  31.679  37.192  1.00  0.00    -0.203 F 
ATOM     64  C   UNL A   1      38.439  33.745  38.260  1.00  0.00     0.198 A 
ATOM     65  C   UNL A   1      40.022  35.307  37.359  1.00  0.00     0.198 A 
ATOM     66  F   UNL A   1      41.184  34.800  35.377  1.00  0.00    -0.203 F 
ATOM     67  F   UNL A   1      37.510  33.430  39.174  1.00  0.00    -0.200 F 
ATOM     68  C   UNL A   1      39.086  34.969  38.325  1.00  0.00     0.200 A 
ATOM     69  F   UNL A   1      40.659  36.484  37.427  1.00  0.00    -0.200 F 
ATOM     70  F   UNL A   1      38.801  35.829  39.312  1.00  0.00    -0.200 F 
ENDBRANCH  46  60
BRANCH  47  71
ATOM     71  C   UNL A   1      41.314  27.348  28.284  1.00  0.00     0.064 A 
ATOM     72  C   UNL A   1      40.640  26.124  28.161  1.00  0.00     0.173 A 
ATOM     73  C   UNL A   1      42.199  27.712  27.259  1.00  0.00     0.173 A 
ATOM     74  F   UNL A   1      39.798  25.724  29.124  1.00  0.00    -0.203 F 
ATOM     75  C   UNL A   1      40.854  25.292  27.064  1.00  0.00     0.198 A 
ATOM     76  C   UNL A   1      42.392  26.892  26.150  1.00  0.00     0.198 A 
ATOM     77  F   UNL A   1      42.862  28.875  27.327  1.00  0.00    -0.203 F 
ATOM     78  F   UNL A   1      40.226  24.111  26.990  1.00  0.00    -0.200 F 
ATOM     79  C   UNL A   1      41.724  25.680  26.056  1.00  0.00     0.200 A 
ATOM     80  F   UNL A   1      43.221  27.276  25.170  1.00  0.00    -0.200 F 
ATOM     81  F   UNL A   1      41.922  24.884  24.997  1.00  0.00    -0.200 F 
ENDBRANCH  47  71
BRANCH  59  82
ATOM     82  C   UNL A   1      44.304  27.919  34.552  1.00  0.00     0.064 A 
ATOM     83  C   UNL A   1      45.622  28.394  34.508  1.00  0.00     0.173 A 
ATOM     84  C   UNL A   1      44.056  26.735  35.265  1.00  0.00     0.173 A 
ATOM     85  F   UNL A   1      45.914  29.513  33.827  1.00  0.00    -0.203 F 
ATOM     86  C   UNL A   1      46.656  27.697  35.129  1.00  0.00     0.198 A 
ATOM     87  C   UNL A   1      45.086  26.057  35.911  1.00  0.00     0.198 A 
ATOM     88  F   UNL A   1      42.812  26.241  35.344  1.00  0.00    -0.203 F 
ATOM     89  F   UNL A   1      47.916  28.143  35.030  1.00  0.00    -0.200 F 
ATOM     90  C   UNL A   1      46.386  26.535  35.836  1.00  0.00     0.200 A 
ATOM     91  F   UNL A   1      44.821  24.943  36.606  1.00  0.00    -0.200 F 
ATOM     92  F   UNL A   1      47.381  25.869  36.439  1.00  0.00    -0.200 F 
ENDBRANCH  59  82
ENDBRANCH  33  34
ENDBRANCH  25  28
ENDBRANCH  23  24
ENDBRANCH  22  23
ENDBRANCH   1  22
TORSDOF 16
ENDMDL
MODEL 3
REMARK VINA RESULT:     -11.0      4.537      9.149
REMARK SMILES O=C(N[C@H](CCBr)C(=O)NCCCNC(=O)c1ccc(-c2c3nc(c(-c4c(F)c(F)c(F)c(F)c4F)c4ccc([nH]4)c(-c4c(F)c(F)c(F)c(F)c4F)c4nc(c(-c5c(F)c(F)c(F)c(F)c5F)c5ccc2[nH]5)C=C4)C=C3)cc1)OCc1ccccc1
REMARK SMILES IDX 11 1 10 2 8 3 9 4 4 6 3 7 1 8 2 9 80 11 81 12 82 13 83 14
REMARK SMILES IDX 87 15 84 16 86 17 85 18 5 19 6 20 7 21 12 22 13 23 14 24
REMARK SMILES IDX 15 25 16 27 17 28 18 29 79 30 19 31 78 32 20 33 21 34 22 35
REMARK SMILES IDX 72 36 23 37 77 38 71 39 73 40 24 41 76 42 70 43 69 44 25 46
REMARK SMILES IDX 57 47 37 48 56 49 38 50 41 51 55 52 74 53 39 54 40 55 54 57
REMARK SMILES IDX 75 58 42 59 26 60 27 61 35 62 28 63 29 64 33 65 36 66 30 67
REMARK SMILES IDX 31 68 34 69 32 70 58 71 59 72 67 73 60 74 61 75 65 76 68 77
REMARK SMILES IDX 62 78 63 79 66 80 64 81 43 82 44 83 52 84 45 85 46 86 50 87
REMARK SMILES IDX 53 88 47 89 48 90 51 91 49 92
REMARK H PARENT 10 5 3 10 14 26 73 45 41 56
REMARK Flexibility Score: inf
ROOT
ATOM      1  C   UNL A   1      35.325  21.487  25.088  1.00  0.00     0.117 C 
ENDROOT
BRANCH   1   2
ATOM      2  N   UNL A   1      34.215  20.565  25.283  1.00  0.00    -0.354 N 
ATOM      3  C   UNL A   1      32.865  20.743  25.199  1.00  0.00     0.242 C 
ATOM      4  O   UNL A   1      32.140  19.780  25.465  1.00  0.00    -0.273 OA
ATOM      5  H   UNL A   1      34.488  19.649  25.519  1.00  0.00     0.163 HD
BRANCH   3   6
ATOM      6  C   UNL A   1      32.257  22.109  24.846  1.00  0.00     0.175 C 
BRANCH   6   7
ATOM      7  N   UNL A   1      31.086  22.268  25.727  1.00  0.00    -0.310 N 
ATOM      8  O   UNL A   1      29.923  23.095  27.479  1.00  0.00    -0.225 OA
ATOM      9  C   UNL A   1      30.815  23.222  26.656  1.00  0.00     0.408 C 
ATOM     10  H   UNL A   1      30.393  21.575  25.627  1.00  0.00     0.167 HD
BRANCH   9  11
ATOM     11  O   UNL A   1      31.647  24.281  26.589  1.00  0.00    -0.445 OA
BRANCH  11  12
ATOM     12  C   UNL A   1      31.023  25.491  26.147  1.00  0.00     0.270 C 
BRANCH  12  13
ATOM     13  C   UNL A   1      31.907  26.668  26.501  1.00  0.00    -0.011 A 
ATOM     14  C   UNL A   1      31.378  27.821  27.100  1.00  0.00     0.007 A 
ATOM     15  C   UNL A   1      33.247  26.676  26.081  1.00  0.00     0.007 A 
ATOM     16  C   UNL A   1      32.167  28.962  27.253  1.00  0.00     0.000 A 
ATOM     17  C   UNL A   1      34.030  27.819  26.226  1.00  0.00     0.000 A 
ATOM     18  C   UNL A   1      33.490  28.963  26.809  1.00  0.00     0.000 A 
ENDBRANCH  12  13
ENDBRANCH  11  12
ENDBRANCH   9  11
ENDBRANCH   6   7
BRANCH   6  19
ATOM     19  C   UNL A   1      32.020  22.300  23.337  1.00  0.00     0.047 C 
BRANCH  19  20
ATOM     20  C   UNL A   1      32.057  23.727  22.814  1.00  0.00     0.083 C 
ATOM     21  Br  UNL A   1      33.767  24.601  23.045  1.00  0.00    -0.093 Br
ENDBRANCH  19  20
ENDBRANCH   6  19
ENDBRANCH   3   6
ENDBRANCH   1   2
BRANCH   1  22
ATOM     22  C   UNL A   1      35.267  22.716  25.986  1.00  0.00     0.042 C 
BRANCH  22  23
ATOM     23  C   UNL A   1      36.593  23.440  26.126  1.00  0.00     0.118 C 
BRANCH  23  24
ATOM     24  N   UNL A   1      37.714  22.518  26.117  1.00  0.00    -0.352 N 
ATOM     25  C   UNL A   1      39.040  22.769  26.353  1.00  0.00     0.251 C 
ATOM     26  H   UNL A   1      37.490  21.582  25.913  1.00  0.00     0.163 HD
ATOM     27  O   UNL A   1      39.880  21.917  26.081  1.00  0.00    -0.269 OA
BRANCH  25  28
ATOM     28  C   UNL A   1      39.464  24.070  26.914  1.00  0.00     0.039 A 
ATOM     29  C   UNL A   1      40.019  25.021  26.056  1.00  0.00     0.014 A 
ATOM     30  C   UNL A   1      39.345  24.345  28.281  1.00  0.00     0.014 A 
ATOM     31  C   UNL A   1      40.423  26.257  26.560  1.00  0.00     0.010 A 
ATOM     32  C   UNL A   1      39.660  25.609  28.766  1.00  0.00     0.010 A 
ATOM     33  C   UNL A   1      40.227  26.569  27.916  1.00  0.00    -0.014 A 
BRANCH  33  34
ATOM     34  C   UNL A   1      40.655  27.879  28.466  1.00  0.00     0.031 A 
ATOM     35  C   UNL A   1      42.110  28.135  28.746  1.00  0.00     0.074 A 
ATOM     36  C   UNL A   1      39.736  28.821  28.744  1.00  0.00     0.049 A 
ATOM     37  N   UNL A   1      42.683  29.203  29.243  1.00  0.00    -0.248 NA
ATOM     38  C   UNL A   1      43.043  27.036  28.454  1.00  0.00     0.031 C 
ATOM     39  C   UNL A   1      38.293  28.675  28.552  1.00  0.00     0.029 A 
ATOM     40  N   UNL A   1      39.880  30.089  29.246  1.00  0.00    -0.354 N 
ATOM     41  C   UNL A   1      44.035  28.898  29.330  1.00  0.00     0.074 A 
ATOM     42  C   UNL A   1      44.189  27.526  28.900  1.00  0.00     0.031 C 
ATOM     43  C   UNL A   1      37.687  29.822  28.897  1.00  0.00     0.029 A 
ATOM     44  C   UNL A   1      38.693  30.770  29.367  1.00  0.00     0.049 A 
ATOM     45  H   UNL A   1      40.750  30.475  29.496  1.00  0.00     0.167 HD
ATOM     46  C   UNL A   1      45.062  29.698  29.706  1.00  0.00     0.037 A 
ATOM     47  C   UNL A   1      38.448  32.018  29.806  1.00  0.00     0.037 A 
ATOM     48  C   UNL A   1      44.906  31.067  30.119  1.00  0.00     0.049 A 
ATOM     49  C   UNL A   1      39.600  32.882  30.242  1.00  0.00     0.074 A 
ATOM     50  C   UNL A   1      45.882  31.980  30.474  1.00  0.00     0.029 A 
ATOM     51  N   UNL A   1      43.686  31.721  30.238  1.00  0.00    -0.354 N 
ATOM     52  N   UNL A   1      40.882  32.607  30.258  1.00  0.00    -0.248 NA
ATOM     53  C   UNL A   1      39.270  34.232  30.715  1.00  0.00     0.031 C 
ATOM     54  C   UNL A   1      45.251  33.169  30.857  1.00  0.00     0.029 A 
ATOM     55  C   UNL A   1      43.884  33.017  30.685  1.00  0.00     0.049 A 
ATOM     56  H   UNL A   1      42.810  31.320  30.033  1.00  0.00     0.167 HD
ATOM     57  C   UNL A   1      41.514  33.756  30.713  1.00  0.00     0.074 A 
ATOM     58  C   UNL A   1      40.473  34.737  30.949  1.00  0.00     0.031 C 
ATOM     59  C   UNL A   1      42.837  33.981  30.912  1.00  0.00     0.037 A 
BRANCH  46  60
ATOM     60  C   UNL A   1      46.441  29.101  29.690  1.00  0.00     0.064 A 
ATOM     61  C   UNL A   1      47.228  29.095  28.527  1.00  0.00     0.173 A 
ATOM     62  C   UNL A   1      46.983  28.525  30.850  1.00  0.00     0.173 A 
ATOM     63  F   UNL A   1      46.754  29.620  27.387  1.00  0.00    -0.203 F 
ATOM     64  C   UNL A   1      48.486  28.496  28.514  1.00  0.00     0.198 A 
ATOM     65  C   UNL A   1      48.255  27.959  30.841  1.00  0.00     0.198 A 
ATOM     66  F   UNL A   1      46.277  28.509  31.990  1.00  0.00    -0.203 F 
ATOM     67  F   UNL A   1      49.190  28.443  27.374  1.00  0.00    -0.200 F 
ATOM     68  C   UNL A   1      49.000  27.933  29.672  1.00  0.00     0.200 A 
ATOM     69  F   UNL A   1      48.757  27.428  31.965  1.00  0.00    -0.200 F 
ATOM     70  F   UNL A   1      50.209  27.356  29.659  1.00  0.00    -0.200 F 
ENDBRANCH  46  60
BRANCH  47  71
ATOM     71  C   UNL A   1      37.057  32.540  29.808  1.00  0.00     0.064 A 
ATOM     72  C   UNL A   1      36.551  33.231  28.698  1.00  0.00     0.173 A 
ATOM     73  C   UNL A   1      36.202  32.344  30.902  1.00  0.00     0.173 A 
ATOM     74  F   UNL A   1      37.337  33.458  27.635  1.00  0.00    -0.203 F 
ATOM     75  C   UNL A   1      35.246  33.719  28.688  1.00  0.00     0.198 A 
ATOM     76  C   UNL A   1      34.889  32.810  30.880  1.00  0.00     0.198 A 
ATOM     77  F   UNL A   1      36.637  31.685  31.985  1.00  0.00    -0.203 F 
ATOM     78  F   UNL A   1      34.799  34.409  27.629  1.00  0.00    -0.200 F 
ATOM     79  C   UNL A   1      34.414  33.502  29.776  1.00  0.00     0.200 A 
ATOM     80  F   UNL A   1      34.083  32.586  31.927  1.00  0.00    -0.200 F 
ATOM     81  F   UNL A   1      33.157  33.963  29.763  1.00  0.00    -0.200 F 
ENDBRANCH  47  71
BRANCH  59  82
ATOM     82  C   UNL A   1      43.238  35.352  31.376  1.00  0.00     0.064 A 
ATOM     83  C   UNL A   1      43.273  35.690  32.736  1.00  0.00     0.173 A 
ATOM     84  C   UNL A   1      43.627  36.328  30.446  1.00  0.00     0.173 A 
ATOM     85  F   UNL A   1      42.896  34.797  33.664  1.00  0.00    -0.203 F 
ATOM     86  C   UNL A   1      43.656  36.965  33.147  1.00  0.00     0.198 A 
ATOM     87  C   UNL A   1      44.040  37.591  30.861  1.00  0.00     0.198 A 
ATOM     88  F   UNL A   1      43.618  36.054  29.133  1.00  0.00    -0.203 F 
ATOM     89  F   UNL A   1      43.633  37.282  34.449  1.00  0.00    -0.200 F 
ATOM     90  C   UNL A   1      44.047  37.911  32.211  1.00  0.00     0.200 A 
ATOM     91  F   UNL A   1      44.431  38.498  29.956  1.00  0.00    -0.200 F 
ATOM     92  F   UNL A   1      44.422  39.134  32.608  1.00  0.00    -0.200 F 
ENDBRANCH  59  82
ENDBRANCH  33  34
ENDBRANCH  25  28
ENDBRANCH  23  24
ENDBRANCH  22  23
ENDBRANCH   1  22
TORSDOF 16
ENDMDL
