MODEL 1
REMARK VINA RESULT:     -13.3      0.000      0.000
REMARK SMILES Cc1cc(F)ccc1CCNc1ccc(Cl)c(C(=O)NCCCNC(=O)c2ccc(-c3c4nc(c(-c5c(F)c(F)c(F)c(F)c5F)c5ccc([nH]5)c(-c5c(F)c(F)c(F)c(F)c5F)c5nc(c(-c6c(F)c(F)c(F)c(F)c6F)c6ccc3[nH]6)C=C5)C=C4)cc2)n1
REMARK SMILES IDX 21 1 20 2 18 3 19 4 17 6 12 7 13 8 90 9 14 10 15 11 16 12
REMARK SMILES IDX 11 13 10 15 9 16 8 17 1 18 2 19 3 20 4 21 7 22 5 23 6 24
REMARK SMILES IDX 22 25 23 26 24 27 25 28 26 30 27 31 28 32 89 33 29 34 88 35
REMARK SMILES IDX 30 36 31 37 32 38 82 39 33 40 87 41 81 42 83 43 34 44 86 45
REMARK SMILES IDX 80 46 79 47 35 49 67 50 47 51 66 52 48 53 51 54 65 55 84 56
REMARK SMILES IDX 49 57 50 58 64 60 85 61 52 62 36 63 37 64 45 65 38 66 39 67
REMARK SMILES IDX 43 68 46 69 40 70 41 71 44 72 42 73 68 74 69 75 77 76 70 77
REMARK SMILES IDX 71 78 75 79 78 80 72 81 73 82 76 83 74 84 53 85 54 86 62 87
REMARK SMILES IDX 55 88 56 89 60 90 63 91 57 92 58 93 61 94 59 95
REMARK H PARENT 20 5 11 14 24 29 83 48 51 59
REMARK Flexibility Score: inf
ROOT
ATOM      1  C   UNL A   1      31.891  28.589  27.105  1.00  0.00     0.118 C 
ENDROOT
BRANCH   1   2
ATOM      2  N   UNL A   1      31.175  27.352  27.079  1.00  0.00    -0.351 N 
ATOM      3  C   UNL A   1      30.729  26.542  26.077  1.00  0.00     0.271 C 
ATOM      4  O   UNL A   1      30.149  25.536  26.514  1.00  0.00    -0.267 OA
ATOM      5  H   UNL A   1      30.954  27.014  27.976  1.00  0.00     0.163 HD
BRANCH   3   6
ATOM      6  C   UNL A   1      30.834  26.737  24.570  1.00  0.00     0.149 A 
ATOM      7  C   UNL A   1      31.406  25.398  22.718  1.00  0.00     0.126 A 
ATOM      8  C   UNL A   1      31.148  26.413  21.831  1.00  0.00     0.048 A 
ATOM      9  N   UNL A   1      31.191  25.529  24.029  1.00  0.00    -0.224 NA
ATOM     10  C   UNL A   1      30.758  27.634  22.338  1.00  0.00     0.027 A 
ATOM     11  C   UNL A   1      30.665  27.836  23.723  1.00  0.00     0.072 A 
ATOM     12  Cl  UNL A   1      30.496  29.506  24.057  1.00  0.00    -0.082 Cl
BRANCH   7  13
ATOM     13  N   UNL A   1      31.975  24.211  22.323  1.00  0.00    -0.370 N 
ATOM     14  H   UNL A   1      31.737  23.788  21.467  1.00  0.00     0.162 HD
BRANCH  13  15
ATOM     15  C   UNL A   1      32.947  23.601  23.230  1.00  0.00     0.119 C 
BRANCH  15  16
ATOM     16  C   UNL A   1      34.390  24.009  22.880  1.00  0.00     0.057 C 
BRANCH  16  17
ATOM     17  C   UNL A   1      35.380  23.546  23.930  1.00  0.00    -0.043 A 
ATOM     18  C   UNL A   1      34.493  25.140  25.750  1.00  0.00     0.045 C 
ATOM     19  C   UNL A   1      35.467  24.125  25.215  1.00  0.00    -0.045 A 
ATOM     20  C   UNL A   1      36.495  23.708  26.077  1.00  0.00     0.043 A 
ATOM     21  C   UNL A   1      37.424  22.757  25.668  1.00  0.00     0.123 A 
ATOM     22  C   UNL A   1      36.306  22.547  23.561  1.00  0.00     0.007 A 
ATOM     23  F   UNL A   1      38.414  22.402  26.497  1.00  0.00    -0.207 F 
ATOM     24  C   UNL A   1      37.335  22.169  24.418  1.00  0.00     0.039 A 
ENDBRANCH  16  17
ENDBRANCH  15  16
ENDBRANCH  13  15
ENDBRANCH   7  13
ENDBRANCH   3   6
ENDBRANCH   1   2
BRANCH   1  25
ATOM     25  C   UNL A   1      33.371  28.366  27.429  1.00  0.00     0.042 C 
BRANCH  25  26
ATOM     26  C   UNL A   1      34.198  29.087  26.409  1.00  0.00     0.118 C 
BRANCH  26  27
ATOM     27  N   UNL A   1      34.341  30.503  26.787  1.00  0.00    -0.352 N 
ATOM     28  C   UNL A   1      35.137  31.063  27.765  1.00  0.00     0.251 C 
ATOM     29  H   UNL A   1      33.793  31.137  26.271  1.00  0.00     0.163 HD
ATOM     30  O   UNL A   1      34.927  32.181  28.195  1.00  0.00    -0.269 OA
BRANCH  28  31
ATOM     31  C   UNL A   1      36.272  30.265  28.238  1.00  0.00     0.039 A 
ATOM     32  C   UNL A   1      36.304  29.627  29.480  1.00  0.00     0.014 A 
ATOM     33  C   UNL A   1      37.355  30.203  27.380  1.00  0.00     0.014 A 
ATOM     34  C   UNL A   1      37.460  28.938  29.831  1.00  0.00     0.010 A 
ATOM     35  C   UNL A   1      38.276  29.238  27.547  1.00  0.00     0.010 A 
ATOM     36  C   UNL A   1      38.437  28.784  28.848  1.00  0.00    -0.014 A 
BRANCH  36  37
ATOM     37  C   UNL A   1      39.791  28.319  29.032  1.00  0.00     0.031 A 
ATOM     38  C   UNL A   1      40.082  26.930  28.705  1.00  0.00     0.074 A 
ATOM     39  C   UNL A   1      40.679  29.338  29.130  1.00  0.00     0.049 A 
ATOM     40  N   UNL A   1      41.095  26.281  29.142  1.00  0.00    -0.248 NA
ATOM     41  C   UNL A   1      39.203  26.129  27.857  1.00  0.00     0.031 C 
ATOM     42  C   UNL A   1      42.098  29.414  28.831  1.00  0.00     0.029 A 
ATOM     43  N   UNL A   1      40.375  30.645  29.568  1.00  0.00    -0.354 N 
ATOM     44  C   UNL A   1      41.221  25.173  28.332  1.00  0.00     0.074 A 
ATOM     45  C   UNL A   1      39.932  25.020  27.703  1.00  0.00     0.031 C 
ATOM     46  C   UNL A   1      42.598  30.529  29.409  1.00  0.00     0.029 A 
ATOM     47  C   UNL A   1      41.527  31.133  30.195  1.00  0.00     0.049 A 
ATOM     48  H   UNL A   1      39.519  31.119  29.454  1.00  0.00     0.167 HD
ATOM     49  C   UNL A   1      42.476  24.681  28.117  1.00  0.00     0.037 A 
ATOM     50  C   UNL A   1      41.486  31.248  31.557  1.00  0.00     0.037 A 
ATOM     51  C   UNL A   1      43.448  25.536  28.812  1.00  0.00     0.049 A 
ATOM     52  C   UNL A   1      42.361  30.194  32.184  1.00  0.00     0.074 A 
ATOM     53  C   UNL A   1      44.233  26.584  28.358  1.00  0.00     0.029 A 
ATOM     54  N   UNL A   1      43.399  25.652  30.198  1.00  0.00    -0.354 N 
ATOM     55  N   UNL A   1      42.605  29.031  31.640  1.00  0.00    -0.248 NA
ATOM     56  C   UNL A   1      43.093  30.408  33.424  1.00  0.00     0.031 C 
ATOM     57  C   UNL A   1      44.585  27.381  29.479  1.00  0.00     0.029 A 
ATOM     58  C   UNL A   1      44.015  26.821  30.610  1.00  0.00     0.049 A 
ATOM     59  H   UNL A   1      42.985  24.994  30.801  1.00  0.00     0.167 HD
ATOM     60  C   UNL A   1      43.547  28.380  32.381  1.00  0.00     0.074 A 
ATOM     61  C   UNL A   1      43.806  29.271  33.499  1.00  0.00     0.031 C 
ATOM     62  C   UNL A   1      44.075  27.172  32.020  1.00  0.00     0.037 A 
BRANCH  49  63
ATOM     63  C   UNL A   1      42.885  23.688  27.047  1.00  0.00     0.064 A 
ATOM     64  C   UNL A   1      42.580  22.316  27.205  1.00  0.00     0.173 A 
ATOM     65  C   UNL A   1      43.573  23.995  25.858  1.00  0.00     0.173 A 
ATOM     66  F   UNL A   1      41.847  21.874  28.236  1.00  0.00    -0.203 F 
ATOM     67  C   UNL A   1      42.999  21.335  26.301  1.00  0.00     0.198 A 
ATOM     68  C   UNL A   1      44.018  23.011  24.966  1.00  0.00     0.198 A 
ATOM     69  F   UNL A   1      43.792  25.255  25.473  1.00  0.00    -0.203 F 
ATOM     70  F   UNL A   1      42.680  20.052  26.518  1.00  0.00    -0.200 F 
ATOM     71  C   UNL A   1      43.738  21.680  25.190  1.00  0.00     0.200 A 
ATOM     72  F   UNL A   1      44.713  23.369  23.875  1.00  0.00    -0.200 F 
ATOM     73  F   UNL A   1      44.147  20.742  24.327  1.00  0.00    -0.200 F 
ENDBRANCH  49  63
BRANCH  50  74
ATOM     74  C   UNL A   1      40.119  31.665  32.026  1.00  0.00     0.064 A 
ATOM     75  C   UNL A   1      39.341  30.683  32.681  1.00  0.00     0.173 A 
ATOM     76  C   UNL A   1      39.794  33.007  32.278  1.00  0.00     0.173 A 
ATOM     77  F   UNL A   1      39.599  29.380  32.474  1.00  0.00    -0.203 F 
ATOM     78  C   UNL A   1      38.414  31.023  33.666  1.00  0.00     0.198 A 
ATOM     79  C   UNL A   1      38.837  33.342  33.244  1.00  0.00     0.198 A 
ATOM     80  F   UNL A   1      40.477  33.995  31.684  1.00  0.00    -0.203 F 
ATOM     81  F   UNL A   1      37.820  30.058  34.384  1.00  0.00    -0.200 F 
ATOM     82  C   UNL A   1      38.186  32.352  33.968  1.00  0.00     0.200 A 
ATOM     83  F   UNL A   1      38.610  34.631  33.540  1.00  0.00    -0.200 F 
ATOM     84  F   UNL A   1      37.368  32.678  34.979  1.00  0.00    -0.200 F 
ENDBRANCH  50  74
BRANCH  62  85
ATOM     85  C   UNL A   1      44.809  26.263  32.964  1.00  0.00     0.064 A 
ATOM     86  C   UNL A   1      46.201  26.089  32.929  1.00  0.00     0.173 A 
ATOM     87  C   UNL A   1      44.140  25.651  34.050  1.00  0.00     0.173 A 
ATOM     88  F   UNL A   1      46.968  26.747  32.048  1.00  0.00    -0.203 F 
ATOM     89  C   UNL A   1      46.861  25.269  33.841  1.00  0.00     0.198 A 
ATOM     90  C   UNL A   1      44.815  24.900  35.006  1.00  0.00     0.198 A 
ATOM     91  F   UNL A   1      42.819  25.788  34.235  1.00  0.00    -0.203 F 
ATOM     92  F   UNL A   1      48.180  25.072  33.717  1.00  0.00    -0.200 F 
ATOM     93  C   UNL A   1      46.170  24.681  34.883  1.00  0.00     0.200 A 
ATOM     94  F   UNL A   1      44.144  24.406  36.056  1.00  0.00    -0.200 F 
ATOM     95  F   UNL A   1      46.814  23.925  35.780  1.00  0.00    -0.200 F 
ENDBRANCH  62  85
ENDBRANCH  36  37
ENDBRANCH  28  31
ENDBRANCH  26  27
ENDBRANCH  25  26
ENDBRANCH   1  25
TORSDOF 14
ENDMDL
MODEL 2
REMARK VINA RESULT:     -13.2      3.390      9.078
REMARK SMILES Cc1cc(F)ccc1CCNc1ccc(Cl)c(C(=O)NCCCNC(=O)c2ccc(-c3c4nc(c(-c5c(F)c(F)c(F)c(F)c5F)c5ccc([nH]5)c(-c5c(F)c(F)c(F)c(F)c5F)c5nc(c(-c6c(F)c(F)c(F)c(F)c6F)c6ccc3[nH]6)C=C5)C=C4)cc2)n1
REMARK SMILES IDX 21 1 20 2 18 3 19 4 17 6 12 7 13 8 90 9 14 10 15 11 16 12
REMARK SMILES IDX 11 13 10 15 9 16 8 17 1 18 2 19 3 20 4 21 7 22 5 23 6 24
REMARK SMILES IDX 22 25 23 26 24 27 25 28 26 30 27 31 28 32 89 33 29 34 88 35
REMARK SMILES IDX 30 36 31 37 32 38 82 39 33 40 87 41 81 42 83 43 34 44 86 45
REMARK SMILES IDX 80 46 79 47 35 49 67 50 47 51 66 52 48 53 51 54 65 55 84 56
REMARK SMILES IDX 49 57 50 58 64 60 85 61 52 62 36 63 37 64 45 65 38 66 39 67
REMARK SMILES IDX 43 68 46 69 40 70 41 71 44 72 42 73 68 74 69 75 77 76 70 77
REMARK SMILES IDX 71 78 75 79 78 80 72 81 73 82 76 83 74 84 53 85 54 86 62 87
REMARK SMILES IDX 55 88 56 89 60 90 63 91 57 92 58 93 61 94 59 95
REMARK H PARENT 20 5 11 14 24 29 83 48 51 59
REMARK Flexibility Score: inf
ROOT
ATOM      1  C   UNL A   1      35.755  21.607  26.126  1.00  0.00     0.118 C 
ENDROOT
BRANCH   1   2
ATOM      2  N   UNL A   1      34.738  21.986  27.057  1.00  0.00    -0.351 N 
ATOM      3  C   UNL A   1      33.434  22.363  26.927  1.00  0.00     0.271 C 
ATOM      4  O   UNL A   1      32.905  22.599  28.024  1.00  0.00    -0.267 OA
ATOM      5  H   UNL A   1      35.045  21.973  27.992  1.00  0.00     0.163 HD
BRANCH   3   6
ATOM      6  C   UNL A   1      32.613  22.545  25.658  1.00  0.00     0.149 A 
ATOM      7  C   UNL A   1      30.977  24.058  24.893  1.00  0.00     0.126 A 
ATOM      8  C   UNL A   1      30.907  23.451  23.664  1.00  0.00     0.048 A 
ATOM      9  N   UNL A   1      31.845  23.668  25.829  1.00  0.00    -0.224 NA
ATOM     10  C   UNL A   1      31.687  22.336  23.446  1.00  0.00     0.027 A 
ATOM     11  C   UNL A   1      32.499  21.821  24.467  1.00  0.00     0.072 A 
ATOM     12  Cl  UNL A   1      33.077  20.271  24.026  1.00  0.00    -0.082 Cl
BRANCH   7  13
ATOM     13  N   UNL A   1      30.108  25.055  25.265  1.00  0.00    -0.370 N 
ATOM     14  H   UNL A   1      29.149  25.008  25.047  1.00  0.00     0.162 HD
BRANCH  13  15
ATOM     15  C   UNL A   1      30.667  26.192  25.997  1.00  0.00     0.119 C 
BRANCH  15  16
ATOM     16  C   UNL A   1      31.118  27.316  25.047  1.00  0.00     0.057 C 
BRANCH  16  17
ATOM     17  C   UNL A   1      32.055  28.293  25.732  1.00  0.00    -0.043 A 
ATOM     18  C   UNL A   1      34.020  26.630  25.845  1.00  0.00     0.045 C 
ATOM     19  C   UNL A   1      33.354  27.942  26.160  1.00  0.00    -0.045 A 
ATOM     20  C   UNL A   1      34.102  28.880  26.891  1.00  0.00     0.043 A 
ATOM     21  C   UNL A   1      33.568  30.126  27.205  1.00  0.00     0.123 A 
ATOM     22  C   UNL A   1      31.559  29.581  26.022  1.00  0.00     0.007 A 
ATOM     23  F   UNL A   1      34.290  30.988  27.932  1.00  0.00    -0.207 F 
ATOM     24  C   UNL A   1      32.304  30.486  26.772  1.00  0.00     0.039 A 
ENDBRANCH  16  17
ENDBRANCH  15  16
ENDBRANCH  13  15
ENDBRANCH   7  13
ENDBRANCH   3   6
ENDBRANCH   1   2
BRANCH   1  25
ATOM     25  C   UNL A   1      36.076  22.751  25.160  1.00  0.00     0.042 C 
BRANCH  25  26
ATOM     26  C   UNL A   1      37.172  23.584  25.752  1.00  0.00     0.118 C 
BRANCH  26  27
ATOM     27  N   UNL A   1      38.228  22.714  26.295  1.00  0.00    -0.352 N 
ATOM     28  C   UNL A   1      39.488  23.055  26.741  1.00  0.00     0.251 C 
ATOM     29  H   UNL A   1      38.004  21.756  26.347  1.00  0.00     0.163 HD
ATOM     30  O   UNL A   1      40.371  22.226  26.855  1.00  0.00    -0.269 OA
BRANCH  28  31
ATOM     31  C   UNL A   1      39.708  24.457  27.107  1.00  0.00     0.039 A 
ATOM     32  C   UNL A   1      40.307  25.393  26.262  1.00  0.00     0.014 A 
ATOM     33  C   UNL A   1      39.310  24.808  28.385  1.00  0.00     0.014 A 
ATOM     34  C   UNL A   1      40.501  26.683  26.746  1.00  0.00     0.010 A 
ATOM     35  C   UNL A   1      39.139  26.107  28.691  1.00  0.00     0.010 A 
ATOM     36  C   UNL A   1      39.925  26.998  27.976  1.00  0.00    -0.014 A 
BRANCH  36  37
ATOM     37  C   UNL A   1      40.174  28.172  28.778  1.00  0.00     0.031 A 
ATOM     38  C   UNL A   1      39.200  29.253  28.717  1.00  0.00     0.074 A 
ATOM     39  C   UNL A   1      41.084  27.947  29.757  1.00  0.00     0.049 A 
ATOM     40  N   UNL A   1      39.442  30.463  29.058  1.00  0.00    -0.248 NA
ATOM     41  C   UNL A   1      37.843  29.053  28.218  1.00  0.00     0.031 C 
ATOM     42  C   UNL A   1      41.293  28.580  31.046  1.00  0.00     0.029 A 
ATOM     43  N   UNL A   1      42.091  26.958  29.721  1.00  0.00    -0.354 N 
ATOM     44  C   UNL A   1      38.215  31.071  29.220  1.00  0.00     0.074 A 
ATOM     45  C   UNL A   1      37.286  30.235  28.499  1.00  0.00     0.031 C 
ATOM     46  C   UNL A   1      42.519  28.238  31.498  1.00  0.00     0.029 A 
ATOM     47  C   UNL A   1      43.174  27.466  30.447  1.00  0.00     0.049 A 
ATOM     48  H   UNL A   1      42.040  26.082  29.272  1.00  0.00     0.167 HD
ATOM     49  C   UNL A   1      38.115  32.067  30.148  1.00  0.00     0.037 A 
ATOM     50  C   UNL A   1      44.274  27.845  29.729  1.00  0.00     0.037 A 
ATOM     51  C   UNL A   1      39.412  32.225  30.819  1.00  0.00     0.049 A 
ATOM     52  C   UNL A   1      44.390  29.347  29.726  1.00  0.00     0.074 A 
ATOM     53  C   UNL A   1      39.887  31.721  32.020  1.00  0.00     0.029 A 
ATOM     54  N   UNL A   1      40.529  32.606  30.082  1.00  0.00    -0.354 N 
ATOM     55  N   UNL A   1      43.368  30.156  29.819  1.00  0.00    -0.248 NA
ATOM     56  C   UNL A   1      45.668  30.043  29.707  1.00  0.00     0.031 C 
ATOM     57  C   UNL A   1      41.306  31.727  31.963  1.00  0.00     0.029 A 
ATOM     58  C   UNL A   1      41.693  32.229  30.731  1.00  0.00     0.049 A 
ATOM     59  H   UNL A   1      40.497  33.079  29.220  1.00  0.00     0.167 HD
ATOM     60  C   UNL A   1      43.822  31.437  29.942  1.00  0.00     0.074 A 
ATOM     61  C   UNL A   1      45.267  31.318  29.844  1.00  0.00     0.031 C 
ATOM     62  C   UNL A   1      42.994  32.505  30.144  1.00  0.00     0.037 A 
BRANCH  49  63
ATOM     63  C   UNL A   1      36.833  32.653  30.705  1.00  0.00     0.064 A 
ATOM     64  C   UNL A   1      36.079  33.565  29.929  1.00  0.00     0.173 A 
ATOM     65  C   UNL A   1      36.287  32.383  31.975  1.00  0.00     0.173 A 
ATOM     66  F   UNL A   1      36.414  33.854  28.665  1.00  0.00    -0.203 F 
ATOM     67  C   UNL A   1      34.936  34.208  30.412  1.00  0.00     0.198 A 
ATOM     68  C   UNL A   1      35.158  33.048  32.469  1.00  0.00     0.198 A 
ATOM     69  F   UNL A   1      36.779  31.427  32.767  1.00  0.00    -0.203 F 
ATOM     70  F   UNL A   1      34.274  35.065  29.622  1.00  0.00    -0.200 F 
ATOM     71  C   UNL A   1      34.485  33.965  31.691  1.00  0.00     0.200 A 
ATOM     72  F   UNL A   1      34.719  32.779  33.708  1.00  0.00    -0.200 F 
ATOM     73  F   UNL A   1      33.395  34.586  32.158  1.00  0.00    -0.200 F 
ENDBRANCH  49  63
BRANCH  50  74
ATOM     74  C   UNL A   1      44.496  26.933  28.553  1.00  0.00     0.064 A 
ATOM     75  C   UNL A   1      44.202  27.457  27.273  1.00  0.00     0.173 A 
ATOM     76  C   UNL A   1      45.383  25.847  28.607  1.00  0.00     0.173 A 
ATOM     77  F   UNL A   1      43.354  28.493  27.155  1.00  0.00    -0.203 F 
ATOM     78  C   UNL A   1      44.893  27.039  26.136  1.00  0.00     0.198 A 
ATOM     79  C   UNL A   1      46.049  25.408  27.455  1.00  0.00     0.198 A 
ATOM     80  F   UNL A   1      45.700  25.286  29.782  1.00  0.00    -0.203 F 
ATOM     81  F   UNL A   1      44.710  27.678  24.971  1.00  0.00    -0.200 F 
ATOM     82  C   UNL A   1      45.839  26.035  26.235  1.00  0.00     0.200 A 
ATOM     83  F   UNL A   1      46.967  24.433  27.545  1.00  0.00    -0.200 F 
ATOM     84  F   UNL A   1      46.572  25.698  25.164  1.00  0.00    -0.200 F 
ENDBRANCH  50  74
BRANCH  62  85
ATOM     85  C   UNL A   1      43.396  33.933  29.911  1.00  0.00     0.064 A 
ATOM     86  C   UNL A   1      43.625  34.842  30.956  1.00  0.00     0.173 A 
ATOM     87  C   UNL A   1      43.722  34.393  28.614  1.00  0.00     0.173 A 
ATOM     88  F   UNL A   1      43.511  34.476  32.241  1.00  0.00    -0.203 F 
ATOM     89  C   UNL A   1      44.035  36.150  30.713  1.00  0.00     0.198 A 
ATOM     90  C   UNL A   1      44.210  35.675  28.384  1.00  0.00     0.198 A 
ATOM     91  F   UNL A   1      43.608  33.606  27.534  1.00  0.00    -0.203 F 
ATOM     92  F   UNL A   1      44.162  37.003  31.739  1.00  0.00    -0.200 F 
ATOM     93  C   UNL A   1      44.335  36.565  29.430  1.00  0.00     0.200 A 
ATOM     94  F   UNL A   1      44.575  36.034  27.145  1.00  0.00    -0.200 F 
ATOM     95  F   UNL A   1      44.766  37.812  29.205  1.00  0.00    -0.200 F 
ENDBRANCH  62  85
ENDBRANCH  36  37
ENDBRANCH  28  31
ENDBRANCH  26  27
ENDBRANCH  25  26
ENDBRANCH   1  25
TORSDOF 14
ENDMDL
MODEL 3
REMARK VINA RESULT:     -13.0      3.736      9.349
REMARK SMILES Cc1cc(F)ccc1CCNc1ccc(Cl)c(C(=O)NCCCNC(=O)c2ccc(-c3c4nc(c(-c5c(F)c(F)c(F)c(F)c5F)c5ccc([nH]5)c(-c5c(F)c(F)c(F)c(F)c5F)c5nc(c(-c6c(F)c(F)c(F)c(F)c6F)c6ccc3[nH]6)C=C5)C=C4)cc2)n1
REMARK SMILES IDX 21 1 20 2 18 3 19 4 17 6 12 7 13 8 90 9 14 10 15 11 16 12
REMARK SMILES IDX 11 13 10 15 9 16 8 17 1 18 2 19 3 20 4 21 7 22 5 23 6 24
REMARK SMILES IDX 22 25 23 26 24 27 25 28 26 30 27 31 28 32 89 33 29 34 88 35
REMARK SMILES IDX 30 36 31 37 32 38 82 39 33 40 87 41 81 42 83 43 34 44 86 45
REMARK SMILES IDX 80 46 79 47 35 49 67 50 47 51 66 52 48 53 51 54 65 55 84 56
REMARK SMILES IDX 49 57 50 58 64 60 85 61 52 62 36 63 37 64 45 65 38 66 39 67
REMARK SMILES IDX 43 68 46 69 40 70 41 71 44 72 42 73 68 74 69 75 77 76 70 77
REMARK SMILES IDX 71 78 75 79 78 80 72 81 73 82 76 83 74 84 53 85 54 86 62 87
REMARK SMILES IDX 55 88 56 89 60 90 63 91 57 92 58 93 61 94 59 95
REMARK H PARENT 20 5 11 14 24 29 83 48 51 59
REMARK Flexibility Score: inf
ROOT
ATOM      1  C   UNL A   1      36.694  21.812  25.579  1.00  0.00     0.118 C 
ENDROOT
BRANCH   1   2
ATOM      2  N   UNL A   1      35.609  21.790  26.509  1.00  0.00    -0.351 N 
ATOM      3  C   UNL A   1      34.286  21.477  26.407  1.00  0.00     0.271 C 
ATOM      4  O   UNL A   1      33.695  21.589  27.492  1.00  0.00    -0.267 OA
ATOM      5  H   UNL A   1      35.873  22.061  27.418  1.00  0.00     0.163 HD
BRANCH   3   6
ATOM      6  C   UNL A   1      33.494  21.058  25.176  1.00  0.00     0.149 A 
ATOM      7  C   UNL A   1      32.568  22.141  23.299  1.00  0.00     0.126 A 
ATOM      8  C   UNL A   1      32.133  20.958  22.758  1.00  0.00     0.048 A 
ATOM      9  N   UNL A   1      33.283  22.187  24.426  1.00  0.00    -0.224 NA
ATOM     10  C   UNL A   1      32.353  19.799  23.471  1.00  0.00     0.027 A 
ATOM     11  C   UNL A   1      32.974  19.840  24.728  1.00  0.00     0.072 A 
ATOM     12  Cl  UNL A   1      32.809  18.325  25.509  1.00  0.00    -0.082 Cl
BRANCH   7  13
ATOM     13  N   UNL A   1      32.233  23.359  22.757  1.00  0.00    -0.370 N 
ATOM     14  H   UNL A   1      31.331  23.533  22.404  1.00  0.00     0.162 HD
BRANCH  13  15
ATOM     15  C   UNL A   1      33.274  24.387  22.726  1.00  0.00     0.119 C 
BRANCH  15  16
ATOM     16  C   UNL A   1      32.678  25.806  22.758  1.00  0.00     0.057 C 
BRANCH  16  17
ATOM     17  C   UNL A   1      32.529  26.324  24.175  1.00  0.00    -0.043 A 
ATOM     18  C   UNL A   1      29.973  26.002  24.234  1.00  0.00     0.045 C 
ATOM     19  C   UNL A   1      31.278  26.481  24.810  1.00  0.00    -0.045 A 
ATOM     20  C   UNL A   1      31.235  27.081  26.081  1.00  0.00     0.043 A 
ATOM     21  C   UNL A   1      32.398  27.531  26.695  1.00  0.00     0.123 A 
ATOM     22  C   UNL A   1      33.699  26.745  24.844  1.00  0.00     0.007 A 
ATOM     23  F   UNL A   1      32.325  28.130  27.891  1.00  0.00    -0.207 F 
ATOM     24  C   UNL A   1      33.632  27.363  26.089  1.00  0.00     0.039 A 
ENDBRANCH  16  17
ENDBRANCH  15  16
ENDBRANCH  13  15
ENDBRANCH   7  13
ENDBRANCH   3   6
ENDBRANCH   1   2
BRANCH   1  25
ATOM     25  C   UNL A   1      37.005  23.240  25.122  1.00  0.00     0.042 C 
BRANCH  25  26
ATOM     26  C   UNL A   1      37.569  24.002  26.283  1.00  0.00     0.118 C 
BRANCH  26  27
ATOM     27  N   UNL A   1      38.777  23.328  26.788  1.00  0.00    -0.352 N 
ATOM     28  C   UNL A   1      39.997  23.875  27.127  1.00  0.00     0.251 C 
ATOM     29  H   UNL A   1      38.704  22.352  26.898  1.00  0.00     0.163 HD
ATOM     30  O   UNL A   1      41.000  23.193  27.215  1.00  0.00    -0.269 OA
BRANCH  28  31
ATOM     31  C   UNL A   1      40.026  25.312  27.413  1.00  0.00     0.039 A 
ATOM     32  C   UNL A   1      40.307  26.287  26.454  1.00  0.00     0.014 A 
ATOM     33  C   UNL A   1      39.785  25.662  28.730  1.00  0.00     0.014 A 
ATOM     34  C   UNL A   1      40.350  27.616  26.864  1.00  0.00     0.010 A 
ATOM     35  C   UNL A   1      39.443  26.928  29.026  1.00  0.00     0.010 A 
ATOM     36  C   UNL A   1      39.935  27.897  28.165  1.00  0.00    -0.014 A 
BRANCH  36  37
ATOM     37  C   UNL A   1      40.102  29.139  28.882  1.00  0.00     0.031 A 
ATOM     38  C   UNL A   1      38.989  30.077  28.882  1.00  0.00     0.074 A 
ATOM     39  C   UNL A   1      41.132  29.094  29.762  1.00  0.00     0.049 A 
ATOM     40  N   UNL A   1      39.096  31.326  29.141  1.00  0.00    -0.248 NA
ATOM     41  C   UNL A   1      37.627  29.671  28.546  1.00  0.00     0.031 C 
ATOM     42  C   UNL A   1      41.385  29.824  30.991  1.00  0.00     0.029 A 
ATOM     43  N   UNL A   1      42.255  28.245  29.658  1.00  0.00    -0.354 N 
ATOM     44  C   UNL A   1      37.821  31.775  29.410  1.00  0.00     0.074 A 
ATOM     45  C   UNL A   1      36.946  30.784  28.835  1.00  0.00     0.031 C 
ATOM     46  C   UNL A   1      42.687  29.673  31.319  1.00  0.00     0.029 A 
ATOM     47  C   UNL A   1      43.328  28.934  30.236  1.00  0.00     0.049 A 
ATOM     48  H   UNL A   1      42.279  27.346  29.257  1.00  0.00     0.167 HD
ATOM     49  C   UNL A   1      37.682  32.802  30.300  1.00  0.00     0.037 A 
ATOM     50  C   UNL A   1      44.286  29.411  29.384  1.00  0.00     0.037 A 
ATOM     51  C   UNL A   1      39.008  33.169  30.814  1.00  0.00     0.049 A 
ATOM     52  C   UNL A   1      44.192  30.913  29.303  1.00  0.00     0.074 A 
ATOM     53  C   UNL A   1      39.670  32.804  31.976  1.00  0.00     0.029 A 
ATOM     54  N   UNL A   1      39.979  33.650  29.942  1.00  0.00    -0.354 N 
ATOM     55  N   UNL A   1      43.084  31.584  29.473  1.00  0.00    -0.248 NA
ATOM     56  C   UNL A   1      45.354  31.769  29.112  1.00  0.00     0.031 C 
ATOM     57  C   UNL A   1      41.061  32.993  31.762  1.00  0.00     0.029 A 
ATOM     58  C   UNL A   1      41.244  33.468  30.473  1.00  0.00     0.049 A 
ATOM     59  H   UNL A   1      39.793  34.063  29.069  1.00  0.00     0.167 HD
ATOM     60  C   UNL A   1      43.369  32.919  29.489  1.00  0.00     0.074 A 
ATOM     61  C   UNL A   1      44.798  32.986  29.236  1.00  0.00     0.031 C 
ATOM     62  C   UNL A   1      42.427  33.878  29.734  1.00  0.00     0.037 A 
BRANCH  49  63
ATOM     63  C   UNL A   1      36.397  33.246  30.970  1.00  0.00     0.064 A 
ATOM     64  C   UNL A   1      35.484  34.068  30.268  1.00  0.00     0.173 A 
ATOM     65  C   UNL A   1      35.996  32.921  32.279  1.00  0.00     0.173 A 
ATOM     66  F   UNL A   1      35.674  34.389  28.982  1.00  0.00    -0.203 F 
ATOM     67  C   UNL A   1      34.323  34.584  30.852  1.00  0.00     0.198 A 
ATOM     68  C   UNL A   1      34.848  33.460  32.874  1.00  0.00     0.198 A 
ATOM     69  F   UNL A   1      36.655  32.026  33.019  1.00  0.00    -0.203 F 
ATOM     70  F   UNL A   1      33.506  35.362  30.129  1.00  0.00    -0.200 F 
ATOM     71  C   UNL A   1      34.014  34.296  32.163  1.00  0.00     0.200 A 
ATOM     72  F   UNL A   1      34.549  33.146  34.144  1.00  0.00    -0.200 F 
ATOM     73  F   UNL A   1      32.907  34.795  32.727  1.00  0.00    -0.200 F 
ENDBRANCH  49  63
BRANCH  50  74
ATOM     74  C   UNL A   1      44.506  28.469  28.233  1.00  0.00     0.064 A 
ATOM     75  C   UNL A   1      44.907  27.152  28.552  1.00  0.00     0.173 A 
ATOM     76  C   UNL A   1      43.900  28.665  26.982  1.00  0.00     0.173 A 
ATOM     77  F   UNL A   1      45.500  26.902  29.732  1.00  0.00    -0.203 F 
ATOM     78  C   UNL A   1      44.558  26.067  27.748  1.00  0.00     0.198 A 
ATOM     79  C   UNL A   1      43.583  27.574  26.162  1.00  0.00     0.198 A 
ATOM     80  F   UNL A   1      43.506  29.887  26.601  1.00  0.00    -0.203 F 
ATOM     81  F   UNL A   1      44.805  24.817  28.169  1.00  0.00    -0.200 F 
ATOM     82  C   UNL A   1      43.868  26.278  26.568  1.00  0.00     0.200 A 
ATOM     83  F   UNL A   1      42.915  27.773  25.015  1.00  0.00    -0.200 F 
ATOM     84  F   UNL A   1      43.448  25.231  25.842  1.00  0.00    -0.200 F 
ENDBRANCH  50  74
BRANCH  62  85
ATOM     85  C   UNL A   1      42.603  35.331  29.395  1.00  0.00     0.064 A 
ATOM     86  C   UNL A   1      43.364  36.212  30.181  1.00  0.00     0.173 A 
ATOM     87  C   UNL A   1      42.134  35.852  28.167  1.00  0.00     0.173 A 
ATOM     88  F   UNL A   1      43.999  35.795  31.285  1.00  0.00    -0.203 F 
ATOM     89  C   UNL A   1      43.543  37.545  29.823  1.00  0.00     0.198 A 
ATOM     90  C   UNL A   1      42.386  37.162  27.775  1.00  0.00     0.198 A 
ATOM     91  F   UNL A   1      41.446  35.100  27.296  1.00  0.00    -0.203 F 
ATOM     92  F   UNL A   1      44.210  38.365  30.646  1.00  0.00    -0.200 F 
ATOM     93  C   UNL A   1      43.062  38.019  28.618  1.00  0.00     0.200 A 
ATOM     94  F   UNL A   1      41.983  37.582  26.567  1.00  0.00    -0.200 F 
ATOM     95  F   UNL A   1      43.268  39.292  28.260  1.00  0.00    -0.200 F 
ENDBRANCH  62  85
ENDBRANCH  36  37
ENDBRANCH  28  31
ENDBRANCH  26  27
ENDBRANCH  25  26
ENDBRANCH   1  25
TORSDOF 14
ENDMDL
