MODEL 1
REMARK VINA RESULT:     -13.6      0.000      0.000
REMARK SMILES COc1cc(C(=O)N[C@H](C(=O)NCCCNC(=O)c2ccc(-c3c4nc(c(-c5c(F)c(F)c(F)c(F)c5F)c5ccc([nH]5)c(-c5c(F)c(F)c(F)c(F)c5F)c5nc(c(-c6c(F)c(F)c(F)c(F)c6F)c6ccc3[nH]6)C=C5)C=C4)cc2)C2=C(C)N=N[C@H]2C)ccc1C
REMARK SMILES IDX 13 1 12 2 10 3 11 4 9 6 8 7 6 8 7 9 5 11 3 12 4 13 91 14
REMARK SMILES IDX 90 15 92 16 89 17 2 18 1 19 82 20 83 21 87 22 84 23 85 24
REMARK SMILES IDX 86 25 88 26 14 27 15 28 16 29 17 30 18 32 19 33 20 34 81 35
REMARK SMILES IDX 21 36 80 37 22 38 23 39 24 40 74 41 25 42 79 43 73 44 75 45
REMARK SMILES IDX 26 46 78 47 72 48 71 49 27 51 59 52 39 53 58 54 40 55 43 56
REMARK SMILES IDX 57 57 76 58 41 59 42 60 56 62 77 63 44 64 28 65 29 66 37 67
REMARK SMILES IDX 30 68 31 69 35 70 38 71 32 72 33 73 36 74 34 75 60 76 61 77
REMARK SMILES IDX 69 78 62 79 63 80 67 81 70 82 64 83 65 84 68 85 66 86 45 87
REMARK SMILES IDX 46 88 54 89 47 90 48 91 52 92 55 93 49 94 50 95 53 96 51 97
REMARK H PARENT 12 5 8 10 16 31 75 50 43 61
REMARK Flexibility Score: inf
ROOT
ATOM      1  C   UNL A   1      35.749  20.698  25.339  1.00  0.00     0.117 C 
ENDROOT
BRANCH   1   2
ATOM      2  N   UNL A   1      35.306  21.449  26.499  1.00  0.00    -0.354 N 
ATOM      3  C   UNL A   1      34.120  22.116  26.682  1.00  0.00     0.247 C 
ATOM      4  O   UNL A   1      34.090  22.975  27.569  1.00  0.00    -0.272 OA
ATOM      5  H   UNL A   1      35.938  21.485  27.254  1.00  0.00     0.163 HD
BRANCH   3   6
ATOM      6  C   UNL A   1      32.887  21.817  25.765  1.00  0.00     0.202 C 
BRANCH   6   7
ATOM      7  N   UNL A   1      31.516  22.165  26.139  1.00  0.00    -0.337 N 
ATOM      8  C   UNL A   1      30.947  23.328  26.567  1.00  0.00     0.252 C 
ATOM      9  O   UNL A   1      30.254  23.272  27.578  1.00  0.00    -0.269 OA
ATOM     10  H   UNL A   1      30.881  21.416  26.066  1.00  0.00     0.165 HD
BRANCH   8  11
ATOM     11  C   UNL A   1      31.100  24.614  25.839  1.00  0.00     0.043 A 
ATOM     12  C   UNL A   1      31.733  26.943  25.729  1.00  0.00     0.122 A 
ATOM     13  C   UNL A   1      31.896  25.676  26.266  1.00  0.00     0.060 A 
ATOM     14  C   UNL A   1      30.870  27.144  24.665  1.00  0.00    -0.009 A 
ATOM     15  C   UNL A   1      30.232  26.035  24.101  1.00  0.00     0.008 A 
ATOM     16  C   UNL A   1      30.653  28.550  24.210  1.00  0.00     0.048 C 
ATOM     17  C   UNL A   1      30.338  24.777  24.685  1.00  0.00     0.014 A 
BRANCH  12  18
ATOM     18  O   UNL A   1      32.252  28.062  26.315  1.00  0.00    -0.496 OA
ATOM     19  C   UNL A   1      31.776  28.322  27.626  1.00  0.00     0.278 C 
ENDBRANCH  12  18
ENDBRANCH   8  11
ENDBRANCH   6   7
BRANCH   6  20
ATOM     20  C   UNL A   1      33.066  22.331  24.364  1.00  0.00     0.011 C 
ATOM     21  C   UNL A   1      33.822  23.292  23.811  1.00  0.00     0.064 C 
ATOM     22  C   UNL A   1      32.232  21.812  23.238  1.00  0.00     0.156 C 
ATOM     23  C   UNL A   1      34.862  24.184  24.398  1.00  0.00     0.069 C 
ATOM     24  N   UNL A   1      33.542  23.472  22.478  1.00  0.00    -0.160 NA
ATOM     25  N   UNL A   1      32.629  22.689  22.108  1.00  0.00    -0.181 NA
ATOM     26  C   UNL A   1      32.526  20.373  22.847  1.00  0.00     0.040 C 
ENDBRANCH   6  20
ENDBRANCH   3   6
ENDBRANCH   1   2
BRANCH   1  27
ATOM     27  C   UNL A   1      37.244  20.814  25.045  1.00  0.00     0.042 C 
BRANCH  27  28
ATOM     28  C   UNL A   1      37.987  22.064  25.528  1.00  0.00     0.118 C 
BRANCH  28  29
ATOM     29  N   UNL A   1      39.134  21.826  26.400  1.00  0.00    -0.352 N 
ATOM     30  C   UNL A   1      39.979  22.678  27.098  1.00  0.00     0.251 C 
ATOM     31  H   UNL A   1      39.351  20.873  26.516  1.00  0.00     0.163 HD
ATOM     32  O   UNL A   1      40.917  22.179  27.716  1.00  0.00    -0.269 OA
BRANCH  30  33
ATOM     33  C   UNL A   1      39.750  24.152  27.241  1.00  0.00     0.039 A 
ATOM     34  C   UNL A   1      40.298  25.022  26.270  1.00  0.00     0.014 A 
ATOM     35  C   UNL A   1      39.137  24.721  28.343  1.00  0.00     0.014 A 
ATOM     36  C   UNL A   1      40.403  26.409  26.501  1.00  0.00     0.010 A 
ATOM     37  C   UNL A   1      39.284  26.076  28.595  1.00  0.00     0.010 A 
ATOM     38  C   UNL A   1      39.975  26.926  27.717  1.00  0.00    -0.014 A 
BRANCH  38  39
ATOM     39  C   UNL A   1      40.333  28.243  28.279  1.00  0.00     0.031 A 
ATOM     40  C   UNL A   1      39.307  29.319  28.413  1.00  0.00     0.074 A 
ATOM     41  C   UNL A   1      41.411  28.301  29.108  1.00  0.00     0.049 A 
ATOM     42  N   UNL A   1      39.539  30.484  28.923  1.00  0.00    -0.248 NA
ATOM     43  C   UNL A   1      37.909  29.151  28.027  1.00  0.00     0.031 C 
ATOM     44  C   UNL A   1      41.517  29.108  30.332  1.00  0.00     0.029 A 
ATOM     45  N   UNL A   1      42.602  27.560  29.120  1.00  0.00    -0.354 N 
ATOM     46  C   UNL A   1      38.328  31.041  29.266  1.00  0.00     0.074 A 
ATOM     47  C   UNL A   1      37.341  30.207  28.619  1.00  0.00     0.031 C 
ATOM     48  C   UNL A   1      42.751  29.006  30.844  1.00  0.00     0.029 A 
ATOM     49  C   UNL A   1      43.545  28.307  29.862  1.00  0.00     0.049 A 
ATOM     50  H   UNL A   1      42.753  26.685  28.693  1.00  0.00     0.167 HD
ATOM     51  C   UNL A   1      38.282  32.054  30.181  1.00  0.00     0.037 A 
ATOM     52  C   UNL A   1      44.678  28.792  29.280  1.00  0.00     0.037 A 
ATOM     53  C   UNL A   1      39.612  32.354  30.720  1.00  0.00     0.049 A 
ATOM     54  C   UNL A   1      44.723  30.295  29.332  1.00  0.00     0.074 A 
ATOM     55  C   UNL A   1      40.219  32.073  31.934  1.00  0.00     0.029 A 
ATOM     56  N   UNL A   1      40.628  32.784  29.869  1.00  0.00    -0.354 N 
ATOM     57  N   UNL A   1      43.653  31.025  29.489  1.00  0.00    -0.248 NA
ATOM     58  C   UNL A   1      45.937  31.098  29.276  1.00  0.00     0.031 C 
ATOM     59  C   UNL A   1      41.605  32.341  31.811  1.00  0.00     0.029 A 
ATOM     60  C   UNL A   1      41.845  32.787  30.523  1.00  0.00     0.049 A 
ATOM     61  H   UNL A   1      40.497  33.049  28.930  1.00  0.00     0.167 HD
ATOM     62  C   UNL A   1      43.999  32.337  29.622  1.00  0.00     0.074 A 
ATOM     63  C   UNL A   1      45.441  32.338  29.452  1.00  0.00     0.031 C 
ATOM     64  C   UNL A   1      43.055  33.289  29.883  1.00  0.00     0.037 A 
BRANCH  51  65
ATOM     65  C   UNL A   1      37.002  32.605  30.783  1.00  0.00     0.064 A 
ATOM     66  C   UNL A   1      36.133  33.447  30.051  1.00  0.00     0.173 A 
ATOM     67  C   UNL A   1      36.567  32.321  32.093  1.00  0.00     0.173 A 
ATOM     68  F   UNL A   1      36.345  33.728  28.760  1.00  0.00    -0.203 F 
ATOM     69  C   UNL A   1      34.995  34.035  30.615  1.00  0.00     0.198 A 
ATOM     70  C   UNL A   1      35.459  32.950  32.674  1.00  0.00     0.198 A 
ATOM     71  F   UNL A   1      37.167  31.379  32.833  1.00  0.00    -0.203 F 
ATOM     72  F   UNL A   1      34.213  34.823  29.863  1.00  0.00    -0.200 F 
ATOM     73  C   UNL A   1      34.677  33.814  31.936  1.00  0.00     0.200 A 
ATOM     74  F   UNL A   1      35.152  32.704  33.956  1.00  0.00    -0.200 F 
ATOM     75  F   UNL A   1      33.608  34.405  32.487  1.00  0.00    -0.200 F 
ENDBRANCH  51  65
BRANCH  52  76
ATOM     76  C   UNL A   1      45.152  27.884  28.199  1.00  0.00     0.064 A 
ATOM     77  C   UNL A   1      45.748  26.676  28.627  1.00  0.00     0.173 A 
ATOM     78  C   UNL A   1      44.520  27.887  26.947  1.00  0.00     0.173 A 
ATOM     79  F   UNL A   1      46.357  26.620  29.823  1.00  0.00    -0.203 F 
ATOM     80  C   UNL A   1      45.553  25.488  27.925  1.00  0.00     0.198 A 
ATOM     81  C   UNL A   1      44.338  26.693  26.243  1.00  0.00     0.198 A 
ATOM     82  F   UNL A   1      43.922  28.999  26.497  1.00  0.00    -0.203 F 
ATOM     83  F   UNL A   1      45.984  24.328  28.442  1.00  0.00    -0.200 F 
ATOM     84  C   UNL A   1      44.812  25.492  26.756  1.00  0.00     0.200 A 
ATOM     85  F   UNL A   1      43.597  26.684  25.126  1.00  0.00    -0.200 F 
ATOM     86  F   UNL A   1      44.503  24.335  26.153  1.00  0.00    -0.200 F 
ENDBRANCH  52  76
BRANCH  64  87
ATOM     87  C   UNL A   1      43.200  34.779  29.688  1.00  0.00     0.064 A 
ATOM     88  C   UNL A   1      43.476  35.681  30.728  1.00  0.00     0.173 A 
ATOM     89  C   UNL A   1      43.247  35.332  28.381  1.00  0.00     0.173 A 
ATOM     90  F   UNL A   1      43.577  35.276  32.000  1.00  0.00    -0.203 F 
ATOM     91  C   UNL A   1      43.727  37.033  30.489  1.00  0.00     0.198 A 
ATOM     92  C   UNL A   1      43.561  36.668  28.143  1.00  0.00     0.198 A 
ATOM     93  F   UNL A   1      43.028  34.591  27.286  1.00  0.00    -0.203 F 
ATOM     94  F   UNL A   1      43.948  37.856  31.523  1.00  0.00    -0.200 F 
ATOM     95  C   UNL A   1      43.787  37.523  29.199  1.00  0.00     0.200 A 
ATOM     96  F   UNL A   1      43.670  37.110  26.882  1.00  0.00    -0.200 F 
ATOM     97  F   UNL A   1      44.085  38.809  28.973  1.00  0.00    -0.200 F 
ENDBRANCH  64  87
ENDBRANCH  38  39
ENDBRANCH  30  33
ENDBRANCH  28  29
ENDBRANCH  27  28
ENDBRANCH   1  27
TORSDOF 14
ENDMDL
MODEL 2
REMARK VINA RESULT:     -13.3      3.316      9.381
REMARK SMILES COc1cc(C(=O)N[C@H](C(=O)NCCCNC(=O)c2ccc(-c3c4nc(c(-c5c(F)c(F)c(F)c(F)c5F)c5ccc([nH]5)c(-c5c(F)c(F)c(F)c(F)c5F)c5nc(c(-c6c(F)c(F)c(F)c(F)c6F)c6ccc3[nH]6)C=C5)C=C4)cc2)C2=C(C)N=N[C@H]2C)ccc1C
REMARK SMILES IDX 13 1 12 2 10 3 11 4 9 6 8 7 6 8 7 9 5 11 3 12 4 13 91 14
REMARK SMILES IDX 90 15 92 16 89 17 2 18 1 19 82 20 83 21 87 22 84 23 85 24
REMARK SMILES IDX 86 25 88 26 14 27 15 28 16 29 17 30 18 32 19 33 20 34 81 35
REMARK SMILES IDX 21 36 80 37 22 38 23 39 24 40 74 41 25 42 79 43 73 44 75 45
REMARK SMILES IDX 26 46 78 47 72 48 71 49 27 51 59 52 39 53 58 54 40 55 43 56
REMARK SMILES IDX 57 57 76 58 41 59 42 60 56 62 77 63 44 64 28 65 29 66 37 67
REMARK SMILES IDX 30 68 31 69 35 70 38 71 32 72 33 73 36 74 34 75 60 76 61 77
REMARK SMILES IDX 69 78 62 79 63 80 67 81 70 82 64 83 65 84 68 85 66 86 45 87
REMARK SMILES IDX 46 88 54 89 47 90 48 91 52 92 55 93 49 94 50 95 53 96 51 97
REMARK H PARENT 12 5 8 10 16 31 75 50 43 61
REMARK Flexibility Score: inf
ROOT
ATOM      1  C   UNL A   1      33.908  28.232  26.116  1.00  0.00     0.117 C 
ENDROOT
BRANCH   1   2
ATOM      2  N   UNL A   1      32.786  27.358  26.409  1.00  0.00    -0.354 N 
ATOM      3  C   UNL A   1      31.662  27.131  25.656  1.00  0.00     0.247 C 
ATOM      4  O   UNL A   1      30.685  26.648  26.236  1.00  0.00    -0.272 OA
ATOM      5  H   UNL A   1      32.840  26.863  27.259  1.00  0.00     0.163 HD
BRANCH   3   6
ATOM      6  C   UNL A   1      31.627  27.516  24.138  1.00  0.00     0.202 C 
BRANCH   6   7
ATOM      7  N   UNL A   1      32.032  26.595  23.075  1.00  0.00    -0.337 N 
ATOM      8  C   UNL A   1      33.075  25.724  22.962  1.00  0.00     0.252 C 
ATOM      9  O   UNL A   1      33.742  25.782  21.934  1.00  0.00    -0.269 OA
ATOM     10  H   UNL A   1      31.437  26.605  22.292  1.00  0.00     0.165 HD
BRANCH   8  11
ATOM     11  C   UNL A   1      33.387  24.705  23.997  1.00  0.00     0.043 A 
ATOM     12  C   UNL A   1      32.730  23.060  25.641  1.00  0.00     0.122 A 
ATOM     13  C   UNL A   1      32.488  23.746  24.461  1.00  0.00     0.060 A 
ATOM     14  C   UNL A   1      33.934  23.220  26.306  1.00  0.00    -0.009 A 
ATOM     15  C   UNL A   1      34.920  24.022  25.723  1.00  0.00     0.008 A 
ATOM     16  C   UNL A   1      34.086  22.543  27.628  1.00  0.00     0.048 C 
ATOM     17  C   UNL A   1      34.651  24.768  24.580  1.00  0.00     0.014 A 
BRANCH  12  18
ATOM     18  O   UNL A   1      31.761  22.354  26.294  1.00  0.00    -0.496 OA
ATOM     19  C   UNL A   1      30.518  23.027  26.418  1.00  0.00     0.278 C 
ENDBRANCH  12  18
ENDBRANCH   8  11
ENDBRANCH   6   7
BRANCH   6  20
ATOM     20  C   UNL A   1      30.297  28.068  23.709  1.00  0.00     0.011 C 
ATOM     21  C   UNL A   1      29.071  27.542  23.563  1.00  0.00     0.064 C 
ATOM     22  C   UNL A   1      30.162  29.478  23.233  1.00  0.00     0.156 C 
ATOM     23  C   UNL A   1      28.543  26.180  23.864  1.00  0.00     0.069 C 
ATOM     24  N   UNL A   1      28.182  28.437  23.017  1.00  0.00    -0.160 NA
ATOM     25  N   UNL A   1      28.751  29.533  22.778  1.00  0.00    -0.181 NA
ATOM     26  C   UNL A   1      30.354  30.529  24.314  1.00  0.00     0.040 C 
ENDBRANCH   6  20
ENDBRANCH   3   6
ENDBRANCH   1   2
BRANCH   1  27
ATOM     27  C   UNL A   1      33.540  29.709  25.987  1.00  0.00     0.042 C 
BRANCH  27  28
ATOM     28  C   UNL A   1      33.317  30.520  27.267  1.00  0.00     0.118 C 
BRANCH  28  29
ATOM     29  N   UNL A   1      34.226  31.643  27.477  1.00  0.00    -0.352 N 
ATOM     30  C   UNL A   1      35.531  31.722  27.946  1.00  0.00     0.251 C 
ATOM     31  H   UNL A   1      33.839  32.515  27.239  1.00  0.00     0.163 HD
ATOM     32  O   UNL A   1      36.030  32.839  28.073  1.00  0.00    -0.269 OA
BRANCH  30  33
ATOM     33  C   UNL A   1      36.406  30.532  28.194  1.00  0.00     0.039 A 
ATOM     34  C   UNL A   1      36.303  29.860  29.434  1.00  0.00     0.014 A 
ATOM     35  C   UNL A   1      37.402  30.127  27.323  1.00  0.00     0.014 A 
ATOM     36  C   UNL A   1      37.294  28.953  29.863  1.00  0.00     0.010 A 
ATOM     37  C   UNL A   1      38.403  29.276  27.763  1.00  0.00     0.010 A 
ATOM     38  C   UNL A   1      38.402  28.730  29.057  1.00  0.00    -0.014 A 
BRANCH  38  39
ATOM     39  C   UNL A   1      39.683  28.131  29.480  1.00  0.00     0.031 A 
ATOM     40  C   UNL A   1      40.091  26.781  28.991  1.00  0.00     0.074 A 
ATOM     41  C   UNL A   1      40.671  28.976  29.879  1.00  0.00     0.049 A 
ATOM     42  N   UNL A   1      41.209  26.207  29.292  1.00  0.00    -0.248 NA
ATOM     43  C   UNL A   1      39.289  25.982  28.069  1.00  0.00     0.031 C 
ATOM     44  C   UNL A   1      42.103  28.835  29.575  1.00  0.00     0.029 A 
ATOM     45  N   UNL A   1      40.613  30.217  30.532  1.00  0.00    -0.354 N 
ATOM     46  C   UNL A   1      41.433  25.211  28.369  1.00  0.00     0.074 A 
ATOM     47  C   UNL A   1      40.174  25.061  27.675  1.00  0.00     0.031 C 
ATOM     48  C   UNL A   1      42.803  29.786  30.210  1.00  0.00     0.029 A 
ATOM     49  C   UNL A   1      41.883  30.439  31.111  1.00  0.00     0.049 A 
ATOM     50  H   UNL A   1      39.835  30.819  30.578  1.00  0.00     0.167 HD
ATOM     51  C   UNL A   1      42.697  24.726  28.187  1.00  0.00     0.037 A 
ATOM     52  C   UNL A   1      42.038  30.528  32.462  1.00  0.00     0.037 A 
ATOM     53  C   UNL A   1      43.671  25.438  29.019  1.00  0.00     0.049 A 
ATOM     54  C   UNL A   1      42.937  29.440  32.986  1.00  0.00     0.074 A 
ATOM     55  C   UNL A   1      44.630  26.398  28.732  1.00  0.00     0.029 A 
ATOM     56  N   UNL A   1      43.553  25.412  30.407  1.00  0.00    -0.354 N 
ATOM     57  N   UNL A   1      43.156  28.333  32.330  1.00  0.00    -0.248 NA
ATOM     58  C   UNL A   1      43.701  29.511  34.223  1.00  0.00     0.031 C 
ATOM     59  C   UNL A   1      45.092  26.946  29.954  1.00  0.00     0.029 A 
ATOM     60  C   UNL A   1      44.417  26.320  30.989  1.00  0.00     0.049 A 
ATOM     61  H   UNL A   1      42.938  24.827  30.906  1.00  0.00     0.167 HD
ATOM     62  C   UNL A   1      44.098  27.589  32.974  1.00  0.00     0.074 A 
ATOM     63  C   UNL A   1      44.390  28.353  34.174  1.00  0.00     0.031 C 
ATOM     64  C   UNL A   1      44.559  26.421  32.436  1.00  0.00     0.037 A 
BRANCH  51  65
ATOM     65  C   UNL A   1      43.098  23.782  27.068  1.00  0.00     0.064 A 
ATOM     66  C   UNL A   1      42.782  22.404  27.104  1.00  0.00     0.173 A 
ATOM     67  C   UNL A   1      43.792  24.188  25.911  1.00  0.00     0.173 A 
ATOM     68  F   UNL A   1      42.034  21.877  28.080  1.00  0.00    -0.203 F 
ATOM     69  C   UNL A   1      43.217  21.502  26.127  1.00  0.00     0.198 A 
ATOM     70  C   UNL A   1      44.273  23.279  24.961  1.00  0.00     0.198 A 
ATOM     71  F   UNL A   1      43.976  25.485  25.634  1.00  0.00    -0.203 F 
ATOM     72  F   UNL A   1      42.881  20.207  26.221  1.00  0.00    -0.200 F 
ATOM     73  C   UNL A   1      43.992  21.933  25.074  1.00  0.00     0.200 A 
ATOM     74  F   UNL A   1      45.007  23.722  23.930  1.00  0.00    -0.200 F 
ATOM     75  F   UNL A   1      44.439  21.065  24.157  1.00  0.00    -0.200 F 
ENDBRANCH  51  65
BRANCH  52  76
ATOM     76  C   UNL A   1      40.830  31.123  33.099  1.00  0.00     0.064 A 
ATOM     77  C   UNL A   1      40.677  32.518  32.944  1.00  0.00     0.173 A 
ATOM     78  C   UNL A   1      39.666  30.356  33.257  1.00  0.00     0.173 A 
ATOM     79  F   UNL A   1      41.762  33.294  32.780  1.00  0.00    -0.203 F 
ATOM     80  C   UNL A   1      39.420  33.090  32.764  1.00  0.00     0.198 A 
ATOM     81  C   UNL A   1      38.407  30.939  33.086  1.00  0.00     0.198 A 
ATOM     82  F   UNL A   1      39.748  29.025  33.389  1.00  0.00    -0.203 F 
ATOM     83  F   UNL A   1      39.315  34.390  32.449  1.00  0.00    -0.200 F 
ATOM     84  C   UNL A   1      38.289  32.292  32.793  1.00  0.00     0.200 A 
ATOM     85  F   UNL A   1      37.310  30.168  33.084  1.00  0.00    -0.200 F 
ATOM     86  F   UNL A   1      37.093  32.812  32.482  1.00  0.00    -0.200 F 
ENDBRANCH  52  76
BRANCH  64  87
ATOM     87  C   UNL A   1      45.290  25.319  33.165  1.00  0.00     0.064 A 
ATOM     88  C   UNL A   1      46.689  25.211  33.221  1.00  0.00     0.173 A 
ATOM     89  C   UNL A   1      44.581  24.419  34.004  1.00  0.00     0.173 A 
ATOM     90  F   UNL A   1      47.485  26.068  32.570  1.00  0.00    -0.203 F 
ATOM     91  C   UNL A   1      47.327  24.251  34.008  1.00  0.00     0.198 A 
ATOM     92  C   UNL A   1      45.224  23.506  34.837  1.00  0.00     0.198 A 
ATOM     93  F   UNL A   1      43.243  24.417  34.076  1.00  0.00    -0.203 F 
ATOM     94  F   UNL A   1      48.664  24.170  33.996  1.00  0.00    -0.200 F 
ATOM     95  C   UNL A   1      46.598  23.412  34.828  1.00  0.00     0.200 A 
ATOM     96  F   UNL A   1      44.501  22.740  35.666  1.00  0.00    -0.200 F 
ATOM     97  F   UNL A   1      47.218  22.532  35.625  1.00  0.00    -0.200 F 
ENDBRANCH  64  87
ENDBRANCH  38  39
ENDBRANCH  30  33
ENDBRANCH  28  29
ENDBRANCH  27  28
ENDBRANCH   1  27
TORSDOF 14
ENDMDL
MODEL 3
REMARK VINA RESULT:     -13.3      3.750      9.481
REMARK SMILES COc1cc(C(=O)N[C@H](C(=O)NCCCNC(=O)c2ccc(-c3c4nc(c(-c5c(F)c(F)c(F)c(F)c5F)c5ccc([nH]5)c(-c5c(F)c(F)c(F)c(F)c5F)c5nc(c(-c6c(F)c(F)c(F)c(F)c6F)c6ccc3[nH]6)C=C5)C=C4)cc2)C2=C(C)N=N[C@H]2C)ccc1C
REMARK SMILES IDX 13 1 12 2 10 3 11 4 9 6 8 7 6 8 7 9 5 11 3 12 4 13 91 14
REMARK SMILES IDX 90 15 92 16 89 17 2 18 1 19 82 20 83 21 87 22 84 23 85 24
REMARK SMILES IDX 86 25 88 26 14 27 15 28 16 29 17 30 18 32 19 33 20 34 81 35
REMARK SMILES IDX 21 36 80 37 22 38 23 39 24 40 74 41 25 42 79 43 73 44 75 45
REMARK SMILES IDX 26 46 78 47 72 48 71 49 27 51 59 52 39 53 58 54 40 55 43 56
REMARK SMILES IDX 57 57 76 58 41 59 42 60 56 62 77 63 44 64 28 65 29 66 37 67
REMARK SMILES IDX 30 68 31 69 35 70 38 71 32 72 33 73 36 74 34 75 60 76 61 77
REMARK SMILES IDX 69 78 62 79 63 80 67 81 70 82 64 83 65 84 68 85 66 86 45 87
REMARK SMILES IDX 46 88 54 89 47 90 48 91 52 92 55 93 49 94 50 95 53 96 51 97
REMARK H PARENT 12 5 8 10 16 31 75 50 43 61
REMARK Flexibility Score: inf
ROOT
ATOM      1  C   UNL A   1      32.588  29.917  25.793  1.00  0.00     0.117 C 
ENDROOT
BRANCH   1   2
ATOM      2  N   UNL A   1      32.239  28.531  26.046  1.00  0.00    -0.354 N 
ATOM      3  C   UNL A   1      31.523  27.672  25.250  1.00  0.00     0.247 C 
ATOM      4  O   UNL A   1      31.036  26.676  25.795  1.00  0.00    -0.272 OA
ATOM      5  H   UNL A   1      32.559  28.158  26.899  1.00  0.00     0.163 HD
BRANCH   3   6
ATOM      6  C   UNL A   1      31.308  27.984  23.731  1.00  0.00     0.202 C 
BRANCH   6   7
ATOM      7  N   UNL A   1      31.745  27.082  22.665  1.00  0.00    -0.337 N 
ATOM      8  C   UNL A   1      32.828  26.262  22.541  1.00  0.00     0.252 C 
ATOM      9  O   UNL A   1      33.480  26.350  21.506  1.00  0.00    -0.269 OA
ATOM     10  H   UNL A   1      31.141  27.062  21.888  1.00  0.00     0.165 HD
BRANCH   8  11
ATOM     11  C   UNL A   1      33.200  25.261  23.574  1.00  0.00     0.043 A 
ATOM     12  C   UNL A   1      32.679  23.417  25.046  1.00  0.00     0.122 A 
ATOM     13  C   UNL A   1      32.463  24.115  23.869  1.00  0.00     0.060 A 
ATOM     14  C   UNL A   1      33.724  23.770  25.884  1.00  0.00    -0.009 A 
ATOM     15  C   UNL A   1      34.593  24.787  25.479  1.00  0.00     0.008 A 
ATOM     16  C   UNL A   1      33.832  23.054  27.190  1.00  0.00     0.048 C 
ATOM     17  C   UNL A   1      34.334  25.536  24.335  1.00  0.00     0.014 A 
BRANCH  12  18
ATOM     18  O   UNL A   1      31.797  22.493  25.527  1.00  0.00    -0.496 OA
ATOM     19  C   UNL A   1      30.619  23.039  26.100  1.00  0.00     0.278 C 
ENDBRANCH  12  18
ENDBRANCH   8  11
ENDBRANCH   6   7
BRANCH   6  20
ATOM     20  C   UNL A   1      29.883  28.332  23.405  1.00  0.00     0.011 C 
ATOM     21  C   UNL A   1      28.725  27.653  23.433  1.00  0.00     0.064 C 
ATOM     22  C   UNL A   1      29.524  29.667  22.838  1.00  0.00     0.156 C 
ATOM     23  C   UNL A   1      28.407  26.271  23.894  1.00  0.00     0.069 C 
ATOM     24  N   UNL A   1      27.681  28.383  22.918  1.00  0.00    -0.160 NA
ATOM     25  N   UNL A   1      28.079  29.513  22.534  1.00  0.00    -0.181 NA
ATOM     26  C   UNL A   1      29.684  30.827  23.807  1.00  0.00     0.040 C 
ENDBRANCH   6  20
ENDBRANCH   3   6
ENDBRANCH   1   2
BRANCH   1  27
ATOM     27  C   UNL A   1      32.406  30.843  26.994  1.00  0.00     0.042 C 
BRANCH  27  28
ATOM     28  C   UNL A   1      33.599  31.689  27.452  1.00  0.00     0.118 C 
BRANCH  28  29
ATOM     29  N   UNL A   1      33.280  33.029  27.936  1.00  0.00    -0.352 N 
ATOM     30  C   UNL A   1      33.800  33.807  28.962  1.00  0.00     0.251 C 
ATOM     31  H   UNL A   1      32.555  33.468  27.436  1.00  0.00     0.163 HD
ATOM     32  O   UNL A   1      33.277  34.899  29.176  1.00  0.00    -0.269 OA
BRANCH  30  33
ATOM     33  C   UNL A   1      35.027  33.452  29.743  1.00  0.00     0.039 A 
ATOM     34  C   UNL A   1      36.287  33.872  29.257  1.00  0.00     0.014 A 
ATOM     35  C   UNL A   1      35.007  32.625  30.853  1.00  0.00     0.014 A 
ATOM     36  C   UNL A   1      37.487  33.315  29.747  1.00  0.00     0.010 A 
ATOM     37  C   UNL A   1      36.181  32.039  31.301  1.00  0.00     0.010 A 
ATOM     38  C   UNL A   1      37.426  32.321  30.715  1.00  0.00    -0.014 A 
BRANCH  38  39
ATOM     39  C   UNL A   1      38.507  31.381  31.069  1.00  0.00     0.031 A 
ATOM     40  C   UNL A   1      38.725  30.136  30.276  1.00  0.00     0.074 A 
ATOM     41  C   UNL A   1      39.571  31.878  31.758  1.00  0.00     0.049 A 
ATOM     42  N   UNL A   1      39.670  29.283  30.507  1.00  0.00    -0.248 NA
ATOM     43  C   UNL A   1      37.922  29.771  29.112  1.00  0.00     0.031 C 
ATOM     44  C   UNL A   1      40.981  31.517  31.547  1.00  0.00     0.029 A 
ATOM     45  N   UNL A   1      39.652  32.907  32.709  1.00  0.00    -0.354 N 
ATOM     46  C   UNL A   1      39.830  28.517  29.375  1.00  0.00     0.074 A 
ATOM     47  C   UNL A   1      38.670  28.808  28.564  1.00  0.00     0.031 C 
ATOM     48  C   UNL A   1      41.750  32.116  32.466  1.00  0.00     0.029 A 
ATOM     49  C   UNL A   1      40.852  32.710  33.429  1.00  0.00     0.049 A 
ATOM     50  H   UNL A   1      38.997  33.629  32.847  1.00  0.00     0.167 HD
ATOM     51  C   UNL A   1      40.998  27.837  29.176  1.00  0.00     0.037 A 
ATOM     52  C   UNL A   1      40.838  32.434  34.763  1.00  0.00     0.037 A 
ATOM     53  C   UNL A   1      41.965  28.105  30.244  1.00  0.00     0.049 A 
ATOM     54  C   UNL A   1      41.446  31.088  35.053  1.00  0.00     0.074 A 
ATOM     55  C   UNL A   1      43.112  28.882  30.302  1.00  0.00     0.029 A 
ATOM     56  N   UNL A   1      41.660  27.768  31.562  1.00  0.00    -0.354 N 
ATOM     57  N   UNL A   1      41.546  30.153  34.149  1.00  0.00    -0.248 NA
ATOM     58  C   UNL A   1      42.038  30.694  36.324  1.00  0.00     0.031 C 
ATOM     59  C   UNL A   1      43.498  29.008  31.659  1.00  0.00     0.029 A 
ATOM     60  C   UNL A   1      42.588  28.306  32.432  1.00  0.00     0.049 A 
ATOM     61  H   UNL A   1      40.887  27.223  31.835  1.00  0.00     0.167 HD
ATOM     62  C   UNL A   1      42.242  29.093  34.649  1.00  0.00     0.074 A 
ATOM     63  C   UNL A   1      42.505  29.465  36.028  1.00  0.00     0.031 C 
ATOM     64  C   UNL A   1      42.551  28.021  33.861  1.00  0.00     0.037 A 
BRANCH  51  65
ATOM     65  C   UNL A   1      41.367  27.130  27.885  1.00  0.00     0.064 A 
ATOM     66  C   UNL A   1      41.281  25.724  27.751  1.00  0.00     0.173 A 
ATOM     67  C   UNL A   1      41.803  27.797  26.723  1.00  0.00     0.173 A 
ATOM     68  F   UNL A   1      40.785  24.952  28.725  1.00  0.00    -0.203 F 
ATOM     69  C   UNL A   1      41.699  25.046  26.601  1.00  0.00     0.198 A 
ATOM     70  C   UNL A   1      42.270  27.117  25.592  1.00  0.00     0.198 A 
ATOM     71  F   UNL A   1      41.735  29.131  26.625  1.00  0.00    -0.203 F 
ATOM     72  F   UNL A   1      41.589  23.711  26.540  1.00  0.00    -0.200 F 
ATOM     73  C   UNL A   1      42.226  25.739  25.534  1.00  0.00     0.200 A 
ATOM     74  F   UNL A   1      42.758  27.812  24.554  1.00  0.00    -0.200 F 
ATOM     75  F   UNL A   1      42.658  25.089  24.446  1.00  0.00    -0.200 F 
ENDBRANCH  51  65
BRANCH  52  76
ATOM     76  C   UNL A   1      39.684  33.097  35.432  1.00  0.00     0.064 A 
ATOM     77  C   UNL A   1      38.720  32.232  35.996  1.00  0.00     0.173 A 
ATOM     78  C   UNL A   1      39.840  34.363  36.015  1.00  0.00     0.173 A 
ATOM     79  F   UNL A   1      38.541  31.005  35.479  1.00  0.00    -0.203 F 
ATOM     80  C   UNL A   1      38.083  32.546  37.195  1.00  0.00     0.198 A 
ATOM     81  C   UNL A   1      39.189  34.675  37.212  1.00  0.00     0.198 A 
ATOM     82  F   UNL A   1      40.752  35.219  35.535  1.00  0.00    -0.203 F 
ATOM     83  F   UNL A   1      37.303  31.636  37.796  1.00  0.00    -0.200 F 
ATOM     84  C   UNL A   1      38.352  33.750  37.823  1.00  0.00     0.200 A 
ATOM     85  F   UNL A   1      39.466  35.827  37.841  1.00  0.00    -0.200 F 
ATOM     86  F   UNL A   1      37.852  33.997  39.043  1.00  0.00    -0.200 F 
ENDBRANCH  52  76
BRANCH  64  87
ATOM     87  C   UNL A   1      42.965  26.647  34.331  1.00  0.00     0.064 A 
ATOM     88  C   UNL A   1      42.095  25.740  34.959  1.00  0.00     0.173 A 
ATOM     89  C   UNL A   1      44.239  26.123  33.989  1.00  0.00     0.173 A 
ATOM     90  F   UNL A   1      40.826  26.063  35.238  1.00  0.00    -0.203 F 
ATOM     91  C   UNL A   1      42.483  24.434  35.265  1.00  0.00     0.198 A 
ATOM     92  C   UNL A   1      44.598  24.800  34.238  1.00  0.00     0.198 A 
ATOM     93  F   UNL A   1      45.167  26.861  33.364  1.00  0.00    -0.203 F 
ATOM     94  F   UNL A   1      41.624  23.623  35.897  1.00  0.00    -0.200 F 
ATOM     95  C   UNL A   1      43.724  23.959  34.890  1.00  0.00     0.200 A 
ATOM     96  F   UNL A   1      45.785  24.344  33.816  1.00  0.00    -0.200 F 
ATOM     97  F   UNL A   1      44.068  22.688  35.135  1.00  0.00    -0.200 F 
ENDBRANCH  64  87
ENDBRANCH  38  39
ENDBRANCH  30  33
ENDBRANCH  28  29
ENDBRANCH  27  28
ENDBRANCH   1  27
TORSDOF 14
ENDMDL
