MODEL 1
REMARK VINA RESULT:     -11.5      0.000      0.000
REMARK SMILES C=CCN(CC(=O)NCCCNC(=O)c1ccc(-c2c3nc(c(-c4c(F)c(F)c(F)c(F)c4F)c4ccc([nH]4)c(-c4c(F)c(F)c(F)c(F)c4F)c4nc(c(-c5c(F)c(F)c(F)c(F)c5F)c5ccc2[nH]5)C=C4)C=C3)cc1)C(=O)N1CC[C@@H]([NH+]2CCCCC2)C1
REMARK SMILES IDX 9 1 8 2 6 3 7 4 5 6 4 7 3 8 2 9 1 10 78 11 79 12 80 13 81 14
REMARK SMILES IDX 90 15 82 16 83 17 84 18 85 19 89 20 86 22 88 23 87 24 10 25
REMARK SMILES IDX 11 26 12 27 13 28 14 30 15 31 16 32 77 33 17 34 76 35 18 36
REMARK SMILES IDX 19 37 20 38 70 39 21 40 75 41 69 42 71 43 22 44 74 45 68 46
REMARK SMILES IDX 67 47 23 49 55 50 35 51 54 52 36 53 39 54 53 55 72 56 37 57
REMARK SMILES IDX 38 58 52 60 73 61 40 62 24 63 25 64 33 65 26 66 27 67 31 68
REMARK SMILES IDX 34 69 28 70 29 71 32 72 30 73 56 74 57 75 65 76 58 77 59 78
REMARK SMILES IDX 63 79 66 80 60 81 61 82 64 83 62 84 41 85 42 86 50 87 43 88
REMARK SMILES IDX 44 89 48 90 51 91 45 92 46 93 49 94 47 95
REMARK H PARENT 8 5 84 21 12 29 71 48 39 59
REMARK Flexibility Score: inf
ROOT
ATOM      1  C   UNL A   1      31.862  30.718  26.966  1.00  0.00     0.117 C 
ENDROOT
BRANCH   1   2
ATOM      2  N   UNL A   1      33.184  30.385  27.448  1.00  0.00    -0.354 N 
ATOM      3  C   UNL A   1      33.918  29.246  27.301  1.00  0.00     0.239 C 
ATOM      4  O   UNL A   1      35.144  29.376  27.412  1.00  0.00    -0.273 OA
ATOM      5  H   UNL A   1      33.624  31.096  27.967  1.00  0.00     0.163 HD
BRANCH   3   6
ATOM      6  C   UNL A   1      33.325  27.859  26.960  1.00  0.00     0.221 C 
BRANCH   6   7
ATOM      7  N   UNL A   1      32.846  27.531  25.603  1.00  0.00    -0.312 N 
BRANCH   7   8
ATOM      8  C   UNL A   1      33.873  27.256  24.605  1.00  0.00     0.149 C 
BRANCH   8   9
ATOM      9  C   UNL A   1      34.042  25.787  24.362  1.00  0.00    -0.013 C 
ATOM     10  C   UNL A   1      34.540  24.954  25.287  1.00  0.00     0.006 C 
ENDBRANCH   8   9
ENDBRANCH   7   8
BRANCH   7  11
ATOM     11  C   UNL A   1      31.535  27.164  25.281  1.00  0.00     0.320 C 
ATOM     12  O   UNL A   1      30.940  26.271  25.886  1.00  0.00    -0.248 OA
BRANCH  11  13
ATOM     13  N   UNL A   1      30.893  27.854  24.291  1.00  0.00    -0.318 N 
ATOM     14  C   UNL A   1      30.067  27.285  23.272  1.00  0.00     0.128 C 
ATOM     15  C   UNL A   1      30.548  29.277  24.382  1.00  0.00     0.186 C 
ATOM     16  C   UNL A   1      30.136  28.333  22.195  1.00  0.00     0.088 C 
ATOM     17  C   UNL A   1      29.931  29.639  22.978  1.00  0.00     0.205 C 
BRANCH  17  18
ATOM     18  N   UNL A   1      28.563  30.201  22.989  1.00  0.00    -0.331 N 
ATOM     19  C   UNL A   1      27.770  30.145  21.759  1.00  0.00     0.262 C 
ATOM     20  C   UNL A   1      28.457  31.532  23.606  1.00  0.00     0.262 C 
ATOM     21  H   UNL A   1      28.121  29.510  23.595  1.00  0.00     0.348 HD
ATOM     22  C   UNL A   1      28.057  31.250  20.735  1.00  0.00     0.062 C 
ATOM     23  C   UNL A   1      28.816  32.707  22.695  1.00  0.00     0.062 C 
ATOM     24  C   UNL A   1      28.108  32.647  21.344  1.00  0.00     0.012 C 
ENDBRANCH  17  18
ENDBRANCH  11  13
ENDBRANCH   7  11
ENDBRANCH   6   7
ENDBRANCH   3   6
ENDBRANCH   1   2
BRANCH   1  25
ATOM     25  C   UNL A   1      31.522  32.205  26.979  1.00  0.00     0.042 C 
BRANCH  25  26
ATOM     26  C   UNL A   1      32.717  33.160  26.997  1.00  0.00     0.118 C 
BRANCH  26  27
ATOM     27  N   UNL A   1      32.451  34.413  27.693  1.00  0.00    -0.352 N 
ATOM     28  C   UNL A   1      33.003  34.984  28.809  1.00  0.00     0.251 C 
ATOM     29  H   UNL A   1      31.738  34.952  27.281  1.00  0.00     0.163 HD
ATOM     30  O   UNL A   1      32.460  35.987  29.284  1.00  0.00    -0.269 OA
BRANCH  28  31
ATOM     31  C   UNL A   1      34.208  34.441  29.475  1.00  0.00     0.039 A 
ATOM     32  C   UNL A   1      34.057  33.822  30.723  1.00  0.00     0.014 A 
ATOM     33  C   UNL A   1      35.488  34.596  28.941  1.00  0.00     0.014 A 
ATOM     34  C   UNL A   1      35.167  33.298  31.393  1.00  0.00     0.010 A 
ATOM     35  C   UNL A   1      36.589  34.016  29.577  1.00  0.00     0.010 A 
ATOM     36  C   UNL A   1      36.440  33.353  30.805  1.00  0.00    -0.014 A 
BRANCH  36  37
ATOM     37  C   UNL A   1      37.610  32.690  31.440  1.00  0.00     0.031 A 
ATOM     38  C   UNL A   1      38.284  31.517  30.785  1.00  0.00     0.074 A 
ATOM     39  C   UNL A   1      38.023  33.105  32.655  1.00  0.00     0.049 A 
ATOM     40  N   UNL A   1      39.256  30.763  31.234  1.00  0.00    -0.248 NA
ATOM     41  C   UNL A   1      37.783  31.124  29.460  1.00  0.00     0.031 C 
ATOM     42  C   UNL A   1      37.429  34.204  33.416  1.00  0.00     0.029 A 
ATOM     43  N   UNL A   1      39.025  32.640  33.470  1.00  0.00    -0.354 N 
ATOM     44  C   UNL A   1      39.474  29.800  30.257  1.00  0.00     0.074 A 
ATOM     45  C   UNL A   1      38.504  30.039  29.209  1.00  0.00     0.031 C 
ATOM     46  C   UNL A   1      38.084  34.337  34.580  1.00  0.00     0.029 A 
ATOM     47  C   UNL A   1      39.115  33.308  34.666  1.00  0.00     0.049 A 
ATOM     48  H   UNL A   1      39.621  31.898  33.221  1.00  0.00     0.167 HD
ATOM     49  C   UNL A   1      40.406  28.816  30.230  1.00  0.00     0.037 A 
ATOM     50  C   UNL A   1      39.925  33.107  35.724  1.00  0.00     0.037 A 
ATOM     51  C   UNL A   1      41.385  28.592  31.265  1.00  0.00     0.049 A 
ATOM     52  C   UNL A   1      40.943  32.002  35.673  1.00  0.00     0.074 A 
ATOM     53  C   UNL A   1      42.412  27.665  31.294  1.00  0.00     0.029 A 
ATOM     54  N   UNL A   1      41.452  29.300  32.456  1.00  0.00    -0.354 N 
ATOM     55  N   UNL A   1      41.183  31.140  34.714  1.00  0.00    -0.248 NA
ATOM     56  C   UNL A   1      41.807  31.843  36.851  1.00  0.00     0.031 C 
ATOM     57  C   UNL A   1      43.070  27.778  32.523  1.00  0.00     0.029 A 
ATOM     58  C   UNL A   1      42.488  28.810  33.239  1.00  0.00     0.049 A 
ATOM     59  H   UNL A   1      40.855  30.040  32.709  1.00  0.00     0.167 HD
ATOM     60  C   UNL A   1      42.236  30.354  35.162  1.00  0.00     0.074 A 
ATOM     61  C   UNL A   1      42.601  30.852  36.472  1.00  0.00     0.031 C 
ATOM     62  C   UNL A   1      42.843  29.314  34.542  1.00  0.00     0.037 A 
BRANCH  49  63
ATOM     63  C   UNL A   1      40.416  27.898  29.042  1.00  0.00     0.064 A 
ATOM     64  C   UNL A   1      41.208  28.162  27.914  1.00  0.00     0.173 A 
ATOM     65  C   UNL A   1      39.658  26.717  29.048  1.00  0.00     0.173 A 
ATOM     66  F   UNL A   1      41.945  29.281  27.854  1.00  0.00    -0.203 F 
ATOM     67  C   UNL A   1      41.220  27.292  26.827  1.00  0.00     0.198 A 
ATOM     68  C   UNL A   1      39.695  25.835  27.971  1.00  0.00     0.198 A 
ATOM     69  F   UNL A   1      38.890  26.412  30.104  1.00  0.00    -0.203 F 
ATOM     70  F   UNL A   1      41.949  27.589  25.742  1.00  0.00    -0.200 F 
ATOM     71  C   UNL A   1      40.469  26.127  26.858  1.00  0.00     0.200 A 
ATOM     72  F   UNL A   1      38.980  24.702  28.009  1.00  0.00    -0.200 F 
ATOM     73  F   UNL A   1      40.486  25.287  25.813  1.00  0.00    -0.200 F 
ENDBRANCH  49  63
BRANCH  50  74
ATOM     74  C   UNL A   1      39.814  33.986  36.917  1.00  0.00     0.064 A 
ATOM     75  C   UNL A   1      38.992  33.630  37.995  1.00  0.00     0.173 A 
ATOM     76  C   UNL A   1      40.527  35.190  37.006  1.00  0.00     0.173 A 
ATOM     77  F   UNL A   1      38.274  32.499  37.946  1.00  0.00    -0.203 F 
ATOM     78  C   UNL A   1      38.875  34.456  39.112  1.00  0.00     0.198 A 
ATOM     79  C   UNL A   1      40.431  36.000  38.135  1.00  0.00     0.198 A 
ATOM     80  F   UNL A   1      41.329  35.571  36.002  1.00  0.00    -0.203 F 
ATOM     81  F   UNL A   1      38.051  34.113  40.111  1.00  0.00    -0.200 F 
ATOM     82  C   UNL A   1      39.600  35.636  39.183  1.00  0.00     0.200 A 
ATOM     83  F   UNL A   1      41.144  37.132  38.208  1.00  0.00    -0.200 F 
ATOM     84  F   UNL A   1      39.493  36.425  40.262  1.00  0.00    -0.200 F 
ENDBRANCH  50  74
BRANCH  62  85
ATOM     85  C   UNL A   1      43.986  28.658  35.262  1.00  0.00     0.064 A 
ATOM     86  C   UNL A   1      43.796  27.526  36.068  1.00  0.00     0.173 A 
ATOM     87  C   UNL A   1      45.292  29.149  35.118  1.00  0.00     0.173 A 
ATOM     88  F   UNL A   1      42.562  27.028  36.251  1.00  0.00    -0.203 F 
ATOM     89  C   UNL A   1      44.867  26.925  36.723  1.00  0.00     0.198 A 
ATOM     90  C   UNL A   1      46.365  28.528  35.751  1.00  0.00     0.198 A 
ATOM     91  F   UNL A   1      45.530  30.226  34.355  1.00  0.00    -0.203 F 
ATOM     92  F   UNL A   1      44.654  25.874  37.526  1.00  0.00    -0.200 F 
ATOM     93  C   UNL A   1      46.152  27.422  36.558  1.00  0.00     0.200 A 
ATOM     94  F   UNL A   1      47.607  29.002  35.581  1.00  0.00    -0.200 F 
ATOM     95  F   UNL A   1      47.182  26.839  37.185  1.00  0.00    -0.200 F 
ENDBRANCH  62  85
ENDBRANCH  36  37
ENDBRANCH  28  31
ENDBRANCH  26  27
ENDBRANCH  25  26
ENDBRANCH   1  25
TORSDOF 16
ENDMDL
MODEL 2
REMARK VINA RESULT:     -11.5      1.387      3.929
REMARK SMILES C=CCN(CC(=O)NCCCNC(=O)c1ccc(-c2c3nc(c(-c4c(F)c(F)c(F)c(F)c4F)c4ccc([nH]4)c(-c4c(F)c(F)c(F)c(F)c4F)c4nc(c(-c5c(F)c(F)c(F)c(F)c5F)c5ccc2[nH]5)C=C4)C=C3)cc1)C(=O)N1CC[C@@H]([NH+]2CCCCC2)C1
REMARK SMILES IDX 9 1 8 2 6 3 7 4 5 6 4 7 3 8 2 9 1 10 78 11 79 12 80 13 81 14
REMARK SMILES IDX 90 15 82 16 83 17 84 18 85 19 89 20 86 22 88 23 87 24 10 25
REMARK SMILES IDX 11 26 12 27 13 28 14 30 15 31 16 32 77 33 17 34 76 35 18 36
REMARK SMILES IDX 19 37 20 38 70 39 21 40 75 41 69 42 71 43 22 44 74 45 68 46
REMARK SMILES IDX 67 47 23 49 55 50 35 51 54 52 36 53 39 54 53 55 72 56 37 57
REMARK SMILES IDX 38 58 52 60 73 61 40 62 24 63 25 64 33 65 26 66 27 67 31 68
REMARK SMILES IDX 34 69 28 70 29 71 32 72 30 73 56 74 57 75 65 76 58 77 59 78
REMARK SMILES IDX 63 79 66 80 60 81 61 82 64 83 62 84 41 85 42 86 50 87 43 88
REMARK SMILES IDX 44 89 48 90 51 91 45 92 46 93 49 94 47 95
REMARK H PARENT 8 5 84 21 12 29 71 48 39 59
REMARK Flexibility Score: inf
ROOT
ATOM      1  C   UNL A   1      31.347  30.858  26.054  1.00  0.00     0.117 C 
ENDROOT
BRANCH   1   2
ATOM      2  N   UNL A   1      32.498  30.126  26.533  1.00  0.00    -0.354 N 
ATOM      3  C   UNL A   1      33.260  29.176  25.922  1.00  0.00     0.239 C 
ATOM      4  O   UNL A   1      34.410  29.043  26.358  1.00  0.00    -0.273 OA
ATOM      5  H   UNL A   1      32.775  30.350  27.450  1.00  0.00     0.163 HD
BRANCH   3   6
ATOM      6  C   UNL A   1      32.796  28.321  24.719  1.00  0.00     0.221 C 
BRANCH   6   7
ATOM      7  N   UNL A   1      31.801  27.242  24.870  1.00  0.00    -0.312 N 
BRANCH   7   8
ATOM      8  C   UNL A   1      31.174  26.764  23.643  1.00  0.00     0.149 C 
BRANCH   8   9
ATOM      9  C   UNL A   1      29.763  27.252  23.506  1.00  0.00    -0.013 C 
ATOM     10  C   UNL A   1      28.708  26.540  23.926  1.00  0.00     0.006 C 
ENDBRANCH   8   9
ENDBRANCH   7   8
BRANCH   7  11
ATOM     11  C   UNL A   1      31.644  26.449  26.012  1.00  0.00     0.320 C 
ATOM     12  O   UNL A   1      30.900  26.775  26.937  1.00  0.00    -0.248 OA
BRANCH  11  13
ATOM     13  N   UNL A   1      32.311  25.256  26.070  1.00  0.00    -0.318 N 
ATOM     14  C   UNL A   1      31.729  23.982  26.355  1.00  0.00     0.128 C 
ATOM     15  C   UNL A   1      33.591  25.005  25.397  1.00  0.00     0.186 C 
ATOM     16  C   UNL A   1      32.913  23.205  26.863  1.00  0.00     0.088 C 
ATOM     17  C   UNL A   1      34.009  23.552  25.843  1.00  0.00     0.205 C 
BRANCH  17  18
ATOM     18  N   UNL A   1      34.241  22.575  24.757  1.00  0.00    -0.331 N 
ATOM     19  C   UNL A   1      34.718  21.236  25.106  1.00  0.00     0.262 C 
ATOM     20  C   UNL A   1      34.997  23.106  23.612  1.00  0.00     0.262 C 
ATOM     21  H   UNL A   1      33.271  22.423  24.481  1.00  0.00     0.348 HD
ATOM     22  C   UNL A   1      36.229  21.112  25.340  1.00  0.00     0.062 C 
ATOM     23  C   UNL A   1      36.517  23.117  23.780  1.00  0.00     0.062 C 
ATOM     24  C   UNL A   1      37.071  21.777  24.257  1.00  0.00     0.012 C 
ENDBRANCH  17  18
ENDBRANCH  11  13
ENDBRANCH   7  11
ENDBRANCH   6   7
ENDBRANCH   3   6
ENDBRANCH   1   2
BRANCH   1  25
ATOM     25  C   UNL A   1      31.285  32.322  26.478  1.00  0.00     0.042 C 
BRANCH  25  26
ATOM     26  C   UNL A   1      32.561  32.884  27.108  1.00  0.00     0.118 C 
BRANCH  26  27
ATOM     27  N   UNL A   1      32.403  34.235  27.634  1.00  0.00    -0.352 N 
ATOM     28  C   UNL A   1      33.033  34.912  28.645  1.00  0.00     0.251 C 
ATOM     29  H   UNL A   1      31.711  34.762  27.173  1.00  0.00     0.163 HD
ATOM     30  O   UNL A   1      32.574  36.005  28.994  1.00  0.00    -0.269 OA
BRANCH  28  31
ATOM     31  C   UNL A   1      34.225  34.381  29.343  1.00  0.00     0.039 A 
ATOM     32  C   UNL A   1      34.038  33.687  30.546  1.00  0.00     0.014 A 
ATOM     33  C   UNL A   1      35.523  34.617  28.886  1.00  0.00     0.014 A 
ATOM     34  C   UNL A   1      35.134  33.172  31.245  1.00  0.00     0.010 A 
ATOM     35  C   UNL A   1      36.614  34.046  29.548  1.00  0.00     0.010 A 
ATOM     36  C   UNL A   1      36.431  33.311  30.729  1.00  0.00    -0.014 A 
BRANCH  36  37
ATOM     37  C   UNL A   1      37.596  32.661  31.388  1.00  0.00     0.031 A 
ATOM     38  C   UNL A   1      38.302  31.501  30.743  1.00  0.00     0.074 A 
ATOM     39  C   UNL A   1      37.973  33.074  32.615  1.00  0.00     0.049 A 
ATOM     40  N   UNL A   1      39.274  30.758  31.211  1.00  0.00    -0.248 NA
ATOM     41  C   UNL A   1      37.838  31.109  29.403  1.00  0.00     0.031 C 
ATOM     42  C   UNL A   1      37.346  34.160  33.368  1.00  0.00     0.029 A 
ATOM     43  N   UNL A   1      38.962  32.618  33.451  1.00  0.00    -0.354 N 
ATOM     44  C   UNL A   1      39.529  29.804  30.234  1.00  0.00     0.074 A 
ATOM     45  C   UNL A   1      38.581  30.036  29.164  1.00  0.00     0.031 C 
ATOM     46  C   UNL A   1      37.971  34.295  34.548  1.00  0.00     0.029 A 
ATOM     47  C   UNL A   1      39.014  33.280  34.653  1.00  0.00     0.049 A 
ATOM     48  H   UNL A   1      39.575  31.886  33.213  1.00  0.00     0.167 HD
ATOM     49  C   UNL A   1      40.475  28.834  30.224  1.00  0.00     0.037 A 
ATOM     50  C   UNL A   1      39.801  33.085  35.728  1.00  0.00     0.037 A 
ATOM     51  C   UNL A   1      41.432  28.618  31.280  1.00  0.00     0.049 A 
ATOM     52  C   UNL A   1      40.836  31.994  35.696  1.00  0.00     0.074 A 
ATOM     53  C   UNL A   1      42.472  27.704  31.329  1.00  0.00     0.029 A 
ATOM     54  N   UNL A   1      41.461  29.319  32.477  1.00  0.00    -0.354 N 
ATOM     55  N   UNL A   1      41.111  31.141  34.738  1.00  0.00    -0.248 NA
ATOM     56  C   UNL A   1      41.673  31.841  36.893  1.00  0.00     0.031 C 
ATOM     57  C   UNL A   1      43.098  27.820  32.574  1.00  0.00     0.029 A 
ATOM     58  C   UNL A   1      42.484  28.839  33.282  1.00  0.00     0.049 A 
ATOM     59  H   UNL A   1      40.847  30.049  32.719  1.00  0.00     0.167 HD
ATOM     60  C   UNL A   1      42.164  30.368  35.206  1.00  0.00     0.074 A 
ATOM     61  C   UNL A   1      42.491  30.863  36.528  1.00  0.00     0.031 C 
ATOM     62  C   UNL A   1      42.801  29.340  34.595  1.00  0.00     0.037 A 
BRANCH  49  63
ATOM     63  C   UNL A   1      40.526  27.923  29.031  1.00  0.00     0.064 A 
ATOM     64  C   UNL A   1      39.751  26.755  28.962  1.00  0.00     0.173 A 
ATOM     65  C   UNL A   1      41.326  28.244  27.923  1.00  0.00     0.173 A 
ATOM     66  F   UNL A   1      38.976  26.398  29.997  1.00  0.00    -0.203 F 
ATOM     67  C   UNL A   1      39.797  25.930  27.841  1.00  0.00     0.198 A 
ATOM     68  C   UNL A   1      41.346  27.432  26.792  1.00  0.00     0.198 A 
ATOM     69  F   UNL A   1      42.079  29.354  27.932  1.00  0.00    -0.203 F 
ATOM     70  F   UNL A   1      39.083  24.795  27.818  1.00  0.00    -0.200 F 
ATOM     71  C   UNL A   1      40.588  26.272  26.755  1.00  0.00     0.200 A 
ATOM     72  F   UNL A   1      42.101  27.772  25.738  1.00  0.00    -0.200 F 
ATOM     73  F   UNL A   1      40.626  25.480  25.675  1.00  0.00    -0.200 F 
ENDBRANCH  49  63
BRANCH  50  74
ATOM     74  C   UNL A   1      39.649  33.954  36.923  1.00  0.00     0.064 A 
ATOM     75  C   UNL A   1      40.300  35.193  36.997  1.00  0.00     0.173 A 
ATOM     76  C   UNL A   1      38.849  33.569  38.009  1.00  0.00     0.173 A 
ATOM     77  F   UNL A   1      41.092  35.594  35.993  1.00  0.00    -0.203 F 
ATOM     78  C   UNL A   1      40.169  36.008  38.121  1.00  0.00     0.198 A 
ATOM     79  C   UNL A   1      38.697  34.397  39.119  1.00  0.00     0.198 A 
ATOM     80  F   UNL A   1      38.203  32.394  37.984  1.00  0.00    -0.203 F 
ATOM     81  F   UNL A   1      40.835  37.168  38.183  1.00  0.00    -0.200 F 
ATOM     82  C   UNL A   1      39.363  35.611  39.177  1.00  0.00     0.200 A 
ATOM     83  F   UNL A   1      37.905  34.019  40.131  1.00  0.00    -0.200 F 
ATOM     84  F   UNL A   1      39.232  36.400  40.253  1.00  0.00    -0.200 F 
ENDBRANCH  50  74
BRANCH  62  85
ATOM     85  C   UNL A   1      43.935  28.696  35.339  1.00  0.00     0.064 A 
ATOM     86  C   UNL A   1      43.722  27.640  36.236  1.00  0.00     0.173 A 
ATOM     87  C   UNL A   1      45.255  29.121  35.127  1.00  0.00     0.173 A 
ATOM     88  F   UNL A   1      42.475  27.209  36.487  1.00  0.00    -0.203 F 
ATOM     89  C   UNL A   1      44.785  27.048  36.912  1.00  0.00     0.198 A 
ATOM     90  C   UNL A   1      46.319  28.507  35.783  1.00  0.00     0.198 A 
ATOM     91  F   UNL A   1      45.516  30.123  34.275  1.00  0.00    -0.203 F 
ATOM     92  F   UNL A   1      44.553  26.073  37.801  1.00  0.00    -0.200 F 
ATOM     93  C   UNL A   1      46.084  27.478  36.680  1.00  0.00     0.200 A 
ATOM     94  F   UNL A   1      47.575  28.915  35.547  1.00  0.00    -0.200 F 
ATOM     95  F   UNL A   1      47.107  26.904  37.327  1.00  0.00    -0.200 F 
ENDBRANCH  62  85
ENDBRANCH  36  37
ENDBRANCH  28  31
ENDBRANCH  26  27
ENDBRANCH  25  26
ENDBRANCH   1  25
TORSDOF 16
ENDMDL
MODEL 3
REMARK VINA RESULT:     -11.4      2.852      8.298
REMARK SMILES C=CCN(CC(=O)NCCCNC(=O)c1ccc(-c2c3nc(c(-c4c(F)c(F)c(F)c(F)c4F)c4ccc([nH]4)c(-c4c(F)c(F)c(F)c(F)c4F)c4nc(c(-c5c(F)c(F)c(F)c(F)c5F)c5ccc2[nH]5)C=C4)C=C3)cc1)C(=O)N1CC[C@@H]([NH+]2CCCCC2)C1
REMARK SMILES IDX 9 1 8 2 6 3 7 4 5 6 4 7 3 8 2 9 1 10 78 11 79 12 80 13 81 14
REMARK SMILES IDX 90 15 82 16 83 17 84 18 85 19 89 20 86 22 88 23 87 24 10 25
REMARK SMILES IDX 11 26 12 27 13 28 14 30 15 31 16 32 77 33 17 34 76 35 18 36
REMARK SMILES IDX 19 37 20 38 70 39 21 40 75 41 69 42 71 43 22 44 74 45 68 46
REMARK SMILES IDX 67 47 23 49 55 50 35 51 54 52 36 53 39 54 53 55 72 56 37 57
REMARK SMILES IDX 38 58 52 60 73 61 40 62 24 63 25 64 33 65 26 66 27 67 31 68
REMARK SMILES IDX 34 69 28 70 29 71 32 72 30 73 56 74 57 75 65 76 58 77 59 78
REMARK SMILES IDX 63 79 66 80 60 81 61 82 64 83 62 84 41 85 42 86 50 87 43 88
REMARK SMILES IDX 44 89 48 90 51 91 45 92 46 93 49 94 47 95
REMARK H PARENT 8 5 84 21 12 29 71 48 39 59
REMARK Flexibility Score: inf
ROOT
ATOM      1  C   UNL A   1      31.546  27.726  26.621  1.00  0.00     0.117 C 
ENDROOT
BRANCH   1   2
ATOM      2  N   UNL A   1      31.151  26.357  26.868  1.00  0.00    -0.354 N 
ATOM      3  C   UNL A   1      31.755  25.186  26.523  1.00  0.00     0.239 C 
ATOM      4  O   UNL A   1      31.465  24.204  27.219  1.00  0.00    -0.273 OA
ATOM      5  H   UNL A   1      30.307  26.256  27.365  1.00  0.00     0.163 HD
BRANCH   3   6
ATOM      6  C   UNL A   1      32.789  25.036  25.383  1.00  0.00     0.221 C 
BRANCH   6   7
ATOM      7  N   UNL A   1      32.375  24.837  23.980  1.00  0.00    -0.312 N 
BRANCH   7   8
ATOM      8  C   UNL A   1      33.207  23.946  23.181  1.00  0.00     0.149 C 
BRANCH   8   9
ATOM      9  C   UNL A   1      33.342  22.591  23.808  1.00  0.00    -0.013 C 
ATOM     10  C   UNL A   1      32.524  21.572  23.510  1.00  0.00     0.006 C 
ENDBRANCH   8   9
ENDBRANCH   7   8
BRANCH   7  11
ATOM     11  C   UNL A   1      31.120  25.169  23.459  1.00  0.00     0.320 C 
ATOM     12  O   UNL A   1      30.276  24.313  23.194  1.00  0.00    -0.248 OA
BRANCH  11  13
ATOM     13  N   UNL A   1      30.820  26.492  23.282  1.00  0.00    -0.318 N 
ATOM     14  C   UNL A   1      31.435  27.373  22.340  1.00  0.00     0.128 C 
ATOM     15  C   UNL A   1      29.537  27.093  23.663  1.00  0.00     0.186 C 
ATOM     16  C   UNL A   1      31.184  28.720  22.962  1.00  0.00     0.088 C 
ATOM     17  C   UNL A   1      29.705  28.633  23.372  1.00  0.00     0.205 C 
BRANCH  17  18
ATOM     18  N   UNL A   1      28.722  29.236  22.446  1.00  0.00    -0.331 N 
ATOM     19  C   UNL A   1      29.135  30.377  21.627  1.00  0.00     0.262 C 
ATOM     20  C   UNL A   1      27.400  29.486  23.042  1.00  0.00     0.262 C 
ATOM     21  H   UNL A   1      28.652  28.469  21.778  1.00  0.00     0.348 HD
ATOM     22  C   UNL A   1      29.096  31.742  22.324  1.00  0.00     0.062 C 
ATOM     23  C   UNL A   1      27.278  30.783  23.844  1.00  0.00     0.062 C 
ATOM     24  C   UNL A   1      27.802  32.000  23.087  1.00  0.00     0.012 C 
ENDBRANCH  17  18
ENDBRANCH  11  13
ENDBRANCH   7  11
ENDBRANCH   6   7
ENDBRANCH   3   6
ENDBRANCH   1   2
BRANCH   1  25
ATOM     25  C   UNL A   1      32.883  28.136  27.230  1.00  0.00     0.042 C 
BRANCH  25  26
ATOM     26  C   UNL A   1      33.780  29.000  26.341  1.00  0.00     0.118 C 
BRANCH  26  27
ATOM     27  N   UNL A   1      33.853  30.393  26.768  1.00  0.00    -0.352 N 
ATOM     28  C   UNL A   1      34.695  31.053  27.623  1.00  0.00     0.251 C 
ATOM     29  H   UNL A   1      33.166  30.969  26.363  1.00  0.00     0.163 HD
ATOM     30  O   UNL A   1      34.418  32.215  27.938  1.00  0.00    -0.269 OA
BRANCH  28  31
ATOM     31  C   UNL A   1      35.908  30.427  28.196  1.00  0.00     0.039 A 
ATOM     32  C   UNL A   1      37.105  30.511  27.472  1.00  0.00     0.014 A 
ATOM     33  C   UNL A   1      35.879  29.695  29.384  1.00  0.00     0.014 A 
ATOM     34  C   UNL A   1      38.276  29.931  27.970  1.00  0.00     0.010 A 
ATOM     35  C   UNL A   1      37.061  29.172  29.914  1.00  0.00     0.010 A 
ATOM     36  C   UNL A   1      38.274  29.291  29.218  1.00  0.00    -0.014 A 
BRANCH  36  37
ATOM     37  C   UNL A   1      39.533  28.781  29.824  1.00  0.00     0.031 A 
ATOM     38  C   UNL A   1      40.177  29.490  30.982  1.00  0.00     0.074 A 
ATOM     39  C   UNL A   1      40.141  27.710  29.275  1.00  0.00     0.049 A 
ATOM     40  N   UNL A   1      41.317  29.240  31.577  1.00  0.00    -0.248 NA
ATOM     41  C   UNL A   1      39.455  30.647  31.531  1.00  0.00     0.031 C 
ATOM     42  C   UNL A   1      39.644  26.957  28.123  1.00  0.00     0.029 A 
ATOM     43  N   UNL A   1      41.317  27.081  29.600  1.00  0.00    -0.354 N 
ATOM     44  C   UNL A   1      41.457  30.214  32.557  1.00  0.00     0.074 A 
ATOM     45  C   UNL A   1      40.305  31.085  32.450  1.00  0.00     0.031 C 
ATOM     46  C   UNL A   1      40.499  25.962  27.845  1.00  0.00     0.029 A 
ATOM     47  C   UNL A   1      41.626  26.030  28.770  1.00  0.00     0.049 A 
ATOM     48  H   UNL A   1      41.885  27.355  30.355  1.00  0.00     0.167 HD
ATOM     49  C   UNL A   1      42.447  30.360  33.471  1.00  0.00     0.037 A 
ATOM     50  C   UNL A   1      42.702  25.221  28.744  1.00  0.00     0.037 A 
ATOM     51  C   UNL A   1      43.583  29.480  33.590  1.00  0.00     0.049 A 
ATOM     52  C   UNL A   1      43.793  25.411  29.762  1.00  0.00     0.074 A 
ATOM     53  C   UNL A   1      44.601  29.507  34.528  1.00  0.00     0.029 A 
ATOM     54  N   UNL A   1      43.853  28.418  32.739  1.00  0.00    -0.354 N 
ATOM     55  N   UNL A   1      43.880  26.295  30.727  1.00  0.00    -0.248 NA
ATOM     56  C   UNL A   1      44.933  24.487  29.691  1.00  0.00     0.031 C 
ATOM     57  C   UNL A   1      45.513  28.494  34.215  1.00  0.00     0.029 A 
ATOM     58  C   UNL A   1      45.037  27.801  33.114  1.00  0.00     0.049 A 
ATOM     59  H   UNL A   1      43.289  28.144  31.981  1.00  0.00     0.167 HD
ATOM     60  C   UNL A   1      45.069  26.022  31.389  1.00  0.00     0.074 A 
ATOM     61  C   UNL A   1      45.662  24.878  30.727  1.00  0.00     0.031 C 
ATOM     62  C   UNL A   1      45.618  26.662  32.449  1.00  0.00     0.037 A 
BRANCH  49  63
ATOM     63  C   UNL A   1      42.353  31.519  34.422  1.00  0.00     0.064 A 
ATOM     64  C   UNL A   1      42.931  32.764  34.125  1.00  0.00     0.173 A 
ATOM     65  C   UNL A   1      41.638  31.399  35.623  1.00  0.00     0.173 A 
ATOM     66  F   UNL A   1      43.632  32.930  32.994  1.00  0.00    -0.203 F 
ATOM     67  C   UNL A   1      42.820  33.834  35.009  1.00  0.00     0.198 A 
ATOM     68  C   UNL A   1      41.504  32.480  36.490  1.00  0.00     0.198 A 
ATOM     69  F   UNL A   1      41.058  30.235  35.951  1.00  0.00    -0.203 F 
ATOM     70  F   UNL A   1      43.419  34.999  34.726  1.00  0.00    -0.200 F 
ATOM     71  C   UNL A   1      42.102  33.694  36.186  1.00  0.00     0.200 A 
ATOM     72  F   UNL A   1      40.798  32.347  37.621  1.00  0.00    -0.200 F 
ATOM     73  F   UNL A   1      41.990  34.727  37.033  1.00  0.00    -0.200 F 
ENDBRANCH  49  63
BRANCH  50  74
ATOM     74  C   UNL A   1      42.793  24.145  27.723  1.00  0.00     0.064 A 
ATOM     75  C   UNL A   1      42.370  22.841  28.015  1.00  0.00     0.173 A 
ATOM     76  C   UNL A   1      43.297  24.398  26.439  1.00  0.00     0.173 A 
ATOM     77  F   UNL A   1      41.902  22.547  29.237  1.00  0.00    -0.203 F 
ATOM     78  C   UNL A   1      42.463  21.826  27.065  1.00  0.00     0.198 A 
ATOM     79  C   UNL A   1      43.363  23.388  25.482  1.00  0.00     0.198 A 
ATOM     80  F   UNL A   1      43.711  25.630  26.111  1.00  0.00    -0.203 F 
ATOM     81  F   UNL A   1      42.091  20.579  27.383  1.00  0.00    -0.200 F 
ATOM     82  C   UNL A   1      42.954  22.102  25.798  1.00  0.00     0.200 A 
ATOM     83  F   UNL A   1      43.823  23.661  24.253  1.00  0.00    -0.200 F 
ATOM     84  F   UNL A   1      43.035  21.126  24.883  1.00  0.00    -0.200 F 
ENDBRANCH  50  74
BRANCH  62  85
ATOM     85  C   UNL A   1      46.917  26.125  32.978  1.00  0.00     0.064 A 
ATOM     86  C   UNL A   1      46.955  25.081  33.913  1.00  0.00     0.173 A 
ATOM     87  C   UNL A   1      48.138  26.640  32.519  1.00  0.00     0.173 A 
ATOM     88  F   UNL A   1      45.813  24.565  34.396  1.00  0.00    -0.203 F 
ATOM     89  C   UNL A   1      48.167  24.588  34.388  1.00  0.00     0.198 A 
ATOM     90  C   UNL A   1      49.349  26.126  32.974  1.00  0.00     0.198 A 
ATOM     91  F   UNL A   1      48.158  27.635  31.620  1.00  0.00    -0.203 F 
ATOM     92  F   UNL A   1      48.179  23.624  35.318  1.00  0.00    -0.200 F 
ATOM     93  C   UNL A   1      49.363  25.107  33.913  1.00  0.00     0.200 A 
ATOM     94  F   UNL A   1      50.504  26.619  32.505  1.00  0.00    -0.200 F 
ATOM     95  F   UNL A   1      50.529  24.628  34.368  1.00  0.00    -0.200 F 
ENDBRANCH  62  85
ENDBRANCH  36  37
ENDBRANCH  28  31
ENDBRANCH  26  27
ENDBRANCH  25  26
ENDBRANCH   1  25
TORSDOF 16
ENDMDL
