MODEL 1
REMARK VINA RESULT:     -12.4      0.000      0.000
REMARK SMILES O=C(Cc1ccc(=O)n(C(F)F)c1)NCCCNC(=O)c1ccc(-c2c3nc(c(-c4c(F)c(F)c(F)c(F)c4F)c4ccc([nH]4)c(-c4c(F)c(F)c(F)c(F)c4F)c4nc(c(-c5c(F)c(F)c(F)c(F)c5F)c5ccc2[nH]5)C=C4)C=C3)cc1
REMARK SMILES IDX 16 1 15 2 14 3 1 4 2 5 3 7 4 8 5 9 13 10 6 11 9 12 7 13 8 14
REMARK SMILES IDX 10 15 11 16 12 17 17 18 18 19 19 20 20 22 21 23 22 24 83 25
REMARK SMILES IDX 23 26 82 27 24 28 25 29 26 30 76 31 27 32 81 33 75 34 77 35
REMARK SMILES IDX 28 36 80 37 74 38 73 39 29 41 61 42 41 43 60 44 42 45 45 46
REMARK SMILES IDX 59 47 78 48 43 49 44 50 58 52 79 53 46 54 30 55 31 56 39 57
REMARK SMILES IDX 32 58 33 59 37 60 40 61 34 62 35 63 38 64 36 65 62 66 63 67
REMARK SMILES IDX 71 68 64 69 65 70 69 71 72 72 66 73 67 74 70 75 68 76 47 77
REMARK SMILES IDX 48 78 56 79 49 80 50 81 54 82 57 83 51 84 52 85 55 86 53 87
REMARK H PARENT 14 6 18 21 77 40 45 51
REMARK Flexibility Score: inf
ROOT
ATOM      1  C   UNL A   1      31.759  31.954  26.892  1.00  0.00     0.042 C 
ENDROOT
BRANCH   1   2
ATOM      2  C   UNL A   1      32.152  30.507  26.634  1.00  0.00     0.117 C 
BRANCH   2   3
ATOM      3  N   UNL A   1      31.782  30.064  25.306  1.00  0.00    -0.356 N 
ATOM      4  O   UNL A   1      33.736  28.944  24.838  1.00  0.00    -0.275 OA
ATOM      5  C   UNL A   1      32.593  29.260  24.529  1.00  0.00     0.224 C 
ATOM      6  H   UNL A   1      30.913  30.349  24.940  1.00  0.00     0.163 HD
BRANCH   5   7
ATOM      7  C   UNL A   1      31.927  28.775  23.241  1.00  0.00     0.137 C 
BRANCH   7   8
ATOM      8  C   UNL A   1      30.415  28.842  23.294  1.00  0.00    -0.022 A 
ATOM      9  C   UNL A   1      29.705  27.595  23.505  1.00  0.00     0.011 A 
ATOM     10  C   UNL A   1      29.695  29.964  23.111  1.00  0.00     0.099 A 
ATOM     11  C   UNL A   1      28.369  27.547  23.456  1.00  0.00     0.072 A 
ATOM     12  N   UNL A   1      28.312  29.943  23.051  1.00  0.00    -0.258 N 
ATOM     13  C   UNL A   1      27.576  28.777  23.182  1.00  0.00     0.254 A 
ATOM     14  O   UNL A   1      26.358  28.681  23.085  1.00  0.00    -0.269 OA
BRANCH  12  15
ATOM     15  C   UNL A   1      27.581  31.148  22.749  1.00  0.00     0.451 C 
ATOM     16  F   UNL A   1      27.091  31.703  23.885  1.00  0.00    -0.185 F 
ATOM     17  F   UNL A   1      28.365  32.065  22.134  1.00  0.00    -0.185 F 
ENDBRANCH  12  15
ENDBRANCH   7   8
ENDBRANCH   5   7
ENDBRANCH   2   3
ENDBRANCH   1   2
BRANCH   1  18
ATOM     18  C   UNL A   1      32.920  32.854  27.299  1.00  0.00     0.118 C 
BRANCH  18  19
ATOM     19  N   UNL A   1      32.512  34.196  27.698  1.00  0.00    -0.352 N 
ATOM     20  C   UNL A   1      33.029  35.017  28.673  1.00  0.00     0.251 C 
ATOM     21  H   UNL A   1      31.752  34.570  27.194  1.00  0.00     0.163 HD
ATOM     22  O   UNL A   1      32.479  36.080  28.942  1.00  0.00    -0.269 OA
BRANCH  20  23
ATOM     23  C   UNL A   1      34.223  34.593  29.433  1.00  0.00     0.039 A 
ATOM     24  C   UNL A   1      35.503  34.740  28.894  1.00  0.00     0.014 A 
ATOM     25  C   UNL A   1      34.049  33.993  30.683  1.00  0.00     0.014 A 
ATOM     26  C   UNL A   1      36.583  34.117  29.512  1.00  0.00     0.010 A 
ATOM     27  C   UNL A   1      35.149  33.435  31.341  1.00  0.00     0.010 A 
ATOM     28  C   UNL A   1      36.412  33.438  30.730  1.00  0.00    -0.014 A 
BRANCH  28  29
ATOM     29  C   UNL A   1      37.551  32.695  31.326  1.00  0.00     0.031 A 
ATOM     30  C   UNL A   1      38.020  33.012  32.720  1.00  0.00     0.074 A 
ATOM     31  C   UNL A   1      38.127  31.692  30.637  1.00  0.00     0.049 A 
ATOM     32  N   UNL A   1      39.014  32.494  33.398  1.00  0.00    -0.248 NA
ATOM     33  C   UNL A   1      37.277  34.051  33.453  1.00  0.00     0.031 C 
ATOM     34  C   UNL A   1      37.740  31.265  29.292  1.00  0.00     0.029 A 
ATOM     35  N   UNL A   1      39.144  30.838  30.979  1.00  0.00    -0.354 N 
ATOM     36  C   UNL A   1      39.029  33.154  34.620  1.00  0.00     0.074 A 
ATOM     37  C   UNL A   1      37.958  34.126  34.588  1.00  0.00     0.031 C 
ATOM     38  C   UNL A   1      38.479  30.203  28.940  1.00  0.00     0.029 A 
ATOM     39  C   UNL A   1      39.430  29.912  30.009  1.00  0.00     0.049 A 
ATOM     40  H   UNL A   1      39.621  30.886  31.839  1.00  0.00     0.167 HD
ATOM     41  C   UNL A   1      39.854  32.959  35.676  1.00  0.00     0.037 A 
ATOM     42  C   UNL A   1      40.367  28.945  29.975  1.00  0.00     0.037 A 
ATOM     43  C   UNL A   1      40.903  31.973  35.719  1.00  0.00     0.049 A 
ATOM     44  C   UNL A   1      41.295  28.778  31.143  1.00  0.00     0.074 A 
ATOM     45  C   UNL A   1      41.791  31.703  36.746  1.00  0.00     0.029 A 
ATOM     46  N   UNL A   1      41.196  31.088  34.693  1.00  0.00    -0.354 N 
ATOM     47  N   UNL A   1      41.321  29.431  32.279  1.00  0.00    -0.248 NA
ATOM     48  C   UNL A   1      42.335  27.747  31.019  1.00  0.00     0.031 C 
ATOM     49  C   UNL A   1      42.642  30.673  36.329  1.00  0.00     0.029 A 
ATOM     50  C   UNL A   1      42.259  30.277  35.058  1.00  0.00     0.049 A 
ATOM     51  H   UNL A   1      40.720  31.044  33.832  1.00  0.00     0.167 HD
ATOM     52  C   UNL A   1      42.370  28.890  33.007  1.00  0.00     0.074 A 
ATOM     53  C   UNL A   1      42.944  27.837  32.193  1.00  0.00     0.031 C 
ATOM     54  C   UNL A   1      42.820  29.237  34.236  1.00  0.00     0.037 A 
BRANCH  41  55
ATOM     55  C   UNL A   1      39.667  33.835  36.879  1.00  0.00     0.064 A 
ATOM     56  C   UNL A   1      40.237  35.115  36.950  1.00  0.00     0.173 A 
ATOM     57  C   UNL A   1      38.858  33.415  37.945  1.00  0.00     0.173 A 
ATOM     58  F   UNL A   1      41.030  35.555  35.963  1.00  0.00    -0.203 F 
ATOM     59  C   UNL A   1      40.011  35.938  38.050  1.00  0.00     0.198 A 
ATOM     60  C   UNL A   1      38.616  34.249  39.033  1.00  0.00     0.198 A 
ATOM     61  F   UNL A   1      38.288  32.201  37.923  1.00  0.00    -0.203 F 
ATOM     62  F   UNL A   1      40.588  37.146  38.110  1.00  0.00    -0.200 F 
ATOM     63  C   UNL A   1      39.194  35.509  39.086  1.00  0.00     0.200 A 
ATOM     64  F   UNL A   1      37.819  33.837  40.029  1.00  0.00    -0.200 F 
ATOM     65  F   UNL A   1      38.968  36.307  40.138  1.00  0.00    -0.200 F 
ENDBRANCH  41  55
BRANCH  42  66
ATOM     66  C   UNL A   1      40.463  28.062  28.786  1.00  0.00     0.064 A 
ATOM     67  C   UNL A   1      39.772  26.844  28.739  1.00  0.00     0.173 A 
ATOM     68  C   UNL A   1      41.220  28.432  27.666  1.00  0.00     0.173 A 
ATOM     69  F   UNL A   1      39.052  26.442  29.797  1.00  0.00    -0.203 F 
ATOM     70  C   UNL A   1      39.837  26.027  27.613  1.00  0.00     0.198 A 
ATOM     71  C   UNL A   1      41.265  27.625  26.532  1.00  0.00     0.198 A 
ATOM     72  F   UNL A   1      41.898  29.589  27.665  1.00  0.00    -0.203 F 
ATOM     73  F   UNL A   1      39.188  24.855  27.602  1.00  0.00    -0.200 F 
ATOM     74  C   UNL A   1      40.575  26.422  26.508  1.00  0.00     0.200 A 
ATOM     75  F   UNL A   1      41.968  28.016  25.461  1.00  0.00    -0.200 F 
ATOM     76  F   UNL A   1      40.625  25.641  25.420  1.00  0.00    -0.200 F 
ENDBRANCH  42  66
BRANCH  54  77
ATOM     77  C   UNL A   1      43.983  28.468  34.783  1.00  0.00     0.064 A 
ATOM     78  C   UNL A   1      45.301  28.915  34.607  1.00  0.00     0.173 A 
ATOM     79  C   UNL A   1      43.777  27.296  35.526  1.00  0.00     0.173 A 
ATOM     80  F   UNL A   1      45.548  30.022  33.891  1.00  0.00    -0.203 F 
ATOM     81  C   UNL A   1      46.373  28.206  35.142  1.00  0.00     0.198 A 
ATOM     82  C   UNL A   1      44.849  26.603  36.079  1.00  0.00     0.198 A 
ATOM     83  F   UNL A   1      42.533  26.833  35.725  1.00  0.00    -0.203 F 
ATOM     84  F   UNL A   1      47.626  28.630  34.933  1.00  0.00    -0.200 F 
ATOM     85  C   UNL A   1      46.146  27.055  35.883  1.00  0.00     0.200 A 
ATOM     86  F   UNL A   1      44.628  25.496  36.801  1.00  0.00    -0.200 F 
ATOM     87  F   UNL A   1      47.178  26.376  36.403  1.00  0.00    -0.200 F 
ENDBRANCH  54  77
ENDBRANCH  28  29
ENDBRANCH  20  23
ENDBRANCH  18  19
ENDBRANCH   1  18
TORSDOF 12
ENDMDL
MODEL 2
REMARK VINA RESULT:     -12.3      6.993     12.123
REMARK SMILES O=C(Cc1ccc(=O)n(C(F)F)c1)NCCCNC(=O)c1ccc(-c2c3nc(c(-c4c(F)c(F)c(F)c(F)c4F)c4ccc([nH]4)c(-c4c(F)c(F)c(F)c(F)c4F)c4nc(c(-c5c(F)c(F)c(F)c(F)c5F)c5ccc2[nH]5)C=C4)C=C3)cc1
REMARK SMILES IDX 16 1 15 2 14 3 1 4 2 5 3 7 4 8 5 9 13 10 6 11 9 12 7 13 8 14
REMARK SMILES IDX 10 15 11 16 12 17 17 18 18 19 19 20 20 22 21 23 22 24 83 25
REMARK SMILES IDX 23 26 82 27 24 28 25 29 26 30 76 31 27 32 81 33 75 34 77 35
REMARK SMILES IDX 28 36 80 37 74 38 73 39 29 41 61 42 41 43 60 44 42 45 45 46
REMARK SMILES IDX 59 47 78 48 43 49 44 50 58 52 79 53 46 54 30 55 31 56 39 57
REMARK SMILES IDX 32 58 33 59 37 60 40 61 34 62 35 63 38 64 36 65 62 66 63 67
REMARK SMILES IDX 71 68 64 69 65 70 69 71 72 72 66 73 67 74 70 75 68 76 47 77
REMARK SMILES IDX 48 78 56 79 49 80 50 81 54 82 57 83 51 84 52 85 55 86 53 87
REMARK H PARENT 14 6 18 21 77 40 45 51
REMARK Flexibility Score: inf
ROOT
ATOM      1  C   UNL A   1      38.212  20.184  25.041  1.00  0.00     0.042 C 
ENDROOT
BRANCH   1   2
ATOM      2  C   UNL A   1      37.166  21.282  25.159  1.00  0.00     0.117 C 
BRANCH   2   3
ATOM      3  N   UNL A   1      35.848  20.759  25.455  1.00  0.00    -0.356 N 
ATOM      4  O   UNL A   1      35.094  22.577  26.646  1.00  0.00    -0.275 OA
ATOM      5  C   UNL A   1      34.888  21.482  26.135  1.00  0.00     0.224 C 
ATOM      6  H   UNL A   1      35.628  19.846  25.159  1.00  0.00     0.163 HD
BRANCH   5   7
ATOM      7  C   UNL A   1      33.520  20.800  26.179  1.00  0.00     0.137 C 
BRANCH   7   8
ATOM      8  C   UNL A   1      33.248  19.938  24.964  1.00  0.00    -0.022 A 
ATOM      9  C   UNL A   1      32.537  20.556  23.862  1.00  0.00     0.011 A 
ATOM     10  C   UNL A   1      33.577  18.637  24.864  1.00  0.00     0.099 A 
ATOM     11  C   UNL A   1      32.160  19.837  22.797  1.00  0.00     0.072 A 
ATOM     12  N   UNL A   1      33.195  17.869  23.778  1.00  0.00    -0.258 N 
ATOM     13  C   UNL A   1      32.461  18.381  22.721  1.00  0.00     0.254 A 
ATOM     14  O   UNL A   1      32.047  17.746  21.758  1.00  0.00    -0.269 OA
BRANCH  12  15
ATOM     15  C   UNL A   1      33.475  16.455  23.756  1.00  0.00     0.451 C 
ATOM     16  F   UNL A   1      34.410  16.170  22.815  1.00  0.00    -0.185 F 
ATOM     17  F   UNL A   1      33.932  16.018  24.952  1.00  0.00    -0.185 F 
ENDBRANCH  12  15
ENDBRANCH   7   8
ENDBRANCH   5   7
ENDBRANCH   2   3
ENDBRANCH   1   2
BRANCH   1  18
ATOM     18  C   UNL A   1      39.347  20.289  26.053  1.00  0.00     0.118 C 
BRANCH  18  19
ATOM     19  N   UNL A   1      40.308  19.196  25.975  1.00  0.00    -0.352 N 
ATOM     20  C   UNL A   1      41.679  19.223  26.095  1.00  0.00     0.251 C 
ATOM     21  H   UNL A   1      39.919  18.307  25.811  1.00  0.00     0.163 HD
ATOM     22  O   UNL A   1      42.337  18.209  25.888  1.00  0.00    -0.269 OA
BRANCH  20  23
ATOM     23  C   UNL A   1      42.363  20.490  26.427  1.00  0.00     0.039 A 
ATOM     24  C   UNL A   1      42.492  20.907  27.753  1.00  0.00     0.014 A 
ATOM     25  C   UNL A   1      42.835  21.294  25.386  1.00  0.00     0.014 A 
ATOM     26  C   UNL A   1      42.914  22.205  28.026  1.00  0.00     0.010 A 
ATOM     27  C   UNL A   1      43.332  22.569  25.668  1.00  0.00     0.010 A 
ATOM     28  C   UNL A   1      43.317  23.056  26.984  1.00  0.00    -0.014 A 
BRANCH  28  29
ATOM     29  C   UNL A   1      43.669  24.468  27.280  1.00  0.00     0.031 A 
ATOM     30  C   UNL A   1      45.054  24.983  26.991  1.00  0.00     0.074 A 
ATOM     31  C   UNL A   1      42.728  25.305  27.753  1.00  0.00     0.049 A 
ATOM     32  N   UNL A   1      45.558  26.172  27.209  1.00  0.00    -0.248 NA
ATOM     33  C   UNL A   1      46.002  24.038  26.379  1.00  0.00     0.031 C 
ATOM     34  C   UNL A   1      41.341  24.937  28.040  1.00  0.00     0.029 A 
ATOM     35  N   UNL A   1      42.788  26.642  28.055  1.00  0.00    -0.354 N 
ATOM     36  C   UNL A   1      46.878  26.112  26.782  1.00  0.00     0.074 A 
ATOM     37  C   UNL A   1      47.109  24.764  26.311  1.00  0.00     0.031 C 
ATOM     38  C   UNL A   1      40.671  26.029  28.434  1.00  0.00     0.029 A 
ATOM     39  C   UNL A   1      41.593  27.160  28.485  1.00  0.00     0.049 A 
ATOM     40  H   UNL A   1      43.610  27.177  27.971  1.00  0.00     0.167 HD
ATOM     41  C   UNL A   1      47.810  27.095  26.776  1.00  0.00     0.037 A 
ATOM     42  C   UNL A   1      41.277  28.404  28.891  1.00  0.00     0.037 A 
ATOM     43  C   UNL A   1      47.574  28.444  27.220  1.00  0.00     0.049 A 
ATOM     44  C   UNL A   1      42.340  29.464  28.913  1.00  0.00     0.074 A 
ATOM     45  C   UNL A   1      48.458  29.509  27.252  1.00  0.00     0.029 A 
ATOM     46  N   UNL A   1      46.361  28.915  27.700  1.00  0.00    -0.354 N 
ATOM     47  N   UNL A   1      43.593  29.385  28.539  1.00  0.00    -0.248 NA
ATOM     48  C   UNL A   1      41.947  30.784  29.425  1.00  0.00     0.031 C 
ATOM     49  C   UNL A   1      47.788  30.619  27.779  1.00  0.00     0.029 A 
ATOM     50  C   UNL A   1      46.477  30.254  28.040  1.00  0.00     0.049 A 
ATOM     51  H   UNL A   1      45.541  28.378  27.786  1.00  0.00     0.167 HD
ATOM     52  C   UNL A   1      44.138  30.641  28.764  1.00  0.00     0.074 A 
ATOM     53  C   UNL A   1      43.072  31.472  29.286  1.00  0.00     0.031 C 
ATOM     54  C   UNL A   1      45.408  31.065  28.561  1.00  0.00     0.037 A 
BRANCH  41  55
ATOM     55  C   UNL A   1      49.183  26.752  26.279  1.00  0.00     0.064 A 
ATOM     56  C   UNL A   1      49.556  26.970  24.945  1.00  0.00     0.173 A 
ATOM     57  C   UNL A   1      50.156  26.261  27.162  1.00  0.00     0.173 A 
ATOM     58  F   UNL A   1      48.656  27.425  24.059  1.00  0.00    -0.203 F 
ATOM     59  C   UNL A   1      50.850  26.697  24.509  1.00  0.00     0.198 A 
ATOM     60  C   UNL A   1      51.455  26.010  26.728  1.00  0.00     0.198 A 
ATOM     61  F   UNL A   1      49.851  26.039  28.449  1.00  0.00    -0.203 F 
ATOM     62  F   UNL A   1      51.176  26.886  23.223  1.00  0.00    -0.200 F 
ATOM     63  C   UNL A   1      51.801  26.226  25.403  1.00  0.00     0.200 A 
ATOM     64  F   UNL A   1      52.376  25.565  27.595  1.00  0.00    -0.200 F 
ATOM     65  F   UNL A   1      53.049  25.977  24.985  1.00  0.00    -0.200 F 
ENDBRANCH  41  55
BRANCH  42  66
ATOM     66  C   UNL A   1      39.885  28.705  29.309  1.00  0.00     0.064 A 
ATOM     67  C   UNL A   1      38.952  29.204  28.390  1.00  0.00     0.173 A 
ATOM     68  C   UNL A   1      39.453  28.471  30.622  1.00  0.00     0.173 A 
ATOM     69  F   UNL A   1      39.327  29.462  27.128  1.00  0.00    -0.203 F 
ATOM     70  C   UNL A   1      37.637  29.461  28.771  1.00  0.00     0.198 A 
ATOM     71  C   UNL A   1      38.132  28.705  30.995  1.00  0.00     0.198 A 
ATOM     72  F   UNL A   1      40.309  27.992  31.535  1.00  0.00    -0.203 F 
ATOM     73  F   UNL A   1      36.771  29.961  27.881  1.00  0.00    -0.200 F 
ATOM     74  C   UNL A   1      37.226  29.202  30.070  1.00  0.00     0.200 A 
ATOM     75  F   UNL A   1      37.735  28.441  32.247  1.00  0.00    -0.200 F 
ATOM     76  F   UNL A   1      35.956  29.435  30.431  1.00  0.00    -0.200 F 
ENDBRANCH  42  66
BRANCH  54  77
ATOM     77  C   UNL A   1      45.715  32.493  28.893  1.00  0.00     0.064 A 
ATOM     78  C   UNL A   1      46.206  32.859  30.155  1.00  0.00     0.173 A 
ATOM     79  C   UNL A   1      45.558  33.499  27.928  1.00  0.00     0.173 A 
ATOM     80  F   UNL A   1      46.358  31.934  31.114  1.00  0.00    -0.203 F 
ATOM     81  C   UNL A   1      46.513  34.186  30.445  1.00  0.00     0.198 A 
ATOM     82  C   UNL A   1      45.887  34.821  28.214  1.00  0.00     0.198 A 
ATOM     83  F   UNL A   1      45.096  33.197  26.705  1.00  0.00    -0.203 F 
ATOM     84  F   UNL A   1      46.946  34.520  31.667  1.00  0.00    -0.200 F 
ATOM     85  C   UNL A   1      46.360  35.164  29.472  1.00  0.00     0.200 A 
ATOM     86  F   UNL A   1      45.748  35.763  27.272  1.00  0.00    -0.200 F 
ATOM     87  F   UNL A   1      46.661  36.440  29.751  1.00  0.00    -0.200 F 
ENDBRANCH  54  77
ENDBRANCH  28  29
ENDBRANCH  20  23
ENDBRANCH  18  19
ENDBRANCH   1  18
TORSDOF 12
ENDMDL
MODEL 3
REMARK VINA RESULT:     -12.3      6.926     12.030
REMARK SMILES O=C(Cc1ccc(=O)n(C(F)F)c1)NCCCNC(=O)c1ccc(-c2c3nc(c(-c4c(F)c(F)c(F)c(F)c4F)c4ccc([nH]4)c(-c4c(F)c(F)c(F)c(F)c4F)c4nc(c(-c5c(F)c(F)c(F)c(F)c5F)c5ccc2[nH]5)C=C4)C=C3)cc1
REMARK SMILES IDX 16 1 15 2 14 3 1 4 2 5 3 7 4 8 5 9 13 10 6 11 9 12 7 13 8 14
REMARK SMILES IDX 10 15 11 16 12 17 17 18 18 19 19 20 20 22 21 23 22 24 83 25
REMARK SMILES IDX 23 26 82 27 24 28 25 29 26 30 76 31 27 32 81 33 75 34 77 35
REMARK SMILES IDX 28 36 80 37 74 38 73 39 29 41 61 42 41 43 60 44 42 45 45 46
REMARK SMILES IDX 59 47 78 48 43 49 44 50 58 52 79 53 46 54 30 55 31 56 39 57
REMARK SMILES IDX 32 58 33 59 37 60 40 61 34 62 35 63 38 64 36 65 62 66 63 67
REMARK SMILES IDX 71 68 64 69 65 70 69 71 72 72 66 73 67 74 70 75 68 76 47 77
REMARK SMILES IDX 48 78 56 79 49 80 50 81 54 82 57 83 51 84 52 85 55 86 53 87
REMARK H PARENT 14 6 18 21 77 40 45 51
REMARK Flexibility Score: inf
ROOT
ATOM      1  C   UNL A   1      38.144  20.300  25.075  1.00  0.00     0.042 C 
ENDROOT
BRANCH   1   2
ATOM      2  C   UNL A   1      37.076  21.371  25.231  1.00  0.00     0.117 C 
BRANCH   2   3
ATOM      3  N   UNL A   1      35.770  20.811  25.513  1.00  0.00    -0.356 N 
ATOM      4  O   UNL A   1      34.968  22.587  26.733  1.00  0.00    -0.275 OA
ATOM      5  C   UNL A   1      34.790  21.497  26.201  1.00  0.00     0.224 C 
ATOM      6  H   UNL A   1      35.573  19.898  25.199  1.00  0.00     0.163 HD
BRANCH   5   7
ATOM      7  C   UNL A   1      33.440  20.782  26.228  1.00  0.00     0.137 C 
BRANCH   7   8
ATOM      8  C   UNL A   1      33.198  19.926  25.002  1.00  0.00    -0.022 A 
ATOM      9  C   UNL A   1      32.515  20.550  23.885  1.00  0.00     0.011 A 
ATOM     10  C   UNL A   1      33.529  18.626  24.902  1.00  0.00     0.099 A 
ATOM     11  C   UNL A   1      32.164  19.838  22.808  1.00  0.00     0.072 A 
ATOM     12  N   UNL A   1      33.175  17.864  23.802  1.00  0.00    -0.258 N 
ATOM     13  C   UNL A   1      32.467  18.383  22.731  1.00  0.00     0.254 A 
ATOM     14  O   UNL A   1      32.077  17.753  21.754  1.00  0.00    -0.269 OA
BRANCH  12  15
ATOM     15  C   UNL A   1      33.456  16.450  23.779  1.00  0.00     0.451 C 
ATOM     16  F   UNL A   1      34.348  16.159  22.800  1.00  0.00    -0.185 F 
ATOM     17  F   UNL A   1      33.967  16.024  24.957  1.00  0.00    -0.185 F 
ENDBRANCH  12  15
ENDBRANCH   7   8
ENDBRANCH   5   7
ENDBRANCH   2   3
ENDBRANCH   1   2
BRANCH   1  18
ATOM     18  C   UNL A   1      39.288  20.406  26.077  1.00  0.00     0.118 C 
BRANCH  18  19
ATOM     19  N   UNL A   1      40.254  19.318  25.984  1.00  0.00    -0.352 N 
ATOM     20  C   UNL A   1      41.626  19.351  26.090  1.00  0.00     0.251 C 
ATOM     21  H   UNL A   1      39.868  18.427  25.821  1.00  0.00     0.163 HD
ATOM     22  O   UNL A   1      42.287  18.341  25.872  1.00  0.00    -0.269 OA
BRANCH  20  23
ATOM     23  C   UNL A   1      42.307  20.620  26.420  1.00  0.00     0.039 A 
ATOM     24  C   UNL A   1      42.520  20.993  27.748  1.00  0.00     0.014 A 
ATOM     25  C   UNL A   1      42.690  21.469  25.379  1.00  0.00     0.014 A 
ATOM     26  C   UNL A   1      42.935  22.289  28.038  1.00  0.00     0.010 A 
ATOM     27  C   UNL A   1      43.182  22.744  25.672  1.00  0.00     0.010 A 
ATOM     28  C   UNL A   1      43.248  23.185  27.003  1.00  0.00    -0.014 A 
BRANCH  28  29
ATOM     29  C   UNL A   1      43.593  24.593  27.325  1.00  0.00     0.031 A 
ATOM     30  C   UNL A   1      44.980  25.116  27.060  1.00  0.00     0.074 A 
ATOM     31  C   UNL A   1      42.644  25.421  27.800  1.00  0.00     0.049 A 
ATOM     32  N   UNL A   1      45.478  26.303  27.302  1.00  0.00    -0.248 NA
ATOM     33  C   UNL A   1      45.937  24.183  26.444  1.00  0.00     0.031 C 
ATOM     34  C   UNL A   1      41.256  25.044  28.066  1.00  0.00     0.029 A 
ATOM     35  N   UNL A   1      42.697  26.752  28.124  1.00  0.00    -0.354 N 
ATOM     36  C   UNL A   1      46.804  26.253  26.890  1.00  0.00     0.074 A 
ATOM     37  C   UNL A   1      47.043  24.913  26.400  1.00  0.00     0.031 C 
ATOM     38  C   UNL A   1      40.577  26.128  28.469  1.00  0.00     0.029 A 
ATOM     39  C   UNL A   1      41.496  27.260  28.548  1.00  0.00     0.049 A 
ATOM     40  H   UNL A   1      43.519  27.291  28.057  1.00  0.00     0.167 HD
ATOM     41  C   UNL A   1      47.732  27.238  26.910  1.00  0.00     0.037 A 
ATOM     42  C   UNL A   1      41.172  28.497  28.970  1.00  0.00     0.037 A 
ATOM     43  C   UNL A   1      47.488  28.579  27.372  1.00  0.00     0.049 A 
ATOM     44  C   UNL A   1      42.232  29.559  29.020  1.00  0.00     0.074 A 
ATOM     45  C   UNL A   1      48.368  29.646  27.431  1.00  0.00     0.029 A 
ATOM     46  N   UNL A   1      46.268  29.040  27.845  1.00  0.00    -0.354 N 
ATOM     47  N   UNL A   1      43.489  29.490  28.660  1.00  0.00    -0.248 NA
ATOM     48  C   UNL A   1      41.829  30.870  29.548  1.00  0.00     0.031 C 
ATOM     49  C   UNL A   1      47.689  30.745  27.968  1.00  0.00     0.029 A 
ATOM     50  C   UNL A   1      46.377  30.374  28.207  1.00  0.00     0.049 A 
ATOM     51  H   UNL A   1      45.449  28.500  27.914  1.00  0.00     0.167 HD
ATOM     52  C   UNL A   1      44.028  30.743  28.911  1.00  0.00     0.074 A 
ATOM     53  C   UNL A   1      42.954  31.563  29.433  1.00  0.00     0.031 C 
ATOM     54  C   UNL A   1      45.299  31.174  28.729  1.00  0.00     0.037 A 
BRANCH  41  55
ATOM     55  C   UNL A   1      49.112  26.906  26.424  1.00  0.00     0.064 A 
ATOM     56  C   UNL A   1      50.089  26.387  27.286  1.00  0.00     0.173 A 
ATOM     57  C   UNL A   1      49.441  27.050  25.068  1.00  0.00     0.173 A 
ATOM     58  F   UNL A   1      49.827  26.246  28.594  1.00  0.00    -0.203 F 
ATOM     59  C   UNL A   1      51.348  26.034  26.810  1.00  0.00     0.198 A 
ATOM     60  C   UNL A   1      50.694  26.674  24.591  1.00  0.00     0.198 A 
ATOM     61  F   UNL A   1      48.541  27.538  24.202  1.00  0.00    -0.203 F 
ATOM     62  F   UNL A   1      52.276  25.566  27.657  1.00  0.00    -0.200 F 
ATOM     63  C   UNL A   1      51.648  26.169  25.462  1.00  0.00     0.200 A 
ATOM     64  F   UNL A   1      50.978  26.797  23.287  1.00  0.00    -0.200 F 
ATOM     65  F   UNL A   1      52.856  25.817  25.004  1.00  0.00    -0.200 F 
ENDBRANCH  41  55
BRANCH  42  66
ATOM     66  C   UNL A   1      39.774  28.788  29.376  1.00  0.00     0.064 A 
ATOM     67  C   UNL A   1      38.849  29.292  28.452  1.00  0.00     0.173 A 
ATOM     68  C   UNL A   1      39.330  28.540  30.682  1.00  0.00     0.173 A 
ATOM     69  F   UNL A   1      39.236  29.563  27.197  1.00  0.00    -0.203 F 
ATOM     70  C   UNL A   1      37.529  29.539  28.822  1.00  0.00     0.198 A 
ATOM     71  C   UNL A   1      38.005  28.764  31.044  1.00  0.00     0.198 A 
ATOM     72  F   UNL A   1      40.180  28.056  31.600  1.00  0.00    -0.203 F 
ATOM     73  F   UNL A   1      36.669  30.044  27.928  1.00  0.00    -0.200 F 
ATOM     74  C   UNL A   1      37.106  29.266  30.114  1.00  0.00     0.200 A 
ATOM     75  F   UNL A   1      37.596  28.487  32.290  1.00  0.00    -0.200 F 
ATOM     76  F   UNL A   1      35.832  29.491  30.465  1.00  0.00    -0.200 F 
ENDBRANCH  42  66
BRANCH  54  77
ATOM     77  C   UNL A   1      45.598  32.597  29.087  1.00  0.00     0.064 A 
ATOM     78  C   UNL A   1      45.413  33.636  28.165  1.00  0.00     0.173 A 
ATOM     79  C   UNL A   1      46.034  32.930  30.379  1.00  0.00     0.173 A 
ATOM     80  F   UNL A   1      45.013  33.365  26.914  1.00  0.00    -0.203 F 
ATOM     81  C   UNL A   1      45.669  34.959  28.517  1.00  0.00     0.198 A 
ATOM     82  C   UNL A   1      46.266  34.255  30.734  1.00  0.00     0.198 A 
ATOM     83  F   UNL A   1      46.220  31.970  31.297  1.00  0.00    -0.203 F 
ATOM     84  F   UNL A   1      45.521  35.933  27.610  1.00  0.00    -0.200 F 
ATOM     85  C   UNL A   1      46.089  35.268  29.803  1.00  0.00     0.200 A 
ATOM     86  F   UNL A   1      46.664  34.553  31.979  1.00  0.00    -0.200 F 
ATOM     87  F   UNL A   1      46.330  36.541  30.143  1.00  0.00    -0.200 F 
ENDBRANCH  54  77
ENDBRANCH  28  29
ENDBRANCH  20  23
ENDBRANCH  18  19
ENDBRANCH   1  18
TORSDOF 12
ENDMDL
