MODEL 1
REMARK VINA RESULT:     -10.9      0.000      0.000
REMARK SMILES N#CCCNC(=O)COc1ccc(C(=O)NCCCNC(=O)c2ccc(-c3c4nc(c(-c5c(F)c(F)c(F)c(F)c5F)c5ccc([nH]5)c(-c5c(F)c(F)c(F)c(F)c5F)c5nc(c(-c6c(F)c(F)c(F)c(F)c6F)c6ccc3[nH]6)C=C5)C=C4)cc2)nc1
REMARK SMILES IDX 14 1 15 2 16 3 13 5 10 6 11 7 87 8 12 9 86 10 9 11 8 12 6 13
REMARK SMILES IDX 5 14 7 16 4 17 3 18 2 19 1 20 17 21 18 22 19 23 20 24 21 25
REMARK SMILES IDX 22 27 23 28 24 29 85 30 25 31 84 32 26 33 27 34 28 35 78 36
REMARK SMILES IDX 29 37 83 38 77 39 79 40 30 41 82 42 76 43 75 44 31 46 63 47
REMARK SMILES IDX 43 48 62 49 44 50 47 51 61 52 80 53 45 54 46 55 60 57 81 58
REMARK SMILES IDX 48 59 32 60 33 61 41 62 34 63 35 64 39 65 42 66 36 67 37 68
REMARK SMILES IDX 40 69 38 70 64 71 65 72 73 73 66 74 67 75 71 76 74 77 68 78
REMARK SMILES IDX 69 79 72 80 70 81 49 82 50 83 58 84 51 85 52 86 56 87 59 88
REMARK SMILES IDX 53 89 54 90 57 91 55 92
REMARK H PARENT 16 4 5 15 20 26 79 45 47 56
REMARK Flexibility Score: inf
ROOT
ATOM      1  C   UNL A   1      33.976  29.289  26.977  1.00  0.00     0.269 C 
ATOM      2  O   UNL A   1      35.065  29.305  27.553  1.00  0.00    -0.268 OA
ATOM      3  N   UNL A   1      33.055  30.242  27.360  1.00  0.00    -0.351 N 
ATOM      4  H   UNL A   1      33.350  30.803  28.114  1.00  0.00     0.163 HD
ENDROOT
BRANCH   1   5
ATOM      5  C   UNL A   1      33.702  28.271  25.906  1.00  0.00     0.128 A 
ATOM      6  C   UNL A   1      33.203  26.508  23.848  1.00  0.00     0.138 A 
ATOM      7  C   UNL A   1      33.382  26.028  25.135  1.00  0.00     0.050 A 
ATOM      8  C   UNL A   1      33.318  27.874  23.649  1.00  0.00     0.158 A 
ATOM      9  C   UNL A   1      33.677  26.910  26.165  1.00  0.00     0.038 A 
ATOM     10  N   UNL A   1      33.537  28.763  24.649  1.00  0.00    -0.247 NA
BRANCH   6  11
ATOM     11  O   UNL A   1      33.069  25.671  22.780  1.00  0.00    -0.482 OA
BRANCH  11  12
ATOM     12  C   UNL A   1      31.730  25.580  22.306  1.00  0.00     0.329 C 
BRANCH  12  13
ATOM     13  C   UNL A   1      30.621  25.282  23.324  1.00  0.00     0.257 C 
ATOM     14  N   UNL A   1      30.545  24.055  23.921  1.00  0.00    -0.352 N 
ATOM     15  H   UNL A   1      29.811  23.947  24.569  1.00  0.00     0.163 HD
ATOM     16  O   UNL A   1      29.776  26.130  23.618  1.00  0.00    -0.271 OA
BRANCH  14  17
ATOM     17  C   UNL A   1      31.391  22.885  23.735  1.00  0.00     0.131 C 
BRANCH  17  18
ATOM     18  C   UNL A   1      31.722  22.151  25.039  1.00  0.00     0.141 C 
BRANCH  18  19
ATOM     19  C   UNL A   1      31.382  23.015  26.242  1.00  0.00     0.064 C 
ATOM     20  N   UNL A   1      31.100  23.731  27.241  1.00  0.00    -0.198 NA
ENDBRANCH  18  19
ENDBRANCH  17  18
ENDBRANCH  14  17
ENDBRANCH  12  13
ENDBRANCH  11  12
ENDBRANCH   6  11
ENDBRANCH   1   5
BRANCH   3  21
ATOM     21  C   UNL A   1      31.730  30.576  26.860  1.00  0.00     0.118 C 
BRANCH  21  22
ATOM     22  C   UNL A   1      31.497  32.088  26.859  1.00  0.00     0.042 C 
BRANCH  22  23
ATOM     23  C   UNL A   1      32.774  32.901  27.045  1.00  0.00     0.118 C 
BRANCH  23  24
ATOM     24  N   UNL A   1      32.500  34.232  27.564  1.00  0.00    -0.352 N 
ATOM     25  C   UNL A   1      33.018  34.884  28.654  1.00  0.00     0.251 C 
ATOM     26  H   UNL A   1      31.837  34.748  27.050  1.00  0.00     0.163 HD
ATOM     27  O   UNL A   1      32.485  35.915  29.051  1.00  0.00    -0.269 OA
BRANCH  25  28
ATOM     28  C   UNL A   1      34.203  34.354  29.364  1.00  0.00     0.039 A 
ATOM     29  C   UNL A   1      34.013  33.666  30.566  1.00  0.00     0.014 A 
ATOM     30  C   UNL A   1      35.498  34.573  28.883  1.00  0.00     0.014 A 
ATOM     31  C   UNL A   1      35.112  33.145  31.253  1.00  0.00     0.010 A 
ATOM     32  C   UNL A   1      36.587  33.996  29.531  1.00  0.00     0.010 A 
ATOM     33  C   UNL A   1      36.406  33.275  30.721  1.00  0.00    -0.014 A 
BRANCH  33  34
ATOM     34  C   UNL A   1      37.577  32.645  31.380  1.00  0.00     0.031 A 
ATOM     35  C   UNL A   1      38.286  31.490  30.731  1.00  0.00     0.074 A 
ATOM     36  C   UNL A   1      37.951  33.066  32.604  1.00  0.00     0.049 A 
ATOM     37  N   UNL A   1      39.262  30.751  31.193  1.00  0.00    -0.248 NA
ATOM     38  C   UNL A   1      37.818  31.096  29.393  1.00  0.00     0.031 C 
ATOM     39  C   UNL A   1      37.315  34.150  33.354  1.00  0.00     0.029 A 
ATOM     40  N   UNL A   1      38.945  32.623  33.440  1.00  0.00    -0.354 N 
ATOM     41  C   UNL A   1      39.512  29.796  30.216  1.00  0.00     0.074 A 
ATOM     42  C   UNL A   1      38.558  30.023  29.152  1.00  0.00     0.031 C 
ATOM     43  C   UNL A   1      37.942  34.298  34.531  1.00  0.00     0.029 A 
ATOM     44  C   UNL A   1      38.996  33.295  34.637  1.00  0.00     0.049 A 
ATOM     45  H   UNL A   1      39.562  31.893  33.205  1.00  0.00     0.167 HD
ATOM     46  C   UNL A   1      40.462  28.831  30.204  1.00  0.00     0.037 A 
ATOM     47  C   UNL A   1      39.793  33.111  35.707  1.00  0.00     0.037 A 
ATOM     48  C   UNL A   1      41.427  28.631  31.253  1.00  0.00     0.049 A 
ATOM     49  C   UNL A   1      40.830  32.022  35.670  1.00  0.00     0.074 A 
ATOM     50  C   UNL A   1      42.481  27.735  31.297  1.00  0.00     0.029 A 
ATOM     51  N   UNL A   1      41.452  29.334  32.448  1.00  0.00    -0.354 N 
ATOM     52  N   UNL A   1      41.105  31.173  34.710  1.00  0.00    -0.248 NA
ATOM     53  C   UNL A   1      41.666  31.863  36.870  1.00  0.00     0.031 C 
ATOM     54  C   UNL A   1      43.112  27.861  32.539  1.00  0.00     0.029 A 
ATOM     55  C   UNL A   1      42.482  28.869  33.250  1.00  0.00     0.049 A 
ATOM     56  H   UNL A   1      40.829  30.058  32.692  1.00  0.00     0.167 HD
ATOM     57  C   UNL A   1      42.156  30.396  35.177  1.00  0.00     0.074 A 
ATOM     58  C   UNL A   1      42.481  30.886  36.501  1.00  0.00     0.031 C 
ATOM     59  C   UNL A   1      42.792  29.367  34.566  1.00  0.00     0.037 A 
BRANCH  46  60
ATOM     60  C   UNL A   1      40.509  27.912  29.017  1.00  0.00     0.064 A 
ATOM     61  C   UNL A   1      39.730  26.746  28.957  1.00  0.00     0.173 A 
ATOM     62  C   UNL A   1      41.305  28.227  27.905  1.00  0.00     0.173 A 
ATOM     63  F   UNL A   1      38.958  26.396  29.997  1.00  0.00    -0.203 F 
ATOM     64  C   UNL A   1      39.767  25.916  27.839  1.00  0.00     0.198 A 
ATOM     65  C   UNL A   1      41.317  27.410  26.777  1.00  0.00     0.198 A 
ATOM     66  F   UNL A   1      42.063  29.333  27.907  1.00  0.00    -0.203 F 
ATOM     67  F   UNL A   1      39.047  24.785  27.822  1.00  0.00    -0.200 F 
ATOM     68  C   UNL A   1      40.553  26.253  26.748  1.00  0.00     0.200 A 
ATOM     69  F   UNL A   1      42.067  27.743  25.718  1.00  0.00    -0.200 F 
ATOM     70  F   UNL A   1      40.581  25.458  25.669  1.00  0.00    -0.200 F 
ENDBRANCH  46  60
BRANCH  47  71
ATOM     71  C   UNL A   1      39.651  33.988  36.897  1.00  0.00     0.064 A 
ATOM     72  C   UNL A   1      40.316  35.220  36.965  1.00  0.00     0.173 A 
ATOM     73  C   UNL A   1      38.854  33.616  37.990  1.00  0.00     0.173 A 
ATOM     74  F   UNL A   1      41.108  35.608  35.955  1.00  0.00    -0.203 F 
ATOM     75  C   UNL A   1      40.204  36.039  38.086  1.00  0.00     0.198 A 
ATOM     76  C   UNL A   1      38.721  34.447  39.100  1.00  0.00     0.198 A 
ATOM     77  F   UNL A   1      38.196  32.447  37.974  1.00  0.00    -0.203 F 
ATOM     78  F   UNL A   1      40.887  37.190  38.143  1.00  0.00    -0.200 F 
ATOM     79  C   UNL A   1      39.402  35.654  39.151  1.00  0.00     0.200 A 
ATOM     80  F   UNL A   1      37.938  34.076  40.123  1.00  0.00    -0.200 F 
ATOM     81  F   UNL A   1      39.294  36.442  40.229  1.00  0.00    -0.200 F 
ENDBRANCH  47  71
BRANCH  59  82
ATOM     82  C   UNL A   1      43.916  28.714  35.314  1.00  0.00     0.064 A 
ATOM     83  C   UNL A   1      45.240  29.157  35.180  1.00  0.00     0.173 A 
ATOM     84  C   UNL A   1      43.661  27.663  36.209  1.00  0.00     0.173 A 
ATOM     85  F   UNL A   1      45.537  30.146  34.324  1.00  0.00    -0.203 F 
ATOM     86  C   UNL A   1      46.270  28.557  35.899  1.00  0.00     0.198 A 
ATOM     87  C   UNL A   1      44.689  27.085  36.947  1.00  0.00     0.198 A 
ATOM     88  F   UNL A   1      42.410  27.207  36.377  1.00  0.00    -0.203 F 
ATOM     89  F   UNL A   1      47.535  28.967  35.722  1.00  0.00    -0.200 F 
ATOM     90  C   UNL A   1      45.994  27.528  36.787  1.00  0.00     0.200 A 
ATOM     91  F   UNL A   1      44.419  26.101  37.814  1.00  0.00    -0.200 F 
ATOM     92  F   UNL A   1      46.986  26.959  37.484  1.00  0.00    -0.200 F 
ENDBRANCH  59  82
ENDBRANCH  33  34
ENDBRANCH  25  28
ENDBRANCH  23  24
ENDBRANCH  22  23
ENDBRANCH  21  22
ENDBRANCH   3  21
TORSDOF 16
ENDMDL
MODEL 2
REMARK VINA RESULT:     -10.9      5.801     11.005
REMARK SMILES N#CCCNC(=O)COc1ccc(C(=O)NCCCNC(=O)c2ccc(-c3c4nc(c(-c5c(F)c(F)c(F)c(F)c5F)c5ccc([nH]5)c(-c5c(F)c(F)c(F)c(F)c5F)c5nc(c(-c6c(F)c(F)c(F)c(F)c6F)c6ccc3[nH]6)C=C5)C=C4)cc2)nc1
REMARK SMILES IDX 14 1 15 2 16 3 13 5 10 6 11 7 87 8 12 9 86 10 9 11 8 12 6 13
REMARK SMILES IDX 5 14 7 16 4 17 3 18 2 19 1 20 17 21 18 22 19 23 20 24 21 25
REMARK SMILES IDX 22 27 23 28 24 29 85 30 25 31 84 32 26 33 27 34 28 35 78 36
REMARK SMILES IDX 29 37 83 38 77 39 79 40 30 41 82 42 76 43 75 44 31 46 63 47
REMARK SMILES IDX 43 48 62 49 44 50 47 51 61 52 80 53 45 54 46 55 60 57 81 58
REMARK SMILES IDX 48 59 32 60 33 61 41 62 34 63 35 64 39 65 42 66 36 67 37 68
REMARK SMILES IDX 40 69 38 70 64 71 65 72 73 73 66 74 67 75 71 76 74 77 68 78
REMARK SMILES IDX 69 79 72 80 70 81 49 82 50 83 58 84 51 85 52 86 56 87 59 88
REMARK SMILES IDX 53 89 54 90 57 91 55 92
REMARK H PARENT 16 4 5 15 20 26 79 45 47 56
REMARK Flexibility Score: inf
ROOT
ATOM      1  C   UNL A   1      37.398  23.360  25.800  1.00  0.00     0.269 C 
ATOM      2  O   UNL A   1      38.171  24.175  26.306  1.00  0.00    -0.268 OA
ATOM      3  N   UNL A   1      37.963  22.344  25.057  1.00  0.00    -0.351 N 
ATOM      4  H   UNL A   1      38.941  22.420  24.956  1.00  0.00     0.163 HD
ENDROOT
BRANCH   1   5
ATOM      5  C   UNL A   1      35.916  23.492  26.010  1.00  0.00     0.128 A 
ATOM      6  C   UNL A   1      33.199  23.843  26.306  1.00  0.00     0.138 A 
ATOM      7  C   UNL A   1      33.824  22.772  26.923  1.00  0.00     0.050 A 
ATOM      8  C   UNL A   1      33.979  24.683  25.528  1.00  0.00     0.158 A 
ATOM      9  C   UNL A   1      35.184  22.569  26.739  1.00  0.00     0.038 A 
ATOM     10  N   UNL A   1      35.321  24.546  25.389  1.00  0.00    -0.247 NA
BRANCH   6  11
ATOM     11  O   UNL A   1      31.844  23.995  26.326  1.00  0.00    -0.482 OA
BRANCH  11  12
ATOM     12  C   UNL A   1      31.159  22.990  25.586  1.00  0.00     0.329 C 
BRANCH  12  13
ATOM     13  C   UNL A   1      31.217  23.052  24.054  1.00  0.00     0.257 C 
ATOM     14  N   UNL A   1      32.017  22.188  23.359  1.00  0.00    -0.352 N 
ATOM     15  H   UNL A   1      31.990  22.286  22.379  1.00  0.00     0.163 HD
ATOM     16  O   UNL A   1      30.559  23.879  23.420  1.00  0.00    -0.271 OA
BRANCH  14  17
ATOM     17  C   UNL A   1      32.902  21.146  23.859  1.00  0.00     0.131 C 
BRANCH  17  18
ATOM     18  C   UNL A   1      32.460  19.729  23.481  1.00  0.00     0.141 C 
BRANCH  18  19
ATOM     19  C   UNL A   1      32.455  18.824  24.702  1.00  0.00     0.064 C 
ATOM     20  N   UNL A   1      32.452  18.073  25.715  1.00  0.00    -0.198 NA
ENDBRANCH  18  19
ENDBRANCH  17  18
ENDBRANCH  14  17
ENDBRANCH  12  13
ENDBRANCH  11  12
ENDBRANCH   6  11
ENDBRANCH   1   5
BRANCH   3  21
ATOM     21  C   UNL A   1      37.390  21.183  24.395  1.00  0.00     0.118 C 
BRANCH  21  22
ATOM     22  C   UNL A   1      37.994  19.881  24.927  1.00  0.00     0.042 C 
BRANCH  22  23
ATOM     23  C   UNL A   1      39.005  20.093  26.049  1.00  0.00     0.118 C 
BRANCH  23  24
ATOM     24  N   UNL A   1      40.100  19.137  25.981  1.00  0.00    -0.352 N 
ATOM     25  C   UNL A   1      41.457  19.340  25.997  1.00  0.00     0.251 C 
ATOM     26  H   UNL A   1      39.823  18.194  25.913  1.00  0.00     0.163 HD
ATOM     27  O   UNL A   1      42.209  18.417  25.698  1.00  0.00    -0.269 OA
BRANCH  25  28
ATOM     28  C   UNL A   1      42.025  20.657  26.357  1.00  0.00     0.039 A 
ATOM     29  C   UNL A   1      42.386  21.536  25.332  1.00  0.00     0.014 A 
ATOM     30  C   UNL A   1      42.250  21.012  27.691  1.00  0.00     0.014 A 
ATOM     31  C   UNL A   1      42.914  22.791  25.642  1.00  0.00     0.010 A 
ATOM     32  C   UNL A   1      42.714  22.288  28.002  1.00  0.00     0.010 A 
ATOM     33  C   UNL A   1      43.049  23.191  26.982  1.00  0.00    -0.014 A 
BRANCH  33  34
ATOM     34  C   UNL A   1      43.513  24.555  27.336  1.00  0.00     0.031 A 
ATOM     35  C   UNL A   1      42.549  25.571  27.880  1.00  0.00     0.074 A 
ATOM     36  C   UNL A   1      44.792  24.900  27.091  1.00  0.00     0.049 A 
ATOM     37  N   UNL A   1      42.745  26.835  28.155  1.00  0.00    -0.248 NA
ATOM     38  C   UNL A   1      41.172  25.111  28.122  1.00  0.00     0.031 C 
ATOM     39  C   UNL A   1      45.812  24.015  26.528  1.00  0.00     0.029 A 
ATOM     40  N   UNL A   1      45.449  26.092  27.270  1.00  0.00    -0.354 N 
ATOM     41  C   UNL A   1      41.517  27.326  28.583  1.00  0.00     0.074 A 
ATOM     42  C   UNL A   1      40.572  26.234  28.492  1.00  0.00     0.031 C 
ATOM     43  C   UNL A   1      46.968  24.688  26.420  1.00  0.00     0.029 A 
ATOM     44  C   UNL A   1      46.762  26.061  26.868  1.00  0.00     0.049 A 
ATOM     45  H   UNL A   1      45.021  26.893  27.649  1.00  0.00     0.167 HD
ATOM     46  C   UNL A   1      41.215  28.569  29.027  1.00  0.00     0.037 A 
ATOM     47  C   UNL A   1      47.692  27.036  26.847  1.00  0.00     0.037 A 
ATOM     48  C   UNL A   1      42.167  29.642  29.143  1.00  0.00     0.049 A 
ATOM     49  C   UNL A   1      47.322  28.411  27.332  1.00  0.00     0.074 A 
ATOM     50  C   UNL A   1      41.978  30.913  29.658  1.00  0.00     0.029 A 
ATOM     51  N   UNL A   1      43.490  29.572  28.731  1.00  0.00    -0.354 N 
ATOM     52  N   UNL A   1      46.178  28.843  27.803  1.00  0.00    -0.248 NA
ATOM     53  C   UNL A   1      48.375  29.436  27.279  1.00  0.00     0.031 C 
ATOM     54  C   UNL A   1      43.171  31.627  29.511  1.00  0.00     0.029 A 
ATOM     55  C   UNL A   1      44.119  30.788  28.949  1.00  0.00     0.049 A 
ATOM     56  H   UNL A   1      43.919  28.776  28.340  1.00  0.00     0.167 HD
ATOM     57  C   UNL A   1      46.377  30.179  28.123  1.00  0.00     0.074 A 
ATOM     58  C   UNL A   1      47.757  30.482  27.808  1.00  0.00     0.031 C 
ATOM     59  C   UNL A   1      45.493  31.074  28.629  1.00  0.00     0.037 A 
BRANCH  46  60
ATOM     60  C   UNL A   1      39.792  28.842  29.422  1.00  0.00     0.064 A 
ATOM     61  C   UNL A   1      38.852  29.327  28.501  1.00  0.00     0.173 A 
ATOM     62  C   UNL A   1      39.351  28.569  30.727  1.00  0.00     0.173 A 
ATOM     63  F   UNL A   1      39.223  29.612  27.244  1.00  0.00    -0.203 F 
ATOM     64  C   UNL A   1      37.530  29.554  28.877  1.00  0.00     0.198 A 
ATOM     65  C   UNL A   1      38.022  28.769  31.091  1.00  0.00     0.198 A 
ATOM     66  F   UNL A   1      40.208  28.097  31.645  1.00  0.00    -0.203 F 
ATOM     67  F   UNL A   1      36.659  30.058  27.991  1.00  0.00    -0.200 F 
ATOM     68  C   UNL A   1      37.115  29.267  30.169  1.00  0.00     0.200 A 
ATOM     69  F   UNL A   1      37.619  28.478  32.336  1.00  0.00    -0.200 F 
ATOM     70  F   UNL A   1      35.840  29.476  30.527  1.00  0.00    -0.200 F 
ENDBRANCH  46  60
BRANCH  47  71
ATOM     71  C   UNL A   1      49.064  26.742  26.362  1.00  0.00     0.064 A 
ATOM     72  C   UNL A   1      49.418  26.972  25.026  1.00  0.00     0.173 A 
ATOM     73  C   UNL A   1      50.048  26.224  27.219  1.00  0.00     0.173 A 
ATOM     74  F   UNL A   1      48.506  27.445  24.165  1.00  0.00    -0.203 F 
ATOM     75  C   UNL A   1      50.698  26.679  24.559  1.00  0.00     0.198 A 
ATOM     76  C   UNL A   1      51.335  25.955  26.757  1.00  0.00     0.198 A 
ATOM     77  F   UNL A   1      49.760  25.986  28.507  1.00  0.00    -0.203 F 
ATOM     78  F   UNL A   1      50.996  26.866  23.267  1.00  0.00    -0.200 F 
ATOM     79  C   UNL A   1      51.657  26.176  25.427  1.00  0.00     0.200 A 
ATOM     80  F   UNL A   1      52.261  25.478  27.600  1.00  0.00    -0.200 F 
ATOM     81  F   UNL A   1      52.887  25.895  24.977  1.00  0.00    -0.200 F 
ENDBRANCH  47  71
BRANCH  59  82
ATOM     82  C   UNL A   1      45.998  32.462  28.891  1.00  0.00     0.064 A 
ATOM     83  C   UNL A   1      45.893  33.474  27.925  1.00  0.00     0.173 A 
ATOM     84  C   UNL A   1      46.553  32.796  30.136  1.00  0.00     0.173 A 
ATOM     85  F   UNL A   1      45.386  33.201  26.714  1.00  0.00    -0.203 F 
ATOM     86  C   UNL A   1      46.343  34.764  28.191  1.00  0.00     0.198 A 
ATOM     87  C   UNL A   1      46.976  34.093  30.408  1.00  0.00     0.198 A 
ATOM     88  F   UNL A   1      46.671  31.864  31.095  1.00  0.00    -0.203 F 
ATOM     89  F   UNL A   1      46.273  35.705  27.238  1.00  0.00    -0.200 F 
ATOM     90  C   UNL A   1      46.877  35.075  29.433  1.00  0.00     0.200 A 
ATOM     91  F   UNL A   1      47.479  34.394  31.612  1.00  0.00    -0.200 F 
ATOM     92  F   UNL A   1      47.301  36.320  29.689  1.00  0.00    -0.200 F 
ENDBRANCH  59  82
ENDBRANCH  33  34
ENDBRANCH  25  28
ENDBRANCH  23  24
ENDBRANCH  22  23
ENDBRANCH  21  22
ENDBRANCH   3  21
TORSDOF 16
ENDMDL
MODEL 3
REMARK VINA RESULT:     -10.9      5.545     10.197
REMARK SMILES N#CCCNC(=O)COc1ccc(C(=O)NCCCNC(=O)c2ccc(-c3c4nc(c(-c5c(F)c(F)c(F)c(F)c5F)c5ccc([nH]5)c(-c5c(F)c(F)c(F)c(F)c5F)c5nc(c(-c6c(F)c(F)c(F)c(F)c6F)c6ccc3[nH]6)C=C5)C=C4)cc2)nc1
REMARK SMILES IDX 14 1 15 2 16 3 13 5 10 6 11 7 87 8 12 9 86 10 9 11 8 12 6 13
REMARK SMILES IDX 5 14 7 16 4 17 3 18 2 19 1 20 17 21 18 22 19 23 20 24 21 25
REMARK SMILES IDX 22 27 23 28 24 29 85 30 25 31 84 32 26 33 27 34 28 35 78 36
REMARK SMILES IDX 29 37 83 38 77 39 79 40 30 41 82 42 76 43 75 44 31 46 63 47
REMARK SMILES IDX 43 48 62 49 44 50 47 51 61 52 80 53 45 54 46 55 60 57 81 58
REMARK SMILES IDX 48 59 32 60 33 61 41 62 34 63 35 64 39 65 42 66 36 67 37 68
REMARK SMILES IDX 40 69 38 70 64 71 65 72 73 73 66 74 67 75 71 76 74 77 68 78
REMARK SMILES IDX 69 79 72 80 70 81 49 82 50 83 58 84 51 85 52 86 56 87 59 88
REMARK SMILES IDX 53 89 54 90 57 91 55 92
REMARK H PARENT 16 4 5 15 20 26 79 45 47 56
REMARK Flexibility Score: inf
ROOT
ATOM      1  C   UNL A   1      43.951  19.309  25.374  1.00  0.00     0.269 C 
ATOM      2  O   UNL A   1      44.818  18.446  25.225  1.00  0.00    -0.268 OA
ATOM      3  N   UNL A   1      42.682  18.868  25.689  1.00  0.00    -0.351 N 
ATOM      4  H   UNL A   1      42.591  17.887  25.697  1.00  0.00     0.163 HD
ENDROOT
BRANCH   1   5
ATOM      5  C   UNL A   1      44.296  20.763  25.219  1.00  0.00     0.128 A 
ATOM      6  C   UNL A   1      44.922  23.413  24.797  1.00  0.00     0.138 A 
ATOM      7  C   UNL A   1      44.757  22.945  26.090  1.00  0.00     0.050 A 
ATOM      8  C   UNL A   1      44.728  22.518  23.758  1.00  0.00     0.158 A 
ATOM      9  C   UNL A   1      44.400  21.621  26.302  1.00  0.00     0.038 A 
ATOM     10  N   UNL A   1      44.446  21.204  23.941  1.00  0.00    -0.247 NA
BRANCH   6  11
ATOM     11  O   UNL A   1      45.116  24.736  24.530  1.00  0.00    -0.482 OA
BRANCH  11  12
ATOM     12  C   UNL A   1      44.576  25.593  25.530  1.00  0.00     0.329 C 
BRANCH  12  13
ATOM     13  C   UNL A   1      44.781  27.105  25.376  1.00  0.00     0.257 C 
ATOM     14  N   UNL A   1      46.017  27.656  25.567  1.00  0.00    -0.352 N 
ATOM     15  H   UNL A   1      46.067  28.632  25.439  1.00  0.00     0.163 HD
ATOM     16  O   UNL A   1      43.845  27.853  25.087  1.00  0.00    -0.271 OA
BRANCH  14  17
ATOM     17  C   UNL A   1      47.269  27.009  25.933  1.00  0.00     0.131 C 
BRANCH  17  18
ATOM     18  C   UNL A   1      48.191  26.733  24.741  1.00  0.00     0.141 C 
BRANCH  18  19
ATOM     19  C   UNL A   1      47.755  27.538  23.528  1.00  0.00     0.064 C 
ATOM     20  N   UNL A   1      47.393  28.205  22.521  1.00  0.00    -0.198 NA
ENDBRANCH  18  19
ENDBRANCH  17  18
ENDBRANCH  14  17
ENDBRANCH  12  13
ENDBRANCH  11  12
ENDBRANCH   6  11
ENDBRANCH   1   5
BRANCH   3  21
ATOM     21  C   UNL A   1      41.454  19.578  26.011  1.00  0.00     0.118 C 
BRANCH  21  22
ATOM     22  C   UNL A   1      41.480  20.120  27.442  1.00  0.00     0.042 C 
BRANCH  22  23
ATOM     23  C   UNL A   1      40.831  21.492  27.585  1.00  0.00     0.118 C 
BRANCH  23  24
ATOM     24  N   UNL A   1      39.724  21.668  26.656  1.00  0.00    -0.352 N 
ATOM     25  C   UNL A   1      38.944  22.768  26.404  1.00  0.00     0.251 C 
ATOM     26  H   UNL A   1      39.500  20.870  26.124  1.00  0.00     0.163 HD
ATOM     27  O   UNL A   1      37.915  22.640  25.748  1.00  0.00    -0.269 OA
BRANCH  25  28
ATOM     28  C   UNL A   1      39.320  24.101  26.922  1.00  0.00     0.039 A 
ATOM     29  C   UNL A   1      38.936  24.450  28.220  1.00  0.00     0.014 A 
ATOM     30  C   UNL A   1      40.001  25.026  26.124  1.00  0.00     0.014 A 
ATOM     31  C   UNL A   1      39.286  25.698  28.740  1.00  0.00     0.010 A 
ATOM     32  C   UNL A   1      40.409  26.244  26.665  1.00  0.00     0.010 A 
ATOM     33  C   UNL A   1      40.057  26.591  27.978  1.00  0.00    -0.014 A 
BRANCH  33  34
ATOM     34  C   UNL A   1      40.527  27.881  28.544  1.00  0.00     0.031 A 
ATOM     35  C   UNL A   1      41.966  28.061  28.937  1.00  0.00     0.074 A 
ATOM     36  C   UNL A   1      39.634  28.863  28.775  1.00  0.00     0.049 A 
ATOM     37  N   UNL A   1      42.541  29.075  29.532  1.00  0.00    -0.248 NA
ATOM     38  C   UNL A   1      42.875  26.942  28.646  1.00  0.00     0.031 C 
ATOM     39  C   UNL A   1      38.204  28.792  28.474  1.00  0.00     0.029 A 
ATOM     40  N   UNL A   1      39.794  30.108  29.332  1.00  0.00    -0.354 N 
ATOM     41  C   UNL A   1      43.870  28.710  29.704  1.00  0.00     0.074 A 
ATOM     42  C   UNL A   1      44.008  27.365  29.188  1.00  0.00     0.031 C 
ATOM     43  C   UNL A   1      37.620  29.944  28.835  1.00  0.00     0.029 A 
ATOM     44  C   UNL A   1      38.624  30.820  29.429  1.00  0.00     0.049 A 
ATOM     45  H   UNL A   1      40.664  30.456  29.632  1.00  0.00     0.167 HD
ATOM     46  C   UNL A   1      44.883  29.439  30.229  1.00  0.00     0.037 A 
ATOM     47  C   UNL A   1      38.385  32.037  29.954  1.00  0.00     0.037 A 
ATOM     48  C   UNL A   1      44.745  30.788  30.715  1.00  0.00     0.049 A 
ATOM     49  C   UNL A   1      39.528  32.818  30.544  1.00  0.00     0.074 A 
ATOM     50  C   UNL A   1      45.727  31.639  31.189  1.00  0.00     0.029 A 
ATOM     51  N   UNL A   1      43.545  31.479  30.793  1.00  0.00    -0.354 N 
ATOM     52  N   UNL A   1      40.794  32.492  30.634  1.00  0.00    -0.248 NA
ATOM     53  C   UNL A   1      39.206  34.136  31.110  1.00  0.00     0.031 C 
ATOM     54  C   UNL A   1      45.114  32.827  31.602  1.00  0.00     0.029 A 
ATOM     55  C   UNL A   1      43.757  32.735  31.339  1.00  0.00     0.049 A 
ATOM     56  H   UNL A   1      42.671  31.130  30.503  1.00  0.00     0.167 HD
ATOM     57  C   UNL A   1      41.423  33.568  31.244  1.00  0.00     0.074 A 
ATOM     58  C   UNL A   1      40.401  34.566  31.486  1.00  0.00     0.031 C 
ATOM     59  C   UNL A   1      42.729  33.716  31.575  1.00  0.00     0.037 A 
BRANCH  46  60
ATOM     60  C   UNL A   1      46.238  28.796  30.311  1.00  0.00     0.064 A 
ATOM     61  C   UNL A   1      46.626  28.033  31.423  1.00  0.00     0.173 A 
ATOM     62  C   UNL A   1      47.141  28.902  29.241  1.00  0.00     0.173 A 
ATOM     63  F   UNL A   1      45.804  27.907  32.475  1.00  0.00    -0.203 F 
ATOM     64  C   UNL A   1      47.877  27.423  31.473  1.00  0.00     0.198 A 
ATOM     65  C   UNL A   1      48.379  28.267  29.282  1.00  0.00     0.198 A 
ATOM     66  F   UNL A   1      46.817  29.613  28.151  1.00  0.00    -0.203 F 
ATOM     67  F   UNL A   1      48.243  26.736  32.564  1.00  0.00    -0.200 F 
ATOM     68  C   UNL A   1      48.749  27.534  30.400  1.00  0.00     0.200 A 
ATOM     69  F   UNL A   1      49.215  28.363  28.239  1.00  0.00    -0.200 F 
ATOM     70  F   UNL A   1      49.949  26.939  30.445  1.00  0.00    -0.200 F 
ENDBRANCH  46  60
BRANCH  47  71
ATOM     71  C   UNL A   1      37.010  32.597  29.933  1.00  0.00     0.064 A 
ATOM     72  C   UNL A   1      36.539  33.303  28.818  1.00  0.00     0.173 A 
ATOM     73  C   UNL A   1      36.140  32.443  31.023  1.00  0.00     0.173 A 
ATOM     74  F   UNL A   1      37.343  33.496  27.761  1.00  0.00    -0.203 F 
ATOM     75  C   UNL A   1      35.258  33.849  28.798  1.00  0.00     0.198 A 
ATOM     76  C   UNL A   1      34.849  32.967  30.993  1.00  0.00     0.198 A 
ATOM     77  F   UNL A   1      36.541  31.775  32.114  1.00  0.00    -0.203 F 
ATOM     78  F   UNL A   1      34.850  34.558  27.738  1.00  0.00    -0.200 F 
ATOM     79  C   UNL A   1      34.412  33.676  29.884  1.00  0.00     0.200 A 
ATOM     80  F   UNL A   1      34.031  32.789  32.039  1.00  0.00    -0.200 F 
ATOM     81  F   UNL A   1      33.179  34.200  29.864  1.00  0.00    -0.200 F 
ENDBRANCH  47  71
BRANCH  59  82
ATOM     82  C   UNL A   1      43.131  35.010  32.220  1.00  0.00     0.064 A 
ATOM     83  C   UNL A   1      43.462  36.137  31.454  1.00  0.00     0.173 A 
ATOM     84  C   UNL A   1      43.143  35.136  33.617  1.00  0.00     0.173 A 
ATOM     85  F   UNL A   1      43.482  36.061  30.115  1.00  0.00    -0.203 F 
ATOM     86  C   UNL A   1      43.810  37.338  32.065  1.00  0.00     0.198 A 
ATOM     87  C   UNL A   1      43.463  36.347  34.224  1.00  0.00     0.198 A 
ATOM     88  F   UNL A   1      42.829  34.088  34.394  1.00  0.00    -0.203 F 
ATOM     89  F   UNL A   1      44.166  38.391  31.314  1.00  0.00    -0.200 F 
ATOM     90  C   UNL A   1      43.803  37.446  33.448  1.00  0.00     0.200 A 
ATOM     91  F   UNL A   1      43.443  36.452  35.559  1.00  0.00    -0.200 F 
ATOM     92  F   UNL A   1      44.130  38.605  34.033  1.00  0.00    -0.200 F 
ENDBRANCH  59  82
ENDBRANCH  33  34
ENDBRANCH  25  28
ENDBRANCH  23  24
ENDBRANCH  22  23
ENDBRANCH  21  22
ENDBRANCH   3  21
TORSDOF 16
ENDMDL
