MODEL 1
REMARK VINA RESULT:     -12.3      0.000      0.000
REMARK SMILES Cc1cc2c(c(C)c1Br)C=C(C(=O)NCCCNC(=O)c1ccc(-c3c4nc(c(-c5c(F)c(F)c(F)c(F)c5F)c5ccc([nH]5)c(-c5c(F)c(F)c(F)c(F)c5F)c5nc(c(-c6c(F)c(F)c(F)c(F)c6F)c6ccc3[nH]6)C=C5)C=C4)cc1)[C@@H](C(F)(F)F)O2
REMARK SMILES IDX 16 1 15 2 14 3 12 4 13 5 11 7 1 8 2 9 3 10 8 11 4 12 6 13
REMARK SMILES IDX 9 14 5 15 89 16 7 17 10 18 84 19 85 20 86 21 87 22 88 23
REMARK SMILES IDX 17 24 18 25 19 26 20 28 21 29 22 30 83 31 23 32 82 33 24 34
REMARK SMILES IDX 25 35 26 36 76 37 27 38 81 39 75 40 77 41 28 42 80 43 74 44
REMARK SMILES IDX 73 45 29 47 61 48 41 49 60 50 42 51 45 52 59 53 78 54 43 55
REMARK SMILES IDX 44 56 58 58 79 59 46 60 30 61 31 62 39 63 32 64 33 65 37 66
REMARK SMILES IDX 40 67 34 68 35 69 38 70 36 71 62 72 63 73 71 74 64 75 65 76
REMARK SMILES IDX 69 77 72 78 66 79 67 80 70 81 68 82 47 83 48 84 56 85 49 86
REMARK SMILES IDX 50 87 54 88 57 89 51 90 52 91 55 92 53 93
REMARK H PARENT 14 6 18 27 77 46 45 57
REMARK Flexibility Score: inf
ROOT
ATOM      1  C   UNL A   1      34.016  27.752  24.931  1.00  0.00     0.042 C 
ENDROOT
BRANCH   1   2
ATOM      2  C   UNL A   1      32.753  27.101  24.391  1.00  0.00     0.118 C 
BRANCH   2   3
ATOM      3  N   UNL A   1      31.959  26.502  25.452  1.00  0.00    -0.352 N 
ATOM      4  C   UNL A   1      31.840  25.290  26.041  1.00  0.00     0.251 C 
ATOM      5  O   UNL A   1      30.994  25.224  26.939  1.00  0.00    -0.270 OA
ATOM      6  H   UNL A   1      31.339  27.156  25.851  1.00  0.00     0.163 HD
BRANCH   4   7
ATOM      7  C   UNL A   1      32.637  24.082  25.682  1.00  0.00     0.067 C 
ATOM      8  C   UNL A   1      36.966  19.328  24.765  1.00  0.00     0.046 C 
ATOM      9  C   UNL A   1      36.288  20.631  25.095  1.00  0.00    -0.033 A 
ATOM     10  C   UNL A   1      34.897  20.651  24.958  1.00  0.00     0.051 A 
ATOM     11  C   UNL A   1      36.939  21.788  25.575  1.00  0.00     0.024 A 
ATOM     12  C   UNL A   1      34.168  21.795  25.253  1.00  0.00     0.128 A 
ATOM     13  C   UNL A   1      36.205  22.969  25.874  1.00  0.00    -0.026 A 
ATOM     14  Br  UNL A   1      38.831  21.731  25.849  1.00  0.00    -0.050 Br
ATOM     15  C   UNL A   1      34.797  22.957  25.711  1.00  0.00     0.021 A 
ATOM     16  O   UNL A   1      32.817  21.675  25.109  1.00  0.00    -0.475 OA
ATOM     17  C   UNL A   1      36.868  24.236  26.367  1.00  0.00     0.046 C 
ATOM     18  C   UNL A   1      33.934  24.097  26.045  1.00  0.00     0.026 C 
ATOM     19  C   UNL A   1      32.080  22.907  24.941  1.00  0.00     0.314 C 
BRANCH  19  20
ATOM     20  C   UNL A   1      31.879  23.185  23.438  1.00  0.00     0.429 C 
ATOM     21  F   UNL A   1      30.652  23.723  23.220  1.00  0.00    -0.167 F 
ATOM     22  F   UNL A   1      32.776  24.074  22.948  1.00  0.00    -0.167 F 
ATOM     23  F   UNL A   1      31.977  22.072  22.680  1.00  0.00    -0.167 F 
ENDBRANCH  19  20
ENDBRANCH   4   7
ENDBRANCH   2   3
ENDBRANCH   1   2
BRANCH   1  24
ATOM     24  C   UNL A   1      33.923  28.022  26.426  1.00  0.00     0.118 C 
BRANCH  24  25
ATOM     25  N   UNL A   1      33.651  29.431  26.704  1.00  0.00    -0.352 N 
ATOM     26  C   UNL A   1      34.301  30.311  27.529  1.00  0.00     0.251 C 
ATOM     27  H   UNL A   1      32.878  29.807  26.223  1.00  0.00     0.163 HD
ATOM     28  O   UNL A   1      33.756  31.365  27.855  1.00  0.00    -0.269 OA
BRANCH  26  29
ATOM     29  C   UNL A   1      35.651  29.994  28.026  1.00  0.00     0.039 A 
ATOM     30  C   UNL A   1      35.814  29.545  29.339  1.00  0.00     0.014 A 
ATOM     31  C   UNL A   1      36.761  30.167  27.197  1.00  0.00     0.014 A 
ATOM     32  C   UNL A   1      37.088  29.209  29.796  1.00  0.00     0.010 A 
ATOM     33  C   UNL A   1      38.009  29.731  27.616  1.00  0.00     0.010 A 
ATOM     34  C   UNL A   1      38.189  29.268  28.926  1.00  0.00    -0.014 A 
BRANCH  34  35
ATOM     35  C   UNL A   1      39.549  28.887  29.372  1.00  0.00     0.031 A 
ATOM     36  C   UNL A   1      40.299  29.784  30.315  1.00  0.00     0.074 A 
ATOM     37  C   UNL A   1      40.123  27.773  28.881  1.00  0.00     0.049 A 
ATOM     38  N   UNL A   1      41.521  29.669  30.770  1.00  0.00    -0.248 NA
ATOM     39  C   UNL A   1      39.596  30.990  30.788  1.00  0.00     0.031 C 
ATOM     40  C   UNL A   1      39.504  26.855  27.924  1.00  0.00     0.029 A 
ATOM     41  N   UNL A   1      41.358  27.226  29.116  1.00  0.00    -0.354 N 
ATOM     42  C   UNL A   1      41.730  30.785  31.568  1.00  0.00     0.074 A 
ATOM     43  C   UNL A   1      40.542  31.603  31.482  1.00  0.00     0.031 C 
ATOM     44  C   UNL A   1      40.346  25.839  27.684  1.00  0.00     0.029 A 
ATOM     45  C   UNL A   1      41.580  26.055  28.433  1.00  0.00     0.049 A 
ATOM     46  H   UNL A   1      42.023  27.633  29.717  1.00  0.00     0.167 HD
ATOM     47  C   UNL A   1      42.805  31.081  32.334  1.00  0.00     0.037 A 
ATOM     48  C   UNL A   1      42.659  25.250  28.415  1.00  0.00     0.037 A 
ATOM     49  C   UNL A   1      43.970  30.244  32.437  1.00  0.00     0.049 A 
ATOM     50  C   UNL A   1      43.850  25.612  29.261  1.00  0.00     0.074 A 
ATOM     51  C   UNL A   1      45.092  30.424  33.225  1.00  0.00     0.029 A 
ATOM     52  N   UNL A   1      44.159  29.066  31.728  1.00  0.00    -0.354 N 
ATOM     53  N   UNL A   1      44.015  26.637  30.061  1.00  0.00    -0.248 NA
ATOM     54  C   UNL A   1      45.004  24.704  29.204  1.00  0.00     0.031 C 
ATOM     55  C   UNL A   1      45.983  29.382  32.955  1.00  0.00     0.029 A 
ATOM     56  C   UNL A   1      45.393  28.521  32.043  1.00  0.00     0.049 A 
ATOM     57  H   UNL A   1      43.512  28.675  31.098  1.00  0.00     0.167 HD
ATOM     58  C   UNL A   1      45.276  26.489  30.618  1.00  0.00     0.074 A 
ATOM     59  C   UNL A   1      45.829  25.263  30.079  1.00  0.00     0.031 C 
ATOM     60  C   UNL A   1      45.922  27.298  31.496  1.00  0.00     0.037 A 
BRANCH  47  61
ATOM     61  C   UNL A   1      42.767  32.349  33.135  1.00  0.00     0.064 A 
ATOM     62  C   UNL A   1      43.204  33.571  32.598  1.00  0.00     0.173 A 
ATOM     63  C   UNL A   1      42.237  32.358  34.435  1.00  0.00     0.173 A 
ATOM     64  F   UNL A   1      43.733  33.615  31.365  1.00  0.00    -0.203 F 
ATOM     65  C   UNL A   1      43.130  34.747  33.338  1.00  0.00     0.198 A 
ATOM     66  C   UNL A   1      42.135  33.542  35.159  1.00  0.00     0.198 A 
ATOM     67  F   UNL A   1      41.804  31.219  34.996  1.00  0.00    -0.203 F 
ATOM     68  F   UNL A   1      43.594  35.892  32.819  1.00  0.00    -0.200 F 
ATOM     69  C   UNL A   1      42.587  34.734  34.613  1.00  0.00     0.200 A 
ATOM     70  F   UNL A   1      41.598  33.530  36.387  1.00  0.00    -0.200 F 
ATOM     71  F   UNL A   1      42.501  35.871  35.318  1.00  0.00    -0.200 F 
ENDBRANCH  47  61
BRANCH  48  72
ATOM     72  C   UNL A   1      42.637  24.007  27.602  1.00  0.00     0.064 A 
ATOM     73  C   UNL A   1      42.968  24.035  26.240  1.00  0.00     0.173 A 
ATOM     74  C   UNL A   1      42.320  22.764  28.170  1.00  0.00     0.173 A 
ATOM     75  F   UNL A   1      43.262  25.201  25.647  1.00  0.00    -0.203 F 
ATOM     76  C   UNL A   1      42.974  22.870  25.476  1.00  0.00     0.198 A 
ATOM     77  C   UNL A   1      42.354  21.596  27.412  1.00  0.00     0.198 A 
ATOM     78  F   UNL A   1      42.003  22.681  29.470  1.00  0.00    -0.203 F 
ATOM     79  F   UNL A   1      43.264  22.930  24.169  1.00  0.00    -0.200 F 
ATOM     80  C   UNL A   1      42.677  21.650  26.063  1.00  0.00     0.200 A 
ATOM     81  F   UNL A   1      42.084  20.416  27.987  1.00  0.00    -0.200 F 
ATOM     82  F   UNL A   1      42.698  20.527  25.332  1.00  0.00    -0.200 F 
ENDBRANCH  48  72
BRANCH  60  83
ATOM     83  C   UNL A   1      47.293  26.884  31.942  1.00  0.00     0.064 A 
ATOM     84  C   UNL A   1      47.477  25.987  33.005  1.00  0.00     0.173 A 
ATOM     85  C   UNL A   1      48.430  27.320  31.245  1.00  0.00     0.173 A 
ATOM     86  F   UNL A   1      46.422  25.551  33.711  1.00  0.00    -0.203 F 
ATOM     87  C   UNL A   1      48.750  25.551  33.360  1.00  0.00     0.198 A 
ATOM     88  C   UNL A   1      49.698  26.857  31.581  1.00  0.00     0.198 A 
ATOM     89  F   UNL A   1      48.306  28.170  30.214  1.00  0.00    -0.203 F 
ATOM     90  F   UNL A   1      48.906  24.720  34.400  1.00  0.00    -0.200 F 
ATOM     91  C   UNL A   1      49.858  25.976  32.640  1.00  0.00     0.200 A 
ATOM     92  F   UNL A   1      50.765  27.252  30.872  1.00  0.00    -0.200 F 
ATOM     93  F   UNL A   1      51.081  25.537  32.969  1.00  0.00    -0.200 F 
ENDBRANCH  60  83
ENDBRANCH  34  35
ENDBRANCH  26  29
ENDBRANCH  24  25
ENDBRANCH   1  24
TORSDOF 11
ENDMDL
MODEL 2
REMARK VINA RESULT:     -12.2      4.238      7.688
REMARK SMILES Cc1cc2c(c(C)c1Br)C=C(C(=O)NCCCNC(=O)c1ccc(-c3c4nc(c(-c5c(F)c(F)c(F)c(F)c5F)c5ccc([nH]5)c(-c5c(F)c(F)c(F)c(F)c5F)c5nc(c(-c6c(F)c(F)c(F)c(F)c6F)c6ccc3[nH]6)C=C5)C=C4)cc1)[C@@H](C(F)(F)F)O2
REMARK SMILES IDX 16 1 15 2 14 3 12 4 13 5 11 7 1 8 2 9 3 10 8 11 4 12 6 13
REMARK SMILES IDX 9 14 5 15 89 16 7 17 10 18 84 19 85 20 86 21 87 22 88 23
REMARK SMILES IDX 17 24 18 25 19 26 20 28 21 29 22 30 83 31 23 32 82 33 24 34
REMARK SMILES IDX 25 35 26 36 76 37 27 38 81 39 75 40 77 41 28 42 80 43 74 44
REMARK SMILES IDX 73 45 29 47 61 48 41 49 60 50 42 51 45 52 59 53 78 54 43 55
REMARK SMILES IDX 44 56 58 58 79 59 46 60 30 61 31 62 39 63 32 64 33 65 37 66
REMARK SMILES IDX 40 67 34 68 35 69 38 70 36 71 62 72 63 73 71 74 64 75 65 76
REMARK SMILES IDX 69 77 72 78 66 79 67 80 70 81 68 82 47 83 48 84 56 85 49 86
REMARK SMILES IDX 50 87 54 88 57 89 51 90 52 91 55 92 53 93
REMARK H PARENT 14 6 18 27 77 46 45 57
REMARK Flexibility Score: inf
ROOT
ATOM      1  C   UNL A   1      37.892  19.590  24.888  1.00  0.00     0.042 C 
ENDROOT
BRANCH   1   2
ATOM      2  C   UNL A   1      36.604  20.384  25.025  1.00  0.00     0.118 C 
BRANCH   2   3
ATOM      3  N   UNL A   1      35.432  19.525  24.965  1.00  0.00    -0.352 N 
ATOM      4  C   UNL A   1      34.088  19.673  25.007  1.00  0.00     0.251 C 
ATOM      5  O   UNL A   1      33.443  18.623  24.928  1.00  0.00    -0.270 OA
ATOM      6  H   UNL A   1      35.685  18.578  24.868  1.00  0.00     0.163 HD
BRANCH   4   7
ATOM      7  C   UNL A   1      33.374  20.976  25.140  1.00  0.00     0.067 C 
ATOM      8  C   UNL A   1      30.321  26.675  24.530  1.00  0.00     0.046 C 
ATOM      9  C   UNL A   1      31.133  25.430  24.294  1.00  0.00    -0.033 A 
ATOM     10  C   UNL A   1      31.168  24.510  25.346  1.00  0.00     0.051 A 
ATOM     11  C   UNL A   1      31.800  25.111  23.091  1.00  0.00     0.024 A 
ATOM     12  C   UNL A   1      31.873  23.319  25.228  1.00  0.00     0.128 A 
ATOM     13  C   UNL A   1      32.531  23.898  22.960  1.00  0.00    -0.026 A 
ATOM     14  Br  UNL A   1      31.676  26.328  21.620  1.00  0.00    -0.050 Br
ATOM     15  C   UNL A   1      32.555  22.995  24.052  1.00  0.00     0.021 A 
ATOM     16  O   UNL A   1      31.801  22.495  26.312  1.00  0.00    -0.475 OA
ATOM     17  C   UNL A   1      33.278  23.531  21.697  1.00  0.00     0.046 C 
ATOM     18  C   UNL A   1      33.227  21.690  24.008  1.00  0.00     0.026 C 
ATOM     19  C   UNL A   1      32.854  21.511  26.437  1.00  0.00     0.314 C 
BRANCH  19  20
ATOM     20  C   UNL A   1      33.967  22.062  27.349  1.00  0.00     0.429 C 
ATOM     21  F   UNL A   1      33.428  22.776  28.370  1.00  0.00    -0.167 F 
ATOM     22  F   UNL A   1      34.706  21.081  27.920  1.00  0.00    -0.167 F 
ATOM     23  F   UNL A   1      34.829  22.872  26.696  1.00  0.00    -0.167 F 
ENDBRANCH  19  20
ENDBRANCH   4   7
ENDBRANCH   2   3
ENDBRANCH   1   2
BRANCH   1  24
ATOM     24  C   UNL A   1      39.008  20.161  25.751  1.00  0.00     0.118 C 
BRANCH  24  25
ATOM     25  N   UNL A   1      40.056  19.174  26.003  1.00  0.00    -0.352 N 
ATOM     26  C   UNL A   1      41.410  19.336  26.138  1.00  0.00     0.251 C 
ATOM     27  H   UNL A   1      39.739  18.245  26.089  1.00  0.00     0.163 HD
ATOM     28  O   UNL A   1      42.157  18.362  26.056  1.00  0.00    -0.269 OA
BRANCH  26  29
ATOM     29  C   UNL A   1      41.970  20.677  26.380  1.00  0.00     0.039 A 
ATOM     30  C   UNL A   1      42.246  21.514  25.297  1.00  0.00     0.014 A 
ATOM     31  C   UNL A   1      42.247  21.096  27.684  1.00  0.00     0.014 A 
ATOM     32  C   UNL A   1      42.741  22.797  25.530  1.00  0.00     0.010 A 
ATOM     33  C   UNL A   1      42.635  22.405  27.919  1.00  0.00     0.010 A 
ATOM     34  C   UNL A   1      42.906  23.263  26.845  1.00  0.00    -0.014 A 
BRANCH  34  35
ATOM     35  C   UNL A   1      43.398  24.631  27.125  1.00  0.00     0.031 A 
ATOM     36  C   UNL A   1      42.458  25.656  27.691  1.00  0.00     0.074 A 
ATOM     37  C   UNL A   1      44.665  24.960  26.812  1.00  0.00     0.049 A 
ATOM     38  N   UNL A   1      42.669  26.923  27.942  1.00  0.00    -0.248 NA
ATOM     39  C   UNL A   1      41.086  25.209  27.988  1.00  0.00     0.031 C 
ATOM     40  C   UNL A   1      45.650  24.057  26.214  1.00  0.00     0.029 A 
ATOM     41  N   UNL A   1      45.341  26.145  26.950  1.00  0.00    -0.354 N 
ATOM     42  C   UNL A   1      41.461  27.418  28.414  1.00  0.00     0.074 A 
ATOM     43  C   UNL A   1      40.500  26.341  28.348  1.00  0.00     0.031 C 
ATOM     44  C   UNL A   1      46.814  24.709  26.073  1.00  0.00     0.029 A 
ATOM     45  C   UNL A   1      46.646  26.086  26.527  1.00  0.00     0.049 A 
ATOM     46  H   UNL A   1      44.930  26.962  27.317  1.00  0.00     0.167 HD
ATOM     47  C   UNL A   1      41.189  28.654  28.892  1.00  0.00     0.037 A 
ATOM     48  C   UNL A   1      47.599  27.038  26.509  1.00  0.00     0.037 A 
ATOM     49  C   UNL A   1      42.160  29.711  28.982  1.00  0.00     0.049 A 
ATOM     50  C   UNL A   1      47.265  28.410  27.029  1.00  0.00     0.074 A 
ATOM     51  C   UNL A   1      42.003  30.982  29.501  1.00  0.00     0.029 A 
ATOM     52  N   UNL A   1      43.473  29.614  28.542  1.00  0.00    -0.354 N 
ATOM     53  N   UNL A   1      46.137  28.852  27.531  1.00  0.00    -0.248 NA
ATOM     54  C   UNL A   1      48.335  29.415  26.984  1.00  0.00     0.031 C 
ATOM     55  C   UNL A   1      43.205  31.673  29.329  1.00  0.00     0.029 A 
ATOM     56  C   UNL A   1      44.130  30.814  28.755  1.00  0.00     0.049 A 
ATOM     57  H   UNL A   1      43.877  28.811  28.141  1.00  0.00     0.167 HD
ATOM     58  C   UNL A   1      46.365  30.175  27.880  1.00  0.00     0.074 A 
ATOM     59  C   UNL A   1      47.747  30.460  27.550  1.00  0.00     0.031 C 
ATOM     60  C   UNL A   1      45.507  31.075  28.422  1.00  0.00     0.037 A 
BRANCH  47  61
ATOM     61  C   UNL A   1      39.794  28.927  29.374  1.00  0.00     0.064 A 
ATOM     62  C   UNL A   1      38.799  29.409  28.508  1.00  0.00     0.173 A 
ATOM     63  C   UNL A   1      39.430  28.653  30.701  1.00  0.00     0.173 A 
ATOM     64  F   UNL A   1      39.098  29.702  27.233  1.00  0.00    -0.203 F 
ATOM     65  C   UNL A   1      37.500  29.625  28.958  1.00  0.00     0.198 A 
ATOM     66  C   UNL A   1      38.121  28.839  31.138  1.00  0.00     0.198 A 
ATOM     67  F   UNL A   1      40.340  28.188  31.570  1.00  0.00    -0.203 F 
ATOM     68  F   UNL A   1      36.580  30.127  28.123  1.00  0.00    -0.200 F 
ATOM     69  C   UNL A   1      37.159  29.330  30.268  1.00  0.00     0.200 A 
ATOM     70  F   UNL A   1      37.790  28.540  32.402  1.00  0.00    -0.200 F 
ATOM     71  F   UNL A   1      35.903  29.522  30.695  1.00  0.00    -0.200 F 
ENDBRANCH  47  61
BRANCH  48  72
ATOM     72  C   UNL A   1      48.962  26.707  26.020  1.00  0.00     0.064 A 
ATOM     73  C   UNL A   1      49.339  26.988  24.699  1.00  0.00     0.173 A 
ATOM     74  C   UNL A   1      49.926  26.137  26.865  1.00  0.00     0.173 A 
ATOM     75  F   UNL A   1      48.448  27.517  23.848  1.00  0.00    -0.203 F 
ATOM     76  C   UNL A   1      50.623  26.704  24.240  1.00  0.00     0.198 A 
ATOM     77  C   UNL A   1      51.219  25.880  26.414  1.00  0.00     0.198 A 
ATOM     78  F   UNL A   1      49.620  25.856  28.140  1.00  0.00    -0.203 F 
ATOM     79  F   UNL A   1      50.946  26.954  22.964  1.00  0.00    -0.200 F 
ATOM     80  C   UNL A   1      51.565  26.159  25.099  1.00  0.00     0.200 A 
ATOM     81  F   UNL A   1      52.131  25.370  27.251  1.00  0.00    -0.200 F 
ATOM     82  F   UNL A   1      52.805  25.900  24.662  1.00  0.00    -0.200 F 
ENDBRANCH  48  72
BRANCH  60  83
ATOM     83  C   UNL A   1      46.032  32.451  28.708  1.00  0.00     0.064 A 
ATOM     84  C   UNL A   1      45.919  33.487  27.768  1.00  0.00     0.173 A 
ATOM     85  C   UNL A   1      46.572  32.759  29.965  1.00  0.00     0.173 A 
ATOM     86  F   UNL A   1      45.420  33.239  26.548  1.00  0.00    -0.203 F 
ATOM     87  C   UNL A   1      46.339  34.777  28.074  1.00  0.00     0.198 A 
ATOM     88  C   UNL A   1      46.961  34.058  30.280  1.00  0.00     0.198 A 
ATOM     89  F   UNL A   1      46.692  31.807  30.902  1.00  0.00    -0.203 F 
ATOM     90  F   UNL A   1      46.254  35.744  27.150  1.00  0.00    -0.200 F 
ATOM     91  C   UNL A   1      46.848  35.065  29.333  1.00  0.00     0.200 A 
ATOM     92  F   UNL A   1      47.433  34.338  31.502  1.00  0.00    -0.200 F 
ATOM     93  F   UNL A   1      47.231  36.314  29.633  1.00  0.00    -0.200 F 
ENDBRANCH  60  83
ENDBRANCH  34  35
ENDBRANCH  26  29
ENDBRANCH  24  25
ENDBRANCH   1  24
TORSDOF 11
ENDMDL
MODEL 3
REMARK VINA RESULT:     -12.2      2.386      7.663
REMARK SMILES Cc1cc2c(c(C)c1Br)C=C(C(=O)NCCCNC(=O)c1ccc(-c3c4nc(c(-c5c(F)c(F)c(F)c(F)c5F)c5ccc([nH]5)c(-c5c(F)c(F)c(F)c(F)c5F)c5nc(c(-c6c(F)c(F)c(F)c(F)c6F)c6ccc3[nH]6)C=C5)C=C4)cc1)[C@@H](C(F)(F)F)O2
REMARK SMILES IDX 16 1 15 2 14 3 12 4 13 5 11 7 1 8 2 9 3 10 8 11 4 12 6 13
REMARK SMILES IDX 9 14 5 15 89 16 7 17 10 18 84 19 85 20 86 21 87 22 88 23
REMARK SMILES IDX 17 24 18 25 19 26 20 28 21 29 22 30 83 31 23 32 82 33 24 34
REMARK SMILES IDX 25 35 26 36 76 37 27 38 81 39 75 40 77 41 28 42 80 43 74 44
REMARK SMILES IDX 73 45 29 47 61 48 41 49 60 50 42 51 45 52 59 53 78 54 43 55
REMARK SMILES IDX 44 56 58 58 79 59 46 60 30 61 31 62 39 63 32 64 33 65 37 66
REMARK SMILES IDX 40 67 34 68 35 69 38 70 36 71 62 72 63 73 71 74 64 75 65 76
REMARK SMILES IDX 69 77 72 78 66 79 67 80 70 81 68 82 47 83 48 84 56 85 49 86
REMARK SMILES IDX 50 87 54 88 57 89 51 90 52 91 55 92 53 93
REMARK H PARENT 14 6 18 27 77 46 45 57
REMARK Flexibility Score: inf
ROOT
ATOM      1  C   UNL A   1      33.057  28.947  23.801  1.00  0.00     0.042 C 
ENDROOT
BRANCH   1   2
ATOM      2  C   UNL A   1      32.060  27.801  23.859  1.00  0.00     0.118 C 
BRANCH   2   3
ATOM      3  N   UNL A   1      31.614  27.543  25.219  1.00  0.00    -0.352 N 
ATOM      4  C   UNL A   1      31.471  26.472  26.032  1.00  0.00     0.251 C 
ATOM      5  O   UNL A   1      31.028  26.724  27.158  1.00  0.00    -0.270 OA
ATOM      6  H   UNL A   1      31.340  28.375  25.671  1.00  0.00     0.163 HD
BRANCH   4   7
ATOM      7  C   UNL A   1      31.803  25.066  25.662  1.00  0.00     0.067 C 
ATOM      8  C   UNL A   1      34.305  19.180  24.538  1.00  0.00     0.046 C 
ATOM      9  C   UNL A   1      34.109  20.638  24.857  1.00  0.00    -0.033 A 
ATOM     10  C   UNL A   1      32.785  21.084  24.903  1.00  0.00     0.051 A 
ATOM     11  C   UNL A   1      35.143  21.550  25.160  1.00  0.00     0.024 A 
ATOM     12  C   UNL A   1      32.489  22.406  25.206  1.00  0.00     0.128 A 
ATOM     13  C   UNL A   1      34.854  22.908  25.464  1.00  0.00    -0.026 A 
ATOM     14  Br  UNL A   1      36.948  20.916  25.186  1.00  0.00    -0.050 Br
ATOM     15  C   UNL A   1      33.500  23.328  25.489  1.00  0.00     0.021 A 
ATOM     16  O   UNL A   1      31.159  22.706  25.250  1.00  0.00    -0.475 OA
ATOM     17  C   UNL A   1      35.934  23.921  25.771  1.00  0.00     0.046 C 
ATOM     18  C   UNL A   1      33.082  24.689  25.849  1.00  0.00     0.026 C 
ATOM     19  C   UNL A   1      30.813  24.101  25.089  1.00  0.00     0.314 C 
BRANCH  19  20
ATOM     20  C   UNL A   1      30.485  24.382  23.610  1.00  0.00     0.429 C 
ATOM     21  F   UNL A   1      30.068  23.245  22.997  1.00  0.00    -0.167 F 
ATOM     22  F   UNL A   1      29.485  25.284  23.460  1.00  0.00    -0.167 F 
ATOM     23  F   UNL A   1      31.545  24.853  22.917  1.00  0.00    -0.167 F 
ENDBRANCH  19  20
ENDBRANCH   4   7
ENDBRANCH   2   3
ENDBRANCH   1   2
BRANCH   1  24
ATOM     24  C   UNL A   1      33.627  29.276  25.174  1.00  0.00     0.118 C 
BRANCH  24  25
ATOM     25  N   UNL A   1      33.058  30.509  25.714  1.00  0.00    -0.352 N 
ATOM     26  C   UNL A   1      33.344  31.182  26.873  1.00  0.00     0.251 C 
ATOM     27  H   UNL A   1      32.359  30.922  25.156  1.00  0.00     0.163 HD
ATOM     28  O   UNL A   1      32.565  32.035  27.297  1.00  0.00    -0.269 OA
BRANCH  26  29
ATOM     29  C   UNL A   1      34.583  30.882  27.612  1.00  0.00     0.039 A 
ATOM     30  C   UNL A   1      35.532  31.888  27.800  1.00  0.00     0.014 A 
ATOM     31  C   UNL A   1      34.815  29.593  28.096  1.00  0.00     0.014 A 
ATOM     32  C   UNL A   1      36.687  31.613  28.533  1.00  0.00     0.010 A 
ATOM     33  C   UNL A   1      35.908  29.350  28.913  1.00  0.00     0.010 A 
ATOM     34  C   UNL A   1      36.866  30.351  29.122  1.00  0.00    -0.014 A 
BRANCH  34  35
ATOM     35  C   UNL A   1      38.066  30.039  29.933  1.00  0.00     0.031 A 
ATOM     36  C   UNL A   1      39.115  29.116  29.380  1.00  0.00     0.074 A 
ATOM     37  C   UNL A   1      38.175  30.534  31.179  1.00  0.00     0.049 A 
ATOM     38  N   UNL A   1      40.200  28.661  29.952  1.00  0.00    -0.248 NA
ATOM     39  C   UNL A   1      38.903  28.610  28.013  1.00  0.00     0.031 C 
ATOM     40  C   UNL A   1      37.193  31.401  31.833  1.00  0.00     0.029 A 
ATOM     41  N   UNL A   1      39.160  30.377  32.121  1.00  0.00    -0.354 N 
ATOM     42  C   UNL A   1      40.788  27.816  29.021  1.00  0.00     0.074 A 
ATOM     43  C   UNL A   1      39.909  27.760  27.876  1.00  0.00     0.031 C 
ATOM     44  C   UNL A   1      37.643  31.730  33.053  1.00  0.00     0.029 A 
ATOM     45  C   UNL A   1      38.921  31.063  33.286  1.00  0.00     0.049 A 
ATOM     46  H   UNL A   1      39.961  29.824  31.976  1.00  0.00     0.167 HD
ATOM     47  C   UNL A   1      41.975  27.172  29.102  1.00  0.00     0.037 A 
ATOM     48  C   UNL A   1      39.652  31.143  34.414  1.00  0.00     0.037 A 
ATOM     49  C   UNL A   1      42.858  27.259  30.234  1.00  0.00     0.049 A 
ATOM     50  C   UNL A   1      40.960  30.402  34.486  1.00  0.00     0.074 A 
ATOM     51  C   UNL A   1      44.108  26.690  30.396  1.00  0.00     0.029 A 
ATOM     52  N   UNL A   1      42.581  27.963  31.397  1.00  0.00    -0.354 N 
ATOM     53  N   UNL A   1      41.538  29.655  33.577  1.00  0.00    -0.248 NA
ATOM     54  C   UNL A   1      41.719  30.517  35.738  1.00  0.00     0.031 C 
ATOM     55  C   UNL A   1      44.566  27.008  31.677  1.00  0.00     0.029 A 
ATOM     56  C   UNL A   1      43.628  27.822  32.293  1.00  0.00     0.049 A 
ATOM     57  H   UNL A   1      41.764  28.487  31.560  1.00  0.00     0.167 HD
ATOM     58  C   UNL A   1      42.734  29.228  34.135  1.00  0.00     0.074 A 
ATOM     59  C   UNL A   1      42.809  29.816  35.457  1.00  0.00     0.031 C 
ATOM     60  C   UNL A   1      43.684  28.419  33.603  1.00  0.00     0.037 A 
BRANCH  47  61
ATOM     61  C   UNL A   1      42.399  26.334  27.931  1.00  0.00     0.064 A 
ATOM     62  C   UNL A   1      41.935  25.020  27.763  1.00  0.00     0.173 A 
ATOM     63  C   UNL A   1      43.234  26.866  26.937  1.00  0.00     0.173 A 
ATOM     64  F   UNL A   1      41.146  24.458  28.692  1.00  0.00    -0.203 F 
ATOM     65  C   UNL A   1      42.307  24.264  26.654  1.00  0.00     0.198 A 
ATOM     66  C   UNL A   1      43.577  26.119  25.814  1.00  0.00     0.198 A 
ATOM     67  F   UNL A   1      43.705  28.117  27.047  1.00  0.00    -0.203 F 
ATOM     68  F   UNL A   1      41.885  22.997  26.539  1.00  0.00    -0.200 F 
ATOM     69  C   UNL A   1      43.118  24.817  25.677  1.00  0.00     0.200 A 
ATOM     70  F   UNL A   1      44.351  26.658  24.863  1.00  0.00    -0.200 F 
ATOM     71  F   UNL A   1      43.461  24.094  24.601  1.00  0.00    -0.200 F 
ENDBRANCH  47  61
BRANCH  48  72
ATOM     72  C   UNL A   1      39.180  31.990  35.539  1.00  0.00     0.064 A 
ATOM     73  C   UNL A   1      38.374  31.452  36.553  1.00  0.00     0.173 A 
ATOM     74  C   UNL A   1      39.548  33.339  35.647  1.00  0.00     0.173 A 
ATOM     75  F   UNL A   1      37.981  30.172  36.485  1.00  0.00    -0.203 F 
ATOM     76  C   UNL A   1      37.948  32.233  37.625  1.00  0.00     0.198 A 
ATOM     77  C   UNL A   1      39.145  34.112  36.735  1.00  0.00     0.198 A 
ATOM     78  F   UNL A   1      40.324  33.901  34.709  1.00  0.00    -0.203 F 
ATOM     79  F   UNL A   1      37.153  31.701  38.563  1.00  0.00    -0.200 F 
ATOM     80  C   UNL A   1      38.341  33.559  37.721  1.00  0.00     0.200 A 
ATOM     81  F   UNL A   1      39.542  35.387  36.833  1.00  0.00    -0.200 F 
ATOM     82  F   UNL A   1      37.943  34.305  38.760  1.00  0.00    -0.200 F 
ENDBRANCH  48  72
BRANCH  60  83
ATOM     83  C   UNL A   1      44.896  28.127  34.438  1.00  0.00     0.064 A 
ATOM     84  C   UNL A   1      44.931  27.035  35.318  1.00  0.00     0.173 A 
ATOM     85  C   UNL A   1      46.062  28.893  34.291  1.00  0.00     0.173 A 
ATOM     86  F   UNL A   1      43.838  26.279  35.501  1.00  0.00    -0.203 F 
ATOM     87  C   UNL A   1      46.088  26.728  36.029  1.00  0.00     0.198 A 
ATOM     88  C   UNL A   1      47.226  28.564  34.979  1.00  0.00     0.198 A 
ATOM     89  F   UNL A   1      46.082  29.941  33.455  1.00  0.00    -0.203 F 
ATOM     90  F   UNL A   1      46.090  25.701  36.889  1.00  0.00    -0.200 F 
ATOM     91  C   UNL A   1      47.237  27.485  35.849  1.00  0.00     0.200 A 
ATOM     92  F   UNL A   1      48.341  29.283  34.790  1.00  0.00    -0.200 F 
ATOM     93  F   UNL A   1      48.356  27.174  36.518  1.00  0.00    -0.200 F 
ENDBRANCH  60  83
ENDBRANCH  34  35
ENDBRANCH  26  29
ENDBRANCH  24  25
ENDBRANCH   1  24
TORSDOF 11
ENDMDL
