MODEL 1
REMARK VINA RESULT:     -12.3      0.000      0.000
REMARK SMILES CCC[C@]1(C(=O)NCCCNC(=O)c2ccc(-c3c4nc(c(-c5c(F)c(F)c(F)c(F)c5F)c5ccc([nH]5)c(-c5c(F)c(F)c(F)c(F)c5F)c5nc(c(-c6c(F)c(F)c(F)c(F)c6F)c6ccc3[nH]6)C=C5)C=C4)cc2)CCN(c2cncc(C(=O)OC)n2)C1
REMARK SMILES IDX 8 1 7 2 5 3 6 4 4 6 77 7 90 8 78 9 79 10 3 11 2 12 1 13
REMARK SMILES IDX 80 14 81 15 89 16 82 17 84 18 83 19 85 20 86 21 87 22 88 23
REMARK SMILES IDX 9 24 10 25 11 26 12 27 13 29 14 30 15 31 76 32 16 33 75 34
REMARK SMILES IDX 17 35 18 36 19 37 69 38 20 39 74 40 68 41 70 42 21 43 73 44
REMARK SMILES IDX 67 45 66 46 22 48 54 49 34 50 53 51 35 52 38 53 52 54 71 55
REMARK SMILES IDX 36 56 37 57 51 59 72 60 39 61 23 62 24 63 32 64 25 65 26 66
REMARK SMILES IDX 30 67 33 68 27 69 28 70 31 71 29 72 55 73 56 74 64 75 57 76
REMARK SMILES IDX 58 77 62 78 65 79 59 80 60 81 63 82 61 83 40 84 41 85 49 86
REMARK SMILES IDX 42 87 43 88 47 89 50 90 44 91 45 92 48 93 46 94
REMARK H PARENT 7 5 11 28 70 47 38 58
REMARK Flexibility Score: inf
ROOT
ATOM      1  C   UNL A   1      31.465  30.814  26.949  1.00  0.00     0.117 C 
ENDROOT
BRANCH   1   2
ATOM      2  N   UNL A   1      32.724  30.278  27.428  1.00  0.00    -0.355 N 
ATOM      3  C   UNL A   1      33.502  29.237  27.035  1.00  0.00     0.228 C 
ATOM      4  O   UNL A   1      34.636  29.244  27.525  1.00  0.00    -0.274 OA
ATOM      5  H   UNL A   1      33.090  30.770  28.197  1.00  0.00     0.163 HD
BRANCH   3   6
ATOM      6  C   UNL A   1      33.067  28.149  26.029  1.00  0.00     0.068 C 
ATOM      7  C   UNL A   1      31.771  27.392  26.421  1.00  0.00     0.040 C 
ATOM      8  C   UNL A   1      32.727  28.848  24.673  1.00  0.00     0.135 C 
ATOM      9  C   UNL A   1      30.853  27.453  25.203  1.00  0.00     0.119 C 
ATOM     10  N   UNL A   1      31.297  28.641  24.518  1.00  0.00    -0.354 N 
BRANCH   6  11
ATOM     11  C   UNL A   1      34.212  27.109  25.803  1.00  0.00     0.018 C 
BRANCH  11  12
ATOM     12  C   UNL A   1      33.872  25.608  25.682  1.00  0.00    -0.002 C 
ATOM     13  C   UNL A   1      34.096  24.939  24.335  1.00  0.00     0.004 C 
ENDBRANCH  11  12
ENDBRANCH   6  11
BRANCH  10  14
ATOM     14  C   UNL A   1      30.526  29.290  23.589  1.00  0.00     0.148 A 
ATOM     15  C   UNL A   1      30.704  29.013  22.223  1.00  0.00     0.157 A 
ATOM     16  N   UNL A   1      29.570  30.162  23.976  1.00  0.00    -0.221 NA
ATOM     17  N   UNL A   1      29.970  29.549  21.220  1.00  0.00    -0.258 NA
ATOM     18  C   UNL A   1      28.856  30.754  22.970  1.00  0.00     0.169 A 
ATOM     19  C   UNL A   1      29.040  30.435  21.630  1.00  0.00     0.147 A 
BRANCH  18  20
ATOM     20  C   UNL A   1      27.885  31.839  23.270  1.00  0.00     0.358 C 
ATOM     21  O   UNL A   1      26.916  31.676  23.995  1.00  0.00    -0.244 OA
BRANCH  20  22
ATOM     22  O   UNL A   1      28.179  32.980  22.597  1.00  0.00    -0.464 OA
ATOM     23  C   UNL A   1      29.145  33.796  23.263  1.00  0.00     0.282 C 
ENDBRANCH  20  22
ENDBRANCH  18  20
ENDBRANCH  10  14
ENDBRANCH   3   6
ENDBRANCH   1   2
BRANCH   1  24
ATOM     24  C   UNL A   1      31.479  32.325  26.755  1.00  0.00     0.042 C 
BRANCH  24  25
ATOM     25  C   UNL A   1      32.750  33.006  27.240  1.00  0.00     0.118 C 
BRANCH  25  26
ATOM     26  N   UNL A   1      32.522  34.376  27.673  1.00  0.00    -0.352 N 
ATOM     27  C   UNL A   1      33.088  35.088  28.702  1.00  0.00     0.251 C 
ATOM     28  H   UNL A   1      31.855  34.871  27.145  1.00  0.00     0.163 HD
ATOM     29  O   UNL A   1      32.609  36.169  29.030  1.00  0.00    -0.269 OA
BRANCH  27  30
ATOM     30  C   UNL A   1      34.256  34.550  29.428  1.00  0.00     0.039 A 
ATOM     31  C   UNL A   1      34.054  33.925  30.662  1.00  0.00     0.014 A 
ATOM     32  C   UNL A   1      35.548  34.678  28.913  1.00  0.00     0.014 A 
ATOM     33  C   UNL A   1      35.140  33.368  31.342  1.00  0.00     0.010 A 
ATOM     34  C   UNL A   1      36.614  34.046  29.547  1.00  0.00     0.010 A 
ATOM     35  C   UNL A   1      36.422  33.388  30.771  1.00  0.00    -0.014 A 
BRANCH  35  36
ATOM     36  C   UNL A   1      37.576  32.731  31.436  1.00  0.00     0.031 A 
ATOM     37  C   UNL A   1      38.264  31.565  30.780  1.00  0.00     0.074 A 
ATOM     38  C   UNL A   1      37.957  33.137  32.664  1.00  0.00     0.049 A 
ATOM     39  N   UNL A   1      39.225  30.805  31.239  1.00  0.00    -0.248 NA
ATOM     40  C   UNL A   1      37.787  31.183  29.440  1.00  0.00     0.031 C 
ATOM     41  C   UNL A   1      37.336  34.223  33.425  1.00  0.00     0.029 A 
ATOM     42  N   UNL A   1      38.945  32.673  33.497  1.00  0.00    -0.354 N 
ATOM     43  C   UNL A   1      39.453  29.849  30.258  1.00  0.00     0.074 A 
ATOM     44  C   UNL A   1      38.496  30.091  29.201  1.00  0.00     0.031 C 
ATOM     45  C   UNL A   1      37.968  34.351  34.603  1.00  0.00     0.029 A 
ATOM     46  C   UNL A   1      39.005  33.330  34.701  1.00  0.00     0.049 A 
ATOM     47  H   UNL A   1      39.553  31.937  33.252  1.00  0.00     0.167 HD
ATOM     48  C   UNL A   1      40.388  28.871  30.235  1.00  0.00     0.037 A 
ATOM     49  C   UNL A   1      39.798  33.122  35.771  1.00  0.00     0.037 A 
ATOM     50  C   UNL A   1      41.359  28.655  31.275  1.00  0.00     0.049 A 
ATOM     51  C   UNL A   1      40.829  32.027  35.716  1.00  0.00     0.074 A 
ATOM     52  C   UNL A   1      42.397  27.740  31.310  1.00  0.00     0.029 A 
ATOM     53  N   UNL A   1      41.407  29.359  32.470  1.00  0.00    -0.354 N 
ATOM     54  N   UNL A   1      41.087  31.179  34.749  1.00  0.00    -0.248 NA
ATOM     55  C   UNL A   1      41.685  31.862  36.899  1.00  0.00     0.031 C 
ATOM     56  C   UNL A   1      43.035  27.851  32.549  1.00  0.00     0.029 A 
ATOM     57  C   UNL A   1      42.438  28.877  33.260  1.00  0.00     0.049 A 
ATOM     58  H   UNL A   1      40.799  30.093  32.719  1.00  0.00     0.167 HD
ATOM     59  C   UNL A   1      42.150  30.405  35.193  1.00  0.00     0.074 A 
ATOM     60  C   UNL A   1      42.501  30.893  36.510  1.00  0.00     0.031 C 
ATOM     61  C   UNL A   1      42.780  29.381  34.566  1.00  0.00     0.037 A 
BRANCH  48  62
ATOM     62  C   UNL A   1      40.415  27.952  29.045  1.00  0.00     0.064 A 
ATOM     63  C   UNL A   1      39.649  26.777  29.001  1.00  0.00     0.173 A 
ATOM     64  C   UNL A   1      41.172  28.284  27.912  1.00  0.00     0.173 A 
ATOM     65  F   UNL A   1      38.914  26.409  30.062  1.00  0.00    -0.203 F 
ATOM     66  C   UNL A   1      39.662  25.955  27.877  1.00  0.00     0.198 A 
ATOM     67  C   UNL A   1      41.157  27.477  26.777  1.00  0.00     0.198 A 
ATOM     68  F   UNL A   1      41.918  29.399  27.898  1.00  0.00    -0.203 F 
ATOM     69  F   UNL A   1      38.959  24.814  27.875  1.00  0.00    -0.200 F 
ATOM     70  C   UNL A   1      40.408  26.310  26.763  1.00  0.00     0.200 A 
ATOM     71  F   UNL A   1      41.866  27.830  25.696  1.00  0.00    -0.200 F 
ATOM     72  F   UNL A   1      40.408  25.526  25.677  1.00  0.00    -0.200 F 
ENDBRANCH  48  62
BRANCH  49  73
ATOM     73  C   UNL A   1      39.652  33.971  36.983  1.00  0.00     0.064 A 
ATOM     74  C   UNL A   1      38.842  33.567  38.054  1.00  0.00     0.173 A 
ATOM     75  C   UNL A   1      40.302  35.209  37.090  1.00  0.00     0.173 A 
ATOM     76  F   UNL A   1      38.182  32.401  37.992  1.00  0.00    -0.203 F 
ATOM     77  C   UNL A   1      38.664  34.382  39.171  1.00  0.00     0.198 A 
ATOM     78  C   UNL A   1      40.152  36.007  38.223  1.00  0.00     0.198 A 
ATOM     79  F   UNL A   1      41.094  35.640  36.098  1.00  0.00    -0.203 F 
ATOM     80  F   UNL A   1      37.839  33.996  40.154  1.00  0.00    -0.200 F 
ATOM     81  C   UNL A   1      39.324  35.598  39.257  1.00  0.00     0.200 A 
ATOM     82  F   UNL A   1      40.805  37.174  38.309  1.00  0.00    -0.200 F 
ATOM     83  F   UNL A   1      39.154  36.380  40.331  1.00  0.00    -0.200 F 
ENDBRANCH  49  73
BRANCH  61  84
ATOM     84  C   UNL A   1      43.940  28.743  35.277  1.00  0.00     0.064 A 
ATOM     85  C   UNL A   1      45.256  29.194  35.094  1.00  0.00     0.173 A 
ATOM     86  C   UNL A   1      43.724  27.700  36.190  1.00  0.00     0.173 A 
ATOM     87  F   UNL A   1      45.518  30.178  34.220  1.00  0.00    -0.203 F 
ATOM     88  C   UNL A   1      46.315  28.604  35.778  1.00  0.00     0.198 A 
ATOM     89  C   UNL A   1      44.781  27.137  36.899  1.00  0.00     0.198 A 
ATOM     90  F   UNL A   1      42.484  27.238  36.408  1.00  0.00    -0.203 F 
ATOM     91  F   UNL A   1      47.569  29.017  35.551  1.00  0.00    -0.200 F 
ATOM     92  C   UNL A   1      46.076  27.584  36.688  1.00  0.00     0.200 A 
ATOM     93  F   UNL A   1      44.545  26.163  37.789  1.00  0.00    -0.200 F 
ATOM     94  F   UNL A   1      47.096  27.027  37.354  1.00  0.00    -0.200 F 
ENDBRANCH  61  84
ENDBRANCH  35  36
ENDBRANCH  27  30
ENDBRANCH  25  26
ENDBRANCH  24  25
ENDBRANCH   1  24
TORSDOF 15
ENDMDL
MODEL 2
REMARK VINA RESULT:     -11.9      1.973      3.689
REMARK SMILES CCC[C@]1(C(=O)NCCCNC(=O)c2ccc(-c3c4nc(c(-c5c(F)c(F)c(F)c(F)c5F)c5ccc([nH]5)c(-c5c(F)c(F)c(F)c(F)c5F)c5nc(c(-c6c(F)c(F)c(F)c(F)c6F)c6ccc3[nH]6)C=C5)C=C4)cc2)CCN(c2cncc(C(=O)OC)n2)C1
REMARK SMILES IDX 8 1 7 2 5 3 6 4 4 6 77 7 90 8 78 9 79 10 3 11 2 12 1 13
REMARK SMILES IDX 80 14 81 15 89 16 82 17 84 18 83 19 85 20 86 21 87 22 88 23
REMARK SMILES IDX 9 24 10 25 11 26 12 27 13 29 14 30 15 31 76 32 16 33 75 34
REMARK SMILES IDX 17 35 18 36 19 37 69 38 20 39 74 40 68 41 70 42 21 43 73 44
REMARK SMILES IDX 67 45 66 46 22 48 54 49 34 50 53 51 35 52 38 53 52 54 71 55
REMARK SMILES IDX 36 56 37 57 51 59 72 60 39 61 23 62 24 63 32 64 25 65 26 66
REMARK SMILES IDX 30 67 33 68 27 69 28 70 31 71 29 72 55 73 56 74 64 75 57 76
REMARK SMILES IDX 58 77 62 78 65 79 59 80 60 81 63 82 61 83 40 84 41 85 49 86
REMARK SMILES IDX 42 87 43 88 47 89 50 90 44 91 45 92 48 93 46 94
REMARK H PARENT 7 5 11 28 70 47 38 58
REMARK Flexibility Score: inf
ROOT
ATOM      1  C   UNL A   1      31.505  30.392  26.146  1.00  0.00     0.117 C 
ENDROOT
BRANCH   1   2
ATOM      2  N   UNL A   1      32.511  29.989  25.182  1.00  0.00    -0.355 N 
ATOM      3  C   UNL A   1      32.479  29.202  24.077  1.00  0.00     0.228 C 
ATOM      4  O   UNL A   1      33.481  29.299  23.362  1.00  0.00    -0.274 OA
ATOM      5  H   UNL A   1      33.402  30.365  25.369  1.00  0.00     0.163 HD
BRANCH   3   6
ATOM      6  C   UNL A   1      31.295  28.291  23.684  1.00  0.00     0.068 C 
ATOM      7  C   UNL A   1      31.558  27.389  22.450  1.00  0.00     0.040 C 
ATOM      8  C   UNL A   1      31.039  27.294  24.861  1.00  0.00     0.135 C 
ATOM      9  C   UNL A   1      31.197  25.968  22.871  1.00  0.00     0.119 C 
ATOM     10  N   UNL A   1      31.375  25.995  24.302  1.00  0.00    -0.354 N 
BRANCH   6  11
ATOM     11  C   UNL A   1      30.003  29.134  23.430  1.00  0.00     0.018 C 
BRANCH  11  12
ATOM     12  C   UNL A   1      29.799  29.831  22.067  1.00  0.00    -0.002 C 
ATOM     13  C   UNL A   1      28.388  30.259  21.698  1.00  0.00     0.004 C 
ENDBRANCH  11  12
ENDBRANCH   6  11
BRANCH  10  14
ATOM     14  C   UNL A   1      31.529  24.857  25.049  1.00  0.00     0.148 A 
ATOM     15  C   UNL A   1      31.344  24.910  26.441  1.00  0.00     0.157 A 
ATOM     16  N   UNL A   1      31.815  23.678  24.458  1.00  0.00    -0.221 NA
ATOM     17  N   UNL A   1      31.415  23.847  27.276  1.00  0.00    -0.258 NA
ATOM     18  C   UNL A   1      31.946  22.603  25.294  1.00  0.00     0.169 A 
ATOM     19  C   UNL A   1      31.728  22.687  26.664  1.00  0.00     0.147 A 
BRANCH  18  20
ATOM     20  C   UNL A   1      32.408  21.290  24.772  1.00  0.00     0.358 C 
ATOM     21  O   UNL A   1      31.876  20.234  25.080  1.00  0.00    -0.244 OA
BRANCH  20  22
ATOM     22  O   UNL A   1      33.506  21.416  23.985  1.00  0.00    -0.464 OA
ATOM     23  C   UNL A   1      34.728  21.466  24.725  1.00  0.00     0.282 C 
ENDBRANCH  20  22
ENDBRANCH  18  20
ENDBRANCH  10  14
ENDBRANCH   3   6
ENDBRANCH   1   2
BRANCH   1  24
ATOM     24  C   UNL A   1      31.427  31.899  26.355  1.00  0.00     0.042 C 
BRANCH  24  25
ATOM     25  C   UNL A   1      32.572  32.476  27.174  1.00  0.00     0.118 C 
BRANCH  25  26
ATOM     26  N   UNL A   1      32.381  33.884  27.489  1.00  0.00    -0.352 N 
ATOM     27  C   UNL A   1      32.996  34.674  28.428  1.00  0.00     0.251 C 
ATOM     28  H   UNL A   1      31.701  34.342  26.944  1.00  0.00     0.163 HD
ATOM     29  O   UNL A   1      32.547  35.789  28.675  1.00  0.00    -0.269 OA
BRANCH  27  30
ATOM     30  C   UNL A   1      34.184  34.183  29.157  1.00  0.00     0.039 A 
ATOM     31  C   UNL A   1      33.998  33.426  30.317  1.00  0.00     0.014 A 
ATOM     32  C   UNL A   1      35.476  34.481  28.717  1.00  0.00     0.014 A 
ATOM     33  C   UNL A   1      35.108  32.912  30.994  1.00  0.00     0.010 A 
ATOM     34  C   UNL A   1      36.574  33.896  29.339  1.00  0.00     0.010 A 
ATOM     35  C   UNL A   1      36.402  33.108  30.488  1.00  0.00    -0.014 A 
BRANCH  35  36
ATOM     36  C   UNL A   1      37.589  32.503  31.143  1.00  0.00     0.031 A 
ATOM     37  C   UNL A   1      38.332  31.379  30.473  1.00  0.00     0.074 A 
ATOM     38  C   UNL A   1      37.953  32.915  32.374  1.00  0.00     0.049 A 
ATOM     39  N   UNL A   1      39.331  30.663  30.923  1.00  0.00    -0.248 NA
ATOM     40  C   UNL A   1      37.870  30.987  29.132  1.00  0.00     0.031 C 
ATOM     41  C   UNL A   1      37.282  33.962  33.147  1.00  0.00     0.029 A 
ATOM     42  N   UNL A   1      38.966  32.493  33.199  1.00  0.00    -0.354 N 
ATOM     43  C   UNL A   1      39.602  29.728  29.932  1.00  0.00     0.074 A 
ATOM     44  C   UNL A   1      38.631  29.933  28.880  1.00  0.00     0.031 C 
ATOM     45  C   UNL A   1      37.910  34.110  34.324  1.00  0.00     0.029 A 
ATOM     46  C   UNL A   1      38.998  33.141  34.409  1.00  0.00     0.049 A 
ATOM     47  H   UNL A   1      39.609  31.791  32.945  1.00  0.00     0.167 HD
ATOM     48  C   UNL A   1      40.585  28.798  29.897  1.00  0.00     0.037 A 
ATOM     49  C   UNL A   1      39.803  32.963  35.475  1.00  0.00     0.037 A 
ATOM     50  C   UNL A   1      41.569  28.621  30.933  1.00  0.00     0.049 A 
ATOM     51  C   UNL A   1      40.887  31.920  35.406  1.00  0.00     0.074 A 
ATOM     52  C   UNL A   1      42.651  27.759  30.956  1.00  0.00     0.029 A 
ATOM     53  N   UNL A   1      41.586  29.315  32.134  1.00  0.00    -0.354 N 
ATOM     54  N   UNL A   1      41.183  31.096  34.431  1.00  0.00    -0.248 NA
ATOM     55  C   UNL A   1      41.753  31.787  36.586  1.00  0.00     0.031 C 
ATOM     56  C   UNL A   1      43.287  27.889  32.194  1.00  0.00     0.029 A 
ATOM     57  C   UNL A   1      42.641  28.878  32.916  1.00  0.00     0.049 A 
ATOM     58  H   UNL A   1      40.943  30.016  32.391  1.00  0.00     0.167 HD
ATOM     59  C   UNL A   1      42.285  30.371  34.865  1.00  0.00     0.074 A 
ATOM     60  C   UNL A   1      42.616  30.863  36.185  1.00  0.00     0.031 C 
ATOM     61  C   UNL A   1      42.963  29.385  34.226  1.00  0.00     0.037 A 
BRANCH  48  62
ATOM     62  C   UNL A   1      40.653  27.894  28.698  1.00  0.00     0.064 A 
ATOM     63  C   UNL A   1      39.936  26.689  28.640  1.00  0.00     0.173 A 
ATOM     64  C   UNL A   1      41.401  28.267  27.571  1.00  0.00     0.173 A 
ATOM     65  F   UNL A   1      39.213  26.281  29.694  1.00  0.00    -0.203 F 
ATOM     66  C   UNL A   1      39.987  25.879  27.508  1.00  0.00     0.198 A 
ATOM     67  C   UNL A   1      41.423  27.471  26.429  1.00  0.00     0.198 A 
ATOM     68  F   UNL A   1      42.100  29.412  27.571  1.00  0.00    -0.203 F 
ATOM     69  F   UNL A   1      39.331  24.710  27.492  1.00  0.00    -0.200 F 
ATOM     70  C   UNL A   1      40.721  26.275  26.401  1.00  0.00     0.200 A 
ATOM     71  F   UNL A   1      42.120  27.863  25.354  1.00  0.00    -0.200 F 
ATOM     72  F   UNL A   1      40.757  25.502  25.307  1.00  0.00    -0.200 F 
ENDBRANCH  48  62
BRANCH  49  73
ATOM     73  C   UNL A   1      39.619  33.792  36.696  1.00  0.00     0.064 A 
ATOM     74  C   UNL A   1      38.851  33.329  37.774  1.00  0.00     0.173 A 
ATOM     75  C   UNL A   1      40.190  35.068  36.804  1.00  0.00     0.173 A 
ATOM     76  F   UNL A   1      38.267  32.123  37.712  1.00  0.00    -0.203 F 
ATOM     77  C   UNL A   1      38.636  34.122  38.900  1.00  0.00     0.198 A 
ATOM     78  C   UNL A   1      40.003  35.847  37.945  1.00  0.00     0.198 A 
ATOM     79  F   UNL A   1      40.939  35.556  35.805  1.00  0.00    -0.203 F 
ATOM     80  F   UNL A   1      37.851  33.678  39.890  1.00  0.00    -0.200 F 
ATOM     81  C   UNL A   1      39.217  35.379  38.987  1.00  0.00     0.200 A 
ATOM     82  F   UNL A   1      40.581  37.053  38.031  1.00  0.00    -0.200 F 
ATOM     83  F   UNL A   1      39.013  36.140  40.069  1.00  0.00    -0.200 F 
ENDBRANCH  49  73
BRANCH  61  84
ATOM     84  C   UNL A   1      44.155  28.800  34.927  1.00  0.00     0.064 A 
ATOM     85  C   UNL A   1      45.434  29.362  34.804  1.00  0.00     0.173 A 
ATOM     86  C   UNL A   1      44.005  27.689  35.772  1.00  0.00     0.173 A 
ATOM     87  F   UNL A   1      45.635  30.416  33.997  1.00  0.00    -0.203 F 
ATOM     88  C   UNL A   1      46.523  28.818  35.480  1.00  0.00     0.198 A 
ATOM     89  C   UNL A   1      45.088  27.170  36.474  1.00  0.00     0.198 A 
ATOM     90  F   UNL A   1      42.801  27.118  35.931  1.00  0.00    -0.203 F 
ATOM     91  F   UNL A   1      47.745  29.341  35.309  1.00  0.00    -0.200 F 
ATOM     92  C   UNL A   1      46.348  27.729  36.321  1.00  0.00     0.200 A 
ATOM     93  F   UNL A   1      44.913  26.128  37.299  1.00  0.00    -0.200 F 
ATOM     94  F   UNL A   1      47.395  27.215  36.980  1.00  0.00    -0.200 F 
ENDBRANCH  61  84
ENDBRANCH  35  36
ENDBRANCH  27  30
ENDBRANCH  25  26
ENDBRANCH  24  25
ENDBRANCH   1  24
TORSDOF 15
ENDMDL
MODEL 3
REMARK VINA RESULT:     -11.6      3.858      7.724
REMARK SMILES CCC[C@]1(C(=O)NCCCNC(=O)c2ccc(-c3c4nc(c(-c5c(F)c(F)c(F)c(F)c5F)c5ccc([nH]5)c(-c5c(F)c(F)c(F)c(F)c5F)c5nc(c(-c6c(F)c(F)c(F)c(F)c6F)c6ccc3[nH]6)C=C5)C=C4)cc2)CCN(c2cncc(C(=O)OC)n2)C1
REMARK SMILES IDX 8 1 7 2 5 3 6 4 4 6 77 7 90 8 78 9 79 10 3 11 2 12 1 13
REMARK SMILES IDX 80 14 81 15 89 16 82 17 84 18 83 19 85 20 86 21 87 22 88 23
REMARK SMILES IDX 9 24 10 25 11 26 12 27 13 29 14 30 15 31 76 32 16 33 75 34
REMARK SMILES IDX 17 35 18 36 19 37 69 38 20 39 74 40 68 41 70 42 21 43 73 44
REMARK SMILES IDX 67 45 66 46 22 48 54 49 34 50 53 51 35 52 38 53 52 54 71 55
REMARK SMILES IDX 36 56 37 57 51 59 72 60 39 61 23 62 24 63 32 64 25 65 26 66
REMARK SMILES IDX 30 67 33 68 27 69 28 70 31 71 29 72 55 73 56 74 64 75 57 76
REMARK SMILES IDX 58 77 62 78 65 79 59 80 60 81 63 82 61 83 40 84 41 85 49 86
REMARK SMILES IDX 42 87 43 88 47 89 50 90 44 91 45 92 48 93 46 94
REMARK H PARENT 7 5 11 28 70 47 38 58
REMARK Flexibility Score: inf
ROOT
ATOM      1  C   UNL A   1      34.830  24.859  25.283  1.00  0.00     0.117 C 
ENDROOT
BRANCH   1   2
ATOM      2  N   UNL A   1      33.544  24.872  25.952  1.00  0.00    -0.355 N 
ATOM      3  C   UNL A   1      32.584  25.819  26.105  1.00  0.00     0.228 C 
ATOM      4  O   UNL A   1      31.507  25.381  26.523  1.00  0.00    -0.274 OA
ATOM      5  H   UNL A   1      33.322  24.017  26.386  1.00  0.00     0.163 HD
BRANCH   3   6
ATOM      6  C   UNL A   1      32.762  27.313  25.753  1.00  0.00     0.068 C 
ATOM      7  C   UNL A   1      33.444  27.574  24.384  1.00  0.00     0.040 C 
ATOM      8  C   UNL A   1      31.343  27.954  25.621  1.00  0.00     0.135 C 
ATOM      9  C   UNL A   1      32.541  28.549  23.634  1.00  0.00     0.119 C 
ATOM     10  N   UNL A   1      31.244  28.307  24.215  1.00  0.00    -0.354 N 
BRANCH   6  11
ATOM     11  C   UNL A   1      33.565  28.056  26.870  1.00  0.00     0.018 C 
BRANCH  11  12
ATOM     12  C   UNL A   1      34.188  29.438  26.575  1.00  0.00    -0.002 C 
ATOM     13  C   UNL A   1      33.545  30.655  27.221  1.00  0.00     0.004 C 
ENDBRANCH  11  12
ENDBRANCH   6  11
BRANCH  10  14
ATOM     14  C   UNL A   1      30.077  28.678  23.600  1.00  0.00     0.148 A 
ATOM     15  C   UNL A   1      28.974  27.807  23.620  1.00  0.00     0.157 A 
ATOM     16  N   UNL A   1      29.963  29.888  23.010  1.00  0.00    -0.221 NA
ATOM     17  N   UNL A   1      27.757  28.082  23.095  1.00  0.00    -0.258 NA
ATOM     18  C   UNL A   1      28.756  30.159  22.427  1.00  0.00     0.169 A 
ATOM     19  C   UNL A   1      27.678  29.285  22.490  1.00  0.00     0.147 A 
BRANCH  18  20
ATOM     20  C   UNL A   1      28.567  31.394  21.620  1.00  0.00     0.358 C 
ATOM     21  O   UNL A   1      27.839  31.436  20.640  1.00  0.00    -0.244 OA
BRANCH  20  22
ATOM     22  O   UNL A   1      29.339  32.415  22.069  1.00  0.00    -0.464 OA
ATOM     23  C   UNL A   1      28.681  33.238  23.035  1.00  0.00     0.282 C 
ENDBRANCH  20  22
ENDBRANCH  18  20
ENDBRANCH  10  14
ENDBRANCH   3   6
ENDBRANCH   1   2
BRANCH   1  24
ATOM     24  C   UNL A   1      35.734  23.713  25.717  1.00  0.00     0.042 C 
BRANCH  24  25
ATOM     25  C   UNL A   1      37.018  23.588  24.910  1.00  0.00     0.118 C 
BRANCH  25  26
ATOM     26  N   UNL A   1      37.939  22.611  25.470  1.00  0.00    -0.352 N 
ATOM     27  C   UNL A   1      39.069  22.790  26.229  1.00  0.00     0.251 C 
ATOM     28  H   UNL A   1      37.718  21.672  25.271  1.00  0.00     0.163 HD
ATOM     29  O   UNL A   1      39.823  21.844  26.431  1.00  0.00    -0.269 OA
BRANCH  27  30
ATOM     30  C   UNL A   1      39.391  24.118  26.788  1.00  0.00     0.039 A 
ATOM     31  C   UNL A   1      38.988  24.418  28.093  1.00  0.00     0.014 A 
ATOM     32  C   UNL A   1      40.067  25.076  26.029  1.00  0.00     0.014 A 
ATOM     33  C   UNL A   1      39.325  25.651  28.656  1.00  0.00     0.010 A 
ATOM     34  C   UNL A   1      40.478  26.267  26.621  1.00  0.00     0.010 A 
ATOM     35  C   UNL A   1      40.107  26.569  27.939  1.00  0.00    -0.014 A 
BRANCH  35  36
ATOM     36  C   UNL A   1      40.547  27.851  28.546  1.00  0.00     0.031 A 
ATOM     37  C   UNL A   1      41.969  28.021  29.008  1.00  0.00     0.074 A 
ATOM     38  C   UNL A   1      39.649  28.835  28.750  1.00  0.00     0.049 A 
ATOM     39  N   UNL A   1      42.520  29.026  29.641  1.00  0.00    -0.248 NA
ATOM     40  C   UNL A   1      42.887  26.899  28.752  1.00  0.00     0.031 C 
ATOM     41  C   UNL A   1      38.230  28.771  28.392  1.00  0.00     0.029 A 
ATOM     42  N   UNL A   1      39.789  30.075  29.323  1.00  0.00    -0.354 N 
ATOM     43  C   UNL A   1      43.837  28.650  29.874  1.00  0.00     0.074 A 
ATOM     44  C   UNL A   1      43.990  27.306  29.361  1.00  0.00     0.031 C 
ATOM     45  C   UNL A   1      37.637  29.924  28.738  1.00  0.00     0.029 A 
ATOM     46  C   UNL A   1      38.618  30.790  29.383  1.00  0.00     0.049 A 
ATOM     47  H   UNL A   1      40.649  30.418  29.660  1.00  0.00     0.167 HD
ATOM     48  C   UNL A   1      44.831  29.369  30.446  1.00  0.00     0.037 A 
ATOM     49  C   UNL A   1      38.361  32.003  29.913  1.00  0.00     0.037 A 
ATOM     50  C   UNL A   1      44.680  30.718  30.925  1.00  0.00     0.049 A 
ATOM     51  C   UNL A   1      39.487  32.779  30.543  1.00  0.00     0.074 A 
ATOM     52  C   UNL A   1      45.646  31.560  31.449  1.00  0.00     0.029 A 
ATOM     53  N   UNL A   1      43.484  31.421  30.944  1.00  0.00    -0.354 N 
ATOM     54  N   UNL A   1      40.746  32.444  30.685  1.00  0.00    -0.248 NA
ATOM     55  C   UNL A   1      39.156  34.106  31.080  1.00  0.00     0.031 C 
ATOM     56  C   UNL A   1      45.023  32.748  31.841  1.00  0.00     0.029 A 
ATOM     57  C   UNL A   1      43.683  32.674  31.500  1.00  0.00     0.049 A 
ATOM     58  H   UNL A   1      42.622  31.080  30.611  1.00  0.00     0.167 HD
ATOM     59  C   UNL A   1      41.362  33.527  31.298  1.00  0.00     0.074 A 
ATOM     60  C   UNL A   1      40.343  34.537  31.486  1.00  0.00     0.031 C 
ATOM     61  C   UNL A   1      42.658  33.672  31.672  1.00  0.00     0.037 A 
BRANCH  48  62
ATOM     62  C   UNL A   1      46.177  28.717  30.588  1.00  0.00     0.064 A 
ATOM     63  C   UNL A   1      47.155  28.812  29.586  1.00  0.00     0.173 A 
ATOM     64  C   UNL A   1      46.512  28.036  31.768  1.00  0.00     0.173 A 
ATOM     65  F   UNL A   1      46.882  29.445  28.434  1.00  0.00    -0.203 F 
ATOM     66  C   UNL A   1      48.409  28.228  29.749  1.00  0.00     0.198 A 
ATOM     67  C   UNL A   1      47.778  27.481  31.941  1.00  0.00     0.198 A 
ATOM     68  F   UNL A   1      45.618  27.919  32.761  1.00  0.00    -0.203 F 
ATOM     69  F   UNL A   1      49.310  28.293  28.760  1.00  0.00    -0.200 F 
ATOM     70  C   UNL A   1      48.722  27.572  30.930  1.00  0.00     0.200 A 
ATOM     71  F   UNL A   1      48.084  26.861  33.089  1.00  0.00    -0.200 F 
ATOM     72  F   UNL A   1      49.933  27.023  31.091  1.00  0.00    -0.200 F 
ENDBRANCH  48  62
BRANCH  49  73
ATOM     73  C   UNL A   1      36.983  32.558  29.869  1.00  0.00     0.064 A 
ATOM     74  C   UNL A   1      36.519  33.251  28.741  1.00  0.00     0.173 A 
ATOM     75  C   UNL A   1      36.107  32.424  30.956  1.00  0.00     0.173 A 
ATOM     76  F   UNL A   1      37.324  33.424  27.683  1.00  0.00    -0.203 F 
ATOM     77  C   UNL A   1      35.244  33.815  28.715  1.00  0.00     0.198 A 
ATOM     78  C   UNL A   1      34.820  32.958  30.916  1.00  0.00     0.198 A 
ATOM     79  F   UNL A   1      36.497  31.765  32.056  1.00  0.00    -0.203 F 
ATOM     80  F   UNL A   1      34.848  34.521  27.648  1.00  0.00    -0.200 F 
ATOM     81  C   UNL A   1      34.393  33.663  29.800  1.00  0.00     0.200 A 
ATOM     82  F   UNL A   1      33.996  32.793  31.960  1.00  0.00    -0.200 F 
ATOM     83  F   UNL A   1      33.168  34.202  29.775  1.00  0.00    -0.200 F 
ENDBRANCH  49  73
BRANCH  61  84
ATOM     84  C   UNL A   1      43.058  34.984  32.285  1.00  0.00     0.064 A 
ATOM     85  C   UNL A   1      43.567  36.036  31.509  1.00  0.00     0.173 A 
ATOM     86  C   UNL A   1      42.882  35.206  33.659  1.00  0.00     0.173 A 
ATOM     87  F   UNL A   1      43.769  35.870  30.193  1.00  0.00    -0.203 F 
ATOM     88  C   UNL A   1      43.912  37.252  32.093  1.00  0.00     0.198 A 
ATOM     89  C   UNL A   1      43.194  36.435  34.233  1.00  0.00     0.198 A 
ATOM     90  F   UNL A   1      42.391  34.235  34.444  1.00  0.00    -0.203 F 
ATOM     91  F   UNL A   1      44.444  38.227  31.342  1.00  0.00    -0.200 F 
ATOM     92  C   UNL A   1      43.716  37.455  33.451  1.00  0.00     0.200 A 
ATOM     93  F   UNL A   1      42.988  36.633  35.542  1.00  0.00    -0.200 F 
ATOM     94  F   UNL A   1      44.037  38.630  34.008  1.00  0.00    -0.200 F 
ENDBRANCH  61  84
ENDBRANCH  35  36
ENDBRANCH  27  30
ENDBRANCH  25  26
ENDBRANCH  24  25
ENDBRANCH   1  24
TORSDOF 15
ENDMDL
