MODEL 1
REMARK VINA RESULT:     -12.0      0.000      0.000
REMARK SMILES CC(C)(C)c1csc(C[NH+]2CC(C(=O)NCCCNC(=O)c3ccc(-c4c5nc(c(-c6c(F)c(F)c(F)c(F)c6F)c6ccc([nH]6)c(-c6c(F)c(F)c(F)c(F)c6F)c6nc(c(-c7c(F)c(F)c(F)c(F)c7F)c7ccc4[nH]7)C=C6)C=C5)cc3)C2)n1
REMARK SMILES IDX 16 1 15 2 13 3 14 4 12 6 10 7 11 8 85 9 9 11 8 12 5 13 6 14
REMARK SMILES IDX 86 15 7 16 2 17 1 18 3 19 4 20 17 21 18 22 19 23 20 24 21 26
REMARK SMILES IDX 22 27 23 28 84 29 24 30 83 31 25 32 26 33 27 34 77 35 28 36
REMARK SMILES IDX 82 37 76 38 78 39 29 40 81 41 75 42 74 43 30 45 62 46 42 47
REMARK SMILES IDX 61 48 43 49 46 50 60 51 79 52 44 53 45 54 59 56 80 57 47 58
REMARK SMILES IDX 31 59 32 60 40 61 33 62 34 63 38 64 41 65 35 66 36 67 39 68
REMARK SMILES IDX 37 69 63 70 64 71 72 72 65 73 66 74 70 75 73 76 67 77 68 78
REMARK SMILES IDX 71 79 69 80 48 81 49 82 57 83 50 84 51 85 55 86 58 87 52 88
REMARK SMILES IDX 53 89 56 90 54 91
REMARK H PARENT 15 5 10 10 19 25 78 44 46 55
REMARK Flexibility Score: inf
ROOT
ATOM      1  C   UNL A   1      36.817  20.448  24.855  1.00  0.00     0.117 C 
ENDROOT
BRANCH   1   2
ATOM      2  N   UNL A   1      35.616  19.663  25.048  1.00  0.00    -0.355 N 
ATOM      3  C   UNL A   1      34.294  19.972  24.838  1.00  0.00     0.234 C 
ATOM      4  O   UNL A   1      33.498  19.065  25.131  1.00  0.00    -0.274 OA
ATOM      5  H   UNL A   1      35.775  18.753  25.387  1.00  0.00     0.163 HD
BRANCH   3   6
ATOM      6  C   UNL A   1      33.813  21.317  24.294  1.00  0.00     0.188 C 
ATOM      7  N   UNL A   1      32.494  22.938  24.272  1.00  0.00    -0.327 N 
ATOM      8  C   UNL A   1      33.570  22.545  25.204  1.00  0.00     0.282 C 
ATOM      9  C   UNL A   1      32.361  21.541  23.818  1.00  0.00     0.282 C 
ATOM     10  H   UNL A   1      32.654  23.681  23.592  1.00  0.00     0.348 HD
BRANCH   7  11
ATOM     11  C   UNL A   1      31.295  23.520  24.896  1.00  0.00     0.331 C 
BRANCH  11  12
ATOM     12  C   UNL A   1      31.088  25.017  24.906  1.00  0.00     0.147 A 
ATOM     13  C   UNL A   1      31.339  27.168  25.472  1.00  0.00     0.057 A 
ATOM     14  C   UNL A   1      30.512  27.311  24.372  1.00  0.00     0.091 A 
ATOM     15  N   UNL A   1      31.632  25.843  25.781  1.00  0.00    -0.240 NA
ATOM     16  S   UNL A   1      30.192  25.788  23.654  1.00  0.00    -0.121 S 
BRANCH  13  17
ATOM     17  C   UNL A   1      32.010  28.275  26.278  1.00  0.00     0.005 C 
ATOM     18  C   UNL A   1      31.536  28.298  27.745  1.00  0.00     0.017 C 
ATOM     19  C   UNL A   1      31.663  29.630  25.628  1.00  0.00     0.017 C 
ATOM     20  C   UNL A   1      33.543  28.109  26.284  1.00  0.00     0.017 C 
ENDBRANCH  13  17
ENDBRANCH  11  12
ENDBRANCH   7  11
ENDBRANCH   3   6
ENDBRANCH   1   2
BRANCH   1  21
ATOM     21  C   UNL A   1      38.070  19.584  24.853  1.00  0.00     0.042 C 
BRANCH  21  22
ATOM     22  C   UNL A   1      39.115  20.022  25.869  1.00  0.00     0.118 C 
BRANCH  22  23
ATOM     23  N   UNL A   1      40.237  19.093  25.941  1.00  0.00    -0.352 N 
ATOM     24  C   UNL A   1      41.585  19.308  26.053  1.00  0.00     0.251 C 
ATOM     25  H   UNL A   1      39.979  18.144  25.904  1.00  0.00     0.163 HD
ATOM     26  O   UNL A   1      42.358  18.367  25.845  1.00  0.00    -0.269 OA
BRANCH  24  27
ATOM     27  C   UNL A   1      42.138  20.636  26.396  1.00  0.00     0.039 A 
ATOM     28  C   UNL A   1      42.536  21.489  25.361  1.00  0.00     0.014 A 
ATOM     29  C   UNL A   1      42.320  21.035  27.722  1.00  0.00     0.014 A 
ATOM     30  C   UNL A   1      43.047  22.757  25.654  1.00  0.00     0.010 A 
ATOM     31  C   UNL A   1      42.728  22.334  28.011  1.00  0.00     0.010 A 
ATOM     32  C   UNL A   1      43.107  23.207  26.982  1.00  0.00    -0.014 A 
BRANCH  32  33
ATOM     33  C   UNL A   1      43.564  24.579  27.318  1.00  0.00     0.031 A 
ATOM     34  C   UNL A   1      42.587  25.605  27.824  1.00  0.00     0.074 A 
ATOM     35  C   UNL A   1      44.842  24.930  27.081  1.00  0.00     0.049 A 
ATOM     36  N   UNL A   1      42.777  26.875  28.083  1.00  0.00    -0.248 NA
ATOM     37  C   UNL A   1      41.203  25.153  28.028  1.00  0.00     0.031 C 
ATOM     38  C   UNL A   1      45.870  24.049  26.524  1.00  0.00     0.029 A 
ATOM     39  N   UNL A   1      45.490  26.127  27.257  1.00  0.00    -0.354 N 
ATOM     40  C   UNL A   1      41.534  27.376  28.449  1.00  0.00     0.074 A 
ATOM     41  C   UNL A   1      40.589  26.288  28.325  1.00  0.00     0.031 C 
ATOM     42  C   UNL A   1      47.022  24.730  26.419  1.00  0.00     0.029 A 
ATOM     43  C   UNL A   1      46.805  26.103  26.863  1.00  0.00     0.049 A 
ATOM     44  H   UNL A   1      45.054  26.927  27.632  1.00  0.00     0.167 HD
ATOM     45  C   UNL A   1      41.214  28.624  28.870  1.00  0.00     0.037 A 
ATOM     46  C   UNL A   1      47.731  27.080  26.846  1.00  0.00     0.037 A 
ATOM     47  C   UNL A   1      42.166  29.692  29.025  1.00  0.00     0.049 A 
ATOM     48  C   UNL A   1      47.366  28.448  27.349  1.00  0.00     0.074 A 
ATOM     49  C   UNL A   1      41.965  30.961  29.538  1.00  0.00     0.029 A 
ATOM     50  N   UNL A   1      43.503  29.618  28.656  1.00  0.00    -0.354 N 
ATOM     51  N   UNL A   1      46.208  28.887  27.783  1.00  0.00    -0.248 NA
ATOM     52  C   UNL A   1      48.436  29.454  27.373  1.00  0.00     0.031 C 
ATOM     53  C   UNL A   1      43.165  31.672  29.428  1.00  0.00     0.029 A 
ATOM     54  C   UNL A   1      44.130  30.829  28.900  1.00  0.00     0.049 A 
ATOM     55  H   UNL A   1      43.940  28.821  28.277  1.00  0.00     0.167 HD
ATOM     56  C   UNL A   1      46.412  30.210  28.146  1.00  0.00     0.074 A 
ATOM     57  C   UNL A   1      47.811  30.499  27.899  1.00  0.00     0.031 C 
ATOM     58  C   UNL A   1      45.521  31.105  28.640  1.00  0.00     0.037 A 
BRANCH  45  59
ATOM     59  C   UNL A   1      39.770  28.898  29.184  1.00  0.00     0.064 A 
ATOM     60  C   UNL A   1      39.241  28.711  30.472  1.00  0.00     0.173 A 
ATOM     61  C   UNL A   1      38.901  29.359  28.183  1.00  0.00     0.173 A 
ATOM     62  F   UNL A   1      40.023  28.264  31.465  1.00  0.00    -0.203 F 
ATOM     63  C   UNL A   1      37.890  28.929  30.732  1.00  0.00     0.198 A 
ATOM     64  C   UNL A   1      37.559  29.610  28.456  1.00  0.00     0.198 A 
ATOM     65  F   UNL A   1      39.353  29.564  26.937  1.00  0.00    -0.203 F 
ATOM     66  F   UNL A   1      37.396  28.676  31.952  1.00  0.00    -0.200 F 
ATOM     67  C   UNL A   1      37.052  29.382  29.726  1.00  0.00     0.200 A 
ATOM     68  F   UNL A   1      36.753  30.062  27.486  1.00  0.00    -0.200 F 
ATOM     69  F   UNL A   1      35.751  29.588  29.977  1.00  0.00    -0.200 F 
ENDBRANCH  45  59
BRANCH  46  70
ATOM     70  C   UNL A   1      49.099  26.778  26.354  1.00  0.00     0.064 A 
ATOM     71  C   UNL A   1      50.067  26.230  27.206  1.00  0.00     0.173 A 
ATOM     72  C   UNL A   1      49.452  26.986  25.012  1.00  0.00     0.173 A 
ATOM     73  F   UNL A   1      49.782  26.028  28.500  1.00  0.00    -0.203 F 
ATOM     74  C   UNL A   1      51.339  25.907  26.735  1.00  0.00     0.198 A 
ATOM     75  C   UNL A   1      50.714  26.639  24.537  1.00  0.00     0.198 A 
ATOM     76  F   UNL A   1      48.556  27.499  24.154  1.00  0.00    -0.203 F 
ATOM     77  F   UNL A   1      52.255  25.408  27.576  1.00  0.00    -0.200 F 
ATOM     78  C   UNL A   1      51.658  26.103  25.400  1.00  0.00     0.200 A 
ATOM     79  F   UNL A   1      51.011  26.811  23.241  1.00  0.00    -0.200 F 
ATOM     80  F   UNL A   1      52.874  25.775  24.944  1.00  0.00    -0.200 F 
ENDBRANCH  46  70
BRANCH  58  81
ATOM     81  C   UNL A   1      46.034  32.479  28.963  1.00  0.00     0.064 A 
ATOM     82  C   UNL A   1      46.591  32.782  30.215  1.00  0.00     0.173 A 
ATOM     83  C   UNL A   1      46.005  33.495  27.996  1.00  0.00     0.173 A 
ATOM     84  F   UNL A   1      46.629  31.851  31.181  1.00  0.00    -0.203 F 
ATOM     85  C   UNL A   1      47.077  34.057  30.493  1.00  0.00     0.198 A 
ATOM     86  C   UNL A   1      46.520  34.759  28.266  1.00  0.00     0.198 A 
ATOM     87  F   UNL A   1      45.488  33.256  26.781  1.00  0.00    -0.203 F 
ATOM     88  F   UNL A   1      47.560  34.337  31.712  1.00  0.00    -0.200 F 
ATOM     89  C   UNL A   1      47.048  35.042  29.517  1.00  0.00     0.200 A 
ATOM     90  F   UNL A   1      46.504  35.705  27.317  1.00  0.00    -0.200 F 
ATOM     91  F   UNL A   1      47.524  36.266  29.783  1.00  0.00    -0.200 F 
ENDBRANCH  58  81
ENDBRANCH  32  33
ENDBRANCH  24  27
ENDBRANCH  22  23
ENDBRANCH  21  22
ENDBRANCH   1  21
TORSDOF 13
ENDMDL
MODEL 2
REMARK VINA RESULT:     -11.9      5.795     11.205
REMARK SMILES CC(C)(C)c1csc(C[NH+]2CC(C(=O)NCCCNC(=O)c3ccc(-c4c5nc(c(-c6c(F)c(F)c(F)c(F)c6F)c6ccc([nH]6)c(-c6c(F)c(F)c(F)c(F)c6F)c6nc(c(-c7c(F)c(F)c(F)c(F)c7F)c7ccc4[nH]7)C=C6)C=C5)cc3)C2)n1
REMARK SMILES IDX 16 1 15 2 13 3 14 4 12 6 10 7 11 8 85 9 9 11 8 12 5 13 6 14
REMARK SMILES IDX 86 15 7 16 2 17 1 18 3 19 4 20 17 21 18 22 19 23 20 24 21 26
REMARK SMILES IDX 22 27 23 28 84 29 24 30 83 31 25 32 26 33 27 34 77 35 28 36
REMARK SMILES IDX 82 37 76 38 78 39 29 40 81 41 75 42 74 43 30 45 62 46 42 47
REMARK SMILES IDX 61 48 43 49 46 50 60 51 79 52 44 53 45 54 59 56 80 57 47 58
REMARK SMILES IDX 31 59 32 60 40 61 33 62 34 63 38 64 41 65 35 66 36 67 39 68
REMARK SMILES IDX 37 69 63 70 64 71 72 72 65 73 66 74 70 75 73 76 67 77 68 78
REMARK SMILES IDX 71 79 69 80 48 81 49 82 57 83 50 84 51 85 55 86 58 87 52 88
REMARK SMILES IDX 53 89 56 90 54 91
REMARK H PARENT 15 5 10 10 19 25 78 44 46 55
REMARK Flexibility Score: inf
ROOT
ATOM      1  C   UNL A   1      31.328  30.870  25.902  1.00  0.00     0.117 C 
ENDROOT
BRANCH   1   2
ATOM      2  N   UNL A   1      30.653  30.734  24.628  1.00  0.00    -0.355 N 
ATOM      3  C   UNL A   1      30.364  29.622  23.876  1.00  0.00     0.234 C 
ATOM      4  O   UNL A   1      29.785  29.858  22.804  1.00  0.00    -0.274 OA
ATOM      5  H   UNL A   1      30.350  31.584  24.236  1.00  0.00     0.163 HD
BRANCH   3   6
ATOM      6  C   UNL A   1      30.719  28.196  24.299  1.00  0.00     0.188 C 
ATOM      7  N   UNL A   1      31.436  26.274  23.902  1.00  0.00    -0.327 N 
ATOM      8  C   UNL A   1      32.116  27.577  24.051  1.00  0.00     0.282 C 
ATOM      9  C   UNL A   1      30.177  26.957  23.553  1.00  0.00     0.282 C 
ATOM     10  H   UNL A   1      31.454  25.598  24.665  1.00  0.00     0.348 HD
BRANCH   7  11
ATOM     11  C   UNL A   1      31.986  25.387  22.864  1.00  0.00     0.331 C 
BRANCH  11  12
ATOM     12  C   UNL A   1      32.676  24.097  23.245  1.00  0.00     0.147 A 
ATOM     13  C   UNL A   1      34.274  22.702  23.960  1.00  0.00     0.057 A 
ATOM     14  C   UNL A   1      33.208  21.822  23.895  1.00  0.00     0.091 A 
ATOM     15  N   UNL A   1      33.955  23.995  23.554  1.00  0.00    -0.240 NA
ATOM     16  S   UNL A   1      31.776  22.641  23.431  1.00  0.00    -0.121 S 
BRANCH  13  17
ATOM     17  C   UNL A   1      35.671  22.428  24.506  1.00  0.00     0.005 C 
ATOM     18  C   UNL A   1      36.030  23.357  25.684  1.00  0.00     0.017 C 
ATOM     19  C   UNL A   1      36.691  22.656  23.372  1.00  0.00     0.017 C 
ATOM     20  C   UNL A   1      35.801  20.974  25.001  1.00  0.00     0.017 C 
ENDBRANCH  13  17
ENDBRANCH  11  12
ENDBRANCH   7  11
ENDBRANCH   3   6
ENDBRANCH   1   2
BRANCH   1  21
ATOM     21  C   UNL A   1      31.234  32.287  26.450  1.00  0.00     0.042 C 
BRANCH  21  22
ATOM     22  C   UNL A   1      32.471  32.727  27.220  1.00  0.00     0.118 C 
BRANCH  22  23
ATOM     23  N   UNL A   1      32.398  34.127  27.626  1.00  0.00    -0.352 N 
ATOM     24  C   UNL A   1      33.056  34.820  28.606  1.00  0.00     0.251 C 
ATOM     25  H   UNL A   1      31.766  34.668  27.100  1.00  0.00     0.163 HD
ATOM     26  O   UNL A   1      32.644  35.942  28.922  1.00  0.00    -0.269 OA
BRANCH  24  27
ATOM     27  C   UNL A   1      34.229  34.256  29.309  1.00  0.00     0.039 A 
ATOM     28  C   UNL A   1      34.019  33.424  30.414  1.00  0.00     0.014 A 
ATOM     29  C   UNL A   1      35.534  34.576  28.929  1.00  0.00     0.014 A 
ATOM     30  C   UNL A   1      35.108  32.863  31.087  1.00  0.00     0.010 A 
ATOM     31  C   UNL A   1      36.614  33.935  29.531  1.00  0.00     0.010 A 
ATOM     32  C   UNL A   1      36.415  33.081  30.625  1.00  0.00    -0.014 A 
BRANCH  32  33
ATOM     33  C   UNL A   1      37.585  32.429  31.267  1.00  0.00     0.031 A 
ATOM     34  C   UNL A   1      38.280  31.277  30.594  1.00  0.00     0.074 A 
ATOM     35  C   UNL A   1      37.966  32.816  32.499  1.00  0.00     0.049 A 
ATOM     36  N   UNL A   1      39.256  30.524  31.037  1.00  0.00    -0.248 NA
ATOM     37  C   UNL A   1      37.785  30.894  29.263  1.00  0.00     0.031 C 
ATOM     38  C   UNL A   1      37.329  33.871  33.288  1.00  0.00     0.029 A 
ATOM     39  N   UNL A   1      38.968  32.351  33.314  1.00  0.00    -0.354 N 
ATOM     40  C   UNL A   1      39.468  29.566  30.055  1.00  0.00     0.074 A 
ATOM     41  C   UNL A   1      38.485  29.798  29.020  1.00  0.00     0.031 C 
ATOM     42  C   UNL A   1      37.964  33.984  34.465  1.00  0.00     0.029 A 
ATOM     43  C   UNL A   1      39.025  32.985  34.530  1.00  0.00     0.049 A 
ATOM     44  H   UNL A   1      39.588  31.631  33.051  1.00  0.00     0.167 HD
ATOM     45  C   UNL A   1      40.412  28.593  30.009  1.00  0.00     0.037 A 
ATOM     46  C   UNL A   1      39.832  32.777  35.588  1.00  0.00     0.037 A 
ATOM     47  C   UNL A   1      41.410  28.391  31.027  1.00  0.00     0.049 A 
ATOM     48  C   UNL A   1      40.894  31.717  35.505  1.00  0.00     0.074 A 
ATOM     49  C   UNL A   1      42.471  27.502  31.031  1.00  0.00     0.029 A 
ATOM     50  N   UNL A   1      41.465  29.083  32.229  1.00  0.00    -0.354 N 
ATOM     51  N   UNL A   1      41.148  30.877  34.531  1.00  0.00    -0.248 NA
ATOM     52  C   UNL A   1      41.790  31.584  36.662  1.00  0.00     0.031 C 
ATOM     53  C   UNL A   1      43.133  27.618  32.258  1.00  0.00     0.029 A 
ATOM     54  C   UNL A   1      42.522  28.619  32.996  1.00  0.00     0.049 A 
ATOM     55  H   UNL A   1      40.845  29.800  32.496  1.00  0.00     0.167 HD
ATOM     56  C   UNL A   1      42.239  30.127  34.947  1.00  0.00     0.074 A 
ATOM     57  C   UNL A   1      42.612  30.625  36.256  1.00  0.00     0.031 C 
ATOM     58  C   UNL A   1      42.875  29.117  34.302  1.00  0.00     0.037 A 
BRANCH  45  59
ATOM     59  C   UNL A   1      40.399  27.671  28.823  1.00  0.00     0.064 A 
ATOM     60  C   UNL A   1      39.640  26.489  28.809  1.00  0.00     0.173 A 
ATOM     61  C   UNL A   1      41.154  27.975  27.679  1.00  0.00     0.173 A 
ATOM     62  F   UNL A   1      38.907  26.144  29.878  1.00  0.00    -0.203 F 
ATOM     63  C   UNL A   1      39.676  25.625  27.717  1.00  0.00     0.198 A 
ATOM     64  C   UNL A   1      41.159  27.127  26.575  1.00  0.00     0.198 A 
ATOM     65  F   UNL A   1      41.890  29.095  27.633  1.00  0.00    -0.203 F 
ATOM     66  F   UNL A   1      38.999  24.470  27.757  1.00  0.00    -0.200 F 
ATOM     67  C   UNL A   1      40.432  25.947  26.600  1.00  0.00     0.200 A 
ATOM     68  F   UNL A   1      41.877  27.446  25.490  1.00  0.00    -0.200 F 
ATOM     69  F   UNL A   1      40.468  25.113  25.551  1.00  0.00    -0.200 F 
ENDBRANCH  45  59
BRANCH  46  70
ATOM     70  C   UNL A   1      39.671  33.616  36.802  1.00  0.00     0.064 A 
ATOM     71  C   UNL A   1      40.339  34.841  36.926  1.00  0.00     0.173 A 
ATOM     72  C   UNL A   1      38.809  33.233  37.841  1.00  0.00     0.173 A 
ATOM     73  F   UNL A   1      41.185  35.242  35.966  1.00  0.00    -0.203 F 
ATOM     74  C   UNL A   1      40.157  35.649  38.047  1.00  0.00     0.198 A 
ATOM     75  C   UNL A   1      38.607  34.054  38.948  1.00  0.00     0.198 A 
ATOM     76  F   UNL A   1      38.139  32.074  37.765  1.00  0.00    -0.203 F 
ATOM     77  F   UNL A   1      40.828  36.804  38.153  1.00  0.00    -0.200 F 
ATOM     78  C   UNL A   1      39.285  35.260  39.052  1.00  0.00     0.200 A 
ATOM     79  F   UNL A   1      37.749  33.682  39.908  1.00  0.00    -0.200 F 
ATOM     80  F   UNL A   1      39.096  36.045  40.120  1.00  0.00    -0.200 F 
ENDBRANCH  46  70
BRANCH  58  81
ATOM     81  C   UNL A   1      44.052  28.493  34.995  1.00  0.00     0.064 A 
ATOM     82  C   UNL A   1      43.910  27.362  35.813  1.00  0.00     0.173 A 
ATOM     83  C   UNL A   1      45.344  29.007  34.806  1.00  0.00     0.173 A 
ATOM     84  F   UNL A   1      42.694  26.841  36.039  1.00  0.00    -0.203 F 
ATOM     85  C   UNL A   1      45.014  26.786  36.436  1.00  0.00     0.198 A 
ATOM     86  C   UNL A   1      46.449  28.410  35.404  1.00  0.00     0.198 A 
ATOM     87  F   UNL A   1      45.536  30.083  34.027  1.00  0.00    -0.203 F 
ATOM     88  F   UNL A   1      44.848  25.736  37.253  1.00  0.00    -0.200 F 
ATOM     89  C   UNL A   1      46.283  27.305  36.225  1.00  0.00     0.200 A 
ATOM     90  F   UNL A   1      47.675  28.904  35.187  1.00  0.00    -0.200 F 
ATOM     91  F   UNL A   1      47.345  26.743  36.818  1.00  0.00    -0.200 F 
ENDBRANCH  58  81
ENDBRANCH  32  33
ENDBRANCH  24  27
ENDBRANCH  22  23
ENDBRANCH  21  22
ENDBRANCH   1  21
TORSDOF 13
ENDMDL
MODEL 3
REMARK VINA RESULT:     -11.8      0.274      1.712
REMARK SMILES CC(C)(C)c1csc(C[NH+]2CC(C(=O)NCCCNC(=O)c3ccc(-c4c5nc(c(-c6c(F)c(F)c(F)c(F)c6F)c6ccc([nH]6)c(-c6c(F)c(F)c(F)c(F)c6F)c6nc(c(-c7c(F)c(F)c(F)c(F)c7F)c7ccc4[nH]7)C=C6)C=C5)cc3)C2)n1
REMARK SMILES IDX 16 1 15 2 13 3 14 4 12 6 10 7 11 8 85 9 9 11 8 12 5 13 6 14
REMARK SMILES IDX 86 15 7 16 2 17 1 18 3 19 4 20 17 21 18 22 19 23 20 24 21 26
REMARK SMILES IDX 22 27 23 28 84 29 24 30 83 31 25 32 26 33 27 34 77 35 28 36
REMARK SMILES IDX 82 37 76 38 78 39 29 40 81 41 75 42 74 43 30 45 62 46 42 47
REMARK SMILES IDX 61 48 43 49 46 50 60 51 79 52 44 53 45 54 59 56 80 57 47 58
REMARK SMILES IDX 31 59 32 60 40 61 33 62 34 63 38 64 41 65 35 66 36 67 39 68
REMARK SMILES IDX 37 69 63 70 64 71 72 72 65 73 66 74 70 75 73 76 67 77 68 78
REMARK SMILES IDX 71 79 69 80 48 81 49 82 57 83 50 84 51 85 55 86 58 87 52 88
REMARK SMILES IDX 53 89 56 90 54 91
REMARK H PARENT 15 5 10 10 19 25 78 44 46 55
REMARK Flexibility Score: inf
ROOT
ATOM      1  C   UNL A   1      36.595  20.468  24.901  1.00  0.00     0.117 C 
ENDROOT
BRANCH   1   2
ATOM      2  N   UNL A   1      35.352  19.791  25.199  1.00  0.00    -0.355 N 
ATOM      3  C   UNL A   1      34.049  20.153  24.959  1.00  0.00     0.234 C 
ATOM      4  O   UNL A   1      33.202  19.342  25.369  1.00  0.00    -0.274 OA
ATOM      5  H   UNL A   1      35.459  18.923  25.651  1.00  0.00     0.163 HD
BRANCH   3   6
ATOM      6  C   UNL A   1      33.644  21.445  24.250  1.00  0.00     0.188 C 
ATOM      7  N   UNL A   1      32.448  23.147  24.048  1.00  0.00    -0.327 N 
ATOM      8  C   UNL A   1      33.533  22.801  24.988  1.00  0.00     0.282 C 
ATOM      9  C   UNL A   1      32.192  21.717  23.797  1.00  0.00     0.282 C 
ATOM     10  H   UNL A   1      32.632  23.776  23.266  1.00  0.00     0.348 HD
BRANCH   7  11
ATOM     11  C   UNL A   1      31.325  23.902  24.625  1.00  0.00     0.331 C 
BRANCH  11  12
ATOM     12  C   UNL A   1      31.322  25.413  24.596  1.00  0.00     0.147 A 
ATOM     13  C   UNL A   1      31.692  27.527  25.234  1.00  0.00     0.057 A 
ATOM     14  C   UNL A   1      31.222  27.749  23.951  1.00  0.00     0.091 A 
ATOM     15  N   UNL A   1      31.712  26.182  25.595  1.00  0.00    -0.240 NA
ATOM     16  S   UNL A   1      30.911  26.263  23.156  1.00  0.00    -0.121 S 
BRANCH  13  17
ATOM     17  C   UNL A   1      32.259  28.556  26.205  1.00  0.00     0.005 C 
ATOM     18  C   UNL A   1      33.801  28.571  26.206  1.00  0.00     0.017 C 
ATOM     19  C   UNL A   1      31.770  28.207  27.626  1.00  0.00     0.017 C 
ATOM     20  C   UNL A   1      31.778  29.978  25.854  1.00  0.00     0.017 C 
ENDBRANCH  13  17
ENDBRANCH  11  12
ENDBRANCH   7  11
ENDBRANCH   3   6
ENDBRANCH   1   2
BRANCH   1  21
ATOM     21  C   UNL A   1      37.794  19.536  25.012  1.00  0.00     0.042 C 
BRANCH  21  22
ATOM     22  C   UNL A   1      38.982  20.154  25.737  1.00  0.00     0.118 C 
BRANCH  22  23
ATOM     23  N   UNL A   1      40.075  19.204  25.913  1.00  0.00    -0.352 N 
ATOM     24  C   UNL A   1      41.418  19.394  26.097  1.00  0.00     0.251 C 
ATOM     25  H   UNL A   1      39.797  18.260  25.897  1.00  0.00     0.163 HD
ATOM     26  O   UNL A   1      42.180  18.428  25.972  1.00  0.00    -0.269 OA
BRANCH  24  27
ATOM     27  C   UNL A   1      41.982  20.723  26.421  1.00  0.00     0.039 A 
ATOM     28  C   UNL A   1      42.268  21.608  25.376  1.00  0.00     0.014 A 
ATOM     29  C   UNL A   1      42.283  21.091  27.734  1.00  0.00     0.014 A 
ATOM     30  C   UNL A   1      42.785  22.876  25.652  1.00  0.00     0.010 A 
ATOM     31  C   UNL A   1      42.697  22.389  28.017  1.00  0.00     0.010 A 
ATOM     32  C   UNL A   1      42.965  23.294  26.980  1.00  0.00    -0.014 A 
BRANCH  32  33
ATOM     33  C   UNL A   1      43.431  24.665  27.307  1.00  0.00     0.031 A 
ATOM     34  C   UNL A   1      42.462  25.700  27.811  1.00  0.00     0.074 A 
ATOM     35  C   UNL A   1      44.711  25.007  27.064  1.00  0.00     0.049 A 
ATOM     36  N   UNL A   1      42.660  26.970  28.063  1.00  0.00    -0.248 NA
ATOM     37  C   UNL A   1      41.076  25.258  28.022  1.00  0.00     0.031 C 
ATOM     38  C   UNL A   1      45.731  24.117  26.509  1.00  0.00     0.029 A 
ATOM     39  N   UNL A   1      45.367  26.201  27.233  1.00  0.00    -0.354 N 
ATOM     40  C   UNL A   1      41.422  27.480  28.430  1.00  0.00     0.074 A 
ATOM     41  C   UNL A   1      40.470  26.398  28.316  1.00  0.00     0.031 C 
ATOM     42  C   UNL A   1      46.887  24.790  26.396  1.00  0.00     0.029 A 
ATOM     43  C   UNL A   1      46.680  26.167  26.834  1.00  0.00     0.049 A 
ATOM     44  H   UNL A   1      44.937  27.006  27.604  1.00  0.00     0.167 HD
ATOM     45  C   UNL A   1      41.111  28.732  28.847  1.00  0.00     0.037 A 
ATOM     46  C   UNL A   1      47.612  27.138  26.809  1.00  0.00     0.037 A 
ATOM     47  C   UNL A   1      42.071  29.795  28.992  1.00  0.00     0.049 A 
ATOM     48  C   UNL A   1      47.257  28.511  27.306  1.00  0.00     0.074 A 
ATOM     49  C   UNL A   1      41.879  31.068  29.500  1.00  0.00     0.029 A 
ATOM     50  N   UNL A   1      43.405  29.711  28.619  1.00  0.00    -0.354 N 
ATOM     51  N   UNL A   1      46.104  28.958  27.742  1.00  0.00    -0.248 NA
ATOM     52  C   UNL A   1      48.333  29.510  27.321  1.00  0.00     0.031 C 
ATOM     53  C   UNL A   1      43.083  31.771  29.382  1.00  0.00     0.029 A 
ATOM     54  C   UNL A   1      44.041  30.919  28.856  1.00  0.00     0.049 A 
ATOM     55  H   UNL A   1      43.837  28.910  28.244  1.00  0.00     0.167 HD
ATOM     56  C   UNL A   1      46.317  30.283  28.097  1.00  0.00     0.074 A 
ATOM     57  C   UNL A   1      47.717  30.561  27.844  1.00  0.00     0.031 C 
ATOM     58  C   UNL A   1      45.433  31.186  28.590  1.00  0.00     0.037 A 
BRANCH  45  59
ATOM     59  C   UNL A   1      39.670  29.017  29.164  1.00  0.00     0.064 A 
ATOM     60  C   UNL A   1      38.773  29.485  28.190  1.00  0.00     0.173 A 
ATOM     61  C   UNL A   1      39.177  28.817  30.463  1.00  0.00     0.173 A 
ATOM     62  F   UNL A   1      39.192  29.702  26.934  1.00  0.00    -0.203 F 
ATOM     63  C   UNL A   1      37.452  29.785  28.515  1.00  0.00     0.198 A 
ATOM     64  C   UNL A   1      37.846  29.085  30.775  1.00  0.00     0.198 A 
ATOM     65  F   UNL A   1      39.986  28.364  31.431  1.00  0.00    -0.203 F 
ATOM     66  F   UNL A   1      36.635  30.296  27.583  1.00  0.00    -0.200 F 
ATOM     67  C   UNL A   1      36.989  29.581  29.805  1.00  0.00     0.200 A 
ATOM     68  F   UNL A   1      37.396  28.873  32.019  1.00  0.00    -0.200 F 
ATOM     69  F   UNL A   1      35.719  29.875  30.117  1.00  0.00    -0.200 F 
ENDBRANCH  45  59
BRANCH  46  70
ATOM     70  C   UNL A   1      48.976  26.825  26.314  1.00  0.00     0.064 A 
ATOM     71  C   UNL A   1      49.962  26.332  27.179  1.00  0.00     0.173 A 
ATOM     72  C   UNL A   1      49.308  26.966  24.958  1.00  0.00     0.173 A 
ATOM     73  F   UNL A   1      49.697  26.195  28.486  1.00  0.00    -0.203 F 
ATOM     74  C   UNL A   1      51.230  25.999  26.708  1.00  0.00     0.198 A 
ATOM     75  C   UNL A   1      50.568  26.607  24.483  1.00  0.00     0.198 A 
ATOM     76  F   UNL A   1      48.396  27.424  24.088  1.00  0.00    -0.203 F 
ATOM     77  F   UNL A   1      52.164  25.554  27.561  1.00  0.00    -0.200 F 
ATOM     78  C   UNL A   1      51.530  26.127  25.360  1.00  0.00     0.200 A 
ATOM     79  F   UNL A   1      50.845  26.715  23.177  1.00  0.00    -0.200 F 
ATOM     80  F   UNL A   1      52.743  25.789  24.905  1.00  0.00    -0.200 F 
ENDBRANCH  46  70
BRANCH  58  81
ATOM     81  C   UNL A   1      45.955  32.558  28.904  1.00  0.00     0.064 A 
ATOM     82  C   UNL A   1      45.912  33.596  27.961  1.00  0.00     0.173 A 
ATOM     83  C   UNL A   1      46.469  32.849  30.176  1.00  0.00     0.173 A 
ATOM     84  F   UNL A   1      45.445  33.366  26.724  1.00  0.00    -0.203 F 
ATOM     85  C   UNL A   1      46.387  34.868  28.274  1.00  0.00     0.198 A 
ATOM     86  C   UNL A   1      46.913  34.129  30.496  1.00  0.00     0.198 A 
ATOM     87  F   UNL A   1      46.527  31.894  31.117  1.00  0.00    -0.203 F 
ATOM     88  F   UNL A   1      46.381  35.831  27.341  1.00  0.00    -0.200 F 
ATOM     89  C   UNL A   1      46.879  35.135  29.542  1.00  0.00     0.200 A 
ATOM     90  F   UNL A   1      47.375  34.389  31.726  1.00  0.00    -0.200 F 
ATOM     91  F   UNL A   1      47.328  36.362  29.844  1.00  0.00    -0.200 F 
ENDBRANCH  58  81
ENDBRANCH  32  33
ENDBRANCH  24  27
ENDBRANCH  22  23
ENDBRANCH  21  22
ENDBRANCH   1  21
TORSDOF 13
ENDMDL
