MODEL 1
REMARK VINA RESULT:     -11.4      0.000      0.000
REMARK SMILES COCC[N@H+](C)[C@H](C(=O)NCCCNC(=O)c1ccc(-c2c3nc(c(-c4c(F)c(F)c(F)c(F)c4F)c4ccc([nH]4)c(-c4c(F)c(F)c(F)c(F)c4F)c4nc(c(-c5c(F)c(F)c(F)c(F)c5F)c5ccc2[nH]5)C=C4)C=C3)cc1)c1ccc(OC)nc1
REMARK SMILES IDX 11 1 10 2 8 3 9 4 7 6 5 7 6 8 4 10 3 11 2 12 1 13 80 14
REMARK SMILES IDX 81 15 87 16 82 17 86 18 83 19 84 20 85 21 12 22 13 23 14 24
REMARK SMILES IDX 15 25 16 27 17 28 18 29 79 30 19 31 78 32 20 33 21 34 22 35
REMARK SMILES IDX 72 36 23 37 77 38 71 39 73 40 24 41 76 42 70 43 69 44 25 46
REMARK SMILES IDX 57 47 37 48 56 49 38 50 41 51 55 52 74 53 39 54 40 55 54 57
REMARK SMILES IDX 75 58 42 59 26 60 27 61 35 62 28 63 29 64 33 65 36 66 30 67
REMARK SMILES IDX 31 68 34 69 32 70 58 71 59 72 67 73 60 74 61 75 65 76 68 77
REMARK SMILES IDX 62 78 63 79 66 80 64 81 43 82 44 83 52 84 45 85 46 86 50 87
REMARK SMILES IDX 53 88 47 89 48 90 51 91 49 92
REMARK H PARENT 10 5 5 9 14 26 73 45 41 56
REMARK Flexibility Score: inf
ROOT
ATOM      1  C   UNL A   1      37.353  21.419  24.770  1.00  0.00     0.118 C 
ENDROOT
BRANCH   1   2
ATOM      2  N   UNL A   1      36.513  21.749  25.901  1.00  0.00    -0.351 N 
ATOM      3  C   UNL A   1      35.149  21.771  25.991  1.00  0.00     0.283 C 
ATOM      4  O   UNL A   1      34.679  21.926  27.126  1.00  0.00    -0.268 OA
ATOM      5  H   UNL A   1      36.993  21.994  26.724  1.00  0.00     0.163 HD
BRANCH   3   6
ATOM      6  C   UNL A   1      34.201  21.627  24.763  1.00  0.00     0.306 C 
BRANCH   6   7
ATOM      7  N   UNL A   1      33.011  20.778  25.113  1.00  0.00    -0.321 N 
ATOM      8  C   UNL A   1      31.769  21.524  25.365  1.00  0.00     0.333 C 
ATOM      9  H   UNL A   1      33.303  20.337  25.984  1.00  0.00     0.348 HD
BRANCH   7  10
ATOM     10  C   UNL A   1      32.711  19.754  24.073  1.00  0.00     0.291 C 
BRANCH  10  11
ATOM     11  C   UNL A   1      33.051  18.275  24.354  1.00  0.00     0.221 C 
BRANCH  11  12
ATOM     12  O   UNL A   1      32.218  17.682  25.348  1.00  0.00    -0.379 OA
ATOM     13  C   UNL A   1      32.545  16.328  25.613  1.00  0.00     0.195 C 
ENDBRANCH  11  12
ENDBRANCH  10  11
ENDBRANCH   7  10
ENDBRANCH   6   7
BRANCH   6  14
ATOM     14  C   UNL A   1      33.967  22.923  23.995  1.00  0.00     0.038 A 
ATOM     15  C   UNL A   1      34.134  24.161  24.625  1.00  0.00     0.017 A 
ATOM     16  C   UNL A   1      33.630  22.984  22.651  1.00  0.00     0.125 A 
ATOM     17  C   UNL A   1      34.020  25.351  23.899  1.00  0.00     0.069 A 
ATOM     18  N   UNL A   1      33.542  24.115  21.919  1.00  0.00    -0.222 NA
ATOM     19  C   UNL A   1      33.756  25.285  22.540  1.00  0.00     0.212 A 
BRANCH  19  20
ATOM     20  O   UNL A   1      33.699  26.338  21.679  1.00  0.00    -0.481 OA
ATOM     21  C   UNL A   1      33.661  27.636  22.242  1.00  0.00     0.280 C 
ENDBRANCH  19  20
ENDBRANCH   6  14
ENDBRANCH   3   6
ENDBRANCH   1   2
BRANCH   1  22
ATOM     22  C   UNL A   1      38.190  20.171  24.950  1.00  0.00     0.042 C 
BRANCH  22  23
ATOM     23  C   UNL A   1      39.248  20.320  26.029  1.00  0.00     0.118 C 
BRANCH  23  24
ATOM     24  N   UNL A   1      40.248  19.253  26.002  1.00  0.00    -0.352 N 
ATOM     25  C   UNL A   1      41.622  19.299  26.054  1.00  0.00     0.251 C 
ATOM     26  H   UNL A   1      39.873  18.345  25.934  1.00  0.00     0.163 HD
ATOM     27  O   UNL A   1      42.281  18.296  25.819  1.00  0.00    -0.269 OA
BRANCH  25  28
ATOM     28  C   UNL A   1      42.303  20.571  26.372  1.00  0.00     0.039 A 
ATOM     29  C   UNL A   1      42.794  21.368  25.335  1.00  0.00     0.014 A 
ATOM     30  C   UNL A   1      42.444  20.979  27.697  1.00  0.00     0.014 A 
ATOM     31  C   UNL A   1      43.333  22.623  25.627  1.00  0.00     0.010 A 
ATOM     32  C   UNL A   1      42.858  22.273  27.975  1.00  0.00     0.010 A 
ATOM     33  C   UNL A   1      43.315  23.107  26.945  1.00  0.00    -0.014 A 
BRANCH  33  34
ATOM     34  C   UNL A   1      43.783  24.470  27.297  1.00  0.00     0.031 A 
ATOM     35  C   UNL A   1      42.796  25.479  27.816  1.00  0.00     0.074 A 
ATOM     36  C   UNL A   1      45.057  24.828  27.046  1.00  0.00     0.049 A 
ATOM     37  N   UNL A   1      42.953  26.761  28.027  1.00  0.00    -0.248 NA
ATOM     38  C   UNL A   1      41.434  24.991  28.089  1.00  0.00     0.031 C 
ATOM     39  C   UNL A   1      46.092  23.952  26.493  1.00  0.00     0.029 A 
ATOM     40  N   UNL A   1      45.694  26.034  27.204  1.00  0.00    -0.354 N 
ATOM     41  C   UNL A   1      41.708  27.230  28.426  1.00  0.00     0.074 A 
ATOM     42  C   UNL A   1      40.791  26.115  28.365  1.00  0.00     0.031 C 
ATOM     43  C   UNL A   1      47.239  24.641  26.380  1.00  0.00     0.029 A 
ATOM     44  C   UNL A   1      47.009  26.019  26.804  1.00  0.00     0.049 A 
ATOM     45  H   UNL A   1      45.251  26.833  27.569  1.00  0.00     0.167 HD
ATOM     46  C   UNL A   1      41.368  28.474  28.835  1.00  0.00     0.037 A 
ATOM     47  C   UNL A   1      47.919  27.010  26.769  1.00  0.00     0.037 A 
ATOM     48  C   UNL A   1      42.298  29.567  28.933  1.00  0.00     0.049 A 
ATOM     49  C   UNL A   1      47.516  28.386  27.230  1.00  0.00     0.074 A 
ATOM     50  C   UNL A   1      42.075  30.848  29.404  1.00  0.00     0.029 A 
ATOM     51  N   UNL A   1      43.631  29.503  28.554  1.00  0.00    -0.354 N 
ATOM     52  N   UNL A   1      46.354  28.803  27.671  1.00  0.00    -0.248 NA
ATOM     53  C   UNL A   1      48.551  29.427  27.192  1.00  0.00     0.031 C 
ATOM     54  C   UNL A   1      43.261  31.575  29.264  1.00  0.00     0.029 A 
ATOM     55  C   UNL A   1      44.238  30.730  28.759  1.00  0.00     0.049 A 
ATOM     56  H   UNL A   1      44.078  28.704  28.193  1.00  0.00     0.167 HD
ATOM     57  C   UNL A   1      46.525  30.142  27.994  1.00  0.00     0.074 A 
ATOM     58  C   UNL A   1      47.908  30.466  27.707  1.00  0.00     0.031 C 
ATOM     59  C   UNL A   1      45.622  31.024  28.484  1.00  0.00     0.037 A 
BRANCH  46  60
ATOM     60  C   UNL A   1      39.935  28.716  29.215  1.00  0.00     0.064 A 
ATOM     61  C   UNL A   1      39.469  28.488  30.519  1.00  0.00     0.173 A 
ATOM     62  C   UNL A   1      39.022  29.209  28.271  1.00  0.00     0.173 A 
ATOM     63  F   UNL A   1      40.298  28.004  31.458  1.00  0.00    -0.203 F 
ATOM     64  C   UNL A   1      38.136  28.711  30.855  1.00  0.00     0.198 A 
ATOM     65  C   UNL A   1      37.698  29.465  28.619  1.00  0.00     0.198 A 
ATOM     66  F   UNL A   1      39.415  29.449  27.010  1.00  0.00    -0.203 F 
ATOM     67  F   UNL A   1      37.703  28.430  32.091  1.00  0.00    -0.200 F 
ATOM     68  C   UNL A   1      37.254  29.207  29.907  1.00  0.00     0.200 A 
ATOM     69  F   UNL A   1      36.850  29.958  27.706  1.00  0.00    -0.200 F 
ATOM     70  F   UNL A   1      35.974  29.429  30.234  1.00  0.00    -0.200 F 
ENDBRANCH  46  60
BRANCH  47  71
ATOM     71  C   UNL A   1      49.304  26.734  26.303  1.00  0.00     0.064 A 
ATOM     72  C   UNL A   1      49.672  26.971  24.971  1.00  0.00     0.173 A 
ATOM     73  C   UNL A   1      50.284  26.229  27.170  1.00  0.00     0.173 A 
ATOM     74  F   UNL A   1      48.766  27.438  24.099  1.00  0.00    -0.203 F 
ATOM     75  C   UNL A   1      50.960  26.693  24.519  1.00  0.00     0.198 A 
ATOM     76  C   UNL A   1      51.580  25.979  26.724  1.00  0.00     0.198 A 
ATOM     77  F   UNL A   1      49.986  25.991  28.455  1.00  0.00    -0.203 F 
ATOM     78  F   UNL A   1      51.272  26.885  23.230  1.00  0.00    -0.200 F 
ATOM     79  C   UNL A   1      51.915  26.202  25.396  1.00  0.00     0.200 A 
ATOM     80  F   UNL A   1      52.504  25.520  27.579  1.00  0.00    -0.200 F 
ATOM     81  F   UNL A   1      53.155  25.939  24.962  1.00  0.00    -0.200 F 
ENDBRANCH  47  71
BRANCH  59  82
ATOM     82  C   UNL A   1      46.103  32.413  28.789  1.00  0.00     0.064 A 
ATOM     83  C   UNL A   1      46.051  33.437  27.834  1.00  0.00     0.173 A 
ATOM     84  C   UNL A   1      46.558  32.734  30.078  1.00  0.00     0.173 A 
ATOM     85  F   UNL A   1      45.638  33.176  26.584  1.00  0.00    -0.203 F 
ATOM     86  C   UNL A   1      46.453  34.731  28.153  1.00  0.00     0.198 A 
ATOM     87  C   UNL A   1      46.929  34.035  30.402  1.00  0.00     0.198 A 
ATOM     88  F   UNL A   1      46.619  31.790  31.029  1.00  0.00    -0.203 F 
ATOM     89  F   UNL A   1      46.432  35.687  27.214  1.00  0.00    -0.200 F 
ATOM     90  C   UNL A   1      46.881  35.032  29.438  1.00  0.00     0.200 A 
ATOM     91  F   UNL A   1      47.324  34.327  31.648  1.00  0.00    -0.200 F 
ATOM     92  F   UNL A   1      47.251  36.282  29.748  1.00  0.00    -0.200 F 
ENDBRANCH  59  82
ENDBRANCH  33  34
ENDBRANCH  25  28
ENDBRANCH  23  24
ENDBRANCH  22  23
ENDBRANCH   1  22
TORSDOF 16
ENDMDL
MODEL 2
REMARK VINA RESULT:     -11.4      6.111     11.584
REMARK SMILES COCC[N@H+](C)[C@H](C(=O)NCCCNC(=O)c1ccc(-c2c3nc(c(-c4c(F)c(F)c(F)c(F)c4F)c4ccc([nH]4)c(-c4c(F)c(F)c(F)c(F)c4F)c4nc(c(-c5c(F)c(F)c(F)c(F)c5F)c5ccc2[nH]5)C=C4)C=C3)cc1)c1ccc(OC)nc1
REMARK SMILES IDX 11 1 10 2 8 3 9 4 7 6 5 7 6 8 4 10 3 11 2 12 1 13 80 14
REMARK SMILES IDX 81 15 87 16 82 17 86 18 83 19 84 20 85 21 12 22 13 23 14 24
REMARK SMILES IDX 15 25 16 27 17 28 18 29 79 30 19 31 78 32 20 33 21 34 22 35
REMARK SMILES IDX 72 36 23 37 77 38 71 39 73 40 24 41 76 42 70 43 69 44 25 46
REMARK SMILES IDX 57 47 37 48 56 49 38 50 41 51 55 52 74 53 39 54 40 55 54 57
REMARK SMILES IDX 75 58 42 59 26 60 27 61 35 62 28 63 29 64 33 65 36 66 30 67
REMARK SMILES IDX 31 68 34 69 32 70 58 71 59 72 67 73 60 74 61 75 65 76 68 77
REMARK SMILES IDX 62 78 63 79 66 80 64 81 43 82 44 83 52 84 45 85 46 86 50 87
REMARK SMILES IDX 53 88 47 89 48 90 51 91 49 92
REMARK H PARENT 10 5 5 9 14 26 73 45 41 56
REMARK Flexibility Score: inf
ROOT
ATOM      1  C   UNL A   1      31.751  30.439  26.570  1.00  0.00     0.118 C 
ENDROOT
BRANCH   1   2
ATOM      2  N   UNL A   1      32.746  30.004  25.613  1.00  0.00    -0.351 N 
ATOM      3  C   UNL A   1      32.613  29.157  24.548  1.00  0.00     0.283 C 
ATOM      4  O   UNL A   1      33.586  29.083  23.785  1.00  0.00    -0.268 OA
ATOM      5  H   UNL A   1      33.648  30.373  25.749  1.00  0.00     0.163 HD
BRANCH   3   6
ATOM      6  C   UNL A   1      31.338  28.304  24.279  1.00  0.00     0.306 C 
BRANCH   6   7
ATOM      7  N   UNL A   1      30.993  28.319  22.816  1.00  0.00    -0.321 N 
ATOM      8  C   UNL A   1      31.184  27.038  22.120  1.00  0.00     0.333 C 
ATOM      9  H   UNL A   1      31.660  28.992  22.439  1.00  0.00     0.348 HD
BRANCH   7  10
ATOM     10  C   UNL A   1      29.593  28.759  22.561  1.00  0.00     0.291 C 
BRANCH  10  11
ATOM     11  C   UNL A   1      29.121  30.122  23.109  1.00  0.00     0.221 C 
BRANCH  11  12
ATOM     12  O   UNL A   1      27.906  30.580  22.518  1.00  0.00    -0.379 OA
ATOM     13  C   UNL A   1      28.037  30.878  21.138  1.00  0.00     0.195 C 
ENDBRANCH  11  12
ENDBRANCH  10  11
ENDBRANCH   7  10
ENDBRANCH   6   7
BRANCH   6  14
ATOM     14  C   UNL A   1      31.307  26.971  25.018  1.00  0.00     0.038 A 
ATOM     15  C   UNL A   1      32.497  26.362  25.431  1.00  0.00     0.017 A 
ATOM     16  C   UNL A   1      30.145  26.300  25.369  1.00  0.00     0.125 A 
ATOM     17  C   UNL A   1      32.469  25.191  26.197  1.00  0.00     0.069 A 
ATOM     18  N   UNL A   1      30.087  25.186  26.132  1.00  0.00    -0.222 NA
ATOM     19  C   UNL A   1      31.243  24.653  26.556  1.00  0.00     0.212 A 
BRANCH  19  20
ATOM     20  O   UNL A   1      31.042  23.576  27.362  1.00  0.00    -0.481 OA
ATOM     21  C   UNL A   1      29.802  22.900  27.247  1.00  0.00     0.280 C 
ENDBRANCH  19  20
ENDBRANCH   6  14
ENDBRANCH   3   6
ENDBRANCH   1   2
BRANCH   1  22
ATOM     22  C   UNL A   1      31.570  31.939  26.655  1.00  0.00     0.042 C 
BRANCH  22  23
ATOM     23  C   UNL A   1      32.718  32.632  27.369  1.00  0.00     0.118 C 
BRANCH  23  24
ATOM     24  N   UNL A   1      32.451  34.044  27.645  1.00  0.00    -0.352 N 
ATOM     25  C   UNL A   1      32.982  34.900  28.582  1.00  0.00     0.251 C 
ATOM     26  H   UNL A   1      31.773  34.452  27.059  1.00  0.00     0.163 HD
ATOM     27  O   UNL A   1      32.476  35.996  28.772  1.00  0.00    -0.269 OA
BRANCH  25  28
ATOM     28  C   UNL A   1      34.155  34.481  29.377  1.00  0.00     0.039 A 
ATOM     29  C   UNL A   1      33.968  33.947  30.654  1.00  0.00     0.014 A 
ATOM     30  C   UNL A   1      35.440  34.606  28.852  1.00  0.00     0.014 A 
ATOM     31  C   UNL A   1      35.064  33.444  31.359  1.00  0.00     0.010 A 
ATOM     32  C   UNL A   1      36.505  33.992  29.493  1.00  0.00     0.010 A 
ATOM     33  C   UNL A   1      36.332  33.412  30.757  1.00  0.00    -0.014 A 
BRANCH  33  34
ATOM     34  C   UNL A   1      37.510  32.800  31.420  1.00  0.00     0.031 A 
ATOM     35  C   UNL A   1      38.222  31.656  30.752  1.00  0.00     0.074 A 
ATOM     36  C   UNL A   1      37.863  33.195  32.657  1.00  0.00     0.049 A 
ATOM     37  N   UNL A   1      39.161  30.875  31.222  1.00  0.00    -0.248 NA
ATOM     38  C   UNL A   1      37.787  31.314  29.387  1.00  0.00     0.031 C 
ATOM     39  C   UNL A   1      37.214  34.257  33.429  1.00  0.00     0.029 A 
ATOM     40  N   UNL A   1      38.847  32.732  33.496  1.00  0.00    -0.354 N 
ATOM     41  C   UNL A   1      39.402  29.938  30.226  1.00  0.00     0.074 A 
ATOM     42  C   UNL A   1      38.470  30.204  29.154  1.00  0.00     0.031 C 
ATOM     43  C   UNL A   1      37.830  34.381  34.615  1.00  0.00     0.029 A 
ATOM     44  C   UNL A   1      38.883  33.374  34.711  1.00  0.00     0.049 A 
ATOM     45  H   UNL A   1      39.467  32.008  33.251  1.00  0.00     0.167 HD
ATOM     46  C   UNL A   1      40.339  28.962  30.196  1.00  0.00     0.037 A 
ATOM     47  C   UNL A   1      39.668  33.164  35.783  1.00  0.00     0.037 A 
ATOM     48  C   UNL A   1      41.290  28.732  31.250  1.00  0.00     0.049 A 
ATOM     49  C   UNL A   1      40.703  32.071  35.726  1.00  0.00     0.074 A 
ATOM     50  C   UNL A   1      42.327  27.818  31.291  1.00  0.00     0.029 A 
ATOM     51  N   UNL A   1      41.319  29.429  32.449  1.00  0.00    -0.354 N 
ATOM     52  N   UNL A   1      40.970  31.236  34.752  1.00  0.00    -0.248 NA
ATOM     53  C   UNL A   1      41.548  31.896  36.914  1.00  0.00     0.031 C 
ATOM     54  C   UNL A   1      42.954  27.928  32.536  1.00  0.00     0.029 A 
ATOM     55  C   UNL A   1      42.343  28.949  33.248  1.00  0.00     0.049 A 
ATOM     56  H   UNL A   1      40.704  30.157  32.696  1.00  0.00     0.167 HD
ATOM     57  C   UNL A   1      42.031  30.458  35.195  1.00  0.00     0.074 A 
ATOM     58  C   UNL A   1      42.366  30.929  36.522  1.00  0.00     0.031 C 
ATOM     59  C   UNL A   1      42.672  29.447  34.560  1.00  0.00     0.037 A 
BRANCH  46  60
ATOM     60  C   UNL A   1      40.384  28.076  28.984  1.00  0.00     0.064 A 
ATOM     61  C   UNL A   1      39.667  26.871  28.924  1.00  0.00     0.173 A 
ATOM     62  C   UNL A   1      41.131  28.450  27.857  1.00  0.00     0.173 A 
ATOM     63  F   UNL A   1      38.947  26.460  29.980  1.00  0.00    -0.203 F 
ATOM     64  C   UNL A   1      39.723  26.057  27.795  1.00  0.00     0.198 A 
ATOM     65  C   UNL A   1      41.156  27.651  26.716  1.00  0.00     0.198 A 
ATOM     66  F   UNL A   1      41.831  29.594  27.857  1.00  0.00    -0.203 F 
ATOM     67  F   UNL A   1      39.076  24.884  27.785  1.00  0.00    -0.200 F 
ATOM     68  C   UNL A   1      40.461  26.451  26.690  1.00  0.00     0.200 A 
ATOM     69  F   UNL A   1      41.858  28.041  25.643  1.00  0.00    -0.200 F 
ATOM     70  F   UNL A   1      40.507  25.672  25.601  1.00  0.00    -0.200 F 
ENDBRANCH  46  60
BRANCH  47  71
ATOM     71  C   UNL A   1      39.523  34.017  36.992  1.00  0.00     0.064 A 
ATOM     72  C   UNL A   1      38.770  33.581  38.092  1.00  0.00     0.173 A 
ATOM     73  C   UNL A   1      40.127  35.281  37.077  1.00  0.00     0.173 A 
ATOM     74  F   UNL A   1      38.159  32.388  38.053  1.00  0.00    -0.203 F 
ATOM     75  C   UNL A   1      38.607  34.383  39.219  1.00  0.00     0.198 A 
ATOM     76  C   UNL A   1      39.988  36.070  38.217  1.00  0.00     0.198 A 
ATOM     77  F   UNL A   1      40.864  35.743  36.056  1.00  0.00    -0.203 F 
ATOM     78  F   UNL A   1      37.844  33.961  40.236  1.00  0.00    -0.200 F 
ATOM     79  C   UNL A   1      39.221  35.625  39.283  1.00  0.00     0.200 A 
ATOM     80  F   UNL A   1      40.597  37.263  38.282  1.00  0.00    -0.200 F 
ATOM     81  F   UNL A   1      39.069  36.395  40.369  1.00  0.00    -0.200 F 
ENDBRANCH  47  71
BRANCH  59  82
ATOM     82  C   UNL A   1      43.831  28.809  35.267  1.00  0.00     0.064 A 
ATOM     83  C   UNL A   1      45.146  29.258  35.083  1.00  0.00     0.173 A 
ATOM     84  C   UNL A   1      43.610  27.779  36.195  1.00  0.00     0.173 A 
ATOM     85  F   UNL A   1      45.409  30.231  34.196  1.00  0.00    -0.203 F 
ATOM     86  C   UNL A   1      46.201  28.688  35.789  1.00  0.00     0.198 A 
ATOM     87  C   UNL A   1      44.663  27.233  36.923  1.00  0.00     0.198 A 
ATOM     88  F   UNL A   1      42.369  27.319  36.413  1.00  0.00    -0.203 F 
ATOM     89  F   UNL A   1      47.455  29.106  35.569  1.00  0.00    -0.200 F 
ATOM     90  C   UNL A   1      45.958  27.684  36.715  1.00  0.00     0.200 A 
ATOM     91  F   UNL A   1      44.424  26.276  37.829  1.00  0.00    -0.200 F 
ATOM     92  F   UNL A   1      46.973  27.148  37.407  1.00  0.00    -0.200 F 
ENDBRANCH  59  82
ENDBRANCH  33  34
ENDBRANCH  25  28
ENDBRANCH  23  24
ENDBRANCH  22  23
ENDBRANCH   1  22
TORSDOF 16
ENDMDL
MODEL 3
REMARK VINA RESULT:     -11.4      6.011     11.602
REMARK SMILES COCC[N@H+](C)[C@H](C(=O)NCCCNC(=O)c1ccc(-c2c3nc(c(-c4c(F)c(F)c(F)c(F)c4F)c4ccc([nH]4)c(-c4c(F)c(F)c(F)c(F)c4F)c4nc(c(-c5c(F)c(F)c(F)c(F)c5F)c5ccc2[nH]5)C=C4)C=C3)cc1)c1ccc(OC)nc1
REMARK SMILES IDX 11 1 10 2 8 3 9 4 7 6 5 7 6 8 4 10 3 11 2 12 1 13 80 14
REMARK SMILES IDX 81 15 87 16 82 17 86 18 83 19 84 20 85 21 12 22 13 23 14 24
REMARK SMILES IDX 15 25 16 27 17 28 18 29 79 30 19 31 78 32 20 33 21 34 22 35
REMARK SMILES IDX 72 36 23 37 77 38 71 39 73 40 24 41 76 42 70 43 69 44 25 46
REMARK SMILES IDX 57 47 37 48 56 49 38 50 41 51 55 52 74 53 39 54 40 55 54 57
REMARK SMILES IDX 75 58 42 59 26 60 27 61 35 62 28 63 29 64 33 65 36 66 30 67
REMARK SMILES IDX 31 68 34 69 32 70 58 71 59 72 67 73 60 74 61 75 65 76 68 77
REMARK SMILES IDX 62 78 63 79 66 80 64 81 43 82 44 83 52 84 45 85 46 86 50 87
REMARK SMILES IDX 53 88 47 89 48 90 51 91 49 92
REMARK H PARENT 10 5 5 9 14 26 73 45 41 56
REMARK Flexibility Score: inf
ROOT
ATOM      1  C   UNL A   1      31.777  30.422  26.668  1.00  0.00     0.118 C 
ENDROOT
BRANCH   1   2
ATOM      2  N   UNL A   1      32.751  30.049  25.665  1.00  0.00    -0.351 N 
ATOM      3  C   UNL A   1      32.616  29.210  24.594  1.00  0.00     0.283 C 
ATOM      4  O   UNL A   1      33.558  29.193  23.791  1.00  0.00    -0.268 OA
ATOM      5  H   UNL A   1      33.640  30.458  25.770  1.00  0.00     0.163 HD
BRANCH   3   6
ATOM      6  C   UNL A   1      31.373  28.300  24.364  1.00  0.00     0.306 C 
BRANCH   6   7
ATOM      7  N   UNL A   1      30.976  28.305  22.914  1.00  0.00    -0.321 N 
ATOM      8  C   UNL A   1      31.042  26.997  22.246  1.00  0.00     0.333 C 
ATOM      9  H   UNL A   1      31.679  28.915  22.495  1.00  0.00     0.348 HD
BRANCH   7  10
ATOM     10  C   UNL A   1      29.606  28.847  22.696  1.00  0.00     0.291 C 
BRANCH  10  11
ATOM     11  C   UNL A   1      29.440  30.241  22.056  1.00  0.00     0.221 C 
BRANCH  11  12
ATOM     12  O   UNL A   1      28.093  30.546  21.702  1.00  0.00    -0.379 OA
ATOM     13  C   UNL A   1      27.993  31.526  20.683  1.00  0.00     0.195 C 
ENDBRANCH  11  12
ENDBRANCH  10  11
ENDBRANCH   7  10
ENDBRANCH   6   7
BRANCH   6  14
ATOM     14  C   UNL A   1      31.430  26.963  25.095  1.00  0.00     0.038 A 
ATOM     15  C   UNL A   1      32.652  26.311  25.285  1.00  0.00     0.017 A 
ATOM     16  C   UNL A   1      30.328  26.329  25.650  1.00  0.00     0.125 A 
ATOM     17  C   UNL A   1      32.723  25.136  26.042  1.00  0.00     0.069 A 
ATOM     18  N   UNL A   1      30.370  25.213  26.409  1.00  0.00    -0.222 NA
ATOM     19  C   UNL A   1      31.564  24.637  26.616  1.00  0.00     0.212 A 
BRANCH  19  20
ATOM     20  O   UNL A   1      31.475  23.561  27.445  1.00  0.00    -0.481 OA
ATOM     21  C   UNL A   1      32.612  22.724  27.547  1.00  0.00     0.280 C 
ENDBRANCH  19  20
ENDBRANCH   6  14
ENDBRANCH   3   6
ENDBRANCH   1   2
BRANCH   1  22
ATOM     22  C   UNL A   1      31.544  31.912  26.797  1.00  0.00     0.042 C 
BRANCH  22  23
ATOM     23  C   UNL A   1      32.751  32.652  27.346  1.00  0.00     0.118 C 
BRANCH  23  24
ATOM     24  N   UNL A   1      32.475  34.058  27.641  1.00  0.00    -0.352 N 
ATOM     25  C   UNL A   1      33.004  34.906  28.587  1.00  0.00     0.251 C 
ATOM     26  H   UNL A   1      31.793  34.469  27.062  1.00  0.00     0.163 HD
ATOM     27  O   UNL A   1      32.491  35.996  28.792  1.00  0.00    -0.269 OA
BRANCH  25  28
ATOM     28  C   UNL A   1      34.183  34.486  29.372  1.00  0.00     0.039 A 
ATOM     29  C   UNL A   1      34.005  33.944  30.647  1.00  0.00     0.014 A 
ATOM     30  C   UNL A   1      35.464  34.616  28.840  1.00  0.00     0.014 A 
ATOM     31  C   UNL A   1      35.106  33.441  31.343  1.00  0.00     0.010 A 
ATOM     32  C   UNL A   1      36.534  34.001  29.470  1.00  0.00     0.010 A 
ATOM     33  C   UNL A   1      36.371  33.414  30.733  1.00  0.00    -0.014 A 
BRANCH  33  34
ATOM     34  C   UNL A   1      37.554  32.802  31.385  1.00  0.00     0.031 A 
ATOM     35  C   UNL A   1      38.260  31.658  30.710  1.00  0.00     0.074 A 
ATOM     36  C   UNL A   1      37.918  33.196  32.620  1.00  0.00     0.049 A 
ATOM     37  N   UNL A   1      39.203  30.876  31.172  1.00  0.00    -0.248 NA
ATOM     38  C   UNL A   1      37.813  31.317  29.349  1.00  0.00     0.031 C 
ATOM     39  C   UNL A   1      37.275  34.257  33.398  1.00  0.00     0.029 A 
ATOM     40  N   UNL A   1      38.909  32.731  33.450  1.00  0.00    -0.354 N 
ATOM     41  C   UNL A   1      39.435  29.940  30.173  1.00  0.00     0.074 A 
ATOM     42  C   UNL A   1      38.494  30.207  29.109  1.00  0.00     0.031 C 
ATOM     43  C   UNL A   1      37.902  34.379  34.579  1.00  0.00     0.029 A 
ATOM     44  C   UNL A   1      38.956  33.373  34.664  1.00  0.00     0.049 A 
ATOM     45  H   UNL A   1      39.527  32.008  33.199  1.00  0.00     0.167 HD
ATOM     46  C   UNL A   1      40.371  28.964  30.134  1.00  0.00     0.037 A 
ATOM     47  C   UNL A   1      39.750  33.161  35.730  1.00  0.00     0.037 A 
ATOM     48  C   UNL A   1      41.332  28.733  31.179  1.00  0.00     0.049 A 
ATOM     49  C   UNL A   1      40.784  32.069  35.663  1.00  0.00     0.074 A 
ATOM     50  C   UNL A   1      42.369  27.819  31.211  1.00  0.00     0.029 A 
ATOM     51  N   UNL A   1      41.371  29.429  32.379  1.00  0.00    -0.354 N 
ATOM     52  N   UNL A   1      41.042  31.234  34.686  1.00  0.00    -0.248 NA
ATOM     53  C   UNL A   1      41.639  31.892  36.844  1.00  0.00     0.031 C 
ATOM     54  C   UNL A   1      43.006  27.927  32.450  1.00  0.00     0.029 A 
ATOM     55  C   UNL A   1      42.402  28.948  33.168  1.00  0.00     0.049 A 
ATOM     56  H   UNL A   1      40.758  30.157  32.631  1.00  0.00     0.167 HD
ATOM     57  C   UNL A   1      42.107  30.455  35.119  1.00  0.00     0.074 A 
ATOM     58  C   UNL A   1      42.454  30.925  36.444  1.00  0.00     0.031 C 
ATOM     59  C   UNL A   1      42.742  29.445  34.477  1.00  0.00     0.037 A 
BRANCH  46  60
ATOM     60  C   UNL A   1      40.406  28.079  28.921  1.00  0.00     0.064 A 
ATOM     61  C   UNL A   1      41.169  28.408  27.789  1.00  0.00     0.173 A 
ATOM     62  C   UNL A   1      39.691  26.872  28.899  1.00  0.00     0.173 A 
ATOM     63  F   UNL A   1      41.862  29.557  27.752  1.00  0.00    -0.203 F 
ATOM     64  C   UNL A   1      41.187  27.581  26.669  1.00  0.00     0.198 A 
ATOM     65  C   UNL A   1      39.740  26.030  27.791  1.00  0.00     0.198 A 
ATOM     66  F   UNL A   1      38.949  26.505  29.955  1.00  0.00    -0.203 F 
ATOM     67  F   UNL A   1      41.876  27.946  25.580  1.00  0.00    -0.200 F 
ATOM     68  C   UNL A   1      40.479  26.389  26.674  1.00  0.00     0.200 A 
ATOM     69  F   UNL A   1      39.067  24.871  27.803  1.00  0.00    -0.200 F 
ATOM     70  F   UNL A   1      40.504  25.589  25.599  1.00  0.00    -0.200 F 
ENDBRANCH  46  60
BRANCH  47  71
ATOM     71  C   UNL A   1      39.615  34.014  36.941  1.00  0.00     0.064 A 
ATOM     72  C   UNL A   1      38.844  33.591  38.033  1.00  0.00     0.173 A 
ATOM     73  C   UNL A   1      40.247  35.263  37.034  1.00  0.00     0.173 A 
ATOM     74  F   UNL A   1      38.205  32.413  37.985  1.00  0.00    -0.203 F 
ATOM     75  C   UNL A   1      38.691  34.394  39.162  1.00  0.00     0.198 A 
ATOM     76  C   UNL A   1      40.119  36.051  38.176  1.00  0.00     0.198 A 
ATOM     77  F   UNL A   1      41.002  35.711  36.021  1.00  0.00    -0.203 F 
ATOM     78  F   UNL A   1      37.910  33.986  40.171  1.00  0.00    -0.200 F 
ATOM     79  C   UNL A   1      39.333  35.620  39.235  1.00  0.00     0.200 A 
ATOM     80  F   UNL A   1      40.754  37.229  38.250  1.00  0.00    -0.200 F 
ATOM     81  F   UNL A   1      39.190  36.390  40.323  1.00  0.00    -0.200 F 
ENDBRANCH  47  71
BRANCH  59  82
ATOM     82  C   UNL A   1      43.907  28.806  35.175  1.00  0.00     0.064 A 
ATOM     83  C   UNL A   1      43.742  27.715  36.039  1.00  0.00     0.173 A 
ATOM     84  C   UNL A   1      45.213  29.250  34.916  1.00  0.00     0.173 A 
ATOM     85  F   UNL A   1      42.511  27.262  36.328  1.00  0.00    -0.203 F 
ATOM     86  C   UNL A   1      44.841  27.102  36.634  1.00  0.00     0.198 A 
ATOM     87  C   UNL A   1      46.312  28.616  35.488  1.00  0.00     0.198 A 
ATOM     88  F   UNL A   1      45.425  30.286  34.090  1.00  0.00    -0.203 F 
ATOM     89  F   UNL A   1      44.658  26.086  37.488  1.00  0.00    -0.200 F 
ATOM     90  C   UNL A   1      46.124  27.546  36.350  1.00  0.00     0.200 A 
ATOM     91  F   UNL A   1      47.551  29.034  35.198  1.00  0.00    -0.200 F 
ATOM     92  F   UNL A   1      47.182  26.943  36.910  1.00  0.00    -0.200 F 
ENDBRANCH  59  82
ENDBRANCH  33  34
ENDBRANCH  25  28
ENDBRANCH  23  24
ENDBRANCH  22  23
ENDBRANCH   1  22
TORSDOF 16
ENDMDL
