MODEL 1
REMARK VINA RESULT:     -14.6      0.000      0.000
REMARK SMILES O=C(NCCCNC(=O)[C@H]1[C@H]2CC[C@H](CC2)[C@@H]1C(=O)Nc1sc2c(c1C(=O)N1CCCCC1)CCCC2)c1ccc(-c2c3nc(c(-c4c(F)c(F)c(F)c(F)c4F)c4ccc([nH]4)c(-c4c(F)c(F)c(F)c(F)c4F)c4nc(c(-c5c(F)c(F)c(F)c(F)c5F)c5ccc2[nH]5)C=C4)C=C3)cc1
REMARK SMILES IDX 5 1 4 2 3 3 1 4 2 5 38 7 39 8 100 9 40 10 99 11 41 12 42 13
REMARK SMILES IDX 43 14 93 15 44 16 98 17 92 18 94 19 45 20 97 21 91 22 90 23
REMARK SMILES IDX 46 25 78 26 58 27 77 28 59 29 62 30 76 31 95 32 60 33 61 34
REMARK SMILES IDX 75 36 96 37 63 38 47 39 48 40 56 41 49 42 50 43 54 44 57 45
REMARK SMILES IDX 51 46 52 47 55 48 53 49 79 50 80 51 88 52 81 53 82 54 86 55
REMARK SMILES IDX 89 56 83 57 84 58 87 59 85 60 64 61 65 62 73 63 66 64 67 65
REMARK SMILES IDX 71 66 74 67 68 68 69 69 72 70 70 71 6 72 7 73 8 74 9 76
REMARK SMILES IDX 10 77 11 78 17 79 12 80 16 81 14 82 13 83 15 84 18 85 19 86
REMARK SMILES IDX 20 87 21 89 22 90 25 91 23 92 24 93 37 94 34 95 36 96 35 97
REMARK SMILES IDX 26 98 27 99 28 100 29 101 33 102 30 103 32 104 31 105
REMARK H PARENT 3 6 94 24 62 35 7 75 20 88
REMARK Flexibility Score: inf
ROOT
ATOM      1  C   UNL A   1      37.916  19.805  24.909  1.00  0.00     0.042 C 
ENDROOT
BRANCH   1   2
ATOM      2  C   UNL A   1      39.034  20.334  25.798  1.00  0.00     0.118 C 
BRANCH   2   3
ATOM      3  N   UNL A   1      40.059  19.318  25.993  1.00  0.00    -0.352 N 
ATOM      4  O   UNL A   1      42.138  18.472  25.860  1.00  0.00    -0.269 OA
ATOM      5  C   UNL A   1      41.423  19.453  26.058  1.00  0.00     0.251 C 
ATOM      6  H   UNL A   1      39.724  18.397  26.092  1.00  0.00     0.163 HD
BRANCH   5   7
ATOM      7  C   UNL A   1      42.044  20.759  26.377  1.00  0.00     0.039 A 
ATOM      8  C   UNL A   1      42.288  21.698  25.374  1.00  0.00     0.014 A 
ATOM      9  C   UNL A   1      42.284  21.095  27.714  1.00  0.00     0.014 A 
ATOM     10  C   UNL A   1      42.873  22.920  25.686  1.00  0.00     0.010 A 
ATOM     11  C   UNL A   1      42.774  22.364  28.040  1.00  0.00     0.010 A 
ATOM     12  C   UNL A   1      43.075  23.285  27.025  1.00  0.00    -0.014 A 
BRANCH  12  13
ATOM     13  C   UNL A   1      43.475  24.681  27.334  1.00  0.00     0.031 A 
ATOM     14  C   UNL A   1      42.503  25.663  27.912  1.00  0.00     0.074 A 
ATOM     15  C   UNL A   1      44.748  25.045  27.087  1.00  0.00     0.049 A 
ATOM     16  N   UNL A   1      42.695  26.917  28.237  1.00  0.00    -0.248 NA
ATOM     17  C   UNL A   1      41.132  25.186  28.144  1.00  0.00     0.031 C 
ATOM     18  C   UNL A   1      45.771  24.176  26.496  1.00  0.00     0.029 A 
ATOM     19  N   UNL A   1      45.409  26.225  27.308  1.00  0.00    -0.354 N 
ATOM     20  C   UNL A   1      41.470  27.385  28.689  1.00  0.00     0.074 A 
ATOM     21  C   UNL A   1      40.533  26.287  28.578  1.00  0.00     0.031 C 
ATOM     22  C   UNL A   1      46.935  24.836  26.442  1.00  0.00     0.029 A 
ATOM     23  C   UNL A   1      46.728  26.195  26.929  1.00  0.00     0.049 A 
ATOM     24  H   UNL A   1      44.979  27.020  27.701  1.00  0.00     0.167 HD
ATOM     25  C   UNL A   1      41.163  28.619  29.157  1.00  0.00     0.037 A 
ATOM     26  C   UNL A   1      47.665  27.159  26.943  1.00  0.00     0.037 A 
ATOM     27  C   UNL A   1      42.110  29.699  29.274  1.00  0.00     0.049 A 
ATOM     28  C   UNL A   1      47.297  28.516  27.466  1.00  0.00     0.074 A 
ATOM     29  C   UNL A   1      41.913  30.971  29.784  1.00  0.00     0.029 A 
ATOM     30  N   UNL A   1      43.438  29.634  28.869  1.00  0.00    -0.354 N 
ATOM     31  N   UNL A   1      46.147  28.933  27.934  1.00  0.00    -0.248 NA
ATOM     32  C   UNL A   1      48.353  29.536  27.460  1.00  0.00     0.031 C 
ATOM     33  C   UNL A   1      43.106  31.689  29.644  1.00  0.00     0.029 A 
ATOM     34  C   UNL A   1      44.062  30.852  29.092  1.00  0.00     0.049 A 
ATOM     35  H   UNL A   1      43.871  28.840  28.480  1.00  0.00     0.167 HD
ATOM     36  C   UNL A   1      46.336  30.260  28.282  1.00  0.00     0.074 A 
ATOM     37  C   UNL A   1      47.723  30.572  27.995  1.00  0.00     0.031 C 
ATOM     38  C   UNL A   1      45.440  31.143  28.788  1.00  0.00     0.037 A 
BRANCH  25  39
ATOM     39  C   UNL A   1      39.737  28.878  29.549  1.00  0.00     0.064 A 
ATOM     40  C   UNL A   1      39.272  28.634  30.850  1.00  0.00     0.173 A 
ATOM     41  C   UNL A   1      38.830  29.405  28.618  1.00  0.00     0.173 A 
ATOM     42  F   UNL A   1      40.095  28.121  31.777  1.00  0.00    -0.203 F 
ATOM     43  C   UNL A   1      37.945  28.880  31.195  1.00  0.00     0.198 A 
ATOM     44  C   UNL A   1      37.511  29.676  28.973  1.00  0.00     0.198 A 
ATOM     45  F   UNL A   1      39.223  29.664  27.362  1.00  0.00    -0.203 F 
ATOM     46  F   UNL A   1      37.510  28.593  32.431  1.00  0.00    -0.200 F 
ATOM     47  C   UNL A   1      37.067  29.405  30.259  1.00  0.00     0.200 A 
ATOM     48  F   UNL A   1      36.667  30.193  28.069  1.00  0.00    -0.200 F 
ATOM     49  F   UNL A   1      35.791  29.643  30.592  1.00  0.00    -0.200 F 
ENDBRANCH  25  39
BRANCH  26  50
ATOM     50  C   UNL A   1      49.026  26.860  26.431  1.00  0.00     0.064 A 
ATOM     51  C   UNL A   1      50.013  26.318  27.264  1.00  0.00     0.173 A 
ATOM     52  C   UNL A   1      49.350  27.063  25.081  1.00  0.00     0.173 A 
ATOM     53  F   UNL A   1      49.756  26.120  28.565  1.00  0.00    -0.203 F 
ATOM     54  C   UNL A   1      51.273  25.993  26.767  1.00  0.00     0.198 A 
ATOM     55  C   UNL A   1      50.600  26.712  24.578  1.00  0.00     0.198 A 
ATOM     56  F   UNL A   1      48.437  27.571  24.240  1.00  0.00    -0.203 F 
ATOM     57  F   UNL A   1      52.209  25.500  27.590  1.00  0.00    -0.200 F 
ATOM     58  C   UNL A   1      51.563  26.181  25.422  1.00  0.00     0.200 A 
ATOM     59  F   UNL A   1      50.867  26.875  23.275  1.00  0.00    -0.200 F 
ATOM     60  F   UNL A   1      52.768  25.850  24.942  1.00  0.00    -0.200 F 
ENDBRANCH  26  50
BRANCH  38  61
ATOM     61  C   UNL A   1      45.942  32.528  29.071  1.00  0.00     0.064 A 
ATOM     62  C   UNL A   1      45.839  33.552  28.117  1.00  0.00     0.173 A 
ATOM     63  C   UNL A   1      46.500  32.841  30.319  1.00  0.00     0.173 A 
ATOM     64  F   UNL A   1      45.330  33.294  26.903  1.00  0.00    -0.203 F 
ATOM     65  C   UNL A   1      46.298  34.835  28.397  1.00  0.00     0.198 A 
ATOM     66  C   UNL A   1      46.933  34.133  30.603  1.00  0.00     0.198 A 
ATOM     67  F   UNL A   1      46.617  31.897  31.264  1.00  0.00    -0.203 F 
ATOM     68  F   UNL A   1      46.232  35.788  27.456  1.00  0.00    -0.200 F 
ATOM     69  C   UNL A   1      46.839  35.127  29.640  1.00  0.00     0.200 A 
ATOM     70  F   UNL A   1      47.445  34.414  31.809  1.00  0.00    -0.200 F 
ATOM     71  F   UNL A   1      47.274  36.365  29.910  1.00  0.00    -0.200 F 
ENDBRANCH  38  61
ENDBRANCH  12  13
ENDBRANCH   5   7
ENDBRANCH   2   3
ENDBRANCH   1   2
BRANCH   1  72
ATOM     72  C   UNL A   1      36.658  20.663  25.005  1.00  0.00     0.117 C 
BRANCH  72  73
ATOM     73  N   UNL A   1      36.778  21.824  24.162  1.00  0.00    -0.356 N 
ATOM     74  C   UNL A   1      35.867  22.628  23.580  1.00  0.00     0.224 C 
ATOM     75  H   UNL A   1      37.709  22.080  23.972  1.00  0.00     0.163 HD
ATOM     76  O   UNL A   1      36.354  23.430  22.769  1.00  0.00    -0.275 OA
BRANCH  74  77
ATOM     77  C   UNL A   1      34.361  22.697  23.892  1.00  0.00     0.094 C 
ATOM     78  C   UNL A   1      33.670  21.865  25.017  1.00  0.00     0.002 C 
ATOM     79  C   UNL A   1      33.827  24.138  23.852  1.00  0.00     0.094 C 
ATOM     80  C   UNL A   1      33.702  22.492  26.416  1.00  0.00     0.005 C 
ATOM     81  C   UNL A   1      32.145  21.845  24.698  1.00  0.00     0.005 C 
ATOM     82  C   UNL A   1      32.730  24.291  24.954  1.00  0.00     0.002 C 
ATOM     83  C   UNL A   1      33.336  23.973  26.334  1.00  0.00     0.005 C 
ATOM     84  C   UNL A   1      31.596  23.285  24.680  1.00  0.00     0.005 C 
BRANCH  79  85
ATOM     85  C   UNL A   1      33.331  24.842  22.547  1.00  0.00     0.229 C 
ATOM     86  O   UNL A   1      33.343  24.156  21.509  1.00  0.00    -0.274 OA
ATOM     87  N   UNL A   1      32.707  26.047  22.431  1.00  0.00    -0.317 N 
ATOM     88  H   UNL A   1      32.138  26.130  21.632  1.00  0.00     0.170 HD
BRANCH  87  89
ATOM     89  C   UNL A   1      32.726  27.169  23.223  1.00  0.00     0.108 A 
ATOM     90  S   UNL A   1      34.215  27.931  23.542  1.00  0.00    -0.122 S 
ATOM     91  C   UNL A   1      31.669  27.979  23.641  1.00  0.00     0.078 A 
ATOM     92  C   UNL A   1      33.522  28.615  24.933  1.00  0.00     0.011 A 
ATOM     93  C   UNL A   1      32.151  28.757  24.782  1.00  0.00    -0.019 A 
ATOM     94  C   UNL A   1      34.314  28.958  26.154  1.00  0.00     0.047 C 
ATOM     95  C   UNL A   1      31.350  29.464  25.835  1.00  0.00     0.037 C 
ATOM     96  C   UNL A   1      33.365  29.092  27.356  1.00  0.00     0.006 C 
ATOM     97  C   UNL A   1      32.190  30.004  27.005  1.00  0.00     0.005 C 
BRANCH  91  98
ATOM     98  C   UNL A   1      30.304  27.740  23.140  1.00  0.00     0.257 C 
ATOM     99  O   UNL A   1      29.854  26.590  23.065  1.00  0.00    -0.269 OA
ATOM    100  N   UNL A   1      29.496  28.823  22.807  1.00  0.00    -0.339 N 
ATOM    101  C   UNL A   1      28.069  28.665  23.039  1.00  0.00     0.120 C 
ATOM    102  C   UNL A   1      29.838  29.756  21.737  1.00  0.00     0.120 C 
ATOM    103  C   UNL A   1      27.462  30.007  23.420  1.00  0.00     0.022 C 
ATOM    104  C   UNL A   1      29.185  31.128  21.945  1.00  0.00     0.022 C 
ATOM    105  C   UNL A   1      27.706  31.039  22.322  1.00  0.00     0.004 C 
ENDBRANCH  91  98
ENDBRANCH  87  89
ENDBRANCH  79  85
ENDBRANCH  74  77
ENDBRANCH  72  73
ENDBRANCH   1  72
TORSDOF 13
ENDMDL
MODEL 2
REMARK VINA RESULT:     -14.6      4.999     10.738
REMARK SMILES O=C(NCCCNC(=O)[C@H]1[C@H]2CC[C@H](CC2)[C@@H]1C(=O)Nc1sc2c(c1C(=O)N1CCCCC1)CCCC2)c1ccc(-c2c3nc(c(-c4c(F)c(F)c(F)c(F)c4F)c4ccc([nH]4)c(-c4c(F)c(F)c(F)c(F)c4F)c4nc(c(-c5c(F)c(F)c(F)c(F)c5F)c5ccc2[nH]5)C=C4)C=C3)cc1
REMARK SMILES IDX 5 1 4 2 3 3 1 4 2 5 38 7 39 8 100 9 40 10 99 11 41 12 42 13
REMARK SMILES IDX 43 14 93 15 44 16 98 17 92 18 94 19 45 20 97 21 91 22 90 23
REMARK SMILES IDX 46 25 78 26 58 27 77 28 59 29 62 30 76 31 95 32 60 33 61 34
REMARK SMILES IDX 75 36 96 37 63 38 47 39 48 40 56 41 49 42 50 43 54 44 57 45
REMARK SMILES IDX 51 46 52 47 55 48 53 49 79 50 80 51 88 52 81 53 82 54 86 55
REMARK SMILES IDX 89 56 83 57 84 58 87 59 85 60 64 61 65 62 73 63 66 64 67 65
REMARK SMILES IDX 71 66 74 67 68 68 69 69 72 70 70 71 6 72 7 73 8 74 9 76
REMARK SMILES IDX 10 77 11 78 17 79 12 80 16 81 14 82 13 83 15 84 18 85 19 86
REMARK SMILES IDX 20 87 21 89 22 90 25 91 23 92 24 93 37 94 34 95 36 96 35 97
REMARK SMILES IDX 26 98 27 99 28 100 29 101 33 102 30 103 32 104 31 105
REMARK H PARENT 3 6 94 24 62 35 7 75 20 88
REMARK Flexibility Score: inf
ROOT
ATOM      1  C   UNL A   1      31.405  31.696  26.439  1.00  0.00     0.042 C 
ENDROOT
BRANCH   1   2
ATOM      2  C   UNL A   1      32.605  32.218  27.217  1.00  0.00     0.118 C 
BRANCH   2   3
ATOM      3  N   UNL A   1      32.491  33.654  27.432  1.00  0.00    -0.352 N 
ATOM      4  O   UNL A   1      32.563  35.542  28.651  1.00  0.00    -0.269 OA
ATOM      5  C   UNL A   1      33.051  34.439  28.409  1.00  0.00     0.251 C 
ATOM      6  H   UNL A   1      31.929  34.133  26.780  1.00  0.00     0.163 HD
BRANCH   5   7
ATOM      7  C   UNL A   1      34.239  33.982  29.164  1.00  0.00     0.039 A 
ATOM      8  C   UNL A   1      34.110  33.094  30.233  1.00  0.00     0.014 A 
ATOM      9  C   UNL A   1      35.515  34.359  28.728  1.00  0.00     0.014 A 
ATOM     10  C   UNL A   1      35.234  32.673  30.934  1.00  0.00     0.010 A 
ATOM     11  C   UNL A   1      36.652  33.854  29.367  1.00  0.00     0.010 A 
ATOM     12  C   UNL A   1      36.518  33.009  30.479  1.00  0.00    -0.014 A 
BRANCH  12  13
ATOM     13  C   UNL A   1      37.693  32.352  31.103  1.00  0.00     0.031 A 
ATOM     14  C   UNL A   1      38.461  31.280  30.391  1.00  0.00     0.074 A 
ATOM     15  C   UNL A   1      38.062  32.751  32.336  1.00  0.00     0.049 A 
ATOM     16  N   UNL A   1      39.509  30.609  30.800  1.00  0.00    -0.248 NA
ATOM     17  C   UNL A   1      37.988  30.900  29.053  1.00  0.00     0.031 C 
ATOM     18  C   UNL A   1      37.365  33.765  33.133  1.00  0.00     0.029 A 
ATOM     19  N   UNL A   1      39.111  32.371  33.132  1.00  0.00    -0.354 N 
ATOM     20  C   UNL A   1      39.806  29.714  29.783  1.00  0.00     0.074 A 
ATOM     21  C   UNL A   1      38.816  29.911  28.745  1.00  0.00     0.031 C 
ATOM     22  C   UNL A   1      38.028  33.957  34.282  1.00  0.00     0.029 A 
ATOM     23  C   UNL A   1      39.155  33.034  34.334  1.00  0.00     0.049 A 
ATOM     24  H   UNL A   1      39.770  31.689  32.869  1.00  0.00     0.167 HD
ATOM     25  C   UNL A   1      40.818  28.814  29.726  1.00  0.00     0.037 A 
ATOM     26  C   UNL A   1      39.991  32.898  35.378  1.00  0.00     0.037 A 
ATOM     27  C   UNL A   1      41.804  28.638  30.762  1.00  0.00     0.049 A 
ATOM     28  C   UNL A   1      41.102  31.894  35.288  1.00  0.00     0.074 A 
ATOM     29  C   UNL A   1      42.899  27.792  30.779  1.00  0.00     0.029 A 
ATOM     30  N   UNL A   1      41.810  29.321  31.972  1.00  0.00    -0.354 N 
ATOM     31  N   UNL A   1      41.401  31.085  34.302  1.00  0.00    -0.248 NA
ATOM     32  C   UNL A   1      41.988  31.781  36.452  1.00  0.00     0.031 C 
ATOM     33  C   UNL A   1      43.539  27.927  32.016  1.00  0.00     0.029 A 
ATOM     34  C   UNL A   1      42.873  28.894  32.753  1.00  0.00     0.049 A 
ATOM     35  H   UNL A   1      41.156  30.007  32.237  1.00  0.00     0.167 HD
ATOM     36  C   UNL A   1      42.509  30.367  34.721  1.00  0.00     0.074 A 
ATOM     37  C   UNL A   1      42.846  30.857  36.044  1.00  0.00     0.031 C 
ATOM     38  C   UNL A   1      43.183  29.387  34.071  1.00  0.00     0.037 A 
BRANCH  25  39
ATOM     39  C   UNL A   1      40.892  27.928  28.516  1.00  0.00     0.064 A 
ATOM     40  C   UNL A   1      40.212  26.703  28.453  1.00  0.00     0.173 A 
ATOM     41  C   UNL A   1      41.632  28.325  27.392  1.00  0.00     0.173 A 
ATOM     42  F   UNL A   1      39.498  26.272  29.504  1.00  0.00    -0.203 F 
ATOM     43  C   UNL A   1      40.294  25.895  27.321  1.00  0.00     0.198 A 
ATOM     44  C   UNL A   1      41.690  27.527  26.251  1.00  0.00     0.198 A 
ATOM     45  F   UNL A   1      42.297  29.490  27.396  1.00  0.00    -0.203 F 
ATOM     46  F   UNL A   1      39.674  24.705  27.302  1.00  0.00    -0.200 F 
ATOM     47  C   UNL A   1      41.028  26.309  26.220  1.00  0.00     0.200 A 
ATOM     48  F   UNL A   1      42.391  27.935  25.184  1.00  0.00    -0.200 F 
ATOM     49  F   UNL A   1      41.105  25.531  25.131  1.00  0.00    -0.200 F 
ENDBRANCH  25  39
BRANCH  26  50
ATOM     50  C   UNL A   1      39.785  33.730  36.590  1.00  0.00     0.064 A 
ATOM     51  C   UNL A   1      40.380  34.992  36.714  1.00  0.00     0.173 A 
ATOM     52  C   UNL A   1      38.944  33.299  37.627  1.00  0.00     0.173 A 
ATOM     53  F   UNL A   1      41.203  35.441  35.756  1.00  0.00    -0.203 F 
ATOM     54  C   UNL A   1      40.144  35.790  37.832  1.00  0.00     0.198 A 
ATOM     55  C   UNL A   1      38.686  34.109  38.730  1.00  0.00     0.198 A 
ATOM     56  F   UNL A   1      38.343  32.102  37.552  1.00  0.00    -0.203 F 
ATOM     57  F   UNL A   1      40.745  36.983  37.940  1.00  0.00    -0.200 F 
ATOM     58  C   UNL A   1      39.289  35.353  38.834  1.00  0.00     0.200 A 
ATOM     59  F   UNL A   1      37.843  33.690  39.684  1.00  0.00    -0.200 F 
ATOM     60  F   UNL A   1      39.048  36.129  39.899  1.00  0.00    -0.200 F 
ENDBRANCH  26  50
BRANCH  38  61
ATOM     61  C   UNL A   1      44.359  28.789  34.784  1.00  0.00     0.064 A 
ATOM     62  C   UNL A   1      45.639  29.354  34.685  1.00  0.00     0.173 A 
ATOM     63  C   UNL A   1      44.198  27.659  35.600  1.00  0.00     0.173 A 
ATOM     64  F   UNL A   1      45.845  30.423  33.901  1.00  0.00    -0.203 F 
ATOM     65  C   UNL A   1      46.720  28.796  35.360  1.00  0.00     0.198 A 
ATOM     66  C   UNL A   1      45.276  27.120  36.295  1.00  0.00     0.198 A 
ATOM     67  F   UNL A   1      42.993  27.085  35.729  1.00  0.00    -0.203 F 
ATOM     68  F   UNL A   1      47.943  29.325  35.216  1.00  0.00    -0.200 F 
ATOM     69  C   UNL A   1      46.537  27.684  36.169  1.00  0.00     0.200 A 
ATOM     70  F   UNL A   1      45.095  26.052  37.084  1.00  0.00    -0.200 F 
ATOM     71  F   UNL A   1      47.578  27.152  36.824  1.00  0.00    -0.200 F 
ENDBRANCH  38  61
ENDBRANCH  12  13
ENDBRANCH   5   7
ENDBRANCH   2   3
ENDBRANCH   1   2
BRANCH   1  72
ATOM     72  C   UNL A   1      31.697  30.354  25.774  1.00  0.00     0.117 C 
BRANCH  72  73
ATOM     73  N   UNL A   1      31.739  29.305  26.759  1.00  0.00    -0.356 N 
ATOM     74  C   UNL A   1      31.462  27.988  26.702  1.00  0.00     0.224 C 
ATOM     75  H   UNL A   1      32.026  29.611  27.649  1.00  0.00     0.163 HD
ATOM     76  O   UNL A   1      31.440  27.434  27.812  1.00  0.00    -0.275 OA
BRANCH  74  77
ATOM     77  C   UNL A   1      31.273  27.136  25.435  1.00  0.00     0.094 C 
ATOM     78  C   UNL A   1      31.390  27.702  23.985  1.00  0.00     0.002 C 
ATOM     79  C   UNL A   1      31.950  25.761  25.555  1.00  0.00     0.094 C 
ATOM     80  C   UNL A   1      32.809  27.745  23.405  1.00  0.00     0.005 C 
ATOM     81  C   UNL A   1      30.678  26.688  23.040  1.00  0.00     0.005 C 
ATOM     82  C   UNL A   1      32.519  25.363  24.156  1.00  0.00     0.002 C 
ATOM     83  C   UNL A   1      33.530  26.429  23.688  1.00  0.00     0.005 C 
ATOM     84  C   UNL A   1      31.365  25.312  23.138  1.00  0.00     0.005 C 
BRANCH  79  85
ATOM     85  C   UNL A   1      31.261  24.509  26.192  1.00  0.00     0.229 C 
ATOM     86  O   UNL A   1      30.083  24.656  26.565  1.00  0.00    -0.274 OA
ATOM     87  N   UNL A   1      31.716  23.226  26.218  1.00  0.00    -0.317 N 
ATOM     88  H   UNL A   1      31.005  22.549  26.290  1.00  0.00     0.170 HD
BRANCH  87  89
ATOM     89  C   UNL A   1      32.984  22.701  26.161  1.00  0.00     0.108 A 
ATOM     90  S   UNL A   1      34.103  23.112  27.376  1.00  0.00    -0.122 S 
ATOM     91  C   UNL A   1      33.477  21.653  25.383  1.00  0.00     0.078 A 
ATOM     92  C   UNL A   1      35.356  22.718  26.299  1.00  0.00     0.011 A 
ATOM     93  C   UNL A   1      34.934  21.773  25.376  1.00  0.00    -0.019 A 
ATOM     94  C   UNL A   1      36.704  23.364  26.345  1.00  0.00     0.047 C 
ATOM     95  C   UNL A   1      35.917  21.178  24.411  1.00  0.00     0.037 C 
ATOM     96  C   UNL A   1      37.414  23.159  24.997  1.00  0.00     0.006 C 
ATOM     97  C   UNL A   1      37.357  21.689  24.587  1.00  0.00     0.005 C 
BRANCH  91  98
ATOM     98  C   UNL A   1      32.568  20.863  24.534  1.00  0.00     0.257 C 
ATOM     99  O   UNL A   1      31.690  21.421  23.864  1.00  0.00    -0.269 OA
ATOM    100  N   UNL A   1      32.740  19.485  24.439  1.00  0.00    -0.339 N 
ATOM    101  C   UNL A   1      32.407  18.875  23.162  1.00  0.00     0.120 C 
ATOM    102  C   UNL A   1      32.604  18.598  25.590  1.00  0.00     0.120 C 
ATOM    103  C   UNL A   1      33.326  17.689  22.908  1.00  0.00     0.022 C 
ATOM    104  C   UNL A   1      33.398  17.299  25.407  1.00  0.00     0.022 C 
ATOM    105  C   UNL A   1      33.199  16.662  24.031  1.00  0.00     0.004 C 
ENDBRANCH  91  98
ENDBRANCH  87  89
ENDBRANCH  79  85
ENDBRANCH  74  77
ENDBRANCH  72  73
ENDBRANCH   1  72
TORSDOF 13
ENDMDL
MODEL 3
REMARK VINA RESULT:     -14.6      4.985      9.665
REMARK SMILES O=C(NCCCNC(=O)[C@H]1[C@H]2CC[C@H](CC2)[C@@H]1C(=O)Nc1sc2c(c1C(=O)N1CCCCC1)CCCC2)c1ccc(-c2c3nc(c(-c4c(F)c(F)c(F)c(F)c4F)c4ccc([nH]4)c(-c4c(F)c(F)c(F)c(F)c4F)c4nc(c(-c5c(F)c(F)c(F)c(F)c5F)c5ccc2[nH]5)C=C4)C=C3)cc1
REMARK SMILES IDX 5 1 4 2 3 3 1 4 2 5 38 7 39 8 100 9 40 10 99 11 41 12 42 13
REMARK SMILES IDX 43 14 93 15 44 16 98 17 92 18 94 19 45 20 97 21 91 22 90 23
REMARK SMILES IDX 46 25 78 26 58 27 77 28 59 29 62 30 76 31 95 32 60 33 61 34
REMARK SMILES IDX 75 36 96 37 63 38 47 39 48 40 56 41 49 42 50 43 54 44 57 45
REMARK SMILES IDX 51 46 52 47 55 48 53 49 79 50 80 51 88 52 81 53 82 54 86 55
REMARK SMILES IDX 89 56 83 57 84 58 87 59 85 60 64 61 65 62 73 63 66 64 67 65
REMARK SMILES IDX 71 66 74 67 68 68 69 69 72 70 70 71 6 72 7 73 8 74 9 76
REMARK SMILES IDX 10 77 11 78 17 79 12 80 16 81 14 82 13 83 15 84 18 85 19 86
REMARK SMILES IDX 20 87 21 89 22 90 25 91 23 92 24 93 37 94 34 95 36 96 35 97
REMARK SMILES IDX 26 98 27 99 28 100 29 101 33 102 30 103 32 104 31 105
REMARK H PARENT 3 6 94 24 62 35 7 75 20 88
REMARK Flexibility Score: inf
ROOT
ATOM      1  C   UNL A   1      31.430  31.504  26.290  1.00  0.00     0.042 C 
ENDROOT
BRANCH   1   2
ATOM      2  C   UNL A   1      32.579  32.012  27.149  1.00  0.00     0.118 C 
BRANCH   2   3
ATOM      3  N   UNL A   1      32.486  33.455  27.329  1.00  0.00    -0.352 N 
ATOM      4  O   UNL A   1      32.573  35.369  28.506  1.00  0.00    -0.269 OA
ATOM      5  C   UNL A   1      33.046  34.252  28.296  1.00  0.00     0.251 C 
ATOM      6  H   UNL A   1      31.941  33.927  26.659  1.00  0.00     0.163 HD
BRANCH   5   7
ATOM      7  C   UNL A   1      34.216  33.794  29.077  1.00  0.00     0.039 A 
ATOM      8  C   UNL A   1      34.082  32.809  30.056  1.00  0.00     0.014 A 
ATOM      9  C   UNL A   1      35.489  34.276  28.751  1.00  0.00     0.014 A 
ATOM     10  C   UNL A   1      35.188  32.388  30.784  1.00  0.00     0.010 A 
ATOM     11  C   UNL A   1      36.618  33.777  29.411  1.00  0.00     0.010 A 
ATOM     12  C   UNL A   1      36.473  32.830  30.435  1.00  0.00    -0.014 A 
BRANCH  12  13
ATOM     13  C   UNL A   1      37.650  32.184  31.070  1.00  0.00     0.031 A 
ATOM     14  C   UNL A   1      38.113  32.575  32.439  1.00  0.00     0.074 A 
ATOM     15  C   UNL A   1      38.293  31.222  30.380  1.00  0.00     0.049 A 
ATOM     16  N   UNL A   1      39.122  32.107  33.131  1.00  0.00    -0.248 NA
ATOM     17  C   UNL A   1      37.359  33.638  33.119  1.00  0.00     0.031 C 
ATOM     18  C   UNL A   1      37.944  30.785  29.025  1.00  0.00     0.029 A 
ATOM     19  N   UNL A   1      39.359  30.430  30.716  1.00  0.00    -0.354 N 
ATOM     20  C   UNL A   1      39.139  32.831  34.315  1.00  0.00     0.074 A 
ATOM     21  C   UNL A   1      38.052  33.785  34.241  1.00  0.00     0.031 C 
ATOM     22  C   UNL A   1      38.750  29.778  28.663  1.00  0.00     0.029 A 
ATOM     23  C   UNL A   1      39.716  29.543  29.730  1.00  0.00     0.049 A 
ATOM     24  H   UNL A   1      39.826  30.490  31.581  1.00  0.00     0.167 HD
ATOM     25  C   UNL A   1      39.986  32.703  35.365  1.00  0.00     0.037 A 
ATOM     26  C   UNL A   1      40.725  28.656  29.674  1.00  0.00     0.037 A 
ATOM     27  C   UNL A   1      41.055  31.739  35.430  1.00  0.00     0.049 A 
ATOM     28  C   UNL A   1      41.646  28.535  30.851  1.00  0.00     0.074 A 
ATOM     29  C   UNL A   1      41.935  31.493  36.469  1.00  0.00     0.029 A 
ATOM     30  N   UNL A   1      41.394  30.863  34.406  1.00  0.00    -0.354 N 
ATOM     31  N   UNL A   1      41.624  29.193  31.984  1.00  0.00    -0.248 NA
ATOM     32  C   UNL A   1      42.734  27.555  30.743  1.00  0.00     0.031 C 
ATOM     33  C   UNL A   1      42.835  30.503  36.057  1.00  0.00     0.029 A 
ATOM     34  C   UNL A   1      42.486  30.096  34.779  1.00  0.00     0.049 A 
ATOM     35  H   UNL A   1      40.926  30.797  33.542  1.00  0.00     0.167 HD
ATOM     36  C   UNL A   1      42.688  28.708  32.727  1.00  0.00     0.074 A 
ATOM     37  C   UNL A   1      43.321  27.679  31.925  1.00  0.00     0.031 C 
ATOM     38  C   UNL A   1      43.107  29.085  33.960  1.00  0.00     0.037 A 
BRANCH  25  39
ATOM     39  C   UNL A   1      39.809  33.648  36.518  1.00  0.00     0.064 A 
ATOM     40  C   UNL A   1      40.436  34.902  36.550  1.00  0.00     0.173 A 
ATOM     41  C   UNL A   1      38.976  33.305  37.595  1.00  0.00     0.173 A 
ATOM     42  F   UNL A   1      41.251  35.275  35.552  1.00  0.00    -0.203 F 
ATOM     43  C   UNL A   1      40.261  35.765  37.630  1.00  0.00     0.198 A 
ATOM     44  C   UNL A   1      38.781  34.181  38.659  1.00  0.00     0.198 A 
ATOM     45  F   UNL A   1      38.346  32.121  37.612  1.00  0.00    -0.203 F 
ATOM     46  F   UNL A   1      40.909  36.938  37.662  1.00  0.00    -0.200 F 
ATOM     47  C   UNL A   1      39.430  35.406  38.681  1.00  0.00     0.200 A 
ATOM     48  F   UNL A   1      37.969  33.836  39.669  1.00  0.00    -0.200 F 
ATOM     49  F   UNL A   1      39.260  36.237  39.718  1.00  0.00    -0.200 F 
ENDBRANCH  25  39
BRANCH  26  50
ATOM     50  C   UNL A   1      40.907  27.835  28.451  1.00  0.00     0.064 A 
ATOM     51  C   UNL A   1      40.275  26.592  28.310  1.00  0.00     0.173 A 
ATOM     52  C   UNL A   1      41.675  28.303  27.374  1.00  0.00     0.173 A 
ATOM     53  F   UNL A   1      39.543  26.096  29.317  1.00  0.00    -0.203 F 
ATOM     54  C   UNL A   1      40.409  25.848  27.140  1.00  0.00     0.198 A 
ATOM     55  C   UNL A   1      41.785  27.573  26.195  1.00  0.00     0.198 A 
ATOM     56  F   UNL A   1      42.292  29.492  27.457  1.00  0.00    -0.203 F 
ATOM     57  F   UNL A   1      39.817  24.650  27.039  1.00  0.00    -0.200 F 
ATOM     58  C   UNL A   1      41.155  26.343  26.079  1.00  0.00     0.200 A 
ATOM     59  F   UNL A   1      42.489  28.065  25.166  1.00  0.00    -0.200 F 
ATOM     60  F   UNL A   1      41.267  25.635  24.947  1.00  0.00    -0.200 F 
ENDBRANCH  26  50
BRANCH  38  61
ATOM     61  C   UNL A   1      44.302  28.370  34.516  1.00  0.00     0.064 A 
ATOM     62  C   UNL A   1      44.171  27.158  35.211  1.00  0.00     0.173 A 
ATOM     63  C   UNL A   1      45.592  28.885  34.324  1.00  0.00     0.173 A 
ATOM     64  F   UNL A   1      42.955  26.638  35.435  1.00  0.00    -0.203 F 
ATOM     65  C   UNL A   1      45.289  26.499  35.712  1.00  0.00     0.198 A 
ATOM     66  C   UNL A   1      46.710  28.208  34.804  1.00  0.00     0.198 A 
ATOM     67  F   UNL A   1      45.769  30.039  33.664  1.00  0.00    -0.203 F 
ATOM     68  F   UNL A   1      45.138  25.366  36.412  1.00  0.00    -0.200 F 
ATOM     69  C   UNL A   1      46.557  27.020  35.503  1.00  0.00     0.200 A 
ATOM     70  F   UNL A   1      47.935  28.709  34.592  1.00  0.00    -0.200 F 
ATOM     71  F   UNL A   1      47.633  26.381  35.981  1.00  0.00    -0.200 F 
ENDBRANCH  38  61
ENDBRANCH  12  13
ENDBRANCH   5   7
ENDBRANCH   2   3
ENDBRANCH   1   2
BRANCH   1  72
ATOM     72  C   UNL A   1      31.735  30.141  25.677  1.00  0.00     0.117 C 
BRANCH  72  73
ATOM     73  N   UNL A   1      31.750  29.125  26.697  1.00  0.00    -0.356 N 
ATOM     74  C   UNL A   1      31.471  27.807  26.678  1.00  0.00     0.224 C 
ATOM     75  H   UNL A   1      32.016  29.459  27.584  1.00  0.00     0.163 HD
ATOM     76  O   UNL A   1      31.421  27.291  27.804  1.00  0.00    -0.275 OA
BRANCH  74  77
ATOM     77  C   UNL A   1      31.310  26.914  25.435  1.00  0.00     0.094 C 
ATOM     78  C   UNL A   1      31.441  27.435  23.970  1.00  0.00     0.002 C 
ATOM     79  C   UNL A   1      32.001  25.551  25.608  1.00  0.00     0.094 C 
ATOM     80  C   UNL A   1      32.868  27.477  23.409  1.00  0.00     0.005 C 
ATOM     81  C   UNL A   1      30.755  26.384  23.048  1.00  0.00     0.005 C 
ATOM     82  C   UNL A   1      32.595  25.117  24.231  1.00  0.00     0.002 C 
ATOM     83  C   UNL A   1      33.600  26.180  23.743  1.00  0.00     0.005 C 
ATOM     84  C   UNL A   1      31.456  25.020  23.198  1.00  0.00     0.005 C 
BRANCH  79  85
ATOM     85  C   UNL A   1      31.318  24.312  26.274  1.00  0.00     0.229 C 
ATOM     86  O   UNL A   1      30.143  24.467  26.656  1.00  0.00    -0.274 OA
ATOM     87  N   UNL A   1      31.772  23.029  26.319  1.00  0.00    -0.317 N 
ATOM     88  H   UNL A   1      31.061  22.355  26.411  1.00  0.00     0.170 HD
BRANCH  87  89
ATOM     89  C   UNL A   1      33.039  22.503  26.259  1.00  0.00     0.108 A 
ATOM     90  S   UNL A   1      34.164  22.918  27.468  1.00  0.00    -0.122 S 
ATOM     91  C   UNL A   1      33.528  21.449  25.485  1.00  0.00     0.078 A 
ATOM     92  C   UNL A   1      35.412  22.517  26.388  1.00  0.00     0.011 A 
ATOM     93  C   UNL A   1      34.985  21.568  25.472  1.00  0.00    -0.019 A 
ATOM     94  C   UNL A   1      36.761  23.162  26.425  1.00  0.00     0.047 C 
ATOM     95  C   UNL A   1      35.963  20.967  24.505  1.00  0.00     0.037 C 
ATOM     96  C   UNL A   1      37.465  22.949  25.075  1.00  0.00     0.006 C 
ATOM     97  C   UNL A   1      37.404  21.477  24.672  1.00  0.00     0.005 C 
BRANCH  91  98
ATOM     98  C   UNL A   1      32.614  20.657  24.644  1.00  0.00     0.257 C 
ATOM     99  O   UNL A   1      31.725  21.211  23.986  1.00  0.00    -0.269 OA
ATOM    100  N   UNL A   1      32.794  19.280  24.543  1.00  0.00    -0.339 N 
ATOM    101  C   UNL A   1      32.451  18.672  23.267  1.00  0.00     0.120 C 
ATOM    102  C   UNL A   1      32.677  18.389  25.692  1.00  0.00     0.120 C 
ATOM    103  C   UNL A   1      33.374  17.493  22.999  1.00  0.00     0.022 C 
ATOM    104  C   UNL A   1      33.478  17.095  25.496  1.00  0.00     0.022 C 
ATOM    105  C   UNL A   1      33.267  16.462  24.120  1.00  0.00     0.004 C 
ENDBRANCH  91  98
ENDBRANCH  87  89
ENDBRANCH  79  85
ENDBRANCH  74  77
ENDBRANCH  72  73
ENDBRANCH   1  72
TORSDOF 13
ENDMDL
