MODEL 1
REMARK VINA RESULT:     -10.5      0.000      0.000
REMARK SMILES C[C@H]([NH2+][C@H](C)[C@@H](C)C(=O)NCCCNC(=O)c1ccc(-c2c3nc(c(-c4c(F)c(F)c(F)c(F)c4F)c4ccc([nH]4)c(-c4c(F)c(F)c(F)c(F)c4F)c4nc(c(-c5c(F)c(F)c(F)c(F)c5F)c5ccc2[nH]5)C=C4)C=C3)cc1)c1ccc(F)cc1
REMARK SMILES IDX 11 1 10 2 8 3 9 4 6 6 7 7 4 8 5 9 3 10 2 13 1 14 80 15 81 16
REMARK SMILES IDX 86 17 82 18 85 19 83 20 84 21 12 22 13 23 14 24 15 25 16 27
REMARK SMILES IDX 17 28 18 29 79 30 19 31 78 32 20 33 21 34 22 35 72 36 23 37
REMARK SMILES IDX 77 38 71 39 73 40 24 41 76 42 70 43 69 44 25 46 57 47 37 48
REMARK SMILES IDX 56 49 38 50 41 51 55 52 74 53 39 54 40 55 54 57 75 58 42 59
REMARK SMILES IDX 26 60 27 61 35 62 28 63 29 64 33 65 36 66 30 67 31 68 34 69
REMARK SMILES IDX 32 70 58 71 59 72 67 73 60 74 61 75 65 76 68 77 62 78 63 79
REMARK SMILES IDX 66 80 64 81 43 82 44 83 52 84 45 85 46 86 50 87 53 88 47 89
REMARK SMILES IDX 48 90 51 91 49 92
REMARK H PARENT 10 5 3 11 3 12 14 26 73 45 41 56
REMARK Flexibility Score: inf
ROOT
ATOM      1  C   UNL A   1      41.242  19.215  25.976  1.00  0.00     0.117 C 
ENDROOT
BRANCH   1   2
ATOM      2  N   UNL A   1      42.481  18.467  26.086  1.00  0.00    -0.356 N 
ATOM      3  C   UNL A   1      43.746  18.670  25.635  1.00  0.00     0.228 C 
ATOM      4  O   UNL A   1      44.600  17.885  26.065  1.00  0.00    -0.275 OA
ATOM      5  H   UNL A   1      42.385  17.632  26.599  1.00  0.00     0.163 HD
BRANCH   3   6
ATOM      6  C   UNL A   1      44.149  19.782  24.671  1.00  0.00     0.133 C 
ATOM      7  C   UNL A   1      45.075  19.207  23.590  1.00  0.00     0.024 C 
BRANCH   6   8
ATOM      8  C   UNL A   1      44.647  21.084  25.361  1.00  0.00     0.192 C 
ATOM      9  C   UNL A   1      46.036  21.494  24.833  1.00  0.00     0.076 C 
BRANCH   8  10
ATOM     10  N   UNL A   1      43.777  22.261  25.123  1.00  0.00    -0.337 N 
ATOM     11  H   UNL A   1      43.660  22.354  24.114  1.00  0.00     0.347 HD
ATOM     12  H   UNL A   1      42.926  22.062  25.647  1.00  0.00     0.347 HD
BRANCH  10  13
ATOM     13  C   UNL A   1      44.233  23.561  25.634  1.00  0.00     0.210 C 
ATOM     14  C   UNL A   1      43.494  24.741  24.998  1.00  0.00     0.081 C 
BRANCH  13  15
ATOM     15  C   UNL A   1      44.129  23.598  27.158  1.00  0.00     0.009 A 
ATOM     16  C   UNL A   1      42.868  23.428  27.758  1.00  0.00     0.013 A 
ATOM     17  C   UNL A   1      45.251  23.756  27.995  1.00  0.00     0.013 A 
ATOM     18  C   UNL A   1      42.740  23.361  29.147  1.00  0.00     0.040 A 
ATOM     19  C   UNL A   1      45.123  23.679  29.383  1.00  0.00     0.040 A 
ATOM     20  C   UNL A   1      43.871  23.473  29.945  1.00  0.00     0.123 A 
ATOM     21  F   UNL A   1      43.755  23.379  31.276  1.00  0.00    -0.207 F 
ENDBRANCH  13  15
ENDBRANCH  10  13
ENDBRANCH   8  10
ENDBRANCH   6   8
ENDBRANCH   3   6
ENDBRANCH   1   2
BRANCH   1  22
ATOM     22  C   UNL A   1      40.849  19.990  27.237  1.00  0.00     0.042 C 
BRANCH  22  23
ATOM     23  C   UNL A   1      40.587  21.484  27.057  1.00  0.00     0.118 C 
BRANCH  23  24
ATOM     24  N   UNL A   1      39.395  21.753  26.272  1.00  0.00    -0.352 N 
ATOM     25  C   UNL A   1      38.657  22.910  26.189  1.00  0.00     0.251 C 
ATOM     26  H   UNL A   1      39.071  21.004  25.723  1.00  0.00     0.163 HD
ATOM     27  O   UNL A   1      37.572  22.905  25.619  1.00  0.00    -0.269 OA
BRANCH  25  28
ATOM     28  C   UNL A   1      39.152  24.165  26.805  1.00  0.00     0.039 A 
ATOM     29  C   UNL A   1      39.915  25.038  26.025  1.00  0.00     0.014 A 
ATOM     30  C   UNL A   1      38.911  24.460  28.151  1.00  0.00     0.014 A 
ATOM     31  C   UNL A   1      40.399  26.228  26.579  1.00  0.00     0.010 A 
ATOM     32  C   UNL A   1      39.358  25.668  28.690  1.00  0.00     0.010 A 
ATOM     33  C   UNL A   1      40.110  26.562  27.911  1.00  0.00    -0.014 A 
BRANCH  33  34
ATOM     34  C   UNL A   1      40.591  27.841  28.499  1.00  0.00     0.031 A 
ATOM     35  C   UNL A   1      42.044  28.026  28.835  1.00  0.00     0.074 A 
ATOM     36  C   UNL A   1      39.711  28.824  28.773  1.00  0.00     0.049 A 
ATOM     37  N   UNL A   1      42.641  29.047  29.399  1.00  0.00    -0.248 NA
ATOM     38  C   UNL A   1      42.945  26.909  28.512  1.00  0.00     0.031 C 
ATOM     39  C   UNL A   1      38.270  28.761  28.527  1.00  0.00     0.029 A 
ATOM     40  N   UNL A   1      39.899  30.065  29.330  1.00  0.00    -0.354 N 
ATOM     41  C   UNL A   1      43.978  28.692  29.511  1.00  0.00     0.074 A 
ATOM     42  C   UNL A   1      44.102  27.348  28.987  1.00  0.00     0.031 C 
ATOM     43  C   UNL A   1      37.707  29.913  28.922  1.00  0.00     0.029 A 
ATOM     44  C   UNL A   1      38.740  30.787  29.474  1.00  0.00     0.049 A 
ATOM     45  H   UNL A   1      40.783  30.406  29.600  1.00  0.00     0.167 HD
ATOM     46  C   UNL A   1      45.011  29.425  29.991  1.00  0.00     0.037 A 
ATOM     47  C   UNL A   1      38.531  32.009  29.999  1.00  0.00     0.037 A 
ATOM     48  C   UNL A   1      44.899  30.774  30.481  1.00  0.00     0.049 A 
ATOM     49  C   UNL A   1      39.697  32.803  30.521  1.00  0.00     0.074 A 
ATOM     50  C   UNL A   1      45.904  31.617  30.924  1.00  0.00     0.029 A 
ATOM     51  N   UNL A   1      43.709  31.476  30.596  1.00  0.00    -0.354 N 
ATOM     52  N   UNL A   1      40.966  32.479  30.561  1.00  0.00    -0.248 NA
ATOM     53  C   UNL A   1      39.401  34.136  31.066  1.00  0.00     0.031 C 
ATOM     54  C   UNL A   1      45.318  32.819  31.336  1.00  0.00     0.029 A 
ATOM     55  C   UNL A   1      43.953  32.736  31.119  1.00  0.00     0.049 A 
ATOM     56  H   UNL A   1      42.823  31.131  30.342  1.00  0.00     0.167 HD
ATOM     57  C   UNL A   1      41.621  33.571  31.111  1.00  0.00     0.074 A 
ATOM     58  C   UNL A   1      40.613  34.575  31.378  1.00  0.00     0.031 C 
ATOM     59  C   UNL A   1      42.942  33.729  31.372  1.00  0.00     0.037 A 
BRANCH  46  60
ATOM     60  C   UNL A   1      46.369  28.789  30.006  1.00  0.00     0.064 A 
ATOM     61  C   UNL A   1      46.818  28.051  31.111  1.00  0.00     0.173 A 
ATOM     62  C   UNL A   1      47.202  28.864  28.880  1.00  0.00     0.173 A 
ATOM     63  F   UNL A   1      46.061  27.958  32.213  1.00  0.00    -0.203 F 
ATOM     64  C   UNL A   1      48.062  27.425  31.093  1.00  0.00     0.198 A 
ATOM     65  C   UNL A   1      48.435  28.218  28.859  1.00  0.00     0.198 A 
ATOM     66  F   UNL A   1      46.813  29.552  27.796  1.00  0.00    -0.203 F 
ATOM     67  F   UNL A   1      48.485  26.751  32.172  1.00  0.00    -0.200 F 
ATOM     68  C   UNL A   1      48.866  27.503  29.966  1.00  0.00     0.200 A 
ATOM     69  F   UNL A   1      49.206  28.285  27.763  1.00  0.00    -0.200 F 
ATOM     70  F   UNL A   1      50.058  26.890  29.947  1.00  0.00    -0.200 F 
ENDBRANCH  46  60
BRANCH  47  71
ATOM     71  C   UNL A   1      37.158  32.572  30.043  1.00  0.00     0.064 A 
ATOM     72  C   UNL A   1      36.695  33.419  29.027  1.00  0.00     0.173 A 
ATOM     73  C   UNL A   1      36.288  32.289  31.105  1.00  0.00     0.173 A 
ATOM     74  F   UNL A   1      37.501  33.737  28.002  1.00  0.00    -0.203 F 
ATOM     75  C   UNL A   1      35.420  33.977  29.081  1.00  0.00     0.198 A 
ATOM     76  C   UNL A   1      35.005  32.827  31.146  1.00  0.00     0.198 A 
ATOM     77  F   UNL A   1      36.685  31.481  32.100  1.00  0.00    -0.203 F 
ATOM     78  F   UNL A   1      35.017  34.817  28.118  1.00  0.00    -0.200 F 
ATOM     79  C   UNL A   1      34.574  33.677  30.138  1.00  0.00     0.200 A 
ATOM     80  F   UNL A   1      34.186  32.527  32.164  1.00  0.00    -0.200 F 
ATOM     81  F   UNL A   1      33.347  34.212  30.189  1.00  0.00    -0.200 F 
ENDBRANCH  47  71
BRANCH  59  82
ATOM     82  C   UNL A   1      43.377  35.041  31.950  1.00  0.00     0.064 A 
ATOM     83  C   UNL A   1      43.491  35.229  33.335  1.00  0.00     0.173 A 
ATOM     84  C   UNL A   1      43.718  36.110  31.110  1.00  0.00     0.173 A 
ATOM     85  F   UNL A   1      43.159  34.241  34.180  1.00  0.00    -0.203 F 
ATOM     86  C   UNL A   1      43.913  36.448  33.859  1.00  0.00     0.198 A 
ATOM     87  C   UNL A   1      44.161  37.321  31.636  1.00  0.00     0.198 A 
ATOM     88  F   UNL A   1      43.629  35.979  29.778  1.00  0.00    -0.203 F 
ATOM     89  F   UNL A   1      43.976  36.620  35.187  1.00  0.00    -0.200 F 
ATOM     90  C   UNL A   1      44.253  37.490  33.009  1.00  0.00     0.200 A 
ATOM     91  F   UNL A   1      44.498  38.325  30.813  1.00  0.00    -0.200 F 
ATOM     92  F   UNL A   1      44.663  38.662  33.515  1.00  0.00    -0.200 F 
ENDBRANCH  59  82
ENDBRANCH  33  34
ENDBRANCH  25  28
ENDBRANCH  23  24
ENDBRANCH  22  23
ENDBRANCH   1  22
TORSDOF 14
ENDMDL
MODEL 2
REMARK VINA RESULT:     -10.4      1.489      2.779
REMARK SMILES C[C@H]([NH2+][C@H](C)[C@@H](C)C(=O)NCCCNC(=O)c1ccc(-c2c3nc(c(-c4c(F)c(F)c(F)c(F)c4F)c4ccc([nH]4)c(-c4c(F)c(F)c(F)c(F)c4F)c4nc(c(-c5c(F)c(F)c(F)c(F)c5F)c5ccc2[nH]5)C=C4)C=C3)cc1)c1ccc(F)cc1
REMARK SMILES IDX 11 1 10 2 8 3 9 4 6 6 7 7 4 8 5 9 3 10 2 13 1 14 80 15 81 16
REMARK SMILES IDX 86 17 82 18 85 19 83 20 84 21 12 22 13 23 14 24 15 25 16 27
REMARK SMILES IDX 17 28 18 29 79 30 19 31 78 32 20 33 21 34 22 35 72 36 23 37
REMARK SMILES IDX 77 38 71 39 73 40 24 41 76 42 70 43 69 44 25 46 57 47 37 48
REMARK SMILES IDX 56 49 38 50 41 51 55 52 74 53 39 54 40 55 54 57 75 58 42 59
REMARK SMILES IDX 26 60 27 61 35 62 28 63 29 64 33 65 36 66 30 67 31 68 34 69
REMARK SMILES IDX 32 70 58 71 59 72 67 73 60 74 61 75 65 76 68 77 62 78 63 79
REMARK SMILES IDX 66 80 64 81 43 82 44 83 52 84 45 85 46 86 50 87 53 88 47 89
REMARK SMILES IDX 48 90 51 91 49 92
REMARK H PARENT 10 5 3 11 3 12 14 26 73 45 41 56
REMARK Flexibility Score: inf
ROOT
ATOM      1  C   UNL A   1      42.427  20.086  26.287  1.00  0.00     0.117 C 
ENDROOT
BRANCH   1   2
ATOM      2  N   UNL A   1      42.539  21.217  25.383  1.00  0.00    -0.356 N 
ATOM      3  C   UNL A   1      43.399  22.264  25.286  1.00  0.00     0.228 C 
ATOM      4  O   UNL A   1      43.283  22.960  24.271  1.00  0.00    -0.275 OA
ATOM      5  H   UNL A   1      41.842  21.226  24.688  1.00  0.00     0.163 HD
BRANCH   3   6
ATOM      6  C   UNL A   1      44.465  22.600  26.324  1.00  0.00     0.133 C 
ATOM      7  C   UNL A   1      43.872  23.555  27.370  1.00  0.00     0.024 C 
BRANCH   6   8
ATOM      8  C   UNL A   1      45.837  23.025  25.727  1.00  0.00     0.192 C 
ATOM      9  C   UNL A   1      46.328  22.000  24.685  1.00  0.00     0.076 C 
BRANCH   8  10
ATOM     10  N   UNL A   1      45.805  24.323  25.011  1.00  0.00    -0.337 N 
ATOM     11  H   UNL A   1      46.221  24.174  24.091  1.00  0.00     0.347 HD
ATOM     12  H   UNL A   1      44.822  24.593  25.010  1.00  0.00     0.347 HD
BRANCH  10  13
ATOM     13  C   UNL A   1      46.502  25.459  25.628  1.00  0.00     0.210 C 
ATOM     14  C   UNL A   1      47.752  25.882  24.852  1.00  0.00     0.081 C 
BRANCH  13  15
ATOM     15  C   UNL A   1      45.542  26.634  25.814  1.00  0.00     0.009 A 
ATOM     16  C   UNL A   1      44.230  26.525  25.315  1.00  0.00     0.013 A 
ATOM     17  C   UNL A   1      45.900  27.811  26.499  1.00  0.00     0.013 A 
ATOM     18  C   UNL A   1      43.292  27.534  25.545  1.00  0.00     0.040 A 
ATOM     19  C   UNL A   1      44.958  28.814  26.736  1.00  0.00     0.040 A 
ATOM     20  C   UNL A   1      43.662  28.662  26.265  1.00  0.00     0.123 A 
ATOM     21  F   UNL A   1      42.755  29.617  26.512  1.00  0.00    -0.207 F 
ENDBRANCH  13  15
ENDBRANCH  10  13
ENDBRANCH   8  10
ENDBRANCH   6   8
ENDBRANCH   3   6
ENDBRANCH   1   2
BRANCH   1  22
ATOM     22  C   UNL A   1      41.244  20.159  27.256  1.00  0.00     0.042 C 
BRANCH  22  23
ATOM     23  C   UNL A   1      40.622  21.541  27.459  1.00  0.00     0.118 C 
BRANCH  23  24
ATOM     24  N   UNL A   1      39.572  21.828  26.498  1.00  0.00    -0.352 N 
ATOM     25  C   UNL A   1      38.891  23.004  26.287  1.00  0.00     0.251 C 
ATOM     26  H   UNL A   1      39.311  21.077  25.918  1.00  0.00     0.163 HD
ATOM     27  O   UNL A   1      37.905  23.019  25.558  1.00  0.00    -0.269 OA
BRANCH  25  28
ATOM     28  C   UNL A   1      39.327  24.256  26.952  1.00  0.00     0.039 A 
ATOM     29  C   UNL A   1      38.927  24.487  28.271  1.00  0.00     0.014 A 
ATOM     30  C   UNL A   1      40.079  25.218  26.271  1.00  0.00     0.014 A 
ATOM     31  C   UNL A   1      39.320  25.661  28.924  1.00  0.00     0.010 A 
ATOM     32  C   UNL A   1      40.505  26.369  26.937  1.00  0.00     0.010 A 
ATOM     33  C   UNL A   1      40.127  26.604  28.269  1.00  0.00    -0.014 A 
BRANCH  33  34
ATOM     34  C   UNL A   1      40.577  27.838  28.966  1.00  0.00     0.031 A 
ATOM     35  C   UNL A   1      41.987  27.955  29.472  1.00  0.00     0.074 A 
ATOM     36  C   UNL A   1      39.703  28.840  29.185  1.00  0.00     0.049 A 
ATOM     37  N   UNL A   1      42.547  28.929  30.147  1.00  0.00    -0.248 NA
ATOM     38  C   UNL A   1      42.884  26.821  29.201  1.00  0.00     0.031 C 
ATOM     39  C   UNL A   1      38.298  28.840  28.775  1.00  0.00     0.029 A 
ATOM     40  N   UNL A   1      39.865  30.048  29.817  1.00  0.00    -0.354 N 
ATOM     41  C   UNL A   1      43.851  28.520  30.392  1.00  0.00     0.074 A 
ATOM     42  C   UNL A   1      43.992  27.196  29.824  1.00  0.00     0.031 C 
ATOM     43  C   UNL A   1      37.730  29.994  29.158  1.00  0.00     0.029 A 
ATOM     44  C   UNL A   1      38.720  30.805  29.863  1.00  0.00     0.049 A 
ATOM     45  H   UNL A   1      40.723  30.344  30.200  1.00  0.00     0.167 HD
ATOM     46  C   UNL A   1      44.845  29.194  31.020  1.00  0.00     0.037 A 
ATOM     47  C   UNL A   1      38.491  32.010  30.417  1.00  0.00     0.037 A 
ATOM     48  C   UNL A   1      44.720  30.524  31.557  1.00  0.00     0.049 A 
ATOM     49  C   UNL A   1      39.615  32.738  31.105  1.00  0.00     0.074 A 
ATOM     50  C   UNL A   1      45.694  31.310  32.149  1.00  0.00     0.029 A 
ATOM     51  N   UNL A   1      43.547  31.263  31.570  1.00  0.00    -0.354 N 
ATOM     52  N   UNL A   1      40.860  32.366  31.272  1.00  0.00    -0.248 NA
ATOM     53  C   UNL A   1      39.300  34.056  31.674  1.00  0.00     0.031 C 
ATOM     54  C   UNL A   1      45.103  32.514  32.549  1.00  0.00     0.029 A 
ATOM     55  C   UNL A   1      43.770  32.490  32.175  1.00  0.00     0.049 A 
ATOM     56  H   UNL A   1      42.686  30.962  31.202  1.00  0.00     0.167 HD
ATOM     57  C   UNL A   1      41.481  33.410  31.943  1.00  0.00     0.074 A 
ATOM     58  C   UNL A   1      40.481  34.437  32.141  1.00  0.00     0.031 C 
ATOM     59  C   UNL A   1      42.768  33.507  32.358  1.00  0.00     0.037 A 
BRANCH  46  60
ATOM     60  C   UNL A   1      46.172  28.509  31.158  1.00  0.00     0.064 A 
ATOM     61  C   UNL A   1      46.427  27.616  32.210  1.00  0.00     0.173 A 
ATOM     62  C   UNL A   1      47.173  28.697  30.195  1.00  0.00     0.173 A 
ATOM     63  F   UNL A   1      45.504  27.410  33.160  1.00  0.00    -0.203 F 
ATOM     64  C   UNL A   1      47.646  26.950  32.300  1.00  0.00     0.198 A 
ATOM     65  C   UNL A   1      48.382  28.012  30.277  1.00  0.00     0.198 A 
ATOM     66  F   UNL A   1      46.974  29.535  29.166  1.00  0.00    -0.203 F 
ATOM     67  F   UNL A   1      47.881  26.125  33.331  1.00  0.00    -0.200 F 
ATOM     68  C   UNL A   1      48.620  27.142  31.332  1.00  0.00     0.200 A 
ATOM     69  F   UNL A   1      49.318  28.190  29.333  1.00  0.00    -0.200 F 
ATOM     70  F   UNL A   1      49.788  26.491  31.414  1.00  0.00    -0.200 F 
ENDBRANCH  46  60
BRANCH  47  71
ATOM     71  C   UNL A   1      37.140  32.621  30.332  1.00  0.00     0.064 A 
ATOM     72  C   UNL A   1      36.205  32.445  31.360  1.00  0.00     0.173 A 
ATOM     73  C   UNL A   1      36.753  33.378  29.218  1.00  0.00     0.173 A 
ATOM     74  F   UNL A   1      36.524  31.708  32.435  1.00  0.00    -0.203 F 
ATOM     75  C   UNL A   1      34.925  32.987  31.270  1.00  0.00     0.198 A 
ATOM     76  C   UNL A   1      35.481  33.941  29.139  1.00  0.00     0.198 A 
ATOM     77  F   UNL A   1      37.614  33.577  28.209  1.00  0.00    -0.203 F 
ATOM     78  F   UNL A   1      34.036  32.768  32.247  1.00  0.00    -0.200 F 
ATOM     79  C   UNL A   1      34.566  33.738  30.161  1.00  0.00     0.200 A 
ATOM     80  F   UNL A   1      35.141  34.676  28.071  1.00  0.00    -0.200 F 
ATOM     81  F   UNL A   1      33.336  34.262  30.074  1.00  0.00    -0.200 F 
ENDBRANCH  47  71
BRANCH  59  82
ATOM     82  C   UNL A   1      43.175  34.777  33.043  1.00  0.00     0.064 A 
ATOM     83  C   UNL A   1      43.606  35.895  32.315  1.00  0.00     0.173 A 
ATOM     84  C   UNL A   1      43.100  34.888  34.439  1.00  0.00     0.173 A 
ATOM     85  F   UNL A   1      43.711  35.831  30.980  1.00  0.00    -0.203 F 
ATOM     86  C   UNL A   1      43.966  37.074  32.963  1.00  0.00     0.198 A 
ATOM     87  C   UNL A   1      43.439  36.075  35.082  1.00  0.00     0.198 A 
ATOM     88  F   UNL A   1      42.691  33.847  35.179  1.00  0.00    -0.203 F 
ATOM     89  F   UNL A   1      44.414  38.118  32.252  1.00  0.00    -0.200 F 
ATOM     90  C   UNL A   1      43.877  37.165  34.344  1.00  0.00     0.200 A 
ATOM     91  F   UNL A   1      43.344  36.164  36.417  1.00  0.00    -0.200 F 
ATOM     92  F   UNL A   1      44.219  38.302  34.966  1.00  0.00    -0.200 F 
ENDBRANCH  59  82
ENDBRANCH  33  34
ENDBRANCH  25  28
ENDBRANCH  23  24
ENDBRANCH  22  23
ENDBRANCH   1  22
TORSDOF 14
ENDMDL
MODEL 3
REMARK VINA RESULT:     -10.4      3.690      9.633
REMARK SMILES C[C@H]([NH2+][C@H](C)[C@@H](C)C(=O)NCCCNC(=O)c1ccc(-c2c3nc(c(-c4c(F)c(F)c(F)c(F)c4F)c4ccc([nH]4)c(-c4c(F)c(F)c(F)c(F)c4F)c4nc(c(-c5c(F)c(F)c(F)c(F)c5F)c5ccc2[nH]5)C=C4)C=C3)cc1)c1ccc(F)cc1
REMARK SMILES IDX 11 1 10 2 8 3 9 4 6 6 7 7 4 8 5 9 3 10 2 13 1 14 80 15 81 16
REMARK SMILES IDX 86 17 82 18 85 19 83 20 84 21 12 22 13 23 14 24 15 25 16 27
REMARK SMILES IDX 17 28 18 29 79 30 19 31 78 32 20 33 21 34 22 35 72 36 23 37
REMARK SMILES IDX 77 38 71 39 73 40 24 41 76 42 70 43 69 44 25 46 57 47 37 48
REMARK SMILES IDX 56 49 38 50 41 51 55 52 74 53 39 54 40 55 54 57 75 58 42 59
REMARK SMILES IDX 26 60 27 61 35 62 28 63 29 64 33 65 36 66 30 67 31 68 34 69
REMARK SMILES IDX 32 70 58 71 59 72 67 73 60 74 61 75 65 76 68 77 62 78 63 79
REMARK SMILES IDX 66 80 64 81 43 82 44 83 52 84 45 85 46 86 50 87 53 88 47 89
REMARK SMILES IDX 48 90 51 91 49 92
REMARK H PARENT 10 5 3 11 3 12 14 26 73 45 41 56
REMARK Flexibility Score: inf
ROOT
ATOM      1  C   UNL A   1      36.549  20.342  25.067  1.00  0.00     0.117 C 
ENDROOT
BRANCH   1   2
ATOM      2  N   UNL A   1      35.340  19.543  24.974  1.00  0.00    -0.356 N 
ATOM      3  C   UNL A   1      34.026  19.840  24.802  1.00  0.00     0.228 C 
ATOM      4  O   UNL A   1      33.280  18.873  24.605  1.00  0.00    -0.275 OA
ATOM      5  H   UNL A   1      35.509  18.576  25.053  1.00  0.00     0.163 HD
BRANCH   3   6
ATOM      6  C   UNL A   1      33.453  21.253  24.825  1.00  0.00     0.133 C 
ATOM      7  C   UNL A   1      31.973  21.195  25.230  1.00  0.00     0.024 C 
BRANCH   6   8
ATOM      8  C   UNL A   1      33.771  22.100  23.560  1.00  0.00     0.192 C 
ATOM      9  C   UNL A   1      32.487  22.419  22.769  1.00  0.00     0.076 C 
BRANCH   8  10
ATOM     10  N   UNL A   1      34.384  23.418  23.857  1.00  0.00    -0.337 N 
ATOM     11  H   UNL A   1      35.305  23.431  23.418  1.00  0.00     0.347 HD
ATOM     12  H   UNL A   1      33.716  24.099  23.496  1.00  0.00     0.347 HD
BRANCH  10  13
ATOM     13  C   UNL A   1      34.563  23.784  25.268  1.00  0.00     0.210 C 
ATOM     14  C   UNL A   1      36.026  24.057  25.628  1.00  0.00     0.081 C 
BRANCH  13  15
ATOM     15  C   UNL A   1      33.673  24.974  25.625  1.00  0.00     0.009 A 
ATOM     16  C   UNL A   1      32.381  24.729  26.126  1.00  0.00     0.013 A 
ATOM     17  C   UNL A   1      34.104  26.310  25.513  1.00  0.00     0.013 A 
ATOM     18  C   UNL A   1      31.569  25.782  26.554  1.00  0.00     0.040 A 
ATOM     19  C   UNL A   1      33.296  27.360  25.950  1.00  0.00     0.040 A 
ATOM     20  C   UNL A   1      32.040  27.086  26.474  1.00  0.00     0.123 A 
ATOM     21  F   UNL A   1      31.275  28.095  26.912  1.00  0.00    -0.207 F 
ENDBRANCH  13  15
ENDBRANCH  10  13
ENDBRANCH   8  10
ENDBRANCH   6   8
ENDBRANCH   3   6
ENDBRANCH   1   2
BRANCH   1  22
ATOM     22  C   UNL A   1      37.851  19.546  24.950  1.00  0.00     0.042 C 
BRANCH  22  23
ATOM     23  C   UNL A   1      39.044  20.085  25.740  1.00  0.00     0.118 C 
BRANCH  23  24
ATOM     24  N   UNL A   1      40.113  19.111  25.871  1.00  0.00    -0.352 N 
ATOM     25  C   UNL A   1      41.452  19.324  26.099  1.00  0.00     0.251 C 
ATOM     26  H   UNL A   1      39.843  18.169  25.785  1.00  0.00     0.163 HD
ATOM     27  O   UNL A   1      42.246  18.395  25.998  1.00  0.00    -0.269 OA
BRANCH  25  28
ATOM     28  C   UNL A   1      41.952  20.676  26.447  1.00  0.00     0.039 A 
ATOM     29  C   UNL A   1      42.223  21.577  25.412  1.00  0.00     0.014 A 
ATOM     30  C   UNL A   1      42.200  21.042  27.774  1.00  0.00     0.014 A 
ATOM     31  C   UNL A   1      42.698  22.859  25.708  1.00  0.00     0.010 A 
ATOM     32  C   UNL A   1      42.634  22.336  28.070  1.00  0.00     0.010 A 
ATOM     33  C   UNL A   1      42.891  23.255  27.041  1.00  0.00    -0.014 A 
BRANCH  33  34
ATOM     34  C   UNL A   1      43.363  24.628  27.367  1.00  0.00     0.031 A 
ATOM     35  C   UNL A   1      42.417  25.641  27.948  1.00  0.00     0.074 A 
ATOM     36  C   UNL A   1      44.637  24.979  27.099  1.00  0.00     0.049 A 
ATOM     37  N   UNL A   1      42.631  26.898  28.248  1.00  0.00    -0.248 NA
ATOM     38  C   UNL A   1      41.042  25.188  28.210  1.00  0.00     0.031 C 
ATOM     39  C   UNL A   1      45.647  24.103  26.505  1.00  0.00     0.029 A 
ATOM     40  N   UNL A   1      45.294  26.170  27.280  1.00  0.00    -0.354 N 
ATOM     41  C   UNL A   1      41.421  27.388  28.718  1.00  0.00     0.074 A 
ATOM     42  C   UNL A   1      40.466  26.304  28.634  1.00  0.00     0.031 C 
ATOM     43  C   UNL A   1      46.798  24.782  26.380  1.00  0.00     0.029 A 
ATOM     44  C   UNL A   1      46.601  26.149  26.857  1.00  0.00     0.049 A 
ATOM     45  H   UNL A   1      44.869  26.966  27.676  1.00  0.00     0.167 HD
ATOM     46  C   UNL A   1      41.136  28.625  29.193  1.00  0.00     0.037 A 
ATOM     47  C   UNL A   1      47.531  27.122  26.848  1.00  0.00     0.037 A 
ATOM     48  C   UNL A   1      42.090  29.696  29.310  1.00  0.00     0.049 A 
ATOM     49  C   UNL A   1      47.189  28.485  27.385  1.00  0.00     0.074 A 
ATOM     50  C   UNL A   1      41.906  30.961  29.843  1.00  0.00     0.029 A 
ATOM     51  N   UNL A   1      43.408  29.630  28.887  1.00  0.00    -0.354 N 
ATOM     52  N   UNL A   1      46.057  28.915  27.886  1.00  0.00    -0.248 NA
ATOM     53  C   UNL A   1      48.256  29.495  27.359  1.00  0.00     0.031 C 
ATOM     54  C   UNL A   1      43.104  31.671  29.713  1.00  0.00     0.029 A 
ATOM     55  C   UNL A   1      44.043  30.838  29.131  1.00  0.00     0.049 A 
ATOM     56  H   UNL A   1      43.830  28.842  28.475  1.00  0.00     0.167 HD
ATOM     57  C   UNL A   1      46.281  30.233  28.256  1.00  0.00     0.074 A 
ATOM     58  C   UNL A   1      47.660  30.531  27.935  1.00  0.00     0.031 C 
ATOM     59  C   UNL A   1      45.419  31.119  28.813  1.00  0.00     0.037 A 
BRANCH  46  60
ATOM     60  C   UNL A   1      39.728  28.894  29.633  1.00  0.00     0.064 A 
ATOM     61  C   UNL A   1      39.324  28.683  30.960  1.00  0.00     0.173 A 
ATOM     62  C   UNL A   1      38.792  29.427  28.736  1.00  0.00     0.173 A 
ATOM     63  F   UNL A   1      40.181  28.166  31.852  1.00  0.00    -0.203 F 
ATOM     64  C   UNL A   1      38.027  28.981  31.367  1.00  0.00     0.198 A 
ATOM     65  C   UNL A   1      37.502  29.745  29.152  1.00  0.00     0.198 A 
ATOM     66  F   UNL A   1      39.132  29.653  27.458  1.00  0.00    -0.203 F 
ATOM     67  F   UNL A   1      37.652  28.743  32.632  1.00  0.00    -0.200 F 
ATOM     68  C   UNL A   1      37.118  29.518  30.466  1.00  0.00     0.200 A 
ATOM     69  F   UNL A   1      36.630  30.275  28.283  1.00  0.00    -0.200 F 
ATOM     70  F   UNL A   1      35.874  29.816  30.863  1.00  0.00    -0.200 F 
ENDBRANCH  46  60
BRANCH  47  71
ATOM     71  C   UNL A   1      48.893  26.840  26.325  1.00  0.00     0.064 A 
ATOM     72  C   UNL A   1      49.219  27.104  24.989  1.00  0.00     0.173 A 
ATOM     73  C   UNL A   1      49.887  26.289  27.145  1.00  0.00     0.173 A 
ATOM     74  F   UNL A   1      48.292  27.610  24.161  1.00  0.00    -0.203 F 
ATOM     75  C   UNL A   1      50.484  26.810  24.485  1.00  0.00     0.198 A 
ATOM     76  C   UNL A   1      51.159  26.017  26.648  1.00  0.00     0.198 A 
ATOM     77  F   UNL A   1      49.624  26.021  28.433  1.00  0.00    -0.203 F 
ATOM     78  F   UNL A   1      50.758  27.033  23.194  1.00  0.00    -0.200 F 
ATOM     79  C   UNL A   1      51.455  26.272  25.317  1.00  0.00     0.200 A 
ATOM     80  F   UNL A   1      52.098  25.507  27.457  1.00  0.00    -0.200 F 
ATOM     81  F   UNL A   1      52.672  25.990  24.833  1.00  0.00    -0.200 F 
ENDBRANCH  47  71
BRANCH  59  82
ATOM     82  C   UNL A   1      45.948  32.483  29.136  1.00  0.00     0.064 A 
ATOM     83  C   UNL A   1      46.564  32.758  30.365  1.00  0.00     0.173 A 
ATOM     84  C   UNL A   1      45.869  33.518  28.193  1.00  0.00     0.173 A 
ATOM     85  F   UNL A   1      46.647  31.805  31.306  1.00  0.00    -0.203 F 
ATOM     86  C   UNL A   1      47.066  34.026  30.645  1.00  0.00     0.198 A 
ATOM     87  C   UNL A   1      46.392  34.778  28.467  1.00  0.00     0.198 A 
ATOM     88  F   UNL A   1      45.292  33.304  27.001  1.00  0.00    -0.203 F 
ATOM     89  F   UNL A   1      47.615  34.278  31.842  1.00  0.00    -0.200 F 
ATOM     90  C   UNL A   1      46.985  35.033  29.695  1.00  0.00     0.200 A 
ATOM     91  F   UNL A   1      46.321  35.749  27.544  1.00  0.00    -0.200 F 
ATOM     92  F   UNL A   1      47.472  36.252  29.965  1.00  0.00    -0.200 F 
ENDBRANCH  59  82
ENDBRANCH  33  34
ENDBRANCH  25  28
ENDBRANCH  23  24
ENDBRANCH  22  23
ENDBRANCH   1  22
TORSDOF 14
ENDMDL
