MODEL 1
REMARK VINA RESULT:     -12.9      0.000      0.000
REMARK SMILES O=C(NCCCNC(=O)[C@H]1C[C@](O)(c2ccc(Cl)cc2)[C@@H](c2ccc(Cl)cc2)O1)c1ccc(-c2c3nc(c(-c4c(F)c(F)c(F)c(F)c4F)c4ccc([nH]4)c(-c4c(F)c(F)c(F)c(F)c4F)c4nc(c(-c5c(F)c(F)c(F)c(F)c5F)c5ccc2[nH]5)C=C4)C=C3)cc1
REMARK SMILES IDX 4 1 3 2 1 3 2 4 30 6 31 7 92 8 32 9 91 10 33 11 34 12 35 13
REMARK SMILES IDX 85 14 36 15 90 16 84 17 86 18 37 19 89 20 83 21 82 22 38 24
REMARK SMILES IDX 70 25 50 26 69 27 51 28 54 29 68 30 87 31 52 32 53 33 67 35
REMARK SMILES IDX 88 36 55 37 39 38 40 39 48 40 41 41 42 42 46 43 49 44 43 45
REMARK SMILES IDX 44 46 47 47 45 48 71 49 72 50 80 51 73 52 74 53 78 54 81 55
REMARK SMILES IDX 75 56 76 57 79 58 77 59 56 60 57 61 65 62 58 63 59 64 63 65
REMARK SMILES IDX 66 66 60 67 61 68 64 69 62 70 5 71 6 72 7 73 8 74 9 76 10 77
REMARK SMILES IDX 11 78 29 79 12 80 21 81 14 82 15 83 20 84 16 85 19 86 17 87
REMARK SMILES IDX 18 88 13 89 22 91 23 92 28 93 24 94 27 95 25 96 26 97
REMARK H PARENT 3 5 86 23 54 34 7 75 13 90
REMARK Flexibility Score: inf
ROOT
ATOM      1  C   UNL A   1      32.334  32.723  27.344  1.00  0.00     0.118 C 
ENDROOT
BRANCH   1   2
ATOM      2  N   UNL A   1      32.296  34.146  27.643  1.00  0.00    -0.352 N 
ATOM      3  O   UNL A   1      32.621  36.025  28.830  1.00  0.00    -0.269 OA
ATOM      4  C   UNL A   1      32.976  34.868  28.594  1.00  0.00     0.251 C 
ATOM      5  H   UNL A   1      31.688  34.673  27.076  1.00  0.00     0.163 HD
BRANCH   4   6
ATOM      6  C   UNL A   1      34.126  34.304  29.344  1.00  0.00     0.039 A 
ATOM      7  C   UNL A   1      33.946  33.442  30.428  1.00  0.00     0.014 A 
ATOM      8  C   UNL A   1      35.424  34.541  28.871  1.00  0.00     0.014 A 
ATOM      9  C   UNL A   1      35.057  32.886  31.071  1.00  0.00     0.010 A 
ATOM     10  C   UNL A   1      36.533  33.950  29.495  1.00  0.00     0.010 A 
ATOM     11  C   UNL A   1      36.364  33.125  30.617  1.00  0.00    -0.014 A 
BRANCH  11  12
ATOM     12  C   UNL A   1      37.529  32.469  31.284  1.00  0.00     0.031 A 
ATOM     13  C   UNL A   1      38.299  31.363  30.609  1.00  0.00     0.074 A 
ATOM     14  C   UNL A   1      37.909  32.868  32.515  1.00  0.00     0.049 A 
ATOM     15  N   UNL A   1      39.307  30.656  31.061  1.00  0.00    -0.248 NA
ATOM     16  C   UNL A   1      37.878  30.996  29.249  1.00  0.00     0.031 C 
ATOM     17  C   UNL A   1      37.260  33.919  33.299  1.00  0.00     0.029 A 
ATOM     18  N   UNL A   1      38.938  32.441  33.322  1.00  0.00    -0.354 N 
ATOM     19  C   UNL A   1      39.623  29.749  30.058  1.00  0.00     0.074 A 
ATOM     20  C   UNL A   1      38.688  29.981  28.977  1.00  0.00     0.031 C 
ATOM     21  C   UNL A   1      37.924  34.082  34.452  1.00  0.00     0.029 A 
ATOM     22  C   UNL A   1      39.010  33.109  34.522  1.00  0.00     0.049 A 
ATOM     23  H   UNL A   1      39.563  31.725  33.066  1.00  0.00     0.167 HD
ATOM     24  C   UNL A   1      40.606  28.814  30.036  1.00  0.00     0.037 A 
ATOM     25  C   UNL A   1      39.840  32.949  35.571  1.00  0.00     0.037 A 
ATOM     26  C   UNL A   1      41.562  28.593  31.093  1.00  0.00     0.049 A 
ATOM     27  C   UNL A   1      40.905  31.890  35.528  1.00  0.00     0.074 A 
ATOM     28  C   UNL A   1      42.618  27.696  31.127  1.00  0.00     0.029 A 
ATOM     29  N   UNL A   1      41.582  29.274  32.299  1.00  0.00    -0.354 N 
ATOM     30  N   UNL A   1      41.202  31.054  34.565  1.00  0.00    -0.248 NA
ATOM     31  C   UNL A   1      41.746  31.747  36.726  1.00  0.00     0.031 C 
ATOM     32  C   UNL A   1      43.250  27.805  32.371  1.00  0.00     0.029 A 
ATOM     33  C   UNL A   1      42.617  28.801  33.094  1.00  0.00     0.049 A 
ATOM     34  H   UNL A   1      40.955  29.989  32.556  1.00  0.00     0.167 HD
ATOM     35  C   UNL A   1      42.269  30.298  35.031  1.00  0.00     0.074 A 
ATOM     36  C   UNL A   1      42.582  30.787  36.358  1.00  0.00     0.031 C 
ATOM     37  C   UNL A   1      42.924  29.286  34.413  1.00  0.00     0.037 A 
BRANCH  24  38
ATOM     38  C   UNL A   1      40.702  27.933  28.824  1.00  0.00     0.064 A 
ATOM     39  C   UNL A   1      39.944  26.760  28.704  1.00  0.00     0.173 A 
ATOM     40  C   UNL A   1      41.513  28.305  27.739  1.00  0.00     0.173 A 
ATOM     41  F   UNL A   1      39.160  26.356  29.715  1.00  0.00    -0.203 F 
ATOM     42  C   UNL A   1      40.008  25.980  27.550  1.00  0.00     0.198 A 
ATOM     43  C   UNL A   1      41.554  27.538  26.579  1.00  0.00     0.198 A 
ATOM     44  F   UNL A   1      42.250  29.424  27.799  1.00  0.00    -0.203 F 
ATOM     45  F   UNL A   1      39.301  24.844  27.471  1.00  0.00    -0.200 F 
ATOM     46  C   UNL A   1      40.806  26.374  26.486  1.00  0.00     0.200 A 
ATOM     47  F   UNL A   1      42.316  27.926  25.547  1.00  0.00    -0.200 F 
ATOM     48  F   UNL A   1      40.858  25.629  25.375  1.00  0.00    -0.200 F 
ENDBRANCH  24  38
BRANCH  25  49
ATOM     49  C   UNL A   1      39.686  33.815  36.768  1.00  0.00     0.064 A 
ATOM     50  C   UNL A   1      40.344  35.049  36.853  1.00  0.00     0.173 A 
ATOM     51  C   UNL A   1      38.878  33.428  37.848  1.00  0.00     0.173 A 
ATOM     52  F   UNL A   1      41.151  35.448  35.858  1.00  0.00    -0.203 F 
ATOM     53  C   UNL A   1      40.209  35.859  37.979  1.00  0.00     0.198 A 
ATOM     54  C   UNL A   1      38.721  34.252  38.959  1.00  0.00     0.198 A 
ATOM     55  F   UNL A   1      38.230  32.254  37.814  1.00  0.00    -0.203 F 
ATOM     56  F   UNL A   1      40.882  37.015  38.053  1.00  0.00    -0.200 F 
ATOM     57  C   UNL A   1      39.392  35.464  39.027  1.00  0.00     0.200 A 
ATOM     58  F   UNL A   1      37.921  33.871  39.965  1.00  0.00    -0.200 F 
ATOM     59  F   UNL A   1      39.256  36.247  40.105  1.00  0.00    -0.200 F 
ENDBRANCH  25  49
BRANCH  37  60
ATOM     60  C   UNL A   1      44.063  28.650  35.156  1.00  0.00     0.064 A 
ATOM     61  C   UNL A   1      45.372  29.145  35.055  1.00  0.00     0.173 A 
ATOM     62  C   UNL A   1      43.840  27.551  35.999  1.00  0.00     0.173 A 
ATOM     63  F   UNL A   1      45.641  30.184  34.250  1.00  0.00    -0.203 F 
ATOM     64  C   UNL A   1      46.419  28.547  35.751  1.00  0.00     0.198 A 
ATOM     65  C   UNL A   1      44.885  26.972  36.713  1.00  0.00     0.198 A 
ATOM     66  F   UNL A   1      42.606  27.043  36.134  1.00  0.00    -0.203 F 
ATOM     67  F   UNL A   1      47.669  29.008  35.604  1.00  0.00    -0.200 F 
ATOM     68  C   UNL A   1      46.174  27.465  36.583  1.00  0.00     0.200 A 
ATOM     69  F   UNL A   1      44.645  25.932  37.524  1.00  0.00    -0.200 F 
ATOM     70  F   UNL A   1      47.183  26.891  37.254  1.00  0.00    -0.200 F 
ENDBRANCH  37  60
ENDBRANCH  11  12
ENDBRANCH   4   6
ENDBRANCH   1   2
BRANCH   1  71
ATOM     71  C   UNL A   1      33.765  32.200  27.204  1.00  0.00     0.042 C 
BRANCH  71  72
ATOM     72  C   UNL A   1      33.956  30.707  27.484  1.00  0.00     0.117 C 
BRANCH  72  73
ATOM     73  N   UNL A   1      32.718  29.952  27.578  1.00  0.00    -0.354 N 
ATOM     74  C   UNL A   1      32.410  28.691  27.155  1.00  0.00     0.249 C 
ATOM     75  H   UNL A   1      31.978  30.429  28.019  1.00  0.00     0.163 HD
ATOM     76  O   UNL A   1      31.274  28.281  27.409  1.00  0.00    -0.272 OA
BRANCH  74  77
ATOM     77  C   UNL A   1      33.453  27.810  26.418  1.00  0.00     0.211 C 
ATOM     78  C   UNL A   1      33.057  26.324  26.423  1.00  0.00     0.085 C 
ATOM     79  O   UNL A   1      33.663  28.201  25.063  1.00  0.00    -0.357 OA
ATOM     80  C   UNL A   1      32.959  25.905  24.956  1.00  0.00     0.123 C 
ATOM     81  C   UNL A   1      33.020  27.256  24.189  1.00  0.00     0.186 C 
BRANCH  80  82
ATOM     82  C   UNL A   1      34.068  24.894  24.610  1.00  0.00    -0.013 A 
ATOM     83  C   UNL A   1      35.109  24.673  25.542  1.00  0.00     0.008 A 
ATOM     84  C   UNL A   1      34.098  24.147  23.422  1.00  0.00     0.008 A 
ATOM     85  C   UNL A   1      36.085  23.695  25.335  1.00  0.00     0.021 A 
ATOM     86  C   UNL A   1      35.070  23.158  23.217  1.00  0.00     0.021 A 
ATOM     87  C   UNL A   1      36.049  22.926  24.180  1.00  0.00     0.041 A 
ATOM     88  Cl  UNL A   1      37.212  21.682  23.942  1.00  0.00    -0.084 Cl
ENDBRANCH  80  82
BRANCH  80  89
ATOM     89  O   UNL A   1      31.739  25.197  24.696  1.00  0.00    -0.382 OA
ATOM     90  H   UNL A   1      31.079  25.811  24.338  1.00  0.00     0.212 HD
ENDBRANCH  80  89
BRANCH  81  91
ATOM     91  C   UNL A   1      31.726  27.875  23.672  1.00  0.00    -0.016 A 
ATOM     92  C   UNL A   1      30.450  27.467  24.093  1.00  0.00     0.008 A 
ATOM     93  C   UNL A   1      31.809  28.924  22.736  1.00  0.00     0.008 A 
ATOM     94  C   UNL A   1      29.298  28.021  23.531  1.00  0.00     0.021 A 
ATOM     95  C   UNL A   1      30.657  29.486  22.180  1.00  0.00     0.021 A 
ATOM     96  C   UNL A   1      29.409  29.007  22.556  1.00  0.00     0.041 A 
ATOM     97  Cl  UNL A   1      27.991  29.597  21.788  1.00  0.00    -0.084 Cl
ENDBRANCH  81  91
ENDBRANCH  74  77
ENDBRANCH  72  73
ENDBRANCH  71  72
ENDBRANCH   1  71
TORSDOF 13
ENDMDL
MODEL 2
REMARK VINA RESULT:     -12.8      5.752     10.811
REMARK SMILES O=C(NCCCNC(=O)[C@H]1C[C@](O)(c2ccc(Cl)cc2)[C@@H](c2ccc(Cl)cc2)O1)c1ccc(-c2c3nc(c(-c4c(F)c(F)c(F)c(F)c4F)c4ccc([nH]4)c(-c4c(F)c(F)c(F)c(F)c4F)c4nc(c(-c5c(F)c(F)c(F)c(F)c5F)c5ccc2[nH]5)C=C4)C=C3)cc1
REMARK SMILES IDX 4 1 3 2 1 3 2 4 30 6 31 7 92 8 32 9 91 10 33 11 34 12 35 13
REMARK SMILES IDX 85 14 36 15 90 16 84 17 86 18 37 19 89 20 83 21 82 22 38 24
REMARK SMILES IDX 70 25 50 26 69 27 51 28 54 29 68 30 87 31 52 32 53 33 67 35
REMARK SMILES IDX 88 36 55 37 39 38 40 39 48 40 41 41 42 42 46 43 49 44 43 45
REMARK SMILES IDX 44 46 47 47 45 48 71 49 72 50 80 51 73 52 74 53 78 54 81 55
REMARK SMILES IDX 75 56 76 57 79 58 77 59 56 60 57 61 65 62 58 63 59 64 63 65
REMARK SMILES IDX 66 66 60 67 61 68 64 69 62 70 5 71 6 72 7 73 8 74 9 76 10 77
REMARK SMILES IDX 11 78 29 79 12 80 21 81 14 82 15 83 20 84 16 85 19 86 17 87
REMARK SMILES IDX 18 88 13 89 22 91 23 92 28 93 24 94 27 95 25 96 26 97
REMARK H PARENT 3 5 86 23 54 34 7 75 13 90
REMARK Flexibility Score: inf
ROOT
ATOM      1  C   UNL A   1      39.508  19.769  25.453  1.00  0.00     0.118 C 
ENDROOT
BRANCH   1   2
ATOM      2  N   UNL A   1      40.572  18.828  25.767  1.00  0.00    -0.352 N 
ATOM      3  O   UNL A   1      42.675  18.105  26.081  1.00  0.00    -0.269 OA
ATOM      4  C   UNL A   1      41.891  19.055  26.078  1.00  0.00     0.251 C 
ATOM      5  H   UNL A   1      40.305  17.881  25.756  1.00  0.00     0.163 HD
BRANCH   4   6
ATOM      6  C   UNL A   1      42.403  20.408  26.414  1.00  0.00     0.039 A 
ATOM      7  C   UNL A   1      42.829  21.300  25.428  1.00  0.00     0.014 A 
ATOM      8  C   UNL A   1      42.337  20.845  27.744  1.00  0.00     0.014 A 
ATOM      9  C   UNL A   1      43.250  22.586  25.782  1.00  0.00     0.010 A 
ATOM     10  C   UNL A   1      42.724  22.149  28.090  1.00  0.00     0.010 A 
ATOM     11  C   UNL A   1      43.202  23.034  27.112  1.00  0.00    -0.014 A 
BRANCH  11  12
ATOM     12  C   UNL A   1      43.599  24.433  27.454  1.00  0.00     0.031 A 
ATOM     13  C   UNL A   1      42.572  25.468  27.836  1.00  0.00     0.074 A 
ATOM     14  C   UNL A   1      44.899  24.787  27.426  1.00  0.00     0.049 A 
ATOM     15  N   UNL A   1      42.739  26.738  28.121  1.00  0.00    -0.248 NA
ATOM     16  C   UNL A   1      41.172  25.023  27.901  1.00  0.00     0.031 C 
ATOM     17  C   UNL A   1      46.007  23.900  27.069  1.00  0.00     0.029 A 
ATOM     18  N   UNL A   1      45.513  25.986  27.708  1.00  0.00    -0.354 N 
ATOM     19  C   UNL A   1      41.471  27.247  28.372  1.00  0.00     0.074 A 
ATOM     20  C   UNL A   1      40.539  26.153  28.189  1.00  0.00     0.031 C 
ATOM     21  C   UNL A   1      47.163  24.570  27.189  1.00  0.00     0.029 A 
ATOM     22  C   UNL A   1      46.880  25.950  27.572  1.00  0.00     0.049 A 
ATOM     23  H   UNL A   1      45.020  26.793  27.980  1.00  0.00     0.167 HD
ATOM     24  C   UNL A   1      41.115  28.506  28.730  1.00  0.00     0.037 A 
ATOM     25  C   UNL A   1      47.807  26.917  27.718  1.00  0.00     0.037 A 
ATOM     26  C   UNL A   1      42.035  29.596  28.945  1.00  0.00     0.049 A 
ATOM     27  C   UNL A   1      47.382  28.309  28.093  1.00  0.00     0.074 A 
ATOM     28  C   UNL A   1      41.757  30.891  29.353  1.00  0.00     0.029 A 
ATOM     29  N   UNL A   1      43.407  29.521  28.771  1.00  0.00    -0.354 N 
ATOM     30  N   UNL A   1      46.181  28.768  28.345  1.00  0.00    -0.248 NA
ATOM     31  C   UNL A   1      48.444  29.322  28.194  1.00  0.00     0.031 C 
ATOM     32  C   UNL A   1      42.956  31.611  29.386  1.00  0.00     0.029 A 
ATOM     33  C   UNL A   1      43.987  30.753  29.041  1.00  0.00     0.049 A 
ATOM     34  H   UNL A   1      43.900  28.714  28.497  1.00  0.00     0.167 HD
ATOM     35  C   UNL A   1      46.343  30.113  28.648  1.00  0.00     0.074 A 
ATOM     36  C   UNL A   1      47.761  30.394  28.568  1.00  0.00     0.031 C 
ATOM     37  C   UNL A   1      45.397  31.031  28.959  1.00  0.00     0.037 A 
BRANCH  24  38
ATOM     38  C   UNL A   1      39.652  28.793  28.905  1.00  0.00     0.064 A 
ATOM     39  C   UNL A   1      39.015  28.647  30.146  1.00  0.00     0.173 A 
ATOM     40  C   UNL A   1      38.893  29.289  27.832  1.00  0.00     0.173 A 
ATOM     41  F   UNL A   1      39.694  28.170  31.200  1.00  0.00    -0.203 F 
ATOM     42  C   UNL A   1      37.668  28.966  30.302  1.00  0.00     0.198 A 
ATOM     43  C   UNL A   1      37.554  29.631  27.999  1.00  0.00     0.198 A 
ATOM     44  F   UNL A   1      39.457  29.457  26.627  1.00  0.00    -0.203 F 
ATOM     45  F   UNL A   1      37.072  28.785  31.489  1.00  0.00    -0.200 F 
ATOM     46  C   UNL A   1      36.941  29.465  29.231  1.00  0.00     0.200 A 
ATOM     47  F   UNL A   1      36.856  30.125  26.966  1.00  0.00    -0.200 F 
ATOM     48  F   UNL A   1      35.649  29.781  29.387  1.00  0.00    -0.200 F 
ENDBRANCH  24  38
BRANCH  25  49
ATOM     49  C   UNL A   1      49.241  26.601  27.496  1.00  0.00     0.064 A 
ATOM     50  C   UNL A   1      49.777  26.563  26.202  1.00  0.00     0.173 A 
ATOM     51  C   UNL A   1      50.102  26.332  28.570  1.00  0.00     0.173 A 
ATOM     52  F   UNL A   1      48.986  26.785  25.142  1.00  0.00    -0.203 F 
ATOM     53  C   UNL A   1      51.120  26.258  25.990  1.00  0.00     0.198 A 
ATOM     54  C   UNL A   1      51.450  26.056  28.358  1.00  0.00     0.198 A 
ATOM     55  F   UNL A   1      49.634  26.354  29.827  1.00  0.00    -0.203 F 
ATOM     56  F   UNL A   1      51.599  26.188  24.740  1.00  0.00    -0.200 F 
ATOM     57  C   UNL A   1      51.957  26.012  27.068  1.00  0.00     0.200 A 
ATOM     58  F   UNL A   1      52.257  25.830  29.403  1.00  0.00    -0.200 F 
ATOM     59  F   UNL A   1      53.250  25.726  26.864  1.00  0.00    -0.200 F 
ENDBRANCH  25  49
BRANCH  37  60
ATOM     60  C   UNL A   1      45.864  32.426  29.258  1.00  0.00     0.064 A 
ATOM     61  C   UNL A   1      45.948  33.402  28.255  1.00  0.00     0.173 A 
ATOM     62  C   UNL A   1      46.207  32.798  30.567  1.00  0.00     0.173 A 
ATOM     63  F   UNL A   1      45.648  33.092  26.984  1.00  0.00    -0.203 F 
ATOM     64  C   UNL A   1      46.382  34.693  28.546  1.00  0.00     0.198 A 
ATOM     65  C   UNL A   1      46.615  34.097  30.859  1.00  0.00     0.198 A 
ATOM     66  F   UNL A   1      46.139  31.902  31.563  1.00  0.00    -0.203 F 
ATOM     67  F   UNL A   1      46.497  35.597  27.563  1.00  0.00    -0.200 F 
ATOM     68  C   UNL A   1      46.709  35.040  29.848  1.00  0.00     0.200 A 
ATOM     69  F   UNL A   1      46.922  34.433  32.119  1.00  0.00    -0.200 F 
ATOM     70  F   UNL A   1      47.124  36.284  30.127  1.00  0.00    -0.200 F 
ENDBRANCH  37  60
ENDBRANCH  11  12
ENDBRANCH   4   6
ENDBRANCH   1   2
BRANCH   1  71
ATOM     71  C   UNL A   1      39.303  20.801  26.564  1.00  0.00     0.042 C 
BRANCH  71  72
ATOM     72  C   UNL A   1      38.767  22.162  26.115  1.00  0.00     0.117 C 
BRANCH  72  73
ATOM     73  N   UNL A   1      38.153  22.160  24.798  1.00  0.00    -0.354 N 
ATOM     74  C   UNL A   1      37.060  22.826  24.324  1.00  0.00     0.249 C 
ATOM     75  H   UNL A   1      38.599  21.581  24.138  1.00  0.00     0.163 HD
ATOM     76  O   UNL A   1      36.785  22.666  23.132  1.00  0.00    -0.272 OA
BRANCH  74  77
ATOM     77  C   UNL A   1      36.226  23.762  25.238  1.00  0.00     0.211 C 
ATOM     78  C   UNL A   1      35.209  24.591  24.438  1.00  0.00     0.085 C 
ATOM     79  O   UNL A   1      35.514  23.064  26.258  1.00  0.00    -0.357 OA
ATOM     80  C   UNL A   1      33.834  24.247  25.011  1.00  0.00     0.123 C 
ATOM     81  C   UNL A   1      34.118  23.016  25.917  1.00  0.00     0.186 C 
BRANCH  80  82
ATOM     82  C   UNL A   1      33.227  25.469  25.724  1.00  0.00    -0.013 A 
ATOM     83  C   UNL A   1      34.042  26.601  25.960  1.00  0.00     0.008 A 
ATOM     84  C   UNL A   1      31.887  25.544  26.137  1.00  0.00     0.008 A 
ATOM     85  C   UNL A   1      33.525  27.778  26.506  1.00  0.00     0.021 A 
ATOM     86  C   UNL A   1      31.364  26.728  26.676  1.00  0.00     0.021 A 
ATOM     87  C   UNL A   1      32.180  27.843  26.843  1.00  0.00     0.041 A 
ATOM     88  Cl  UNL A   1      31.523  29.306  27.463  1.00  0.00    -0.084 Cl
ENDBRANCH  80  82
BRANCH  80  89
ATOM     89  O   UNL A   1      32.896  23.941  23.970  1.00  0.00    -0.382 OA
ATOM     90  H   UNL A   1      33.183  23.140  23.502  1.00  0.00     0.212 HD
ENDBRANCH  80  89
BRANCH  81  91
ATOM     91  C   UNL A   1      33.795  21.619  25.394  1.00  0.00    -0.016 A 
ATOM     92  C   UNL A   1      34.757  20.608  25.243  1.00  0.00     0.008 A 
ATOM     93  C   UNL A   1      32.461  21.318  25.059  1.00  0.00     0.008 A 
ATOM     94  C   UNL A   1      34.417  19.371  24.692  1.00  0.00     0.021 A 
ATOM     95  C   UNL A   1      32.117  20.078  24.517  1.00  0.00     0.021 A 
ATOM     96  C   UNL A   1      33.104  19.124  24.304  1.00  0.00     0.041 A 
ATOM     97  Cl  UNL A   1      32.720  17.646  23.519  1.00  0.00    -0.084 Cl
ENDBRANCH  81  91
ENDBRANCH  74  77
ENDBRANCH  72  73
ENDBRANCH  71  72
ENDBRANCH   1  71
TORSDOF 13
ENDMDL
MODEL 3
REMARK VINA RESULT:     -12.8      5.814     11.245
REMARK SMILES O=C(NCCCNC(=O)[C@H]1C[C@](O)(c2ccc(Cl)cc2)[C@@H](c2ccc(Cl)cc2)O1)c1ccc(-c2c3nc(c(-c4c(F)c(F)c(F)c(F)c4F)c4ccc([nH]4)c(-c4c(F)c(F)c(F)c(F)c4F)c4nc(c(-c5c(F)c(F)c(F)c(F)c5F)c5ccc2[nH]5)C=C4)C=C3)cc1
REMARK SMILES IDX 4 1 3 2 1 3 2 4 30 6 31 7 92 8 32 9 91 10 33 11 34 12 35 13
REMARK SMILES IDX 85 14 36 15 90 16 84 17 86 18 37 19 89 20 83 21 82 22 38 24
REMARK SMILES IDX 70 25 50 26 69 27 51 28 54 29 68 30 87 31 52 32 53 33 67 35
REMARK SMILES IDX 88 36 55 37 39 38 40 39 48 40 41 41 42 42 46 43 49 44 43 45
REMARK SMILES IDX 44 46 47 47 45 48 71 49 72 50 80 51 73 52 74 53 78 54 81 55
REMARK SMILES IDX 75 56 76 57 79 58 77 59 56 60 57 61 65 62 58 63 59 64 63 65
REMARK SMILES IDX 66 66 60 67 61 68 64 69 62 70 5 71 6 72 7 73 8 74 9 76 10 77
REMARK SMILES IDX 11 78 29 79 12 80 21 81 14 82 15 83 20 84 16 85 19 86 17 87
REMARK SMILES IDX 18 88 13 89 22 91 23 92 28 93 24 94 27 95 25 96 26 97
REMARK H PARENT 3 5 86 23 54 34 7 75 13 90
REMARK Flexibility Score: inf
ROOT
ATOM      1  C   UNL A   1      39.632  19.791  25.747  1.00  0.00     0.118 C 
ENDROOT
BRANCH   1   2
ATOM      2  N   UNL A   1      40.731  18.874  26.008  1.00  0.00    -0.352 N 
ATOM      3  O   UNL A   1      42.861  18.181  26.161  1.00  0.00    -0.269 OA
ATOM      4  C   UNL A   1      42.070  19.125  26.182  1.00  0.00     0.251 C 
ATOM      5  H   UNL A   1      40.474  17.926  26.071  1.00  0.00     0.163 HD
BRANCH   4   6
ATOM      6  C   UNL A   1      42.597  20.496  26.397  1.00  0.00     0.039 A 
ATOM      7  C   UNL A   1      42.900  21.344  25.330  1.00  0.00     0.014 A 
ATOM      8  C   UNL A   1      42.669  20.996  27.704  1.00  0.00     0.014 A 
ATOM      9  C   UNL A   1      43.338  22.650  25.576  1.00  0.00     0.010 A 
ATOM     10  C   UNL A   1      43.072  22.318  27.945  1.00  0.00     0.010 A 
ATOM     11  C   UNL A   1      43.429  23.160  26.881  1.00  0.00    -0.014 A 
BRANCH  11  12
ATOM     12  C   UNL A   1      43.841  24.578  27.113  1.00  0.00     0.031 A 
ATOM     13  C   UNL A   1      42.867  25.601  27.638  1.00  0.00     0.074 A 
ATOM     14  C   UNL A   1      45.107  24.959  26.851  1.00  0.00     0.049 A 
ATOM     15  N   UNL A   1      43.046  26.882  27.856  1.00  0.00    -0.248 NA
ATOM     16  C   UNL A   1      41.512  25.127  27.955  1.00  0.00     0.031 C 
ATOM     17  C   UNL A   1      46.161  24.086  26.333  1.00  0.00     0.029 A 
ATOM     18  N   UNL A   1      45.728  26.179  26.991  1.00  0.00    -0.354 N 
ATOM     19  C   UNL A   1      41.827  27.370  28.309  1.00  0.00     0.074 A 
ATOM     20  C   UNL A   1      40.907  26.251  28.318  1.00  0.00     0.031 C 
ATOM     21  C   UNL A   1      47.302  24.784  26.234  1.00  0.00     0.029 A 
ATOM     22  C   UNL A   1      47.052  26.169  26.623  1.00  0.00     0.049 A 
ATOM     23  H   UNL A   1      45.267  26.983  27.323  1.00  0.00     0.167 HD
ATOM     24  C   UNL A   1      41.504  28.632  28.689  1.00  0.00     0.037 A 
ATOM     25  C   UNL A   1      47.963  27.161  26.582  1.00  0.00     0.037 A 
ATOM     26  C   UNL A   1      42.417  29.748  28.713  1.00  0.00     0.049 A 
ATOM     27  C   UNL A   1      47.571  28.554  26.987  1.00  0.00     0.074 A 
ATOM     28  C   UNL A   1      42.179  31.048  29.129  1.00  0.00     0.029 A 
ATOM     29  N   UNL A   1      43.741  29.698  28.307  1.00  0.00    -0.354 N 
ATOM     30  N   UNL A   1      46.420  28.994  27.430  1.00  0.00    -0.248 NA
ATOM     31  C   UNL A   1      48.607  29.592  26.878  1.00  0.00     0.031 C 
ATOM     32  C   UNL A   1      43.346  31.795  28.935  1.00  0.00     0.029 A 
ATOM     33  C   UNL A   1      44.325  30.950  28.442  1.00  0.00     0.049 A 
ATOM     34  H   UNL A   1      44.200  28.894  27.974  1.00  0.00     0.167 HD
ATOM     35  C   UNL A   1      46.595  30.350  27.665  1.00  0.00     0.074 A 
ATOM     36  C   UNL A   1      47.970  30.660  27.334  1.00  0.00     0.031 C 
ATOM     37  C   UNL A   1      45.692  31.256  28.110  1.00  0.00     0.037 A 
BRANCH  24  38
ATOM     38  C   UNL A   1      40.085  28.892  29.106  1.00  0.00     0.064 A 
ATOM     39  C   UNL A   1      39.087  29.201  28.172  1.00  0.00     0.173 A 
ATOM     40  C   UNL A   1      39.708  28.763  30.453  1.00  0.00     0.173 A 
ATOM     41  F   UNL A   1      39.397  29.344  26.875  1.00  0.00    -0.203 F 
ATOM     42  C   UNL A   1      37.765  29.390  28.572  1.00  0.00     0.198 A 
ATOM     43  C   UNL A   1      38.382  28.927  30.845  1.00  0.00     0.198 A 
ATOM     44  F   UNL A   1      40.623  28.459  31.385  1.00  0.00    -0.203 F 
ATOM     45  F   UNL A   1      36.834  29.719  27.666  1.00  0.00    -0.200 F 
ATOM     46  C   UNL A   1      37.413  29.245  29.906  1.00  0.00     0.200 A 
ATOM     47  F   UNL A   1      38.041  28.775  32.132  1.00  0.00    -0.200 F 
ATOM     48  F   UNL A   1      36.140  29.417  30.286  1.00  0.00    -0.200 F 
ENDBRANCH  24  38
BRANCH  25  49
ATOM     49  C   UNL A   1      49.346  26.869  26.124  1.00  0.00     0.064 A 
ATOM     50  C   UNL A   1      49.695  26.985  24.772  1.00  0.00     0.173 A 
ATOM     51  C   UNL A   1      50.343  26.473  27.027  1.00  0.00     0.173 A 
ATOM     52  F   UNL A   1      48.768  27.333  23.868  1.00  0.00    -0.203 F 
ATOM     53  C   UNL A   1      50.990  26.703  24.339  1.00  0.00     0.198 A 
ATOM     54  C   UNL A   1      51.642  26.219  26.597  1.00  0.00     0.198 A 
ATOM     55  F   UNL A   1      50.055  26.345  28.331  1.00  0.00    -0.203 F 
ATOM     56  F   UNL A   1      51.288  26.781  23.035  1.00  0.00    -0.200 F 
ATOM     57  C   UNL A   1      51.963  26.328  25.252  1.00  0.00     0.200 A 
ATOM     58  F   UNL A   1      52.583  25.868  27.484  1.00  0.00    -0.200 F 
ATOM     59  F   UNL A   1      53.210  26.065  24.836  1.00  0.00    -0.200 F 
ENDBRANCH  25  49
BRANCH  37  60
ATOM     60  C   UNL A   1      46.166  32.670  28.287  1.00  0.00     0.064 A 
ATOM     61  C   UNL A   1      46.743  33.104  29.490  1.00  0.00     0.173 A 
ATOM     62  C   UNL A   1      46.066  33.593  27.236  1.00  0.00     0.173 A 
ATOM     63  F   UNL A   1      46.846  32.264  30.531  1.00  0.00    -0.203 F 
ATOM     64  C   UNL A   1      47.181  34.417  29.641  1.00  0.00     0.198 A 
ATOM     65  C   UNL A   1      46.529  34.898  27.382  1.00  0.00     0.198 A 
ATOM     66  F   UNL A   1      45.526  33.227  26.064  1.00  0.00    -0.203 F 
ATOM     67  F   UNL A   1      47.688  34.822  30.814  1.00  0.00    -0.200 F 
ATOM     68  C   UNL A   1      47.078  35.311  28.586  1.00  0.00     0.200 A 
ATOM     69  F   UNL A   1      46.437  35.758  26.358  1.00  0.00    -0.200 F 
ATOM     70  F   UNL A   1      47.502  36.574  28.732  1.00  0.00    -0.200 F 
ENDBRANCH  37  60
ENDBRANCH  11  12
ENDBRANCH   4   6
ENDBRANCH   1   2
BRANCH   1  71
ATOM     71  C   UNL A   1      39.688  21.031  26.641  1.00  0.00     0.042 C 
BRANCH  71  72
ATOM     72  C   UNL A   1      38.827  22.213  26.191  1.00  0.00     0.117 C 
BRANCH  72  73
ATOM     73  N   UNL A   1      38.149  22.012  24.921  1.00  0.00    -0.354 N 
ATOM     74  C   UNL A   1      36.975  22.522  24.449  1.00  0.00     0.249 C 
ATOM     75  H   UNL A   1      38.614  21.406  24.299  1.00  0.00     0.163 HD
ATOM     76  O   UNL A   1      36.656  22.209  23.298  1.00  0.00    -0.272 OA
BRANCH  74  77
ATOM     77  C   UNL A   1      36.104  23.474  25.310  1.00  0.00     0.211 C 
ATOM     78  C   UNL A   1      35.276  24.438  24.444  1.00  0.00     0.085 C 
ATOM     79  O   UNL A   1      35.205  22.784  26.175  1.00  0.00    -0.357 OA
ATOM     80  C   UNL A   1      33.813  24.186  24.807  1.00  0.00     0.123 C 
ATOM     81  C   UNL A   1      33.868  22.883  25.652  1.00  0.00     0.186 C 
BRANCH  80  82
ATOM     82  C   UNL A   1      33.216  25.414  25.519  1.00  0.00    -0.013 A 
ATOM     83  C   UNL A   1      34.029  26.554  25.717  1.00  0.00     0.008 A 
ATOM     84  C   UNL A   1      31.887  25.486  25.967  1.00  0.00     0.008 A 
ATOM     85  C   UNL A   1      33.518  27.736  26.261  1.00  0.00     0.021 A 
ATOM     86  C   UNL A   1      31.370  26.673  26.503  1.00  0.00     0.021 A 
ATOM     87  C   UNL A   1      32.183  27.796  26.633  1.00  0.00     0.041 A 
ATOM     88  Cl  UNL A   1      31.532  29.263  27.251  1.00  0.00    -0.084 Cl
ENDBRANCH  80  82
BRANCH  80  89
ATOM     89  O   UNL A   1      33.004  24.029  23.633  1.00  0.00    -0.382 OA
ATOM     90  H   UNL A   1      33.391  24.537  22.902  1.00  0.00     0.212 HD
ENDBRANCH  80  89
BRANCH  81  91
ATOM     91  C   UNL A   1      33.506  21.555  24.994  1.00  0.00    -0.016 A 
ATOM     92  C   UNL A   1      34.130  20.338  25.313  1.00  0.00     0.008 A 
ATOM     93  C   UNL A   1      32.483  21.540  24.027  1.00  0.00     0.008 A 
ATOM     94  C   UNL A   1      33.808  19.166  24.627  1.00  0.00     0.021 A 
ATOM     95  C   UNL A   1      32.153  20.366  23.346  1.00  0.00     0.021 A 
ATOM     96  C   UNL A   1      32.842  19.193  23.626  1.00  0.00     0.041 A 
ATOM     97  Cl  UNL A   1      32.537  17.774  22.708  1.00  0.00    -0.084 Cl
ENDBRANCH  81  91
ENDBRANCH  74  77
ENDBRANCH  72  73
ENDBRANCH  71  72
ENDBRANCH   1  71
TORSDOF 13
ENDMDL
