MODEL 1
REMARK VINA RESULT:     -13.9      0.000      0.000
REMARK SMILES CC1=Nc2nc(NC(=O)CCC(=O)NCCCNC(=O)c3ccc(-c4c5nc(c(-c6c(F)c(F)c(F)c(F)c6F)c6ccc([nH]6)c(-c6c(F)c(F)c(F)c(F)c6F)c6nc(c(-c7c(F)c(F)c(F)c(F)c7F)c7ccc4[nH]7)C=C6)C=C5)cc3)nn2[C@@H](c2ccc(Cl)cc2)C1
REMARK SMILES IDX 15 1 14 2 12 3 13 4 11 6 10 7 8 8 7 9 9 11 6 12 1 13 2 14
REMARK SMILES IDX 3 15 94 16 4 17 86 18 5 19 85 20 84 21 87 22 88 23 93 24
REMARK SMILES IDX 89 25 92 26 90 27 91 28 16 29 17 30 18 31 19 32 20 34 21 35
REMARK SMILES IDX 22 36 83 37 23 38 82 39 24 40 25 41 26 42 76 43 27 44 81 45
REMARK SMILES IDX 75 46 77 47 28 48 80 49 74 50 73 51 29 53 61 54 41 55 60 56
REMARK SMILES IDX 42 57 45 58 59 59 78 60 43 61 44 62 58 64 79 65 46 66 30 67
REMARK SMILES IDX 31 68 39 69 32 70 33 71 37 72 40 73 34 74 35 75 38 76 36 77
REMARK SMILES IDX 62 78 63 79 71 80 64 81 65 82 69 83 72 84 66 85 67 86 70 87
REMARK SMILES IDX 68 88 47 89 48 90 56 91 49 92 50 93 54 94 57 95 51 96 52 97
REMARK SMILES IDX 55 98 53 99
REMARK H PARENT 14 5 7 10 18 33 77 52 45 63
REMARK Flexibility Score: inf
ROOT
ATOM      1  C   UNL A   1      35.536  24.003  25.008  1.00  0.00     0.117 C 
ENDROOT
BRANCH   1   2
ATOM      2  N   UNL A   1      34.818  23.303  26.065  1.00  0.00    -0.356 N 
ATOM      3  C   UNL A   1      34.661  21.962  26.260  1.00  0.00     0.220 C 
ATOM      4  O   UNL A   1      34.434  21.561  27.399  1.00  0.00    -0.275 OA
ATOM      5  H   UNL A   1      34.383  23.879  26.734  1.00  0.00     0.163 HD
BRANCH   3   6
ATOM      6  C   UNL A   1      34.706  20.994  25.106  1.00  0.00     0.110 C 
BRANCH   6   7
ATOM      7  C   UNL A   1      33.406  20.980  24.304  1.00  0.00     0.110 C 
BRANCH   7   8
ATOM      8  C   UNL A   1      32.243  20.461  25.120  1.00  0.00     0.227 C 
ATOM      9  N   UNL A   1      31.204  21.254  25.485  1.00  0.00    -0.293 N 
ATOM     10  H   UNL A   1      30.499  20.806  26.006  1.00  0.00     0.173 HD
ATOM     11  O   UNL A   1      32.166  19.250  25.367  1.00  0.00    -0.275 OA
BRANCH   9  12
ATOM     12  C   UNL A   1      30.994  22.576  25.239  1.00  0.00     0.250 A 
ATOM     13  C   UNL A   1      30.983  27.503  22.321  1.00  0.00     0.062 C 
ATOM     14  C   UNL A   1      30.699  26.373  23.262  1.00  0.00     0.021 C 
ATOM     15  N   UNL A   1      31.117  25.175  22.981  1.00  0.00    -0.221 NA
ATOM     16  C   UNL A   1      29.933  26.694  24.528  1.00  0.00     0.083 C 
ATOM     17  C   UNL A   1      30.972  24.263  23.973  1.00  0.00     0.250 A 
ATOM     18  C   UNL A   1      30.612  26.011  25.705  1.00  0.00     0.147 C 
ATOM     19  N   UNL A   1      30.927  22.951  23.925  1.00  0.00    -0.174 NA
ATOM     20  N   UNL A   1      30.932  24.642  25.298  1.00  0.00    -0.220 N 
ATOM     21  N   UNL A   1      30.908  23.576  26.118  1.00  0.00    -0.130 NA
BRANCH  18  22
ATOM     22  C   UNL A   1      31.771  26.873  26.177  1.00  0.00    -0.023 A 
ATOM     23  C   UNL A   1      33.061  26.807  25.638  1.00  0.00     0.007 A 
ATOM     24  C   UNL A   1      31.513  27.856  27.153  1.00  0.00     0.007 A 
ATOM     25  C   UNL A   1      34.090  27.609  26.139  1.00  0.00     0.021 A 
ATOM     26  C   UNL A   1      32.528  28.690  27.624  1.00  0.00     0.021 A 
ATOM     27  C   UNL A   1      33.822  28.541  27.136  1.00  0.00     0.041 A 
ATOM     28  Cl  UNL A   1      35.090  29.516  27.766  1.00  0.00    -0.084 Cl
ENDBRANCH  18  22
ENDBRANCH   9  12
ENDBRANCH   7   8
ENDBRANCH   6   7
ENDBRANCH   3   6
ENDBRANCH   1   2
BRANCH   1  29
ATOM     29  C   UNL A   1      37.018  23.646  24.875  1.00  0.00     0.042 C 
BRANCH  29  30
ATOM     30  C   UNL A   1      37.728  23.505  26.207  1.00  0.00     0.118 C 
BRANCH  30  31
ATOM     31  N   UNL A   1      38.929  22.659  26.183  1.00  0.00    -0.352 N 
ATOM     32  C   UNL A   1      40.240  23.004  26.508  1.00  0.00     0.251 C 
ATOM     33  H   UNL A   1      38.789  21.727  25.899  1.00  0.00     0.163 HD
ATOM     34  O   UNL A   1      41.172  22.282  26.200  1.00  0.00    -0.269 OA
BRANCH  32  35
ATOM     35  C   UNL A   1      40.486  24.265  27.248  1.00  0.00     0.039 A 
ATOM     36  C   UNL A   1      41.569  24.460  28.115  1.00  0.00     0.014 A 
ATOM     37  C   UNL A   1      39.594  25.300  27.028  1.00  0.00     0.014 A 
ATOM     38  C   UNL A   1      41.720  25.710  28.728  1.00  0.00     0.010 A 
ATOM     39  C   UNL A   1      39.940  26.573  27.338  1.00  0.00     0.010 A 
ATOM     40  C   UNL A   1      40.877  26.756  28.332  1.00  0.00    -0.014 A 
BRANCH  40  41
ATOM     41  C   UNL A   1      40.912  28.116  28.826  1.00  0.00     0.031 A 
ATOM     42  C   UNL A   1      41.933  28.973  28.226  1.00  0.00     0.074 A 
ATOM     43  C   UNL A   1      39.930  28.623  29.605  1.00  0.00     0.049 A 
ATOM     44  N   UNL A   1      42.964  29.423  28.850  1.00  0.00    -0.248 NA
ATOM     45  C   UNL A   1      41.899  29.272  26.794  1.00  0.00     0.031 C 
ATOM     46  C   UNL A   1      38.827  27.915  30.268  1.00  0.00     0.029 A 
ATOM     47  N   UNL A   1      39.706  29.924  29.948  1.00  0.00    -0.354 N 
ATOM     48  C   UNL A   1      43.622  30.239  27.952  1.00  0.00     0.074 A 
ATOM     49  C   UNL A   1      43.035  29.965  26.661  1.00  0.00     0.031 C 
ATOM     50  C   UNL A   1      38.014  28.813  30.867  1.00  0.00     0.029 A 
ATOM     51  C   UNL A   1      38.513  30.150  30.618  1.00  0.00     0.049 A 
ATOM     52  H   UNL A   1      40.341  30.646  29.738  1.00  0.00     0.167 HD
ATOM     53  C   UNL A   1      44.406  31.248  28.414  1.00  0.00     0.037 A 
ATOM     54  C   UNL A   1      38.038  31.293  31.179  1.00  0.00     0.037 A 
ATOM     55  C   UNL A   1      44.725  31.066  29.815  1.00  0.00     0.049 A 
ATOM     56  C   UNL A   1      39.249  32.058  31.556  1.00  0.00     0.074 A 
ATOM     57  C   UNL A   1      45.346  30.064  30.540  1.00  0.00     0.029 A 
ATOM     58  N   UNL A   1      44.027  31.801  30.745  1.00  0.00    -0.354 N 
ATOM     59  N   UNL A   1      40.035  31.669  32.522  1.00  0.00    -0.248 NA
ATOM     60  C   UNL A   1      39.855  32.927  30.556  1.00  0.00     0.031 C 
ATOM     61  C   UNL A   1      44.589  29.948  31.747  1.00  0.00     0.029 A 
ATOM     62  C   UNL A   1      43.602  30.932  31.721  1.00  0.00     0.049 A 
ATOM     63  H   UNL A   1      43.863  32.771  30.717  1.00  0.00     0.167 HD
ATOM     64  C   UNL A   1      41.311  31.848  32.015  1.00  0.00     0.074 A 
ATOM     65  C   UNL A   1      41.142  32.691  30.832  1.00  0.00     0.031 C 
ATOM     66  C   UNL A   1      42.356  31.077  32.432  1.00  0.00     0.037 A 
BRANCH  53  67
ATOM     67  C   UNL A   1      44.563  32.567  27.713  1.00  0.00     0.064 A 
ATOM     68  C   UNL A   1      45.732  32.805  26.966  1.00  0.00     0.173 A 
ATOM     69  C   UNL A   1      43.764  33.702  27.975  1.00  0.00     0.173 A 
ATOM     70  F   UNL A   1      46.575  31.800  26.682  1.00  0.00    -0.203 F 
ATOM     71  C   UNL A   1      46.108  34.091  26.580  1.00  0.00     0.198 A 
ATOM     72  C   UNL A   1      44.113  34.976  27.537  1.00  0.00     0.198 A 
ATOM     73  F   UNL A   1      42.682  33.650  28.762  1.00  0.00    -0.203 F 
ATOM     74  F   UNL A   1      47.294  34.286  25.987  1.00  0.00    -0.200 F 
ATOM     75  C   UNL A   1      45.302  35.176  26.870  1.00  0.00     0.200 A 
ATOM     76  F   UNL A   1      43.328  36.016  27.850  1.00  0.00    -0.200 F 
ATOM     77  F   UNL A   1      45.691  36.418  26.558  1.00  0.00    -0.200 F 
ENDBRANCH  53  67
BRANCH  54  78
ATOM     78  C   UNL A   1      36.792  31.974  30.718  1.00  0.00     0.064 A 
ATOM     79  C   UNL A   1      35.866  32.510  31.627  1.00  0.00     0.173 A 
ATOM     80  C   UNL A   1      36.562  32.266  29.362  1.00  0.00     0.173 A 
ATOM     81  F   UNL A   1      36.045  32.336  32.945  1.00  0.00    -0.203 F 
ATOM     82  C   UNL A   1      34.758  33.259  31.201  1.00  0.00     0.198 A 
ATOM     83  C   UNL A   1      35.455  33.009  28.935  1.00  0.00     0.198 A 
ATOM     84  F   UNL A   1      37.439  31.874  28.427  1.00  0.00    -0.203 F 
ATOM     85  F   UNL A   1      33.903  33.768  32.099  1.00  0.00    -0.200 F 
ATOM     86  C   UNL A   1      34.548  33.500  29.854  1.00  0.00     0.200 A 
ATOM     87  F   UNL A   1      35.277  33.255  27.629  1.00  0.00    -0.200 F 
ATOM     88  F   UNL A   1      33.493  34.215  29.439  1.00  0.00    -0.200 F 
ENDBRANCH  54  78
BRANCH  66  89
ATOM     89  C   UNL A   1      42.113  30.147  33.589  1.00  0.00     0.064 A 
ATOM     90  C   UNL A   1      41.688  28.815  33.441  1.00  0.00     0.173 A 
ATOM     91  C   UNL A   1      42.461  30.565  34.877  1.00  0.00     0.173 A 
ATOM     92  F   UNL A   1      41.435  28.311  32.232  1.00  0.00    -0.203 F 
ATOM     93  C   UNL A   1      41.578  27.954  34.532  1.00  0.00     0.198 A 
ATOM     94  C   UNL A   1      42.383  29.695  35.964  1.00  0.00     0.198 A 
ATOM     95  F   UNL A   1      42.927  31.807  35.073  1.00  0.00    -0.203 F 
ATOM     96  F   UNL A   1      41.164  26.691  34.356  1.00  0.00    -0.200 F 
ATOM     97  C   UNL A   1      41.934  28.395  35.794  1.00  0.00     0.200 A 
ATOM     98  F   UNL A   1      42.775  30.112  37.177  1.00  0.00    -0.200 F 
ATOM     99  F   UNL A   1      41.872  27.560  36.841  1.00  0.00    -0.200 F 
ENDBRANCH  66  89
ENDBRANCH  40  41
ENDBRANCH  32  35
ENDBRANCH  30  31
ENDBRANCH  29  30
ENDBRANCH   1  29
TORSDOF 14
ENDMDL
MODEL 2
REMARK VINA RESULT:     -13.8      1.465      2.131
REMARK SMILES CC1=Nc2nc(NC(=O)CCC(=O)NCCCNC(=O)c3ccc(-c4c5nc(c(-c6c(F)c(F)c(F)c(F)c6F)c6ccc([nH]6)c(-c6c(F)c(F)c(F)c(F)c6F)c6nc(c(-c7c(F)c(F)c(F)c(F)c7F)c7ccc4[nH]7)C=C6)C=C5)cc3)nn2[C@@H](c2ccc(Cl)cc2)C1
REMARK SMILES IDX 15 1 14 2 12 3 13 4 11 6 10 7 8 8 7 9 9 11 6 12 1 13 2 14
REMARK SMILES IDX 3 15 94 16 4 17 86 18 5 19 85 20 84 21 87 22 88 23 93 24
REMARK SMILES IDX 89 25 92 26 90 27 91 28 16 29 17 30 18 31 19 32 20 34 21 35
REMARK SMILES IDX 22 36 83 37 23 38 82 39 24 40 25 41 26 42 76 43 27 44 81 45
REMARK SMILES IDX 75 46 77 47 28 48 80 49 74 50 73 51 29 53 61 54 41 55 60 56
REMARK SMILES IDX 42 57 45 58 59 59 78 60 43 61 44 62 58 64 79 65 46 66 30 67
REMARK SMILES IDX 31 68 39 69 32 70 33 71 37 72 40 73 34 74 35 75 38 76 36 77
REMARK SMILES IDX 62 78 63 79 71 80 64 81 65 82 69 83 72 84 66 85 67 86 70 87
REMARK SMILES IDX 68 88 47 89 48 90 56 91 49 92 50 93 54 94 57 95 51 96 52 97
REMARK SMILES IDX 55 98 53 99
REMARK H PARENT 14 5 7 10 18 33 77 52 45 63
REMARK Flexibility Score: inf
ROOT
ATOM      1  C   UNL A   1      37.317  22.724  25.342  1.00  0.00     0.117 C 
ENDROOT
BRANCH   1   2
ATOM      2  N   UNL A   1      36.112  22.722  26.161  1.00  0.00    -0.356 N 
ATOM      3  C   UNL A   1      35.106  21.803  26.215  1.00  0.00     0.220 C 
ATOM      4  O   UNL A   1      34.439  21.728  27.244  1.00  0.00    -0.275 OA
ATOM      5  H   UNL A   1      36.009  23.495  26.763  1.00  0.00     0.163 HD
BRANCH   3   6
ATOM      6  C   UNL A   1      34.775  20.936  25.028  1.00  0.00     0.110 C 
BRANCH   6   7
ATOM      7  C   UNL A   1      33.574  21.458  24.241  1.00  0.00     0.110 C 
BRANCH   7   8
ATOM      8  C   UNL A   1      32.273  21.237  24.980  1.00  0.00     0.227 C 
ATOM      9  N   UNL A   1      31.556  22.261  25.506  1.00  0.00    -0.293 N 
ATOM     10  H   UNL A   1      30.720  22.000  25.956  1.00  0.00     0.173 HD
ATOM     11  O   UNL A   1      31.776  20.103  25.009  1.00  0.00    -0.275 OA
BRANCH   9  12
ATOM     12  C   UNL A   1      31.822  23.597  25.505  1.00  0.00     0.250 A 
ATOM     13  C   UNL A   1      31.892  29.004  27.386  1.00  0.00     0.062 C 
ATOM     14  C   UNL A   1      32.182  27.697  26.714  1.00  0.00     0.021 C 
ATOM     15  N   UNL A   1      31.676  26.599  27.188  1.00  0.00    -0.221 NA
ATOM     16  C   UNL A   1      33.061  27.726  25.481  1.00  0.00     0.083 C 
ATOM     17  C   UNL A   1      31.844  25.501  26.410  1.00  0.00     0.250 A 
ATOM     18  C   UNL A   1      32.435  26.849  24.407  1.00  0.00     0.147 C 
ATOM     19  N   UNL A   1      31.810  24.224  26.720  1.00  0.00    -0.174 NA
ATOM     20  N   UNL A   1      32.007  25.604  25.046  1.00  0.00    -0.220 N 
ATOM     21  N   UNL A   1      32.033  24.395  24.457  1.00  0.00    -0.130 NA
BRANCH  18  22
ATOM     22  C   UNL A   1      31.368  27.646  23.676  1.00  0.00    -0.023 A 
ATOM     23  C   UNL A   1      31.646  28.703  22.804  1.00  0.00     0.007 A 
ATOM     24  C   UNL A   1      30.025  27.242  23.818  1.00  0.00     0.007 A 
ATOM     25  C   UNL A   1      30.613  29.414  22.186  1.00  0.00     0.021 A 
ATOM     26  C   UNL A   1      28.994  27.922  23.166  1.00  0.00     0.021 A 
ATOM     27  C   UNL A   1      29.291  29.027  22.376  1.00  0.00     0.041 A 
ATOM     28  Cl  UNL A   1      28.019  29.912  21.631  1.00  0.00    -0.084 Cl
ENDBRANCH  18  22
ENDBRANCH   9  12
ENDBRANCH   7   8
ENDBRANCH   6   7
ENDBRANCH   3   6
ENDBRANCH   1   2
BRANCH   1  29
ATOM     29  C   UNL A   1      38.401  21.732  25.767  1.00  0.00     0.042 C 
BRANCH  29  30
ATOM     30  C   UNL A   1      39.485  22.354  26.625  1.00  0.00     0.118 C 
BRANCH  30  31
ATOM     31  N   UNL A   1      40.850  22.205  26.104  1.00  0.00    -0.352 N 
ATOM     32  C   UNL A   1      41.865  23.159  26.044  1.00  0.00     0.251 C 
ATOM     33  H   UNL A   1      41.078  21.315  25.751  1.00  0.00     0.163 HD
ATOM     34  O   UNL A   1      42.856  22.977  25.358  1.00  0.00    -0.269 OA
BRANCH  32  35
ATOM     35  C   UNL A   1      41.727  24.404  26.838  1.00  0.00     0.039 A 
ATOM     36  C   UNL A   1      42.278  24.579  28.114  1.00  0.00     0.014 A 
ATOM     37  C   UNL A   1      41.029  25.443  26.248  1.00  0.00     0.014 A 
ATOM     38  C   UNL A   1      42.114  25.815  28.751  1.00  0.00     0.010 A 
ATOM     39  C   UNL A   1      41.179  26.709  26.709  1.00  0.00     0.010 A 
ATOM     40  C   UNL A   1      41.543  26.870  28.028  1.00  0.00    -0.014 A 
BRANCH  40  41
ATOM     41  C   UNL A   1      41.330  28.218  28.508  1.00  0.00     0.031 A 
ATOM     42  C   UNL A   1      42.272  29.217  28.005  1.00  0.00     0.074 A 
ATOM     43  C   UNL A   1      40.210  28.575  29.177  1.00  0.00     0.049 A 
ATOM     44  N   UNL A   1      43.158  29.809  28.726  1.00  0.00    -0.248 NA
ATOM     45  C   UNL A   1      42.343  29.513  26.574  1.00  0.00     0.031 C 
ATOM     46  C   UNL A   1      39.160  27.713  29.732  1.00  0.00     0.029 A 
ATOM     47  N   UNL A   1      39.767  29.829  29.481  1.00  0.00    -0.354 N 
ATOM     48  C   UNL A   1      43.780  30.715  27.891  1.00  0.00     0.074 A 
ATOM     49  C   UNL A   1      43.374  30.364  26.550  1.00  0.00     0.031 C 
ATOM     50  C   UNL A   1      38.168  28.481  30.235  1.00  0.00     0.029 A 
ATOM     51  C   UNL A   1      38.491  29.877  30.023  1.00  0.00     0.049 A 
ATOM     52  H   UNL A   1      40.309  30.636  29.328  1.00  0.00     0.167 HD
ATOM     53  C   UNL A   1      44.358  31.825  28.419  1.00  0.00     0.037 A 
ATOM     54  C   UNL A   1      37.802  30.937  30.520  1.00  0.00     0.037 A 
ATOM     55  C   UNL A   1      44.555  31.686  29.847  1.00  0.00     0.049 A 
ATOM     56  C   UNL A   1      38.844  31.869  31.009  1.00  0.00     0.074 A 
ATOM     57  C   UNL A   1      45.236  30.783  30.643  1.00  0.00     0.029 A 
ATOM     58  N   UNL A   1      43.667  32.309  30.693  1.00  0.00    -0.354 N 
ATOM     59  N   UNL A   1      39.574  31.594  32.055  1.00  0.00    -0.248 NA
ATOM     60  C   UNL A   1      39.417  32.819  30.066  1.00  0.00     0.031 C 
ATOM     61  C   UNL A   1      44.385  30.554  31.767  1.00  0.00     0.029 A 
ATOM     62  C   UNL A   1      43.274  31.384  31.630  1.00  0.00     0.049 A 
ATOM     63  H   UNL A   1      43.367  33.245  30.638  1.00  0.00     0.167 HD
ATOM     64  C   UNL A   1      40.857  31.958  31.679  1.00  0.00     0.074 A 
ATOM     65  C   UNL A   1      40.690  32.772  30.475  1.00  0.00     0.031 C 
ATOM     66  C   UNL A   1      41.954  31.344  32.209  1.00  0.00     0.037 A 
BRANCH  53  67
ATOM     67  C   UNL A   1      44.394  33.156  27.723  1.00  0.00     0.064 A 
ATOM     68  C   UNL A   1      45.519  33.486  26.945  1.00  0.00     0.173 A 
ATOM     69  C   UNL A   1      43.518  34.225  28.015  1.00  0.00     0.173 A 
ATOM     70  F   UNL A   1      46.429  32.551  26.630  1.00  0.00    -0.203 F 
ATOM     71  C   UNL A   1      45.785  34.800  26.557  1.00  0.00     0.198 A 
ATOM     72  C   UNL A   1      43.756  35.524  27.576  1.00  0.00     0.198 A 
ATOM     73  F   UNL A   1      42.466  34.087  28.832  1.00  0.00    -0.203 F 
ATOM     74  F   UNL A   1      46.935  35.087  25.932  1.00  0.00    -0.200 F 
ATOM     75  C   UNL A   1      44.906  35.818  26.877  1.00  0.00     0.200 A 
ATOM     76  F   UNL A   1      42.903  36.499  27.918  1.00  0.00    -0.200 F 
ATOM     77  F   UNL A   1      45.191  37.087  26.563  1.00  0.00    -0.200 F 
ENDBRANCH  53  67
BRANCH  54  78
ATOM     78  C   UNL A   1      36.524  31.432  29.926  1.00  0.00     0.064 A 
ATOM     79  C   UNL A   1      35.807  32.494  30.502  1.00  0.00     0.173 A 
ATOM     80  C   UNL A   1      36.061  30.983  28.677  1.00  0.00     0.173 A 
ATOM     81  F   UNL A   1      36.219  33.028  31.660  1.00  0.00    -0.203 F 
ATOM     82  C   UNL A   1      34.675  33.045  29.882  1.00  0.00     0.198 A 
ATOM     83  C   UNL A   1      34.929  31.529  28.060  1.00  0.00     0.198 A 
ATOM     84  F   UNL A   1      36.731  30.034  28.008  1.00  0.00    -0.203 F 
ATOM     85  F   UNL A   1      34.025  34.069  30.453  1.00  0.00    -0.200 F 
ATOM     86  C   UNL A   1      34.231  32.555  28.665  1.00  0.00     0.200 A 
ATOM     87  F   UNL A   1      34.523  31.061  26.870  1.00  0.00    -0.200 F 
ATOM     88  F   UNL A   1      33.150  33.077  28.067  1.00  0.00    -0.200 F 
ENDBRANCH  54  78
BRANCH  66  89
ATOM     89  C   UNL A   1      41.731  30.385  33.346  1.00  0.00     0.064 A 
ATOM     90  C   UNL A   1      41.547  29.002  33.171  1.00  0.00     0.173 A 
ATOM     91  C   UNL A   1      41.852  30.851  34.657  1.00  0.00     0.173 A 
ATOM     92  F   UNL A   1      41.523  28.466  31.951  1.00  0.00    -0.203 F 
ATOM     93  C   UNL A   1      41.451  28.132  34.257  1.00  0.00     0.198 A 
ATOM     94  C   UNL A   1      41.789  29.978  35.743  1.00  0.00     0.198 A 
ATOM     95  F   UNL A   1      42.084  32.152  34.886  1.00  0.00    -0.203 F 
ATOM     96  F   UNL A   1      41.271  26.818  34.055  1.00  0.00    -0.200 F 
ATOM     97  C   UNL A   1      41.579  28.623  35.544  1.00  0.00     0.200 A 
ATOM     98  F   UNL A   1      41.962  30.450  36.986  1.00  0.00    -0.200 F 
ATOM     99  F   UNL A   1      41.531  27.787  36.591  1.00  0.00    -0.200 F 
ENDBRANCH  66  89
ENDBRANCH  40  41
ENDBRANCH  32  35
ENDBRANCH  30  31
ENDBRANCH  29  30
ENDBRANCH   1  29
TORSDOF 14
ENDMDL
MODEL 3
REMARK VINA RESULT:     -13.8      3.300      8.482
REMARK SMILES CC1=Nc2nc(NC(=O)CCC(=O)NCCCNC(=O)c3ccc(-c4c5nc(c(-c6c(F)c(F)c(F)c(F)c6F)c6ccc([nH]6)c(-c6c(F)c(F)c(F)c(F)c6F)c6nc(c(-c7c(F)c(F)c(F)c(F)c7F)c7ccc4[nH]7)C=C6)C=C5)cc3)nn2[C@@H](c2ccc(Cl)cc2)C1
REMARK SMILES IDX 15 1 14 2 12 3 13 4 11 6 10 7 8 8 7 9 9 11 6 12 1 13 2 14
REMARK SMILES IDX 3 15 94 16 4 17 86 18 5 19 85 20 84 21 87 22 88 23 93 24
REMARK SMILES IDX 89 25 92 26 90 27 91 28 16 29 17 30 18 31 19 32 20 34 21 35
REMARK SMILES IDX 22 36 83 37 23 38 82 39 24 40 25 41 26 42 76 43 27 44 81 45
REMARK SMILES IDX 75 46 77 47 28 48 80 49 74 50 73 51 29 53 61 54 41 55 60 56
REMARK SMILES IDX 42 57 45 58 59 59 78 60 43 61 44 62 58 64 79 65 46 66 30 67
REMARK SMILES IDX 31 68 39 69 32 70 33 71 37 72 40 73 34 74 35 75 38 76 36 77
REMARK SMILES IDX 62 78 63 79 71 80 64 81 65 82 69 83 72 84 66 85 67 86 70 87
REMARK SMILES IDX 68 88 47 89 48 90 56 91 49 92 50 93 54 94 57 95 51 96 52 97
REMARK SMILES IDX 55 98 53 99
REMARK H PARENT 14 5 7 10 18 33 77 52 45 63
REMARK Flexibility Score: inf
ROOT
ATOM      1  C   UNL A   1      32.814  29.874  27.249  1.00  0.00     0.117 C 
ENDROOT
BRANCH   1   2
ATOM      2  N   UNL A   1      32.322  28.504  27.171  1.00  0.00    -0.356 N 
ATOM      3  C   UNL A   1      31.785  27.840  26.109  1.00  0.00     0.220 C 
ATOM      4  O   UNL A   1      31.854  26.612  26.093  1.00  0.00    -0.275 OA
ATOM      5  H   UNL A   1      32.386  27.984  28.005  1.00  0.00     0.163 HD
BRANCH   3   6
ATOM      6  C   UNL A   1      31.073  28.576  25.003  1.00  0.00     0.110 C 
BRANCH   6   7
ATOM      7  C   UNL A   1      31.967  28.806  23.786  1.00  0.00     0.110 C 
BRANCH   7   8
ATOM      8  C   UNL A   1      31.201  28.675  22.488  1.00  0.00     0.227 C 
ATOM      9  N   UNL A   1      31.029  27.481  21.867  1.00  0.00    -0.293 N 
ATOM     10  H   UNL A   1      30.505  27.514  21.034  1.00  0.00     0.173 HD
ATOM     11  O   UNL A   1      30.607  29.660  22.031  1.00  0.00    -0.275 OA
BRANCH   9  12
ATOM     12  C   UNL A   1      31.476  26.245  22.224  1.00  0.00     0.250 A 
ATOM     13  C   UNL A   1      31.806  21.373  25.213  1.00  0.00     0.062 C 
ATOM     14  C   UNL A   1      31.854  22.434  24.157  1.00  0.00     0.021 C 
ATOM     15  N   UNL A   1      31.126  23.502  24.279  1.00  0.00    -0.221 NA
ATOM     16  C   UNL A   1      32.781  22.206  22.982  1.00  0.00     0.083 C 
ATOM     17  C   UNL A   1      31.374  24.479  23.372  1.00  0.00     0.250 A 
ATOM     18  C   UNL A   1      33.554  23.488  22.706  1.00  0.00     0.147 C 
ATOM     19  N   UNL A   1      30.621  25.478  22.968  1.00  0.00    -0.174 NA
ATOM     20  N   UNL A   1      32.604  24.599  22.763  1.00  0.00    -0.220 N 
ATOM     21  N   UNL A   1      32.673  25.702  21.997  1.00  0.00    -0.130 NA
BRANCH  18  22
ATOM     22  C   UNL A   1      34.747  23.558  23.644  1.00  0.00    -0.023 A 
ATOM     23  C   UNL A   1      34.747  24.263  24.853  1.00  0.00     0.007 A 
ATOM     24  C   UNL A   1      35.890  22.799  23.322  1.00  0.00     0.007 A 
ATOM     25  C   UNL A   1      35.890  24.310  25.656  1.00  0.00     0.021 A 
ATOM     26  C   UNL A   1      37.018  22.808  24.145  1.00  0.00     0.021 A 
ATOM     27  C   UNL A   1      37.024  23.590  25.295  1.00  0.00     0.041 A 
ATOM     28  Cl  UNL A   1      38.436  23.662  26.273  1.00  0.00    -0.084 Cl
ENDBRANCH  18  22
ENDBRANCH   9  12
ENDBRANCH   7   8
ENDBRANCH   6   7
ENDBRANCH   3   6
ENDBRANCH   1   2
BRANCH   1  29
ATOM     29  C   UNL A   1      34.321  30.018  27.466  1.00  0.00     0.042 C 
BRANCH  29  30
ATOM     30  C   UNL A   1      34.767  31.453  27.668  1.00  0.00     0.118 C 
BRANCH  30  31
ATOM     31  N   UNL A   1      34.505  32.002  29.005  1.00  0.00    -0.352 N 
ATOM     32  C   UNL A   1      35.264  31.861  30.165  1.00  0.00     0.251 C 
ATOM     33  H   UNL A   1      33.686  32.541  29.093  1.00  0.00     0.163 HD
ATOM     34  O   UNL A   1      34.802  32.150  31.256  1.00  0.00    -0.269 OA
BRANCH  32  35
ATOM     35  C   UNL A   1      36.655  31.357  30.056  1.00  0.00     0.039 A 
ATOM     36  C   UNL A   1      37.775  32.187  29.922  1.00  0.00     0.014 A 
ATOM     37  C   UNL A   1      36.826  29.985  30.118  1.00  0.00     0.014 A 
ATOM     38  C   UNL A   1      39.044  31.597  29.866  1.00  0.00     0.010 A 
ATOM     39  C   UNL A   1      38.042  29.465  30.413  1.00  0.00     0.010 A 
ATOM     40  C   UNL A   1      39.152  30.221  30.102  1.00  0.00    -0.014 A 
BRANCH  40  41
ATOM     41  C   UNL A   1      40.377  29.451  30.120  1.00  0.00     0.031 A 
ATOM     42  C   UNL A   1      40.909  29.154  31.450  1.00  0.00     0.074 A 
ATOM     43  C   UNL A   1      40.866  28.849  29.013  1.00  0.00     0.049 A 
ATOM     44  N   UNL A   1      41.995  29.653  31.928  1.00  0.00    -0.248 NA
ATOM     45  C   UNL A   1      40.137  28.343  32.392  1.00  0.00     0.031 C 
ATOM     46  C   UNL A   1      40.444  29.015  27.616  1.00  0.00     0.029 A 
ATOM     47  N   UNL A   1      41.858  27.916  28.921  1.00  0.00    -0.354 N 
ATOM     48  C   UNL A   1      42.168  29.065  33.164  1.00  0.00     0.074 A 
ATOM     49  C   UNL A   1      40.916  28.418  33.476  1.00  0.00     0.031 C 
ATOM     50  C   UNL A   1      41.128  28.151  26.834  1.00  0.00     0.029 A 
ATOM     51  C   UNL A   1      42.013  27.357  27.662  1.00  0.00     0.049 A 
ATOM     52  H   UNL A   1      42.420  27.660  29.688  1.00  0.00     0.167 HD
ATOM     53  C   UNL A   1      43.418  28.954  33.684  1.00  0.00     0.037 A 
ATOM     54  C   UNL A   1      42.955  26.488  27.211  1.00  0.00     0.037 A 
ATOM     55  C   UNL A   1      44.350  29.828  33.000  1.00  0.00     0.049 A 
ATOM     56  C   UNL A   1      44.147  26.758  28.048  1.00  0.00     0.074 A 
ATOM     57  C   UNL A   1      44.410  31.193  32.784  1.00  0.00     0.029 A 
ATOM     58  N   UNL A   1      45.192  29.280  32.061  1.00  0.00    -0.354 N 
ATOM     59  N   UNL A   1      44.826  27.867  27.940  1.00  0.00    -0.248 NA
ATOM     60  C   UNL A   1      44.267  26.062  29.322  1.00  0.00     0.031 C 
ATOM     61  C   UNL A   1      44.861  31.341  31.437  1.00  0.00     0.029 A 
ATOM     62  C   UNL A   1      45.121  30.066  30.937  1.00  0.00     0.049 A 
ATOM     63  H   UNL A   1      45.743  28.472  32.172  1.00  0.00     0.167 HD
ATOM     64  C   UNL A   1      45.073  28.244  29.249  1.00  0.00     0.074 A 
ATOM     65  C   UNL A   1      44.770  27.061  30.055  1.00  0.00     0.031 C 
ATOM     66  C   UNL A   1      45.232  29.554  29.594  1.00  0.00     0.037 A 
BRANCH  53  67
ATOM     67  C   UNL A   1      43.867  27.801  34.536  1.00  0.00     0.064 A 
ATOM     68  C   UNL A   1      43.798  26.499  34.008  1.00  0.00     0.173 A 
ATOM     69  C   UNL A   1      44.085  27.886  35.929  1.00  0.00     0.173 A 
ATOM     70  F   UNL A   1      43.569  26.304  32.700  1.00  0.00    -0.203 F 
ATOM     71  C   UNL A   1      43.864  25.370  34.826  1.00  0.00     0.198 A 
ATOM     72  C   UNL A   1      44.210  26.757  36.733  1.00  0.00     0.198 A 
ATOM     73  F   UNL A   1      44.067  29.051  36.587  1.00  0.00    -0.203 F 
ATOM     74  F   UNL A   1      43.661  24.155  34.298  1.00  0.00    -0.200 F 
ATOM     75  C   UNL A   1      44.065  25.500  36.188  1.00  0.00     0.200 A 
ATOM     76  F   UNL A   1      44.380  26.907  38.053  1.00  0.00    -0.200 F 
ATOM     77  F   UNL A   1      44.064  24.423  36.982  1.00  0.00    -0.200 F 
ENDBRANCH  53  67
BRANCH  54  78
ATOM     78  C   UNL A   1      42.634  25.113  26.724  1.00  0.00     0.064 A 
ATOM     79  C   UNL A   1      43.222  24.587  25.563  1.00  0.00     0.173 A 
ATOM     80  C   UNL A   1      41.865  24.216  27.485  1.00  0.00     0.173 A 
ATOM     81  F   UNL A   1      44.025  25.355  24.813  1.00  0.00    -0.203 F 
ATOM     82  C   UNL A   1      43.020  23.255  25.169  1.00  0.00     0.198 A 
ATOM     83  C   UNL A   1      41.659  22.888  27.091  1.00  0.00     0.198 A 
ATOM     84  F   UNL A   1      41.336  24.601  28.655  1.00  0.00    -0.203 F 
ATOM     85  F   UNL A   1      43.611  22.783  24.062  1.00  0.00    -0.200 F 
ATOM     86  C   UNL A   1      42.231  22.409  25.929  1.00  0.00     0.200 A 
ATOM     87  F   UNL A   1      40.912  22.072  27.849  1.00  0.00    -0.200 F 
ATOM     88  F   UNL A   1      42.035  21.135  25.560  1.00  0.00    -0.200 F 
ENDBRANCH  54  78
BRANCH  66  89
ATOM     89  C   UNL A   1      45.310  30.560  28.478  1.00  0.00     0.064 A 
ATOM     90  C   UNL A   1      44.215  31.327  28.045  1.00  0.00     0.173 A 
ATOM     91  C   UNL A   1      46.558  30.865  27.929  1.00  0.00     0.173 A 
ATOM     92  F   UNL A   1      43.010  31.166  28.594  1.00  0.00    -0.203 F 
ATOM     93  C   UNL A   1      44.353  32.324  27.081  1.00  0.00     0.198 A 
ATOM     94  C   UNL A   1      46.704  31.884  26.989  1.00  0.00     0.198 A 
ATOM     95  F   UNL A   1      47.650  30.205  28.343  1.00  0.00    -0.203 F 
ATOM     96  F   UNL A   1      43.285  33.035  26.687  1.00  0.00    -0.200 F 
ATOM     97  C   UNL A   1      45.602  32.607  26.559  1.00  0.00     0.200 A 
ATOM     98  F   UNL A   1      47.923  32.187  26.521  1.00  0.00    -0.200 F 
ATOM     99  F   UNL A   1      45.750  33.594  25.663  1.00  0.00    -0.200 F 
ENDBRANCH  66  89
ENDBRANCH  40  41
ENDBRANCH  32  35
ENDBRANCH  30  31
ENDBRANCH  29  30
ENDBRANCH   1  29
TORSDOF 14
ENDMDL
