MODEL 1
REMARK VINA RESULT:     -11.4      0.000      0.000
REMARK SMILES CC[C@@H](C)N(C)S(=O)(=O)c1cc(C(=O)NCCCNC(=O)c2ccc(-c3c4nc(c(-c5c(F)c(F)c(F)c(F)c5F)c5ccc([nH]5)c(-c5c(F)c(F)c(F)c(F)c5F)c5nc(c(-c6c(F)c(F)c(F)c(F)c6F)c6ccc3[nH]6)C=C5)C=C4)cc2)ccc1Br
REMARK SMILES IDX 16 1 15 2 13 3 14 4 12 6 10 7 11 8 87 9 86 10 88 11 85 12
REMARK SMILES IDX 7 13 8 14 9 15 5 16 6 17 3 18 4 19 2 20 1 21 17 22 18 23
REMARK SMILES IDX 19 24 20 25 21 27 22 28 23 29 84 30 24 31 83 32 25 33 26 34
REMARK SMILES IDX 27 35 77 36 28 37 82 38 76 39 78 40 29 41 81 42 75 43 74 44
REMARK SMILES IDX 30 46 62 47 42 48 61 49 43 50 46 51 60 52 79 53 44 54 45 55
REMARK SMILES IDX 59 57 80 58 47 59 31 60 32 61 40 62 33 63 34 64 38 65 41 66
REMARK SMILES IDX 35 67 36 68 39 69 37 70 63 71 64 72 72 73 65 74 66 75 70 76
REMARK SMILES IDX 73 77 67 78 68 79 71 80 69 81 48 82 49 83 57 84 50 85 51 86
REMARK SMILES IDX 55 87 58 88 52 89 53 90 56 91 54 92
REMARK H PARENT 15 5 19 26 78 45 46 56
REMARK Flexibility Score: inf
ROOT
ATOM      1  C   UNL A   1      31.655  30.624  26.669  1.00  0.00     0.118 C 
ENDROOT
BRANCH   1   2
ATOM      2  N   UNL A   1      32.947  30.189  27.164  1.00  0.00    -0.352 N 
ATOM      3  C   UNL A   1      33.851  29.257  26.721  1.00  0.00     0.251 C 
ATOM      4  O   UNL A   1      34.913  29.175  27.337  1.00  0.00    -0.269 OA
ATOM      5  H   UNL A   1      33.233  30.655  27.982  1.00  0.00     0.163 HD
BRANCH   3   6
ATOM      6  C   UNL A   1      33.631  28.371  25.539  1.00  0.00     0.041 A 
ATOM      7  C   UNL A   1      33.011  26.131  24.737  1.00  0.00     0.097 A 
ATOM      8  C   UNL A   1      33.290  27.030  25.789  1.00  0.00     0.036 A 
ATOM      9  C   UNL A   1      33.109  26.573  23.413  1.00  0.00     0.038 A 
ATOM     10  C   UNL A   1      33.434  27.911  23.165  1.00  0.00     0.018 A 
ATOM     11  Br  UNL A   1      32.867  25.520  21.851  1.00  0.00    -0.049 Br
ATOM     12  C   UNL A   1      33.656  28.804  24.215  1.00  0.00     0.015 A 
BRANCH   7  13
ATOM     13  S   UNL A   1      32.312  24.552  25.187  1.00  0.00     0.244 S 
ATOM     14  O   UNL A   1      31.135  24.328  24.373  1.00  0.00    -0.207 OA
ATOM     15  O   UNL A   1      32.179  24.562  26.627  1.00  0.00    -0.207 OA
BRANCH  13  16
ATOM     16  N   UNL A   1      33.491  23.370  24.787  1.00  0.00    -0.198 NA
ATOM     17  C   UNL A   1      33.430  22.086  25.523  1.00  0.00     0.124 C 
BRANCH  16  18
ATOM     18  C   UNL A   1      34.926  23.861  24.662  1.00  0.00     0.069 C 
ATOM     19  C   UNL A   1      35.622  23.325  23.407  1.00  0.00     0.026 C 
BRANCH  18  20
ATOM     20  C   UNL A   1      35.737  23.601  25.942  1.00  0.00     0.016 C 
ATOM     21  C   UNL A   1      37.202  23.274  25.672  1.00  0.00     0.005 C 
ENDBRANCH  18  20
ENDBRANCH  16  18
ENDBRANCH  13  16
ENDBRANCH   7  13
ENDBRANCH   3   6
ENDBRANCH   1   2
BRANCH   1  22
ATOM     22  C   UNL A   1      31.463  32.129  26.866  1.00  0.00     0.042 C 
BRANCH  22  23
ATOM     23  C   UNL A   1      32.775  32.881  27.078  1.00  0.00     0.118 C 
BRANCH  23  24
ATOM     24  N   UNL A   1      32.552  34.209  27.633  1.00  0.00    -0.352 N 
ATOM     25  C   UNL A   1      33.068  34.799  28.758  1.00  0.00     0.251 C 
ATOM     26  H   UNL A   1      31.931  34.773  27.119  1.00  0.00     0.163 HD
ATOM     27  O   UNL A   1      32.555  35.827  29.190  1.00  0.00    -0.269 OA
BRANCH  25  28
ATOM     28  C   UNL A   1      34.233  34.213  29.455  1.00  0.00     0.039 A 
ATOM     29  C   UNL A   1      34.009  33.410  30.578  1.00  0.00     0.014 A 
ATOM     30  C   UNL A   1      35.540  34.499  29.052  1.00  0.00     0.014 A 
ATOM     31  C   UNL A   1      35.092  32.857  31.264  1.00  0.00     0.010 A 
ATOM     32  C   UNL A   1      36.615  33.885  29.688  1.00  0.00     0.010 A 
ATOM     33  C   UNL A   1      36.402  33.067  30.807  1.00  0.00    -0.014 A 
BRANCH  33  34
ATOM     34  C   UNL A   1      37.562  32.443  31.491  1.00  0.00     0.031 A 
ATOM     35  C   UNL A   1      38.276  31.278  30.863  1.00  0.00     0.074 A 
ATOM     36  C   UNL A   1      37.925  32.880  32.711  1.00  0.00     0.049 A 
ATOM     37  N   UNL A   1      39.259  30.554  31.337  1.00  0.00    -0.248 NA
ATOM     38  C   UNL A   1      37.800  30.852  29.538  1.00  0.00     0.031 C 
ATOM     39  C   UNL A   1      37.273  33.965  33.446  1.00  0.00     0.029 A 
ATOM     40  N   UNL A   1      38.920  32.456  33.555  1.00  0.00    -0.354 N 
ATOM     41  C   UNL A   1      39.510  29.584  30.376  1.00  0.00     0.074 A 
ATOM     42  C   UNL A   1      38.536  29.772  29.323  1.00  0.00     0.031 C 
ATOM     43  C   UNL A   1      37.889  34.127  34.626  1.00  0.00     0.029 A 
ATOM     44  C   UNL A   1      38.954  33.137  34.748  1.00  0.00     0.049 A 
ATOM     45  H   UNL A   1      39.549  31.733  33.329  1.00  0.00     0.167 HD
ATOM     46  C   UNL A   1      40.481  28.639  30.362  1.00  0.00     0.037 A 
ATOM     47  C   UNL A   1      39.746  32.971  35.824  1.00  0.00     0.037 A 
ATOM     48  C   UNL A   1      41.451  28.464  31.412  1.00  0.00     0.049 A 
ATOM     49  C   UNL A   1      40.815  31.914  35.790  1.00  0.00     0.074 A 
ATOM     50  C   UNL A   1      42.508  27.574  31.472  1.00  0.00     0.029 A 
ATOM     51  N   UNL A   1      41.475  29.193  32.593  1.00  0.00    -0.354 N 
ATOM     52  N   UNL A   1      41.093  31.050  34.844  1.00  0.00    -0.248 NA
ATOM     53  C   UNL A   1      41.688  31.818  36.967  1.00  0.00     0.031 C 
ATOM     54  C   UNL A   1      43.139  27.729  32.712  1.00  0.00     0.029 A 
ATOM     55  C   UNL A   1      42.513  28.756  33.400  1.00  0.00     0.049 A 
ATOM     56  H   UNL A   1      40.846  29.914  32.824  1.00  0.00     0.167 HD
ATOM     57  C   UNL A   1      42.182  30.321  35.300  1.00  0.00     0.074 A 
ATOM     58  C   UNL A   1      42.527  30.858  36.600  1.00  0.00     0.031 C 
ATOM     59  C   UNL A   1      42.839  29.299  34.695  1.00  0.00     0.037 A 
BRANCH  46  60
ATOM     60  C   UNL A   1      40.530  27.720  29.173  1.00  0.00     0.064 A 
ATOM     61  C   UNL A   1      41.380  27.970  28.083  1.00  0.00     0.173 A 
ATOM     62  C   UNL A   1      39.725  26.572  29.122  1.00  0.00     0.173 A 
ATOM     63  F   UNL A   1      42.165  29.058  28.074  1.00  0.00    -0.203 F 
ATOM     64  C   UNL A   1      41.387  27.133  26.970  1.00  0.00     0.198 A 
ATOM     65  C   UNL A   1      39.761  25.717  28.022  1.00  0.00     0.198 A 
ATOM     66  F   UNL A   1      38.901  26.278  30.138  1.00  0.00    -0.203 F 
ATOM     67  F   UNL A   1      42.155  27.432  25.913  1.00  0.00    -0.200 F 
ATOM     68  C   UNL A   1      40.580  26.005  26.942  1.00  0.00     0.200 A 
ATOM     69  F   UNL A   1      38.992  24.619  28.004  1.00  0.00    -0.200 F 
ATOM     70  F   UNL A   1      40.586  25.202  25.870  1.00  0.00    -0.200 F 
ENDBRANCH  46  60
BRANCH  47  71
ATOM     71  C   UNL A   1      39.557  33.843  37.012  1.00  0.00     0.064 A 
ATOM     72  C   UNL A   1      40.136  35.118  37.072  1.00  0.00     0.173 A 
ATOM     73  C   UNL A   1      38.768  33.432  38.097  1.00  0.00     0.173 A 
ATOM     74  F   UNL A   1      40.913  35.549  36.066  1.00  0.00    -0.203 F 
ATOM     75  C   UNL A   1      39.944  35.943  38.178  1.00  0.00     0.198 A 
ATOM     76  C   UNL A   1      38.554  34.270  39.189  1.00  0.00     0.198 A 
ATOM     77  F   UNL A   1      38.184  32.225  38.084  1.00  0.00    -0.203 F 
ATOM     78  F   UNL A   1      40.538  37.144  38.225  1.00  0.00    -0.200 F 
ATOM     79  C   UNL A   1      39.147  35.522  39.232  1.00  0.00     0.200 A 
ATOM     80  F   UNL A   1      37.766  33.867  40.194  1.00  0.00    -0.200 F 
ATOM     81  F   UNL A   1      38.950  36.323  40.288  1.00  0.00    -0.200 F 
ENDBRANCH  47  71
BRANCH  59  82
ATOM     82  C   UNL A   1      44.012  28.710  35.425  1.00  0.00     0.064 A 
ATOM     83  C   UNL A   1      43.866  27.627  36.304  1.00  0.00     0.173 A 
ATOM     84  C   UNL A   1      45.305  29.212  35.212  1.00  0.00     0.173 A 
ATOM     85  F   UNL A   1      42.650  27.120  36.555  1.00  0.00    -0.203 F 
ATOM     86  C   UNL A   1      44.967  27.085  36.962  1.00  0.00     0.198 A 
ATOM     87  C   UNL A   1      46.408  28.648  35.847  1.00  0.00     0.198 A 
ATOM     88  F   UNL A   1      45.501  30.244  34.377  1.00  0.00    -0.203 F 
ATOM     89  F   UNL A   1      44.798  26.084  37.835  1.00  0.00    -0.200 F 
ATOM     90  C   UNL A   1      46.237  27.591  36.726  1.00  0.00     0.200 A 
ATOM     91  F   UNL A   1      47.636  29.129  35.606  1.00  0.00    -0.200 F 
ATOM     92  F   UNL A   1      47.297  27.063  37.355  1.00  0.00    -0.200 F 
ENDBRANCH  59  82
ENDBRANCH  33  34
ENDBRANCH  25  28
ENDBRANCH  23  24
ENDBRANCH  22  23
ENDBRANCH   1  22
TORSDOF 14
ENDMDL
MODEL 2
REMARK VINA RESULT:     -11.3      1.613      2.459
REMARK SMILES CC[C@@H](C)N(C)S(=O)(=O)c1cc(C(=O)NCCCNC(=O)c2ccc(-c3c4nc(c(-c5c(F)c(F)c(F)c(F)c5F)c5ccc([nH]5)c(-c5c(F)c(F)c(F)c(F)c5F)c5nc(c(-c6c(F)c(F)c(F)c(F)c6F)c6ccc3[nH]6)C=C5)C=C4)cc2)ccc1Br
REMARK SMILES IDX 16 1 15 2 13 3 14 4 12 6 10 7 11 8 87 9 86 10 88 11 85 12
REMARK SMILES IDX 7 13 8 14 9 15 5 16 6 17 3 18 4 19 2 20 1 21 17 22 18 23
REMARK SMILES IDX 19 24 20 25 21 27 22 28 23 29 84 30 24 31 83 32 25 33 26 34
REMARK SMILES IDX 27 35 77 36 28 37 82 38 76 39 78 40 29 41 81 42 75 43 74 44
REMARK SMILES IDX 30 46 62 47 42 48 61 49 43 50 46 51 60 52 79 53 44 54 45 55
REMARK SMILES IDX 59 57 80 58 47 59 31 60 32 61 40 62 33 63 34 64 38 65 41 66
REMARK SMILES IDX 35 67 36 68 39 69 37 70 63 71 64 72 72 73 65 74 66 75 70 76
REMARK SMILES IDX 73 77 67 78 68 79 71 80 69 81 48 82 49 83 57 84 50 85 51 86
REMARK SMILES IDX 55 87 58 88 52 89 53 90 56 91 54 92
REMARK H PARENT 15 5 19 26 78 45 46 56
REMARK Flexibility Score: inf
ROOT
ATOM      1  C   UNL A   1      31.316  30.514  25.442  1.00  0.00     0.118 C 
ENDROOT
BRANCH   1   2
ATOM      2  N   UNL A   1      30.407  30.696  24.326  1.00  0.00    -0.352 N 
ATOM      3  C   UNL A   1      29.804  29.819  23.461  1.00  0.00     0.251 C 
ATOM      4  O   UNL A   1      29.011  30.295  22.649  1.00  0.00    -0.269 OA
ATOM      5  H   UNL A   1      30.176  31.637  24.155  1.00  0.00     0.163 HD
BRANCH   3   6
ATOM      6  C   UNL A   1      30.034  28.344  23.465  1.00  0.00     0.041 A 
ATOM      7  C   UNL A   1      31.658  26.517  23.198  1.00  0.00     0.097 A 
ATOM      8  C   UNL A   1      31.332  27.890  23.166  1.00  0.00     0.036 A 
ATOM      9  C   UNL A   1      30.663  25.582  23.501  1.00  0.00     0.038 A 
ATOM     10  C   UNL A   1      29.377  26.035  23.812  1.00  0.00     0.018 A 
ATOM     11  Br  UNL A   1      30.856  23.693  23.513  1.00  0.00    -0.049 Br
ATOM     12  C   UNL A   1      29.078  27.399  23.829  1.00  0.00     0.015 A 
BRANCH   7  13
ATOM     13  S   UNL A   1      33.389  26.095  23.088  1.00  0.00     0.244 S 
ATOM     14  O   UNL A   1      34.165  27.295  23.327  1.00  0.00    -0.207 OA
ATOM     15  O   UNL A   1      33.556  25.388  21.837  1.00  0.00    -0.207 OA
BRANCH  13  16
ATOM     16  N   UNL A   1      33.696  24.979  24.356  1.00  0.00    -0.198 NA
ATOM     17  C   UNL A   1      33.605  25.496  25.741  1.00  0.00     0.124 C 
BRANCH  16  18
ATOM     18  C   UNL A   1      34.912  24.081  24.186  1.00  0.00     0.069 C 
ATOM     19  C   UNL A   1      34.533  22.644  23.816  1.00  0.00     0.026 C 
BRANCH  18  20
ATOM     20  C   UNL A   1      35.851  24.147  25.402  1.00  0.00     0.016 C 
ATOM     21  C   UNL A   1      37.132  23.339  25.221  1.00  0.00     0.005 C 
ENDBRANCH  18  20
ENDBRANCH  16  18
ENDBRANCH  13  16
ENDBRANCH   7  13
ENDBRANCH   3   6
ENDBRANCH   1   2
BRANCH   1  22
ATOM     22  C   UNL A   1      31.191  31.657  26.452  1.00  0.00     0.042 C 
BRANCH  22  23
ATOM     23  C   UNL A   1      32.539  32.230  26.882  1.00  0.00     0.118 C 
BRANCH  23  24
ATOM     24  N   UNL A   1      32.428  33.628  27.279  1.00  0.00    -0.352 N 
ATOM     25  C   UNL A   1      33.054  34.316  28.287  1.00  0.00     0.251 C 
ATOM     26  H   UNL A   1      31.805  34.162  26.738  1.00  0.00     0.163 HD
ATOM     27  O   UNL A   1      32.630  35.419  28.617  1.00  0.00    -0.269 OA
BRANCH  25  28
ATOM     28  C   UNL A   1      34.230  33.747  28.978  1.00  0.00     0.039 A 
ATOM     29  C   UNL A   1      34.029  32.739  29.926  1.00  0.00     0.014 A 
ATOM     30  C   UNL A   1      35.517  34.239  28.745  1.00  0.00     0.014 A 
ATOM     31  C   UNL A   1      35.122  32.195  30.605  1.00  0.00     0.010 A 
ATOM     32  C   UNL A   1      36.613  33.644  29.364  1.00  0.00     0.010 A 
ATOM     33  C   UNL A   1      36.425  32.624  30.308  1.00  0.00    -0.014 A 
BRANCH  33  34
ATOM     34  C   UNL A   1      37.603  32.019  30.979  1.00  0.00     0.031 A 
ATOM     35  C   UNL A   1      38.396  30.942  30.293  1.00  0.00     0.074 A 
ATOM     36  C   UNL A   1      37.911  32.391  32.235  1.00  0.00     0.049 A 
ATOM     37  N   UNL A   1      39.407  30.242  30.744  1.00  0.00    -0.248 NA
ATOM     38  C   UNL A   1      37.977  30.583  28.930  1.00  0.00     0.031 C 
ATOM     39  C   UNL A   1      37.181  33.384  33.024  1.00  0.00     0.029 A 
ATOM     40  N   UNL A   1      38.909  31.965  33.076  1.00  0.00    -0.354 N 
ATOM     41  C   UNL A   1      39.736  29.357  29.727  1.00  0.00     0.074 A 
ATOM     42  C   UNL A   1      38.777  29.563  28.662  1.00  0.00     0.031 C 
ATOM     43  C   UNL A   1      37.760  33.499  34.229  1.00  0.00     0.029 A 
ATOM     44  C   UNL A   1      38.876  32.562  34.312  1.00  0.00     0.049 A 
ATOM     45  H   UNL A   1      39.583  31.295  32.818  1.00  0.00     0.167 HD
ATOM     46  C   UNL A   1      40.759  28.470  29.675  1.00  0.00     0.037 A 
ATOM     47  C   UNL A   1      39.651  32.367  35.396  1.00  0.00     0.037 A 
ATOM     48  C   UNL A   1      41.713  28.277  30.736  1.00  0.00     0.049 A 
ATOM     49  C   UNL A   1      40.779  31.376  35.319  1.00  0.00     0.074 A 
ATOM     50  C   UNL A   1      42.818  27.445  30.765  1.00  0.00     0.029 A 
ATOM     51  N   UNL A   1      41.668  28.923  31.964  1.00  0.00    -0.354 N 
ATOM     52  N   UNL A   1      41.128  30.596  34.325  1.00  0.00    -0.248 NA
ATOM     53  C   UNL A   1      41.629  31.246  36.510  1.00  0.00     0.031 C 
ATOM     54  C   UNL A   1      43.410  27.549  32.029  1.00  0.00     0.029 A 
ATOM     55  C   UNL A   1      42.710  28.489  32.768  1.00  0.00     0.049 A 
ATOM     56  H   UNL A   1      40.993  29.590  32.226  1.00  0.00     0.167 HD
ATOM     57  C   UNL A   1      42.247  29.898  34.760  1.00  0.00     0.074 A 
ATOM     58  C   UNL A   1      42.529  30.363  36.102  1.00  0.00     0.031 C 
ATOM     59  C   UNL A   1      42.974  28.959  34.105  1.00  0.00     0.037 A 
BRANCH  46  60
ATOM     60  C   UNL A   1      40.888  27.639  28.428  1.00  0.00     0.064 A 
ATOM     61  C   UNL A   1      40.212  26.416  28.283  1.00  0.00     0.173 A 
ATOM     62  C   UNL A   1      41.691  28.071  27.362  1.00  0.00     0.173 A 
ATOM     63  F   UNL A   1      39.439  25.951  29.275  1.00  0.00    -0.203 F 
ATOM     64  C   UNL A   1      40.373  25.637  27.140  1.00  0.00     0.198 A 
ATOM     65  C   UNL A   1      41.821  27.306  26.204  1.00  0.00     0.198 A 
ATOM     66  F   UNL A   1      42.353  29.234  27.440  1.00  0.00    -0.203 F 
ATOM     67  F   UNL A   1      39.773  24.442  27.057  1.00  0.00    -0.200 F 
ATOM     68  C   UNL A   1      41.174  26.084  26.100  1.00  0.00     0.200 A 
ATOM     69  F   UNL A   1      42.583  27.747  25.193  1.00  0.00    -0.200 F 
ATOM     70  F   UNL A   1      41.329  25.332  25.002  1.00  0.00    -0.200 F 
ENDBRANCH  46  60
BRANCH  47  71
ATOM     71  C   UNL A   1      39.386  33.142  36.634  1.00  0.00     0.064 A 
ATOM     72  C   UNL A   1      40.027  34.367  36.872  1.00  0.00     0.173 A 
ATOM     73  C   UNL A   1      38.462  32.693  37.589  1.00  0.00     0.173 A 
ATOM     74  F   UNL A   1      40.930  34.831  35.996  1.00  0.00    -0.203 F 
ATOM     75  C   UNL A   1      39.764  35.103  38.025  1.00  0.00     0.198 A 
ATOM     76  C   UNL A   1      38.179  33.445  38.727  1.00  0.00     0.198 A 
ATOM     77  F   UNL A   1      37.815  31.533  37.405  1.00  0.00    -0.203 F 
ATOM     78  F   UNL A   1      40.416  36.253  38.244  1.00  0.00    -0.200 F 
ATOM     79  C   UNL A   1      38.834  34.647  38.948  1.00  0.00     0.200 A 
ATOM     80  F   UNL A   1      37.266  33.010  39.605  1.00  0.00    -0.200 F 
ATOM     81  F   UNL A   1      38.571  35.364  40.048  1.00  0.00    -0.200 F 
ENDBRANCH  47  71
BRANCH  59  82
ATOM     82  C   UNL A   1      44.162  28.387  34.825  1.00  0.00     0.064 A 
ATOM     83  C   UNL A   1      45.422  29.001  34.774  1.00  0.00     0.173 A 
ATOM     84  C   UNL A   1      44.027  27.231  35.610  1.00  0.00     0.173 A 
ATOM     85  F   UNL A   1      45.608  30.099  34.026  1.00  0.00    -0.203 F 
ATOM     86  C   UNL A   1      46.509  28.464  35.458  1.00  0.00     0.198 A 
ATOM     87  C   UNL A   1      45.108  26.715  36.319  1.00  0.00     0.198 A 
ATOM     88  F   UNL A   1      42.842  26.608  35.698  1.00  0.00    -0.203 F 
ATOM     89  F   UNL A   1      47.714  29.038  35.355  1.00  0.00    -0.200 F 
ATOM     90  C   UNL A   1      46.349  27.327  36.237  1.00  0.00     0.200 A 
ATOM     91  F   UNL A   1      44.947  25.625  37.082  1.00  0.00    -0.200 F 
ATOM     92  F   UNL A   1      47.394  26.816  36.902  1.00  0.00    -0.200 F 
ENDBRANCH  59  82
ENDBRANCH  33  34
ENDBRANCH  25  28
ENDBRANCH  23  24
ENDBRANCH  22  23
ENDBRANCH   1  22
TORSDOF 14
ENDMDL
MODEL 3
REMARK VINA RESULT:     -11.3      0.678      2.131
REMARK SMILES CC[C@@H](C)N(C)S(=O)(=O)c1cc(C(=O)NCCCNC(=O)c2ccc(-c3c4nc(c(-c5c(F)c(F)c(F)c(F)c5F)c5ccc([nH]5)c(-c5c(F)c(F)c(F)c(F)c5F)c5nc(c(-c6c(F)c(F)c(F)c(F)c6F)c6ccc3[nH]6)C=C5)C=C4)cc2)ccc1Br
REMARK SMILES IDX 16 1 15 2 13 3 14 4 12 6 10 7 11 8 87 9 86 10 88 11 85 12
REMARK SMILES IDX 7 13 8 14 9 15 5 16 6 17 3 18 4 19 2 20 1 21 17 22 18 23
REMARK SMILES IDX 19 24 20 25 21 27 22 28 23 29 84 30 24 31 83 32 25 33 26 34
REMARK SMILES IDX 27 35 77 36 28 37 82 38 76 39 78 40 29 41 81 42 75 43 74 44
REMARK SMILES IDX 30 46 62 47 42 48 61 49 43 50 46 51 60 52 79 53 44 54 45 55
REMARK SMILES IDX 59 57 80 58 47 59 31 60 32 61 40 62 33 63 34 64 38 65 41 66
REMARK SMILES IDX 35 67 36 68 39 69 37 70 63 71 64 72 72 73 65 74 66 75 70 76
REMARK SMILES IDX 73 77 67 78 68 79 71 80 69 81 48 82 49 83 57 84 50 85 51 86
REMARK SMILES IDX 55 87 58 88 52 89 53 90 56 91 54 92
REMARK H PARENT 15 5 19 26 78 45 46 56
REMARK Flexibility Score: inf
ROOT
ATOM      1  C   UNL A   1      31.702  30.450  26.814  1.00  0.00     0.118 C 
ENDROOT
BRANCH   1   2
ATOM      2  N   UNL A   1      33.065  30.117  27.182  1.00  0.00    -0.352 N 
ATOM      3  C   UNL A   1      34.003  29.281  26.632  1.00  0.00     0.251 C 
ATOM      4  O   UNL A   1      35.118  29.277  27.153  1.00  0.00    -0.269 OA
ATOM      5  H   UNL A   1      33.381  30.585  27.989  1.00  0.00     0.163 HD
BRANCH   3   6
ATOM      6  C   UNL A   1      33.758  28.411  25.444  1.00  0.00     0.041 A 
ATOM      7  C   UNL A   1      33.189  26.164  24.624  1.00  0.00     0.097 A 
ATOM      8  C   UNL A   1      33.485  27.052  25.681  1.00  0.00     0.036 A 
ATOM      9  C   UNL A   1      33.197  26.637  23.308  1.00  0.00     0.038 A 
ATOM     10  C   UNL A   1      33.453  27.992  23.073  1.00  0.00     0.018 A 
ATOM     11  Br  UNL A   1      32.916  25.606  21.737  1.00  0.00    -0.049 Br
ATOM     12  C   UNL A   1      33.694  28.872  24.130  1.00  0.00     0.015 A 
BRANCH   7  13
ATOM     13  S   UNL A   1      32.580  24.547  25.075  1.00  0.00     0.244 S 
ATOM     14  O   UNL A   1      31.343  24.312  24.358  1.00  0.00    -0.207 OA
ATOM     15  O   UNL A   1      32.573  24.504  26.520  1.00  0.00    -0.207 OA
BRANCH  13  16
ATOM     16  N   UNL A   1      33.755  23.420  24.531  1.00  0.00    -0.198 NA
ATOM     17  C   UNL A   1      33.732  22.075  25.151  1.00  0.00     0.124 C 
BRANCH  16  18
ATOM     18  C   UNL A   1      35.180  23.938  24.401  1.00  0.00     0.069 C 
ATOM     19  C   UNL A   1      35.963  23.230  23.291  1.00  0.00     0.026 C 
BRANCH  18  20
ATOM     20  C   UNL A   1      35.923  23.923  25.748  1.00  0.00     0.016 C 
ATOM     21  C   UNL A   1      37.294  23.260  25.673  1.00  0.00     0.005 C 
ENDBRANCH  18  20
ENDBRANCH  16  18
ENDBRANCH  13  16
ENDBRANCH   7  13
ENDBRANCH   3   6
ENDBRANCH   1   2
BRANCH   1  22
ATOM     22  C   UNL A   1      31.460  31.959  26.886  1.00  0.00     0.042 C 
BRANCH  22  23
ATOM     23  C   UNL A   1      32.749  32.777  26.872  1.00  0.00     0.118 C 
BRANCH  23  24
ATOM     24  N   UNL A   1      32.570  34.076  27.508  1.00  0.00    -0.352 N 
ATOM     25  C   UNL A   1      33.133  34.592  28.647  1.00  0.00     0.251 C 
ATOM     26  H   UNL A   1      31.946  34.679  27.045  1.00  0.00     0.163 HD
ATOM     27  O   UNL A   1      32.654  35.603  29.151  1.00  0.00    -0.269 OA
BRANCH  25  28
ATOM     28  C   UNL A   1      34.306  33.945  29.272  1.00  0.00     0.039 A 
ATOM     29  C   UNL A   1      35.583  34.412  28.947  1.00  0.00     0.014 A 
ATOM     30  C   UNL A   1      34.161  32.847  30.124  1.00  0.00     0.014 A 
ATOM     31  C   UNL A   1      36.709  33.808  29.512  1.00  0.00     0.010 A 
ATOM     32  C   UNL A   1      35.277  32.296  30.747  1.00  0.00     0.010 A 
ATOM     33  C   UNL A   1      36.563  32.764  30.438  1.00  0.00    -0.014 A 
BRANCH  33  34
ATOM     34  C   UNL A   1      37.745  32.147  31.090  1.00  0.00     0.031 A 
ATOM     35  C   UNL A   1      38.536  31.086  30.377  1.00  0.00     0.074 A 
ATOM     36  C   UNL A   1      38.060  32.492  32.352  1.00  0.00     0.049 A 
ATOM     37  N   UNL A   1      39.550  30.378  30.808  1.00  0.00    -0.248 NA
ATOM     38  C   UNL A   1      38.110  30.755  29.009  1.00  0.00     0.031 C 
ATOM     39  C   UNL A   1      37.332  33.468  33.165  1.00  0.00     0.029 A 
ATOM     40  N   UNL A   1      39.062  32.050  33.178  1.00  0.00    -0.354 N 
ATOM     41  C   UNL A   1      39.875  29.515  29.770  1.00  0.00     0.074 A 
ATOM     42  C   UNL A   1      38.911  29.742  28.716  1.00  0.00     0.031 C 
ATOM     43  C   UNL A   1      37.918  33.558  34.369  1.00  0.00     0.029 A 
ATOM     44  C   UNL A   1      39.035  32.622  34.427  1.00  0.00     0.049 A 
ATOM     45  H   UNL A   1      39.736  31.387  32.903  1.00  0.00     0.167 HD
ATOM     46  C   UNL A   1      40.899  28.630  29.695  1.00  0.00     0.037 A 
ATOM     47  C   UNL A   1      39.816  32.404  35.502  1.00  0.00     0.037 A 
ATOM     48  C   UNL A   1      41.858  28.416  30.747  1.00  0.00     0.049 A 
ATOM     49  C   UNL A   1      40.945  31.417  35.399  1.00  0.00     0.074 A 
ATOM     50  C   UNL A   1      42.964  27.585  30.752  1.00  0.00     0.029 A 
ATOM     51  N   UNL A   1      41.819  29.036  31.988  1.00  0.00    -0.354 N 
ATOM     52  N   UNL A   1      41.290  30.658  34.386  1.00  0.00    -0.248 NA
ATOM     53  C   UNL A   1      41.801  31.263  36.582  1.00  0.00     0.031 C 
ATOM     54  C   UNL A   1      43.563  27.663  32.015  1.00  0.00     0.029 A 
ATOM     55  C   UNL A   1      42.866  28.587  32.777  1.00  0.00     0.049 A 
ATOM     56  H   UNL A   1      41.145  29.697  32.268  1.00  0.00     0.167 HD
ATOM     57  C   UNL A   1      42.411  29.953  34.801  1.00  0.00     0.074 A 
ATOM     58  C   UNL A   1      42.701  30.390  36.151  1.00  0.00     0.031 C 
ATOM     59  C   UNL A   1      43.137  29.029  34.122  1.00  0.00     0.037 A 
BRANCH  46  60
ATOM     60  C   UNL A   1      41.023  27.826  28.430  1.00  0.00     0.064 A 
ATOM     61  C   UNL A   1      40.388  26.581  28.283  1.00  0.00     0.173 A 
ATOM     62  C   UNL A   1      41.777  28.305  27.349  1.00  0.00     0.173 A 
ATOM     63  F   UNL A   1      39.661  26.071  29.288  1.00  0.00    -0.203 F 
ATOM     64  C   UNL A   1      40.545  25.829  27.121  1.00  0.00     0.198 A 
ATOM     65  C   UNL A   1      41.902  27.566  26.175  1.00  0.00     0.198 A 
ATOM     66  F   UNL A   1      42.398  29.492  27.429  1.00  0.00    -0.203 F 
ATOM     67  F   UNL A   1      39.987  24.613  27.033  1.00  0.00    -0.200 F 
ATOM     68  C   UNL A   1      41.298  26.323  26.067  1.00  0.00     0.200 A 
ATOM     69  F   UNL A   1      42.617  28.052  25.150  1.00  0.00    -0.200 F 
ATOM     70  F   UNL A   1      41.448  25.596  24.952  1.00  0.00    -0.200 F 
ENDBRANCH  46  60
BRANCH  47  71
ATOM     71  C   UNL A   1      39.556  33.153  36.758  1.00  0.00     0.064 A 
ATOM     72  C   UNL A   1      38.651  32.671  37.714  1.00  0.00     0.173 A 
ATOM     73  C   UNL A   1      40.231  34.349  37.044  1.00  0.00     0.173 A 
ATOM     74  F   UNL A   1      37.969  31.539  37.479  1.00  0.00    -0.203 F 
ATOM     75  C   UNL A   1      38.421  33.363  38.900  1.00  0.00     0.198 A 
ATOM     76  C   UNL A   1      40.021  35.025  38.244  1.00  0.00     0.198 A 
ATOM     77  F   UNL A   1      41.114  34.848  36.167  1.00  0.00    -0.203 F 
ATOM     78  F   UNL A   1      37.525  32.897  39.781  1.00  0.00    -0.200 F 
ATOM     79  C   UNL A   1      39.113  34.535  39.169  1.00  0.00     0.200 A 
ATOM     80  F   UNL A   1      40.707  36.146  38.507  1.00  0.00    -0.200 F 
ATOM     81  F   UNL A   1      38.902  35.192  40.317  1.00  0.00    -0.200 F 
ENDBRANCH  47  71
BRANCH  59  82
ATOM     82  C   UNL A   1      44.329  28.443  34.824  1.00  0.00     0.064 A 
ATOM     83  C   UNL A   1      45.589  29.057  34.775  1.00  0.00     0.173 A 
ATOM     84  C   UNL A   1      44.199  27.273  35.588  1.00  0.00     0.173 A 
ATOM     85  F   UNL A   1      45.770  30.170  34.047  1.00  0.00    -0.203 F 
ATOM     86  C   UNL A   1      46.680  28.508  35.443  1.00  0.00     0.198 A 
ATOM     87  C   UNL A   1      45.284  26.744  36.281  1.00  0.00     0.198 A 
ATOM     88  F   UNL A   1      43.014  26.649  35.673  1.00  0.00    -0.203 F 
ATOM     89  F   UNL A   1      47.885  29.084  35.342  1.00  0.00    -0.200 F 
ATOM     90  C   UNL A   1      46.524  27.357  36.202  1.00  0.00     0.200 A 
ATOM     91  F   UNL A   1      45.128  25.640  37.025  1.00  0.00    -0.200 F 
ATOM     92  F   UNL A   1      47.574  26.834  36.851  1.00  0.00    -0.200 F 
ENDBRANCH  59  82
ENDBRANCH  33  34
ENDBRANCH  25  28
ENDBRANCH  23  24
ENDBRANCH  22  23
ENDBRANCH   1  22
TORSDOF 14
ENDMDL
