MODEL 1
REMARK VINA RESULT:     -12.5      0.000      0.000
REMARK SMILES CC(C)[NH2+][C@@]1(C(=O)NCCCNC(=O)c2ccc(-c3c4nc(c(-c5c(F)c(F)c(F)c(F)c5F)c5ccc([nH]5)c(-c5c(F)c(F)c(F)c(F)c5F)c5nc(c(-c6c(F)c(F)c(F)c(F)c6F)c6ccc3[nH]6)C=C5)C=C4)cc2)CC[C@@H](Sc2ccncc2)C1
REMARK SMILES IDX 10 1 9 2 8 3 6 4 7 5 5 7 78 8 88 9 79 10 80 11 4 12 2 15
REMARK SMILES IDX 1 16 3 17 81 18 82 19 83 20 87 21 84 22 86 23 85 24 11 25
REMARK SMILES IDX 12 26 13 27 14 29 15 30 16 31 77 32 17 33 76 34 18 35 19 36
REMARK SMILES IDX 20 37 70 38 21 39 75 40 69 41 71 42 22 43 74 44 68 45 67 46
REMARK SMILES IDX 23 48 55 49 35 50 54 51 36 52 39 53 53 54 72 55 37 56 38 57
REMARK SMILES IDX 52 59 73 60 40 61 24 62 25 63 33 64 26 65 27 66 31 67 34 68
REMARK SMILES IDX 28 69 29 70 32 71 30 72 56 73 57 74 65 75 58 76 59 77 63 78
REMARK SMILES IDX 66 79 60 80 61 81 64 82 62 83 41 84 42 85 50 86 43 87 44 88
REMARK SMILES IDX 48 89 51 90 45 91 46 92 49 93 47 94
REMARK H PARENT 8 6 4 13 4 14 12 28 71 47 39 58
REMARK Flexibility Score: inf
ROOT
ATOM      1  C   UNL A   1      31.463  32.154  26.926  1.00  0.00     0.042 C 
ENDROOT
BRANCH   1   2
ATOM      2  C   UNL A   1      31.711  30.872  26.153  1.00  0.00     0.118 C 
BRANCH   2   3
ATOM      3  N   UNL A   1      32.790  30.091  26.714  1.00  0.00    -0.351 N 
ATOM      4  C   UNL A   1      33.377  28.929  26.328  1.00  0.00     0.281 C 
ATOM      5  O   UNL A   1      34.336  28.563  27.025  1.00  0.00    -0.268 OA
ATOM      6  H   UNL A   1      33.172  30.475  27.536  1.00  0.00     0.163 HD
BRANCH   4   7
ATOM      7  C   UNL A   1      32.895  28.040  25.115  1.00  0.00     0.176 C 
ATOM      8  C   UNL A   1      33.534  28.481  23.784  1.00  0.00     0.080 C 
ATOM      9  C   UNL A   1      31.365  28.155  24.927  1.00  0.00     0.094 C 
ATOM     10  C   UNL A   1      32.407  28.900  22.840  1.00  0.00     0.022 C 
ATOM     11  C   UNL A   1      31.127  28.981  23.671  1.00  0.00     0.058 C 
BRANCH   7  12
ATOM     12  N   UNL A   1      33.084  26.624  25.554  1.00  0.00    -0.332 N 
ATOM     13  H   UNL A   1      33.605  26.652  26.431  1.00  0.00     0.347 HD
ATOM     14  H   UNL A   1      32.134  26.256  25.590  1.00  0.00     0.347 HD
BRANCH  12  15
ATOM     15  C   UNL A   1      33.781  25.688  24.678  1.00  0.00     0.176 C 
ATOM     16  C   UNL A   1      34.683  24.787  25.528  1.00  0.00     0.075 C 
ATOM     17  C   UNL A   1      32.755  24.810  23.958  1.00  0.00     0.075 C 
ENDBRANCH  12  15
ENDBRANCH   7  12
BRANCH  11  18
ATOM     18  S   UNL A   1      29.557  28.559  22.805  1.00  0.00    -0.122 SA
BRANCH  18  19
ATOM     19  C   UNL A   1      28.885  30.173  22.455  1.00  0.00     0.011 A 
ATOM     20  C   UNL A   1      28.424  30.513  21.188  1.00  0.00     0.035 A 
ATOM     21  C   UNL A   1      28.868  31.132  23.468  1.00  0.00     0.035 A 
ATOM     22  C   UNL A   1      28.013  31.818  20.974  1.00  0.00     0.112 A 
ATOM     23  C   UNL A   1      28.447  32.411  23.152  1.00  0.00     0.112 A 
ATOM     24  N   UNL A   1      28.026  32.778  21.923  1.00  0.00    -0.265 NA
ENDBRANCH  18  19
ENDBRANCH  11  18
ENDBRANCH   4   7
ENDBRANCH   2   3
ENDBRANCH   1   2
BRANCH   1  25
ATOM     25  C   UNL A   1      32.756  32.871  27.266  1.00  0.00     0.118 C 
BRANCH  25  26
ATOM     26  N   UNL A   1      32.525  34.262  27.647  1.00  0.00    -0.352 N 
ATOM     27  C   UNL A   1      33.044  35.000  28.682  1.00  0.00     0.251 C 
ATOM     28  H   UNL A   1      31.896  34.749  27.067  1.00  0.00     0.163 HD
ATOM     29  O   UNL A   1      32.547  36.080  28.972  1.00  0.00    -0.269 OA
BRANCH  27  30
ATOM     30  C   UNL A   1      34.191  34.479  29.449  1.00  0.00     0.039 A 
ATOM     31  C   UNL A   1      33.966  33.855  30.677  1.00  0.00     0.014 A 
ATOM     32  C   UNL A   1      35.488  34.605  28.951  1.00  0.00     0.014 A 
ATOM     33  C   UNL A   1      35.041  33.295  31.370  1.00  0.00     0.010 A 
ATOM     34  C   UNL A   1      36.532  33.939  29.573  1.00  0.00     0.010 A 
ATOM     35  C   UNL A   1      36.324  33.296  30.800  1.00  0.00    -0.014 A 
BRANCH  35  36
ATOM     36  C   UNL A   1      37.476  32.654  31.475  1.00  0.00     0.031 A 
ATOM     37  C   UNL A   1      38.185  31.506  30.813  1.00  0.00     0.074 A 
ATOM     38  C   UNL A   1      37.827  33.052  32.712  1.00  0.00     0.049 A 
ATOM     39  N   UNL A   1      39.153  30.753  31.270  1.00  0.00    -0.248 NA
ATOM     40  C   UNL A   1      37.714  31.122  29.471  1.00  0.00     0.031 C 
ATOM     41  C   UNL A   1      37.170  34.111  33.480  1.00  0.00     0.029 A 
ATOM     42  N   UNL A   1      38.818  32.602  33.549  1.00  0.00    -0.354 N 
ATOM     43  C   UNL A   1      39.385  29.801  30.287  1.00  0.00     0.074 A 
ATOM     44  C   UNL A   1      38.412  30.021  29.242  1.00  0.00     0.031 C 
ATOM     45  C   UNL A   1      37.795  34.252  34.660  1.00  0.00     0.029 A 
ATOM     46  C   UNL A   1      38.865  33.264  34.750  1.00  0.00     0.049 A 
ATOM     47  H   UNL A   1      39.435  31.873  33.310  1.00  0.00     0.167 HD
ATOM     48  C   UNL A   1      40.346  28.848  30.244  1.00  0.00     0.037 A 
ATOM     49  C   UNL A   1      39.679  33.088  35.807  1.00  0.00     0.037 A 
ATOM     50  C   UNL A   1      41.329  28.658  31.278  1.00  0.00     0.049 A 
ATOM     51  C   UNL A   1      40.742  32.027  35.736  1.00  0.00     0.074 A 
ATOM     52  C   UNL A   1      42.392  27.775  31.306  1.00  0.00     0.029 A 
ATOM     53  N   UNL A   1      41.363  29.366  32.472  1.00  0.00    -0.354 N 
ATOM     54  N   UNL A   1      41.009  31.184  34.767  1.00  0.00    -0.248 NA
ATOM     55  C   UNL A   1      41.625  31.897  36.903  1.00  0.00     0.031 C 
ATOM     56  C   UNL A   1      43.034  27.906  32.541  1.00  0.00     0.029 A 
ATOM     57  C   UNL A   1      42.412  28.918  33.258  1.00  0.00     0.049 A 
ATOM     58  H   UNL A   1      40.735  30.082  32.722  1.00  0.00     0.167 HD
ATOM     59  C   UNL A   1      42.102  30.443  35.194  1.00  0.00     0.074 A 
ATOM     60  C   UNL A   1      42.460  30.949  36.504  1.00  0.00     0.031 C 
ATOM     61  C   UNL A   1      42.752  29.436  34.558  1.00  0.00     0.037 A 
BRANCH  48  62
ATOM     62  C   UNL A   1      40.373  27.944  29.044  1.00  0.00     0.064 A 
ATOM     63  C   UNL A   1      41.132  28.251  27.903  1.00  0.00     0.173 A 
ATOM     64  C   UNL A   1      39.637  26.750  29.037  1.00  0.00     0.173 A 
ATOM     65  F   UNL A   1      41.845  29.386  27.850  1.00  0.00    -0.203 F 
ATOM     66  C   UNL A   1      41.117  27.418  26.786  1.00  0.00     0.198 A 
ATOM     67  C   UNL A   1      39.655  25.901  27.933  1.00  0.00     0.198 A 
ATOM     68  F   UNL A   1      38.898  26.404  30.102  1.00  0.00    -0.203 F 
ATOM     69  F   UNL A   1      41.795  27.768  25.684  1.00  0.00    -0.200 F 
ATOM     70  C   UNL A   1      40.386  26.242  26.804  1.00  0.00     0.200 A 
ATOM     71  F   UNL A   1      38.958  24.757  27.957  1.00  0.00    -0.200 F 
ATOM     72  F   UNL A   1      40.374  25.441  25.730  1.00  0.00    -0.200 F 
ENDBRANCH  48  62
BRANCH  49  73
ATOM     73  C   UNL A   1      39.534  33.958  37.004  1.00  0.00     0.064 A 
ATOM     74  C   UNL A   1      40.141  35.220  37.052  1.00  0.00     0.173 A 
ATOM     75  C   UNL A   1      38.772  33.558  38.111  1.00  0.00     0.173 A 
ATOM     76  F   UNL A   1      40.893  35.641  36.025  1.00  0.00    -0.203 F 
ATOM     77  C   UNL A   1      40.006  36.042  38.169  1.00  0.00     0.198 A 
ATOM     78  C   UNL A   1      38.613  34.393  39.216  1.00  0.00     0.198 A 
ATOM     79  F   UNL A   1      38.162  32.363  38.110  1.00  0.00    -0.203 F 
ATOM     80  F   UNL A   1      40.632  37.227  38.206  1.00  0.00    -0.200 F 
ATOM     81  C   UNL A   1      39.236  35.630  39.247  1.00  0.00     0.200 A 
ATOM     82  F   UNL A   1      37.853  33.999  40.246  1.00  0.00    -0.200 F 
ATOM     83  F   UNL A   1      39.099  36.425  40.317  1.00  0.00    -0.200 F 
ENDBRANCH  49  73
BRANCH  61  84
ATOM     84  C   UNL A   1      43.938  28.835  35.257  1.00  0.00     0.064 A 
ATOM     85  C   UNL A   1      45.235  29.335  35.074  1.00  0.00     0.173 A 
ATOM     86  C   UNL A   1      43.765  27.772  36.157  1.00  0.00     0.173 A 
ATOM     87  F   UNL A   1      45.456  30.342  34.214  1.00  0.00    -0.203 F 
ATOM     88  C   UNL A   1      46.318  28.776  35.745  1.00  0.00     0.198 A 
ATOM     89  C   UNL A   1      44.844  27.238  36.852  1.00  0.00     0.198 A 
ATOM     90  F   UNL A   1      42.543  27.262  36.374  1.00  0.00    -0.203 F 
ATOM     91  F   UNL A   1      47.557  29.235  35.515  1.00  0.00    -0.200 F 
ATOM     92  C   UNL A   1      46.121  27.734  36.640  1.00  0.00     0.200 A 
ATOM     93  F   UNL A   1      44.649  26.245  37.730  1.00  0.00    -0.200 F 
ATOM     94  F   UNL A   1      47.165  27.203  37.292  1.00  0.00    -0.200 F 
ENDBRANCH  61  84
ENDBRANCH  35  36
ENDBRANCH  27  30
ENDBRANCH  25  26
ENDBRANCH   1  25
TORSDOF 14
ENDMDL
MODEL 2
REMARK VINA RESULT:     -12.5      0.254      1.160
REMARK SMILES CC(C)[NH2+][C@@]1(C(=O)NCCCNC(=O)c2ccc(-c3c4nc(c(-c5c(F)c(F)c(F)c(F)c5F)c5ccc([nH]5)c(-c5c(F)c(F)c(F)c(F)c5F)c5nc(c(-c6c(F)c(F)c(F)c(F)c6F)c6ccc3[nH]6)C=C5)C=C4)cc2)CC[C@@H](Sc2ccncc2)C1
REMARK SMILES IDX 10 1 9 2 8 3 6 4 7 5 5 7 78 8 88 9 79 10 80 11 4 12 2 15
REMARK SMILES IDX 1 16 3 17 81 18 82 19 83 20 87 21 84 22 86 23 85 24 11 25
REMARK SMILES IDX 12 26 13 27 14 29 15 30 16 31 77 32 17 33 76 34 18 35 19 36
REMARK SMILES IDX 20 37 70 38 21 39 75 40 69 41 71 42 22 43 74 44 68 45 67 46
REMARK SMILES IDX 23 48 55 49 35 50 54 51 36 52 39 53 53 54 72 55 37 56 38 57
REMARK SMILES IDX 52 59 73 60 40 61 24 62 25 63 33 64 26 65 27 66 31 67 34 68
REMARK SMILES IDX 28 69 29 70 32 71 30 72 56 73 57 74 65 75 58 76 59 77 63 78
REMARK SMILES IDX 66 79 60 80 61 81 64 82 62 83 41 84 42 85 50 86 43 87 44 88
REMARK SMILES IDX 48 89 51 90 45 91 46 92 49 93 47 94
REMARK H PARENT 8 6 4 13 4 14 12 28 71 47 39 58
REMARK Flexibility Score: inf
ROOT
ATOM      1  C   UNL A   1      31.511  32.316  26.583  1.00  0.00     0.042 C 
ENDROOT
BRANCH   1   2
ATOM      2  C   UNL A   1      31.563  30.803  26.499  1.00  0.00     0.118 C 
BRANCH   2   3
ATOM      3  N   UNL A   1      32.868  30.277  26.831  1.00  0.00    -0.351 N 
ATOM      4  C   UNL A   1      33.581  29.224  26.353  1.00  0.00     0.281 C 
ATOM      5  O   UNL A   1      34.717  29.092  26.834  1.00  0.00    -0.268 OA
ATOM      6  H   UNL A   1      33.329  30.779  27.541  1.00  0.00     0.163 HD
BRANCH   4   7
ATOM      7  C   UNL A   1      33.043  28.184  25.294  1.00  0.00     0.176 C 
ATOM      8  C   UNL A   1      33.719  28.355  23.920  1.00  0.00     0.080 C 
ATOM      9  C   UNL A   1      31.526  28.372  25.064  1.00  0.00     0.094 C 
ATOM     10  C   UNL A   1      32.629  28.689  22.901  1.00  0.00     0.022 C 
ATOM     11  C   UNL A   1      31.354  28.994  23.685  1.00  0.00     0.058 C 
BRANCH   7  12
ATOM     12  N   UNL A   1      33.128  26.850  25.962  1.00  0.00    -0.332 N 
ATOM     13  H   UNL A   1      33.954  26.869  26.560  1.00  0.00     0.347 HD
ATOM     14  H   UNL A   1      32.224  26.754  26.423  1.00  0.00     0.347 HD
BRANCH  12  15
ATOM     15  C   UNL A   1      33.225  25.644  25.146  1.00  0.00     0.176 C 
ATOM     16  C   UNL A   1      34.586  24.983  25.394  1.00  0.00     0.075 C 
ATOM     17  C   UNL A   1      32.126  24.663  25.560  1.00  0.00     0.075 C 
ENDBRANCH  12  15
ENDBRANCH   7  12
BRANCH  11  18
ATOM     18  S   UNL A   1      29.763  28.546  22.874  1.00  0.00    -0.122 SA
BRANCH  18  19
ATOM     19  C   UNL A   1      29.046  30.147  22.558  1.00  0.00     0.011 A 
ATOM     20  C   UNL A   1      28.545  30.489  21.306  1.00  0.00     0.035 A 
ATOM     21  C   UNL A   1      29.035  31.097  23.580  1.00  0.00     0.035 A 
ATOM     22  C   UNL A   1      28.100  31.787  21.116  1.00  0.00     0.112 A 
ATOM     23  C   UNL A   1      28.578  32.369  23.288  1.00  0.00     0.112 A 
ATOM     24  N   UNL A   1      28.118  32.738  22.074  1.00  0.00    -0.265 NA
ENDBRANCH  18  19
ENDBRANCH  11  18
ENDBRANCH   4   7
ENDBRANCH   2   3
ENDBRANCH   1   2
BRANCH   1  25
ATOM     25  C   UNL A   1      32.687  32.882  27.356  1.00  0.00     0.118 C 
BRANCH  25  26
ATOM     26  N   UNL A   1      32.490  34.290  27.695  1.00  0.00    -0.352 N 
ATOM     27  C   UNL A   1      33.039  35.049  28.699  1.00  0.00     0.251 C 
ATOM     28  H   UNL A   1      31.864  34.772  27.108  1.00  0.00     0.163 HD
ATOM     29  O   UNL A   1      32.569  36.148  28.961  1.00  0.00    -0.269 OA
BRANCH  27  30
ATOM     30  C   UNL A   1      34.187  34.528  29.467  1.00  0.00     0.039 A 
ATOM     31  C   UNL A   1      33.964  33.935  30.711  1.00  0.00     0.014 A 
ATOM     32  C   UNL A   1      35.480  34.624  28.954  1.00  0.00     0.014 A 
ATOM     33  C   UNL A   1      35.037  33.375  31.406  1.00  0.00     0.010 A 
ATOM     34  C   UNL A   1      36.520  33.955  29.581  1.00  0.00     0.010 A 
ATOM     35  C   UNL A   1      36.314  33.343  30.824  1.00  0.00    -0.014 A 
BRANCH  35  36
ATOM     36  C   UNL A   1      37.464  32.700  31.503  1.00  0.00     0.031 A 
ATOM     37  C   UNL A   1      38.168  31.546  30.846  1.00  0.00     0.074 A 
ATOM     38  C   UNL A   1      37.815  33.101  32.739  1.00  0.00     0.049 A 
ATOM     39  N   UNL A   1      39.133  30.791  31.307  1.00  0.00    -0.248 NA
ATOM     40  C   UNL A   1      37.696  31.159  29.505  1.00  0.00     0.031 C 
ATOM     41  C   UNL A   1      37.162  34.166  33.502  1.00  0.00     0.029 A 
ATOM     42  N   UNL A   1      38.803  32.650  33.578  1.00  0.00    -0.354 N 
ATOM     43  C   UNL A   1      39.361  29.834  30.328  1.00  0.00     0.074 A 
ATOM     44  C   UNL A   1      38.389  30.054  29.281  1.00  0.00     0.031 C 
ATOM     45  C   UNL A   1      37.786  34.309  34.681  1.00  0.00     0.029 A 
ATOM     46  C   UNL A   1      38.852  33.317  34.777  1.00  0.00     0.049 A 
ATOM     47  H   UNL A   1      39.418  31.918  33.342  1.00  0.00     0.167 HD
ATOM     48  C   UNL A   1      40.319  28.877  30.290  1.00  0.00     0.037 A 
ATOM     49  C   UNL A   1      39.665  33.142  35.835  1.00  0.00     0.037 A 
ATOM     50  C   UNL A   1      41.300  28.687  31.325  1.00  0.00     0.049 A 
ATOM     51  C   UNL A   1      40.724  32.077  35.769  1.00  0.00     0.074 A 
ATOM     52  C   UNL A   1      42.359  27.799  31.358  1.00  0.00     0.029 A 
ATOM     53  N   UNL A   1      41.336  29.400  32.516  1.00  0.00    -0.354 N 
ATOM     54  N   UNL A   1      40.987  31.228  34.804  1.00  0.00    -0.248 NA
ATOM     55  C   UNL A   1      41.605  31.948  36.937  1.00  0.00     0.031 C 
ATOM     56  C   UNL A   1      43.001  27.933  32.593  1.00  0.00     0.029 A 
ATOM     57  C   UNL A   1      42.382  28.950  33.305  1.00  0.00     0.049 A 
ATOM     58  H   UNL A   1      40.710  30.119  32.763  1.00  0.00     0.167 HD
ATOM     59  C   UNL A   1      42.077  30.485  35.234  1.00  0.00     0.074 A 
ATOM     60  C   UNL A   1      42.436  30.995  36.542  1.00  0.00     0.031 C 
ATOM     61  C   UNL A   1      42.723  29.473  34.603  1.00  0.00     0.037 A 
BRANCH  48  62
ATOM     62  C   UNL A   1      40.343  27.968  29.093  1.00  0.00     0.064 A 
ATOM     63  C   UNL A   1      41.095  28.272  27.947  1.00  0.00     0.173 A 
ATOM     64  C   UNL A   1      39.611  26.771  29.095  1.00  0.00     0.173 A 
ATOM     65  F   UNL A   1      41.804  29.409  27.886  1.00  0.00    -0.203 F 
ATOM     66  C   UNL A   1      41.078  27.435  26.834  1.00  0.00     0.198 A 
ATOM     67  C   UNL A   1      39.626  25.918  27.994  1.00  0.00     0.198 A 
ATOM     68  F   UNL A   1      38.878  26.427  30.165  1.00  0.00    -0.203 F 
ATOM     69  F   UNL A   1      41.749  27.783  25.727  1.00  0.00    -0.200 F 
ATOM     70  C   UNL A   1      40.350  26.257  26.861  1.00  0.00     0.200 A 
ATOM     71  F   UNL A   1      38.933  24.772  28.027  1.00  0.00    -0.200 F 
ATOM     72  F   UNL A   1      40.336  25.451  25.790  1.00  0.00    -0.200 F 
ENDBRANCH  48  62
BRANCH  49  73
ATOM     73  C   UNL A   1      39.522  34.018  37.028  1.00  0.00     0.064 A 
ATOM     74  C   UNL A   1      38.783  33.600  38.142  1.00  0.00     0.173 A 
ATOM     75  C   UNL A   1      40.136  35.277  37.088  1.00  0.00     0.173 A 
ATOM     76  F   UNL A   1      38.164  32.410  38.127  1.00  0.00    -0.203 F 
ATOM     77  C   UNL A   1      38.647  34.415  39.264  1.00  0.00     0.198 A 
ATOM     78  C   UNL A   1      40.025  36.079  38.222  1.00  0.00     0.198 A 
ATOM     79  F   UNL A   1      40.863  35.720  36.051  1.00  0.00    -0.203 F 
ATOM     80  F   UNL A   1      37.900  34.007  40.300  1.00  0.00    -0.200 F 
ATOM     81  C   UNL A   1      39.275  35.651  39.306  1.00  0.00     0.200 A 
ATOM     82  F   UNL A   1      40.649  37.265  38.265  1.00  0.00    -0.200 F 
ATOM     83  F   UNL A   1      39.153  36.430  40.389  1.00  0.00    -0.200 F 
ENDBRANCH  49  73
BRANCH  61  84
ATOM     84  C   UNL A   1      43.906  28.870  35.305  1.00  0.00     0.064 A 
ATOM     85  C   UNL A   1      45.207  29.355  35.112  1.00  0.00     0.173 A 
ATOM     86  C   UNL A   1      43.726  27.819  36.220  1.00  0.00     0.173 A 
ATOM     87  F   UNL A   1      45.434  30.349  34.238  1.00  0.00    -0.203 F 
ATOM     88  C   UNL A   1      46.288  28.794  35.785  1.00  0.00     0.198 A 
ATOM     89  C   UNL A   1      44.804  27.284  36.918  1.00  0.00     0.198 A 
ATOM     90  F   UNL A   1      42.501  27.324  36.447  1.00  0.00    -0.203 F 
ATOM     91  F   UNL A   1      47.529  29.240  35.546  1.00  0.00    -0.200 F 
ATOM     92  C   UNL A   1      46.085  27.766  36.694  1.00  0.00     0.200 A 
ATOM     93  F   UNL A   1      44.603  26.304  37.808  1.00  0.00    -0.200 F 
ATOM     94  F   UNL A   1      47.126  27.234  37.350  1.00  0.00    -0.200 F 
ENDBRANCH  61  84
ENDBRANCH  35  36
ENDBRANCH  27  30
ENDBRANCH  25  26
ENDBRANCH   1  25
TORSDOF 14
ENDMDL
MODEL 3
REMARK VINA RESULT:     -12.4      6.380     11.982
REMARK SMILES CC(C)[NH2+][C@@]1(C(=O)NCCCNC(=O)c2ccc(-c3c4nc(c(-c5c(F)c(F)c(F)c(F)c5F)c5ccc([nH]5)c(-c5c(F)c(F)c(F)c(F)c5F)c5nc(c(-c6c(F)c(F)c(F)c(F)c6F)c6ccc3[nH]6)C=C5)C=C4)cc2)CC[C@@H](Sc2ccncc2)C1
REMARK SMILES IDX 10 1 9 2 8 3 6 4 7 5 5 7 78 8 88 9 79 10 80 11 4 12 2 15
REMARK SMILES IDX 1 16 3 17 81 18 82 19 83 20 87 21 84 22 86 23 85 24 11 25
REMARK SMILES IDX 12 26 13 27 14 29 15 30 16 31 77 32 17 33 76 34 18 35 19 36
REMARK SMILES IDX 20 37 70 38 21 39 75 40 69 41 71 42 22 43 74 44 68 45 67 46
REMARK SMILES IDX 23 48 55 49 35 50 54 51 36 52 39 53 53 54 72 55 37 56 38 57
REMARK SMILES IDX 52 59 73 60 40 61 24 62 25 63 33 64 26 65 27 66 31 67 34 68
REMARK SMILES IDX 28 69 29 70 32 71 30 72 56 73 57 74 65 75 58 76 59 77 63 78
REMARK SMILES IDX 66 79 60 80 61 81 64 82 62 83 41 84 42 85 50 86 43 87 44 88
REMARK SMILES IDX 48 89 51 90 45 91 46 92 49 93 47 94
REMARK H PARENT 8 6 4 13 4 14 12 28 71 47 39 58
REMARK Flexibility Score: inf
ROOT
ATOM      1  C   UNL A   1      38.250  19.499  24.973  1.00  0.00     0.042 C 
ENDROOT
BRANCH   1   2
ATOM      2  C   UNL A   1      37.086  20.471  24.979  1.00  0.00     0.118 C 
BRANCH   2   3
ATOM      3  N   UNL A   1      37.495  21.817  25.313  1.00  0.00    -0.351 N 
ATOM      4  C   UNL A   1      36.799  22.919  25.692  1.00  0.00     0.281 C 
ATOM      5  O   UNL A   1      37.488  23.915  25.963  1.00  0.00    -0.268 OA
ATOM      6  H   UNL A   1      38.467  21.962  25.254  1.00  0.00     0.163 HD
BRANCH   4   7
ATOM      7  C   UNL A   1      35.223  23.005  25.763  1.00  0.00     0.176 C 
ATOM      8  C   UNL A   1      34.678  22.526  27.122  1.00  0.00     0.080 C 
ATOM      9  C   UNL A   1      34.578  22.102  24.687  1.00  0.00     0.094 C 
ATOM     10  C   UNL A   1      33.766  21.327  26.863  1.00  0.00     0.022 C 
ATOM     11  C   UNL A   1      33.971  20.906  25.408  1.00  0.00     0.058 C 
BRANCH   7  12
ATOM     12  N   UNL A   1      34.875  24.385  25.309  1.00  0.00    -0.332 N 
ATOM     13  H   UNL A   1      35.043  25.009  26.098  1.00  0.00     0.347 HD
ATOM     14  H   UNL A   1      35.454  24.519  24.481  1.00  0.00     0.347 HD
BRANCH  12  15
ATOM     15  C   UNL A   1      33.525  24.664  24.830  1.00  0.00     0.176 C 
ATOM     16  C   UNL A   1      32.759  25.428  25.916  1.00  0.00     0.075 C 
ATOM     17  C   UNL A   1      33.603  25.543  23.580  1.00  0.00     0.075 C 
ENDBRANCH  12  15
ENDBRANCH   7  12
BRANCH  11  18
ATOM     18  S   UNL A   1      32.509  20.195  24.543  1.00  0.00    -0.122 SA
BRANCH  18  19
ATOM     19  C   UNL A   1      32.894  18.455  24.541  1.00  0.00     0.011 A 
ATOM     20  C   UNL A   1      32.675  17.657  25.659  1.00  0.00     0.035 A 
ATOM     21  C   UNL A   1      33.475  17.892  23.405  1.00  0.00     0.035 A 
ATOM     22  C   UNL A   1      33.096  16.338  25.610  1.00  0.00     0.112 A 
ATOM     23  C   UNL A   1      33.869  16.568  23.457  1.00  0.00     0.112 A 
ATOM     24  N   UNL A   1      33.700  15.779  24.540  1.00  0.00    -0.265 NA
ENDBRANCH  18  19
ENDBRANCH  11  18
ENDBRANCH   4   7
ENDBRANCH   2   3
ENDBRANCH   1   2
BRANCH   1  25
ATOM     25  C   UNL A   1      39.419  20.006  25.797  1.00  0.00     0.118 C 
BRANCH  25  26
ATOM     26  N   UNL A   1      40.450  18.986  25.966  1.00  0.00    -0.352 N 
ATOM     27  C   UNL A   1      41.810  19.111  26.117  1.00  0.00     0.251 C 
ATOM     28  H   UNL A   1      40.117  18.060  25.976  1.00  0.00     0.163 HD
ATOM     29  O   UNL A   1      42.529  18.127  26.009  1.00  0.00    -0.269 OA
BRANCH  27  30
ATOM     30  C   UNL A   1      42.397  20.435  26.394  1.00  0.00     0.039 A 
ATOM     31  C   UNL A   1      42.949  21.172  25.344  1.00  0.00     0.014 A 
ATOM     32  C   UNL A   1      42.398  20.950  27.691  1.00  0.00     0.014 A 
ATOM     33  C   UNL A   1      43.437  22.456  25.589  1.00  0.00     0.010 A 
ATOM     34  C   UNL A   1      42.763  22.269  27.908  1.00  0.00     0.010 A 
ATOM     35  C   UNL A   1      43.307  23.029  26.865  1.00  0.00    -0.014 A 
BRANCH  35  36
ATOM     36  C   UNL A   1      43.755  24.413  27.147  1.00  0.00     0.031 A 
ATOM     37  C   UNL A   1      42.771  25.425  27.662  1.00  0.00     0.074 A 
ATOM     38  C   UNL A   1      45.020  24.773  26.862  1.00  0.00     0.049 A 
ATOM     39  N   UNL A   1      42.937  26.704  27.887  1.00  0.00    -0.248 NA
ATOM     40  C   UNL A   1      41.401  24.947  27.918  1.00  0.00     0.031 C 
ATOM     41  C   UNL A   1      46.045  23.893  26.298  1.00  0.00     0.029 A 
ATOM     42  N   UNL A   1      45.658  25.980  26.997  1.00  0.00    -0.354 N 
ATOM     43  C   UNL A   1      41.695  27.179  28.285  1.00  0.00     0.074 A 
ATOM     44  C   UNL A   1      40.767  26.074  28.200  1.00  0.00     0.031 C 
ATOM     45  C   UNL A   1      47.191  24.579  26.166  1.00  0.00     0.029 A 
ATOM     46  C   UNL A   1      46.969  25.957  26.592  1.00  0.00     0.049 A 
ATOM     47  H   UNL A   1      45.217  26.786  27.351  1.00  0.00     0.167 HD
ATOM     48  C   UNL A   1      41.363  28.421  28.714  1.00  0.00     0.037 A 
ATOM     49  C   UNL A   1      47.887  26.942  26.564  1.00  0.00     0.037 A 
ATOM     50  C   UNL A   1      42.303  29.505  28.822  1.00  0.00     0.049 A 
ATOM     51  C   UNL A   1      47.499  28.310  27.049  1.00  0.00     0.074 A 
ATOM     52  C   UNL A   1      42.095  30.781  29.313  1.00  0.00     0.029 A 
ATOM     53  N   UNL A   1      43.632  29.438  28.427  1.00  0.00    -0.354 N 
ATOM     54  N   UNL A   1      46.342  28.732  27.502  1.00  0.00    -0.248 NA
ATOM     55  C   UNL A   1      48.546  29.340  27.028  1.00  0.00     0.031 C 
ATOM     56  C   UNL A   1      43.281  31.505  29.160  1.00  0.00     0.029 A 
ATOM     57  C   UNL A   1      44.249  30.661  28.634  1.00  0.00     0.049 A 
ATOM     58  H   UNL A   1      44.070  28.639  28.054  1.00  0.00     0.167 HD
ATOM     59  C   UNL A   1      46.527  30.064  27.844  1.00  0.00     0.074 A 
ATOM     60  C   UNL A   1      47.914  30.376  27.561  1.00  0.00     0.031 C 
ATOM     61  C   UNL A   1      45.631  30.950  28.347  1.00  0.00     0.037 A 
BRANCH  48  62
ATOM     62  C   UNL A   1      39.930  28.663  29.093  1.00  0.00     0.064 A 
ATOM     63  C   UNL A   1      38.989  29.140  28.166  1.00  0.00     0.173 A 
ATOM     64  C   UNL A   1      39.487  28.407  30.400  1.00  0.00     0.173 A 
ATOM     65  F   UNL A   1      39.359  29.413  26.906  1.00  0.00    -0.203 F 
ATOM     66  C   UNL A   1      37.672  29.392  28.545  1.00  0.00     0.198 A 
ATOM     67  C   UNL A   1      38.161  28.624  30.764  1.00  0.00     0.198 A 
ATOM     68  F   UNL A   1      40.341  27.946  31.326  1.00  0.00    -0.203 F 
ATOM     69  F   UNL A   1      36.811  29.911  27.659  1.00  0.00    -0.200 F 
ATOM     70  C   UNL A   1      37.258  29.127  29.840  1.00  0.00     0.200 A 
ATOM     71  F   UNL A   1      37.758  28.355  32.013  1.00  0.00    -0.200 F 
ATOM     72  F   UNL A   1      35.990  29.369  30.202  1.00  0.00    -0.200 F 
ENDBRANCH  48  62
BRANCH  49  73
ATOM     73  C   UNL A   1      49.265  26.653  26.086  1.00  0.00     0.064 A 
ATOM     74  C   UNL A   1      50.224  26.105  26.948  1.00  0.00     0.173 A 
ATOM     75  C   UNL A   1      49.645  26.897  24.758  1.00  0.00     0.173 A 
ATOM     76  F   UNL A   1      49.914  25.868  28.231  1.00  0.00    -0.203 F 
ATOM     77  C   UNL A   1      51.516  25.830  26.505  1.00  0.00     0.198 A 
ATOM     78  C   UNL A   1      50.928  26.593  24.309  1.00  0.00     0.198 A 
ATOM     79  F   UNL A   1      48.760  27.410  23.890  1.00  0.00    -0.203 F 
ATOM     80  F   UNL A   1      52.426  25.345  27.362  1.00  0.00    -0.200 F 
ATOM     81  C   UNL A   1      51.865  26.067  25.184  1.00  0.00     0.200 A 
ATOM     82  F   UNL A   1      51.255  26.806  23.027  1.00  0.00    -0.200 F 
ATOM     83  F   UNL A   1      53.105  25.792  24.757  1.00  0.00    -0.200 F 
ENDBRANCH  49  73
BRANCH  61  84
ATOM     84  C   UNL A   1      46.130  32.332  28.656  1.00  0.00     0.064 A 
ATOM     85  C   UNL A   1      46.687  32.656  29.901  1.00  0.00     0.173 A 
ATOM     86  C   UNL A   1      46.090  33.334  27.673  1.00  0.00     0.173 A 
ATOM     87  F   UNL A   1      46.737  31.738  30.878  1.00  0.00    -0.203 F 
ATOM     88  C   UNL A   1      47.161  33.939  30.161  1.00  0.00     0.198 A 
ATOM     89  C   UNL A   1      46.596  34.605  27.924  1.00  0.00     0.198 A 
ATOM     90  F   UNL A   1      45.574  33.074  26.463  1.00  0.00    -0.203 F 
ATOM     91  F   UNL A   1      47.642  34.241  31.375  1.00  0.00    -0.200 F 
ATOM     92  C   UNL A   1      47.123  34.909  29.170  1.00  0.00     0.200 A 
ATOM     93  F   UNL A   1      46.575  35.536  26.961  1.00  0.00    -0.200 F 
ATOM     94  F   UNL A   1      47.588  36.141  29.419  1.00  0.00    -0.200 F 
ENDBRANCH  61  84
ENDBRANCH  35  36
ENDBRANCH  27  30
ENDBRANCH  25  26
ENDBRANCH   1  25
TORSDOF 14
ENDMDL
