MODEL 1
REMARK VINA RESULT:     -13.3      0.000      0.000
REMARK SMILES CC(C)(C)c1cc2c(cc1Cl)C=C(C(=O)NCCCNC(=O)c1ccc(-c3c4nc(c(-c5c(F)c(F)c(F)c(F)c5F)c5ccc([nH]5)c(-c5c(F)c(F)c(F)c(F)c5F)c5nc(c(-c6c(F)c(F)c(F)c(F)c6F)c6ccc3[nH]6)C=C5)C=C4)cc1)[C@@H](C(F)(F)F)O2
REMARK SMILES IDX 18 1 17 2 16 3 14 4 15 5 13 7 5 8 6 9 10 10 7 11 9 12 11 13
REMARK SMILES IDX 8 14 91 15 12 16 86 17 2 18 1 19 3 20 4 21 87 22 88 23 89 24
REMARK SMILES IDX 90 25 19 26 20 27 21 28 22 30 23 31 24 32 85 33 25 34 84 35
REMARK SMILES IDX 26 36 27 37 28 38 78 39 29 40 83 41 77 42 79 43 30 44 82 45
REMARK SMILES IDX 76 46 75 47 31 49 63 50 43 51 62 52 44 53 47 54 61 55 80 56
REMARK SMILES IDX 45 57 46 58 60 60 81 61 48 62 32 63 33 64 41 65 34 66 35 67
REMARK SMILES IDX 39 68 42 69 36 70 37 71 40 72 38 73 64 74 65 75 73 76 66 77
REMARK SMILES IDX 67 78 71 79 74 80 68 81 69 82 72 83 70 84 49 85 50 86 58 87
REMARK SMILES IDX 51 88 52 89 56 90 59 91 53 92 54 93 57 94 55 95
REMARK H PARENT 16 6 20 29 79 48 47 59
REMARK Flexibility Score: inf
ROOT
ATOM      1  C   UNL A   1      37.881  19.740  25.012  1.00  0.00     0.042 C 
ENDROOT
BRANCH   1   2
ATOM      2  C   UNL A   1      36.838  20.823  24.785  1.00  0.00     0.118 C 
BRANCH   2   3
ATOM      3  N   UNL A   1      35.539  20.446  25.321  1.00  0.00    -0.352 N 
ATOM      4  C   UNL A   1      34.318  21.011  25.459  1.00  0.00     0.251 C 
ATOM      5  O   UNL A   1      33.474  20.302  26.016  1.00  0.00    -0.270 OA
ATOM      6  H   UNL A   1      35.553  19.529  25.680  1.00  0.00     0.163 HD
BRANCH   4   7
ATOM      7  C   UNL A   1      33.950  22.382  25.004  1.00  0.00     0.067 C 
ATOM      8  C   UNL A   1      32.570  27.277  24.803  1.00  0.00    -0.020 A 
ATOM      9  C   UNL A   1      33.171  26.349  23.924  1.00  0.00     0.053 A 
ATOM     10  C   UNL A   1      32.302  26.802  26.110  1.00  0.00     0.045 A 
ATOM     11  C   UNL A   1      33.466  25.041  24.308  1.00  0.00     0.128 A 
ATOM     12  C   UNL A   1      32.602  25.478  26.489  1.00  0.00     0.032 A 
ATOM     13  Cl  UNL A   1      31.640  27.774  27.380  1.00  0.00    -0.084 Cl
ATOM     14  C   UNL A   1      33.186  24.593  25.589  1.00  0.00     0.019 A 
ATOM     15  O   UNL A   1      34.088  24.262  23.374  1.00  0.00    -0.475 OA
ATOM     16  C   UNL A   1      33.561  23.238  25.969  1.00  0.00     0.025 C 
ATOM     17  C   UNL A   1      33.971  22.828  23.569  1.00  0.00     0.314 C 
BRANCH   8  18
ATOM     18  C   UNL A   1      32.302  28.720  24.308  1.00  0.00    -0.012 C 
ATOM     19  C   UNL A   1      30.794  29.030  24.175  1.00  0.00     0.016 C 
ATOM     20  C   UNL A   1      32.892  29.009  22.897  1.00  0.00     0.016 C 
ATOM     21  C   UNL A   1      32.976  29.722  25.268  1.00  0.00     0.016 C 
ENDBRANCH   8  18
BRANCH  17  22
ATOM     22  C   UNL A   1      32.765  22.306  22.765  1.00  0.00     0.429 C 
ATOM     23  F   UNL A   1      32.890  22.646  21.457  1.00  0.00    -0.167 F 
ATOM     24  F   UNL A   1      32.659  20.956  22.801  1.00  0.00    -0.167 F 
ATOM     25  F   UNL A   1      31.587  22.803  23.202  1.00  0.00    -0.167 F 
ENDBRANCH  17  22
ENDBRANCH   4   7
ENDBRANCH   2   3
ENDBRANCH   1   2
BRANCH   1  26
ATOM     26  C   UNL A   1      39.071  20.243  25.818  1.00  0.00     0.118 C 
BRANCH  26  27
ATOM     27  N   UNL A   1      40.137  19.248  25.904  1.00  0.00    -0.352 N 
ATOM     28  C   UNL A   1      41.491  19.398  26.075  1.00  0.00     0.251 C 
ATOM     29  H   UNL A   1      39.834  18.315  25.826  1.00  0.00     0.163 HD
ATOM     30  O   UNL A   1      42.240  18.446  25.874  1.00  0.00    -0.269 OA
BRANCH  28  31
ATOM     31  C   UNL A   1      42.051  20.700  26.486  1.00  0.00     0.039 A 
ATOM     32  C   UNL A   1      42.199  21.009  27.837  1.00  0.00     0.014 A 
ATOM     33  C   UNL A   1      42.454  21.619  25.511  1.00  0.00     0.014 A 
ATOM     34  C   UNL A   1      42.554  22.295  28.213  1.00  0.00     0.010 A 
ATOM     35  C   UNL A   1      42.927  22.876  25.895  1.00  0.00     0.010 A 
ATOM     36  C   UNL A   1      42.933  23.242  27.249  1.00  0.00    -0.014 A 
BRANCH  36  37
ATOM     37  C   UNL A   1      43.345  24.594  27.704  1.00  0.00     0.031 A 
ATOM     38  C   UNL A   1      44.788  25.014  27.673  1.00  0.00     0.074 A 
ATOM     39  C   UNL A   1      42.390  25.474  28.065  1.00  0.00     0.049 A 
ATOM     40  N   UNL A   1      45.313  26.176  27.972  1.00  0.00    -0.248 NA
ATOM     41  C   UNL A   1      45.773  24.002  27.262  1.00  0.00     0.031 C 
ATOM     42  C   UNL A   1      40.958  25.175  28.127  1.00  0.00     0.029 A 
ATOM     43  N   UNL A   1      42.467  26.800  28.400  1.00  0.00    -0.354 N 
ATOM     44  C   UNL A   1      46.684  26.028  27.809  1.00  0.00     0.074 A 
ATOM     45  C   UNL A   1      46.916  24.657  27.409  1.00  0.00     0.031 C 
ATOM     46  C   UNL A   1      40.285  26.303  28.393  1.00  0.00     0.029 A 
ATOM     47  C   UNL A   1      41.241  27.386  28.596  1.00  0.00     0.049 A 
ATOM     48  H   UNL A   1      43.319  27.287  28.493  1.00  0.00     0.167 HD
ATOM     49  C   UNL A   1      47.657  26.957  27.964  1.00  0.00     0.037 A 
ATOM     50  C   UNL A   1      40.918  28.654  28.910  1.00  0.00     0.037 A 
ATOM     51  C   UNL A   1      47.414  28.329  28.331  1.00  0.00     0.049 A 
ATOM     52  C   UNL A   1      42.016  29.657  29.102  1.00  0.00     0.074 A 
ATOM     53  C   UNL A   1      48.329  29.354  28.489  1.00  0.00     0.029 A 
ATOM     54  N   UNL A   1      46.161  28.866  28.593  1.00  0.00    -0.354 N 
ATOM     55  N   UNL A   1      43.307  29.503  28.944  1.00  0.00    -0.248 NA
ATOM     56  C   UNL A   1      41.616  31.003  29.533  1.00  0.00     0.031 C 
ATOM     57  C   UNL A   1      47.636  30.501  28.888  1.00  0.00     0.029 A 
ATOM     58  C   UNL A   1      46.283  30.204  28.934  1.00  0.00     0.049 A 
ATOM     59  H   UNL A   1      45.311  28.371  28.544  1.00  0.00     0.167 HD
ATOM     60  C   UNL A   1      43.877  30.729  29.254  1.00  0.00     0.074 A 
ATOM     61  C   UNL A   1      42.786  31.624  29.587  1.00  0.00     0.031 C 
ATOM     62  C   UNL A   1      45.187  31.077  29.271  1.00  0.00     0.037 A 
BRANCH  49  63
ATOM     63  C   UNL A   1      49.078  26.523  27.754  1.00  0.00     0.064 A 
ATOM     64  C   UNL A   1      49.632  26.409  26.471  1.00  0.00     0.173 A 
ATOM     65  C   UNL A   1      49.911  26.265  28.853  1.00  0.00     0.173 A 
ATOM     66  F   UNL A   1      48.874  26.632  25.385  1.00  0.00    -0.203 F 
ATOM     67  C   UNL A   1      50.962  26.033  26.295  1.00  0.00     0.198 A 
ATOM     68  C   UNL A   1      51.248  25.916  28.675  1.00  0.00     0.198 A 
ATOM     69  F   UNL A   1      49.433  26.366  30.103  1.00  0.00    -0.203 F 
ATOM     70  F   UNL A   1      51.459  25.892  25.058  1.00  0.00    -0.200 F 
ATOM     71  C   UNL A   1      51.770  25.794  27.397  1.00  0.00     0.200 A 
ATOM     72  F   UNL A   1      52.030  25.696  29.741  1.00  0.00    -0.200 F 
ATOM     73  F   UNL A   1      53.051  25.442  27.226  1.00  0.00    -0.200 F 
ENDBRANCH  49  63
BRANCH  50  74
ATOM     74  C   UNL A   1      39.487  29.026  29.045  1.00  0.00     0.064 A 
ATOM     75  C   UNL A   1      38.734  29.405  27.926  1.00  0.00     0.173 A 
ATOM     76  C   UNL A   1      38.826  28.942  30.279  1.00  0.00     0.173 A 
ATOM     77  F   UNL A   1      39.326  29.516  26.727  1.00  0.00    -0.203 F 
ATOM     78  C   UNL A   1      37.372  29.677  28.036  1.00  0.00     0.198 A 
ATOM     79  C   UNL A   1      37.459  29.188  30.384  1.00  0.00     0.198 A 
ATOM     80  F   UNL A   1      39.502  28.577  31.379  1.00  0.00    -0.203 F 
ATOM     81  F   UNL A   1      36.677  30.051  26.952  1.00  0.00    -0.200 F 
ATOM     82  C   UNL A   1      36.734  29.556  29.261  1.00  0.00     0.200 A 
ATOM     83  F   UNL A   1      36.843  29.048  31.565  1.00  0.00    -0.200 F 
ATOM     84  F   UNL A   1      35.418  29.792  29.360  1.00  0.00    -0.200 F 
ENDBRANCH  50  74
BRANCH  62  85
ATOM     85  C   UNL A   1      45.520  32.485  29.661  1.00  0.00     0.064 A 
ATOM     86  C   UNL A   1      45.568  33.511  28.708  1.00  0.00     0.173 A 
ATOM     87  C   UNL A   1      45.719  32.822  31.008  1.00  0.00     0.173 A 
ATOM     88  F   UNL A   1      45.398  33.233  27.406  1.00  0.00    -0.203 F 
ATOM     89  C   UNL A   1      45.816  34.827  29.089  1.00  0.00     0.198 A 
ATOM     90  C   UNL A   1      45.941  34.143  31.387  1.00  0.00     0.198 A 
ATOM     91  F   UNL A   1      45.676  31.874  31.956  1.00  0.00    -0.203 F 
ATOM     92  F   UNL A   1      45.887  35.789  28.159  1.00  0.00    -0.200 F 
ATOM     93  C   UNL A   1      45.991  35.142  30.428  1.00  0.00     0.200 A 
ATOM     94  F   UNL A   1      46.098  34.448  32.682  1.00  0.00    -0.200 F 
ATOM     95  F   UNL A   1      46.213  36.413  30.794  1.00  0.00    -0.200 F 
ENDBRANCH  62  85
ENDBRANCH  36  37
ENDBRANCH  28  31
ENDBRANCH  26  27
ENDBRANCH   1  26
TORSDOF 12
ENDMDL
MODEL 2
REMARK VINA RESULT:     -13.3      5.381     10.472
REMARK SMILES CC(C)(C)c1cc2c(cc1Cl)C=C(C(=O)NCCCNC(=O)c1ccc(-c3c4nc(c(-c5c(F)c(F)c(F)c(F)c5F)c5ccc([nH]5)c(-c5c(F)c(F)c(F)c(F)c5F)c5nc(c(-c6c(F)c(F)c(F)c(F)c6F)c6ccc3[nH]6)C=C5)C=C4)cc1)[C@@H](C(F)(F)F)O2
REMARK SMILES IDX 18 1 17 2 16 3 14 4 15 5 13 7 5 8 6 9 10 10 7 11 9 12 11 13
REMARK SMILES IDX 8 14 91 15 12 16 86 17 2 18 1 19 3 20 4 21 87 22 88 23 89 24
REMARK SMILES IDX 90 25 19 26 20 27 21 28 22 30 23 31 24 32 85 33 25 34 84 35
REMARK SMILES IDX 26 36 27 37 28 38 78 39 29 40 83 41 77 42 79 43 30 44 82 45
REMARK SMILES IDX 76 46 75 47 31 49 63 50 43 51 62 52 44 53 47 54 61 55 80 56
REMARK SMILES IDX 45 57 46 58 60 60 81 61 48 62 32 63 33 64 41 65 34 66 35 67
REMARK SMILES IDX 39 68 42 69 36 70 37 71 40 72 38 73 64 74 65 75 73 76 66 77
REMARK SMILES IDX 67 78 71 79 74 80 68 81 69 82 72 83 70 84 49 85 50 86 58 87
REMARK SMILES IDX 51 88 52 89 56 90 59 91 53 92 54 93 57 94 55 95
REMARK H PARENT 16 6 20 29 79 48 47 59
REMARK Flexibility Score: inf
ROOT
ATOM      1  C   UNL A   1      31.452  31.822  26.491  1.00  0.00     0.042 C 
ENDROOT
BRANCH   1   2
ATOM      2  C   UNL A   1      31.603  30.331  26.234  1.00  0.00     0.118 C 
BRANCH   2   3
ATOM      3  N   UNL A   1      31.415  30.000  24.830  1.00  0.00    -0.352 N 
ATOM      4  C   UNL A   1      31.530  28.908  24.042  1.00  0.00     0.251 C 
ATOM      5  O   UNL A   1      31.278  29.096  22.847  1.00  0.00    -0.270 OA
ATOM      6  H   UNL A   1      31.125  30.787  24.313  1.00  0.00     0.163 HD
BRANCH   4   7
ATOM      7  C   UNL A   1      31.930  27.549  24.508  1.00  0.00     0.067 C 
ATOM      8  C   UNL A   1      34.352  23.135  25.248  1.00  0.00    -0.020 A 
ATOM      9  C   UNL A   1      33.353  23.876  25.918  1.00  0.00     0.053 A 
ATOM     10  C   UNL A   1      34.900  23.744  24.093  1.00  0.00     0.045 A 
ATOM     11  C   UNL A   1      32.916  25.120  25.463  1.00  0.00     0.128 A 
ATOM     12  C   UNL A   1      34.452  25.001  23.640  1.00  0.00     0.032 A 
ATOM     13  Cl  UNL A   1      36.185  23.065  23.153  1.00  0.00    -0.084 Cl
ATOM     14  C   UNL A   1      33.459  25.694  24.324  1.00  0.00     0.019 A 
ATOM     15  O   UNL A   1      31.977  25.748  26.230  1.00  0.00    -0.475 OA
ATOM     16  C   UNL A   1      33.016  27.020  23.914  1.00  0.00     0.025 C 
ATOM     17  C   UNL A   1      31.191  26.767  25.556  1.00  0.00     0.314 C 
BRANCH   8  18
ATOM     18  C   UNL A   1      34.802  21.774  25.835  1.00  0.00    -0.012 C 
ATOM     19  C   UNL A   1      36.340  21.635  25.898  1.00  0.00     0.016 C 
ATOM     20  C   UNL A   1      34.327  20.552  24.997  1.00  0.00     0.016 C 
ATOM     21  C   UNL A   1      34.187  21.596  27.239  1.00  0.00     0.016 C 
ENDBRANCH   8  18
BRANCH  17  22
ATOM     22  C   UNL A   1      29.893  26.131  25.020  1.00  0.00     0.429 C 
ATOM     23  F   UNL A   1      29.203  25.550  26.034  1.00  0.00    -0.167 F 
ATOM     24  F   UNL A   1      29.060  27.039  24.460  1.00  0.00    -0.167 F 
ATOM     25  F   UNL A   1      30.121  25.180  24.087  1.00  0.00    -0.167 F 
ENDBRANCH  17  22
ENDBRANCH   4   7
ENDBRANCH   2   3
ENDBRANCH   1   2
BRANCH   1  26
ATOM     26  C   UNL A   1      32.695  32.426  27.131  1.00  0.00     0.118 C 
BRANCH  26  27
ATOM     27  N   UNL A   1      32.495  33.824  27.508  1.00  0.00    -0.352 N 
ATOM     28  C   UNL A   1      33.064  34.573  28.509  1.00  0.00     0.251 C 
ATOM     29  H   UNL A   1      31.844  34.309  26.952  1.00  0.00     0.163 HD
ATOM     30  O   UNL A   1      32.576  35.659  28.809  1.00  0.00    -0.269 OA
BRANCH  28  31
ATOM     31  C   UNL A   1      34.248  34.072  29.233  1.00  0.00     0.039 A 
ATOM     32  C   UNL A   1      35.529  34.447  28.833  1.00  0.00     0.014 A 
ATOM     33  C   UNL A   1      34.079  33.233  30.340  1.00  0.00     0.014 A 
ATOM     34  C   UNL A   1      36.634  33.833  29.401  1.00  0.00     0.010 A 
ATOM     35  C   UNL A   1      35.199  32.708  30.991  1.00  0.00     0.010 A 
ATOM     36  C   UNL A   1      36.485  32.965  30.495  1.00  0.00    -0.014 A 
BRANCH  36  37
ATOM     37  C   UNL A   1      37.702  32.363  31.096  1.00  0.00     0.031 A 
ATOM     38  C   UNL A   1      38.132  32.719  32.492  1.00  0.00     0.074 A 
ATOM     39  C   UNL A   1      38.370  31.423  30.400  1.00  0.00     0.049 A 
ATOM     40  N   UNL A   1      39.128  32.240  33.194  1.00  0.00    -0.248 NA
ATOM     41  C   UNL A   1      37.349  33.749  33.192  1.00  0.00     0.031 C 
ATOM     42  C   UNL A   1      38.039  30.995  29.039  1.00  0.00     0.029 A 
ATOM     43  N   UNL A   1      39.429  30.626  30.749  1.00  0.00    -0.354 N 
ATOM     44  C   UNL A   1      39.107  32.924  34.401  1.00  0.00     0.074 A 
ATOM     45  C   UNL A   1      38.016  33.871  34.332  1.00  0.00     0.031 C 
ATOM     46  C   UNL A   1      38.819  29.959  28.701  1.00  0.00     0.029 A 
ATOM     47  C   UNL A   1      39.754  29.699  29.790  1.00  0.00     0.049 A 
ATOM     48  H   UNL A   1      39.911  30.709  31.604  1.00  0.00     0.167 HD
ATOM     49  C   UNL A   1      39.918  32.764  35.475  1.00  0.00     0.037 A 
ATOM     50  C   UNL A   1      40.704  28.745  29.781  1.00  0.00     0.037 A 
ATOM     51  C   UNL A   1      40.982  31.797  35.548  1.00  0.00     0.049 A 
ATOM     52  C   UNL A   1      41.605  28.607  30.972  1.00  0.00     0.074 A 
ATOM     53  C   UNL A   1      41.842  31.539  36.599  1.00  0.00     0.029 A 
ATOM     54  N   UNL A   1      41.327  30.925  34.525  1.00  0.00    -0.354 N 
ATOM     55  N   UNL A   1      41.573  29.260  32.107  1.00  0.00    -0.248 NA
ATOM     56  C   UNL A   1      42.683  27.614  30.875  1.00  0.00     0.031 C 
ATOM     57  C   UNL A   1      42.736  30.541  36.199  1.00  0.00     0.029 A 
ATOM     58  C   UNL A   1      42.404  30.143  34.914  1.00  0.00     0.049 A 
ATOM     59  H   UNL A   1      40.875  30.868  33.652  1.00  0.00     0.167 HD
ATOM     60  C   UNL A   1      42.623  28.760  32.862  1.00  0.00     0.074 A 
ATOM     61  C   UNL A   1      43.259  27.731  32.064  1.00  0.00     0.031 C 
ATOM     62  C   UNL A   1      43.029  29.129  34.102  1.00  0.00     0.037 A 
BRANCH  49  63
ATOM     63  C   UNL A   1      39.698  33.664  36.657  1.00  0.00     0.064 A 
ATOM     64  C   UNL A   1      40.287  34.933  36.736  1.00  0.00     0.173 A 
ATOM     65  C   UNL A   1      38.848  33.269  37.700  1.00  0.00     0.173 A 
ATOM     66  F   UNL A   1      41.119  35.355  35.770  1.00  0.00    -0.203 F 
ATOM     67  C   UNL A   1      40.049  35.767  37.826  1.00  0.00     0.198 A 
ATOM     68  C   UNL A   1      38.590  34.114  38.776  1.00  0.00     0.198 A 
ATOM     69  F   UNL A   1      38.254  32.065  37.671  1.00  0.00    -0.203 F 
ATOM     70  F   UNL A   1      40.654  36.961  37.900  1.00  0.00    -0.200 F 
ATOM     71  C   UNL A   1      39.195  35.360  38.841  1.00  0.00     0.200 A 
ATOM     72  F   UNL A   1      37.756  33.724  39.750  1.00  0.00    -0.200 F 
ATOM     73  F   UNL A   1      38.960  36.167  39.885  1.00  0.00    -0.200 F 
ENDBRANCH  49  63
BRANCH  50  74
ATOM     74  C   UNL A   1      40.826  27.852  28.601  1.00  0.00     0.064 A 
ATOM     75  C   UNL A   1      40.099  26.658  28.525  1.00  0.00     0.173 A 
ATOM     76  C   UNL A   1      41.614  28.209  27.497  1.00  0.00     0.173 A 
ATOM     77  F   UNL A   1      39.343  26.267  29.563  1.00  0.00    -0.203 F 
ATOM     78  C   UNL A   1      40.148  25.858  27.386  1.00  0.00     0.198 A 
ATOM     79  C   UNL A   1      41.643  27.423  26.348  1.00  0.00     0.198 A 
ATOM     80  F   UNL A   1      42.325  29.347  27.518  1.00  0.00    -0.203 F 
ATOM     81  F   UNL A   1      39.453  24.713  27.344  1.00  0.00    -0.200 F 
ATOM     82  C   UNL A   1      40.910  26.247  26.294  1.00  0.00     0.200 A 
ATOM     83  F   UNL A   1      42.363  27.814  25.288  1.00  0.00    -0.200 F 
ATOM     84  F   UNL A   1      40.936  25.490  25.188  1.00  0.00    -0.200 F 
ENDBRANCH  50  74
BRANCH  62  85
ATOM     85  C   UNL A   1      44.216  28.418  34.678  1.00  0.00     0.064 A 
ATOM     86  C   UNL A   1      45.510  28.942  34.548  1.00  0.00     0.173 A 
ATOM     87  C   UNL A   1      44.050  27.244  35.427  1.00  0.00     0.173 A 
ATOM     88  F   UNL A   1      45.719  30.055  33.828  1.00  0.00    -0.203 F 
ATOM     89  C   UNL A   1      46.598  28.308  35.141  1.00  0.00     0.198 A 
ATOM     90  C   UNL A   1      45.137  26.627  36.038  1.00  0.00     0.198 A 
ATOM     91  F   UNL A   1      42.829  26.709  35.582  1.00  0.00    -0.203 F 
ATOM     92  F   UNL A   1      47.831  28.809  34.981  1.00  0.00    -0.200 F 
ATOM     93  C   UNL A   1      46.409  27.159  35.893  1.00  0.00     0.200 A 
ATOM     94  F   UNL A   1      44.951  25.524  36.775  1.00  0.00    -0.200 F 
ATOM     95  F   UNL A   1      47.457  26.559  36.476  1.00  0.00    -0.200 F 
ENDBRANCH  62  85
ENDBRANCH  36  37
ENDBRANCH  28  31
ENDBRANCH  26  27
ENDBRANCH   1  26
TORSDOF 12
ENDMDL
MODEL 3
REMARK VINA RESULT:     -13.2      0.173      1.644
REMARK SMILES CC(C)(C)c1cc2c(cc1Cl)C=C(C(=O)NCCCNC(=O)c1ccc(-c3c4nc(c(-c5c(F)c(F)c(F)c(F)c5F)c5ccc([nH]5)c(-c5c(F)c(F)c(F)c(F)c5F)c5nc(c(-c6c(F)c(F)c(F)c(F)c6F)c6ccc3[nH]6)C=C5)C=C4)cc1)[C@@H](C(F)(F)F)O2
REMARK SMILES IDX 18 1 17 2 16 3 14 4 15 5 13 7 5 8 6 9 10 10 7 11 9 12 11 13
REMARK SMILES IDX 8 14 91 15 12 16 86 17 2 18 1 19 3 20 4 21 87 22 88 23 89 24
REMARK SMILES IDX 90 25 19 26 20 27 21 28 22 30 23 31 24 32 85 33 25 34 84 35
REMARK SMILES IDX 26 36 27 37 28 38 78 39 29 40 83 41 77 42 79 43 30 44 82 45
REMARK SMILES IDX 76 46 75 47 31 49 63 50 43 51 62 52 44 53 47 54 61 55 80 56
REMARK SMILES IDX 45 57 46 58 60 60 81 61 48 62 32 63 33 64 41 65 34 66 35 67
REMARK SMILES IDX 39 68 42 69 36 70 37 71 40 72 38 73 64 74 65 75 73 76 66 77
REMARK SMILES IDX 67 78 71 79 74 80 68 81 69 82 72 83 70 84 49 85 50 86 58 87
REMARK SMILES IDX 51 88 52 89 56 90 59 91 53 92 54 93 57 94 55 95
REMARK H PARENT 16 6 20 29 79 48 47 59
REMARK Flexibility Score: inf
ROOT
ATOM      1  C   UNL A   1      37.839  19.641  25.027  1.00  0.00     0.042 C 
ENDROOT
BRANCH   1   2
ATOM      2  C   UNL A   1      36.818  20.728  24.735  1.00  0.00     0.118 C 
BRANCH   2   3
ATOM      3  N   UNL A   1      35.494  20.375  25.228  1.00  0.00    -0.352 N 
ATOM      4  C   UNL A   1      34.290  20.976  25.359  1.00  0.00     0.251 C 
ATOM      5  O   UNL A   1      33.411  20.276  25.871  1.00  0.00    -0.270 OA
ATOM      6  H   UNL A   1      35.470  19.447  25.554  1.00  0.00     0.163 HD
BRANCH   4   7
ATOM      7  C   UNL A   1      33.977  22.374  24.946  1.00  0.00     0.067 C 
ATOM      8  C   UNL A   1      32.773  27.318  24.893  1.00  0.00    -0.020 A 
ATOM      9  C   UNL A   1      33.354  26.400  23.992  1.00  0.00     0.053 A 
ATOM     10  C   UNL A   1      32.468  26.809  26.180  1.00  0.00     0.045 A 
ATOM     11  C   UNL A   1      33.597  25.069  24.334  1.00  0.00     0.128 A 
ATOM     12  C   UNL A   1      32.716  25.464  26.517  1.00  0.00     0.032 A 
ATOM     13  Cl  UNL A   1      31.823  27.761  27.473  1.00  0.00    -0.084 Cl
ATOM     14  C   UNL A   1      33.283  24.589  25.596  1.00  0.00     0.019 A 
ATOM     15  O   UNL A   1      34.205  24.301  23.383  1.00  0.00    -0.475 OA
ATOM     16  C   UNL A   1      33.604  23.209  25.934  1.00  0.00     0.025 C 
ATOM     17  C   UNL A   1      34.035  22.866  23.527  1.00  0.00     0.314 C 
BRANCH   8  18
ATOM     18  C   UNL A   1      32.563  28.785  24.443  1.00  0.00    -0.012 C 
ATOM     19  C   UNL A   1      33.060  29.804  25.495  1.00  0.00     0.016 C 
ATOM     20  C   UNL A   1      31.069  29.153  24.209  1.00  0.00     0.016 C 
ATOM     21  C   UNL A   1      33.277  29.012  23.094  1.00  0.00     0.016 C 
ENDBRANCH   8  18
BRANCH  17  22
ATOM     22  C   UNL A   1      32.823  22.414  22.689  1.00  0.00     0.429 C 
ATOM     23  F   UNL A   1      32.961  22.830  21.404  1.00  0.00    -0.167 F 
ATOM     24  F   UNL A   1      32.694  21.068  22.644  1.00  0.00    -0.167 F 
ATOM     25  F   UNL A   1      31.652  22.906  23.151  1.00  0.00    -0.167 F 
ENDBRANCH  17  22
ENDBRANCH   4   7
ENDBRANCH   2   3
ENDBRANCH   1   2
BRANCH   1  26
ATOM     26  C   UNL A   1      39.044  20.171  25.794  1.00  0.00     0.118 C 
BRANCH  26  27
ATOM     27  N   UNL A   1      40.118  19.185  25.881  1.00  0.00    -0.352 N 
ATOM     28  C   UNL A   1      41.470  19.345  26.063  1.00  0.00     0.251 C 
ATOM     29  H   UNL A   1      39.824  18.249  25.795  1.00  0.00     0.163 HD
ATOM     30  O   UNL A   1      42.228  18.401  25.861  1.00  0.00    -0.269 OA
BRANCH  28  31
ATOM     31  C   UNL A   1      42.015  20.649  26.487  1.00  0.00     0.039 A 
ATOM     32  C   UNL A   1      42.172  20.942  27.840  1.00  0.00     0.014 A 
ATOM     33  C   UNL A   1      42.396  21.587  25.521  1.00  0.00     0.014 A 
ATOM     34  C   UNL A   1      42.512  22.228  28.230  1.00  0.00     0.010 A 
ATOM     35  C   UNL A   1      42.855  22.846  25.917  1.00  0.00     0.010 A 
ATOM     36  C   UNL A   1      42.870  23.193  27.276  1.00  0.00    -0.014 A 
BRANCH  36  37
ATOM     37  C   UNL A   1      43.267  24.544  27.745  1.00  0.00     0.031 A 
ATOM     38  C   UNL A   1      44.706  24.980  27.720  1.00  0.00     0.074 A 
ATOM     39  C   UNL A   1      42.303  25.410  28.114  1.00  0.00     0.049 A 
ATOM     40  N   UNL A   1      45.218  26.144  28.031  1.00  0.00    -0.248 NA
ATOM     41  C   UNL A   1      45.701  23.982  27.300  1.00  0.00     0.031 C 
ATOM     42  C   UNL A   1      40.873  25.097  28.171  1.00  0.00     0.029 A 
ATOM     43  N   UNL A   1      42.366  26.734  28.463  1.00  0.00    -0.354 N 
ATOM     44  C   UNL A   1      46.591  26.011  27.868  1.00  0.00     0.074 A 
ATOM     45  C   UNL A   1      46.837  24.647  27.455  1.00  0.00     0.031 C 
ATOM     46  C   UNL A   1      40.189  26.215  28.448  1.00  0.00     0.029 A 
ATOM     47  C   UNL A   1      41.133  27.305  28.663  1.00  0.00     0.049 A 
ATOM     48  H   UNL A   1      43.212  27.229  28.561  1.00  0.00     0.167 HD
ATOM     49  C   UNL A   1      47.554  26.949  28.035  1.00  0.00     0.037 A 
ATOM     50  C   UNL A   1      40.797  28.567  28.990  1.00  0.00     0.037 A 
ATOM     51  C   UNL A   1      47.297  28.314  28.415  1.00  0.00     0.049 A 
ATOM     52  C   UNL A   1      41.884  29.579  29.194  1.00  0.00     0.074 A 
ATOM     53  C   UNL A   1      48.201  29.347  28.586  1.00  0.00     0.029 A 
ATOM     54  N   UNL A   1      46.038  28.836  28.681  1.00  0.00    -0.354 N 
ATOM     55  N   UNL A   1      43.177  29.440  29.035  1.00  0.00    -0.248 NA
ATOM     56  C   UNL A   1      41.470  30.916  29.638  1.00  0.00     0.031 C 
ATOM     57  C   UNL A   1      47.495  30.483  28.995  1.00  0.00     0.029 A 
ATOM     58  C   UNL A   1      46.146  30.171  29.037  1.00  0.00     0.049 A 
ATOM     59  H   UNL A   1      45.193  28.333  28.626  1.00  0.00     0.167 HD
ATOM     60  C   UNL A   1      43.734  30.668  29.360  1.00  0.00     0.074 A 
ATOM     61  C   UNL A   1      42.634  31.548  29.700  1.00  0.00     0.031 C 
ATOM     62  C   UNL A   1      45.040  31.029  29.381  1.00  0.00     0.037 A 
BRANCH  49  63
ATOM     63  C   UNL A   1      48.980  26.532  27.822  1.00  0.00     0.064 A 
ATOM     64  C   UNL A   1      49.534  26.429  26.538  1.00  0.00     0.173 A 
ATOM     65  C   UNL A   1      49.816  26.279  28.920  1.00  0.00     0.173 A 
ATOM     66  F   UNL A   1      48.773  26.648  25.454  1.00  0.00    -0.203 F 
ATOM     67  C   UNL A   1      50.868  26.069  26.360  1.00  0.00     0.198 A 
ATOM     68  C   UNL A   1      51.157  25.945  28.739  1.00  0.00     0.198 A 
ATOM     69  F   UNL A   1      49.338  26.368  30.170  1.00  0.00    -0.203 F 
ATOM     70  F   UNL A   1      51.366  25.939  25.122  1.00  0.00    -0.200 F 
ATOM     71  C   UNL A   1      51.679  25.835  27.460  1.00  0.00     0.200 A 
ATOM     72  F   UNL A   1      51.942  25.730  29.804  1.00  0.00    -0.200 F 
ATOM     73  F   UNL A   1      52.965  25.497  27.287  1.00  0.00    -0.200 F 
ENDBRANCH  49  63
BRANCH  50  74
ATOM     74  C   UNL A   1      39.361  28.923  29.127  1.00  0.00     0.064 A 
ATOM     75  C   UNL A   1      38.719  28.854  30.369  1.00  0.00     0.173 A 
ATOM     76  C   UNL A   1      38.625  29.407  28.035  1.00  0.00     0.173 A 
ATOM     77  F   UNL A   1      39.378  28.382  31.438  1.00  0.00    -0.203 F 
ATOM     78  C   UNL A   1      37.396  29.263  30.517  1.00  0.00     0.198 A 
ATOM     79  C   UNL A   1      37.310  29.842  28.189  1.00  0.00     0.198 A 
ATOM     80  F   UNL A   1      39.198  29.499  26.826  1.00  0.00    -0.203 F 
ATOM     81  F   UNL A   1      36.799  29.174  31.714  1.00  0.00    -0.200 F 
ATOM     82  C   UNL A   1      36.697  29.768  29.430  1.00  0.00     0.200 A 
ATOM     83  F   UNL A   1      36.647  30.348  27.141  1.00  0.00    -0.200 F 
ATOM     84  F   UNL A   1      35.433  30.187  29.579  1.00  0.00    -0.200 F 
ENDBRANCH  50  74
BRANCH  62  85
ATOM     85  C   UNL A   1      45.358  32.437  29.786  1.00  0.00     0.064 A 
ATOM     86  C   UNL A   1      45.673  32.757  31.114  1.00  0.00     0.173 A 
ATOM     87  C   UNL A   1      45.419  33.458  28.827  1.00  0.00     0.173 A 
ATOM     88  F   UNL A   1      45.614  31.815  32.068  1.00  0.00    -0.203 F 
ATOM     89  C   UNL A   1      46.030  34.055  31.469  1.00  0.00     0.198 A 
ATOM     90  C   UNL A   1      45.800  34.748  29.181  1.00  0.00     0.198 A 
ATOM     91  F   UNL A   1      45.131  33.197  27.543  1.00  0.00    -0.203 F 
ATOM     92  F   UNL A   1      46.300  34.347  32.748  1.00  0.00    -0.200 F 
ATOM     93  C   UNL A   1      46.103  35.045  30.502  1.00  0.00     0.200 A 
ATOM     94  F   UNL A   1      45.883  35.702  28.244  1.00  0.00    -0.200 F 
ATOM     95  F   UNL A   1      46.462  36.291  30.843  1.00  0.00    -0.200 F 
ENDBRANCH  62  85
ENDBRANCH  36  37
ENDBRANCH  28  31
ENDBRANCH  26  27
ENDBRANCH   1  26
TORSDOF 12
ENDMDL
