MODEL 1
REMARK VINA RESULT:     -14.1      0.000      0.000
REMARK SMILES Cc1nc(-c2ccc3c(c2)CCN3S(=O)(=O)c2ccc(F)c(C(=O)NCCCNC(=O)c3ccc(-c4c5nc(c(-c6c(F)c(F)c(F)c(F)c6F)c6ccc([nH]6)c(-c6c(F)c(F)c(F)c(F)c6F)c6nc(c(-c7c(F)c(F)c(F)c(F)c7F)c7ccc4[nH]7)C=C6)C=C5)cc3)c2)cs1
REMARK SMILES IDX 26 1 25 2 23 3 24 4 22 6 17 7 18 8 95 9 19 10 20 11 21 12
REMARK SMILES IDX 14 13 15 14 16 15 13 16 5 17 6 18 10 19 7 20 9 21 8 22 11 23
REMARK SMILES IDX 12 24 4 25 1 26 2 27 3 28 97 29 96 30 27 31 28 32 29 33
REMARK SMILES IDX 30 34 31 36 32 37 33 38 94 39 34 40 93 41 35 42 36 43 37 44
REMARK SMILES IDX 87 45 38 46 92 47 86 48 88 49 39 50 91 51 85 52 84 53 40 55
REMARK SMILES IDX 72 56 52 57 71 58 53 59 56 60 70 61 89 62 54 63 55 64 69 66
REMARK SMILES IDX 90 67 57 68 41 69 42 70 50 71 43 72 44 73 48 74 51 75 45 76
REMARK SMILES IDX 46 77 49 78 47 79 73 80 74 81 82 82 75 83 76 84 80 85 83 86
REMARK SMILES IDX 77 87 78 88 81 89 79 90 58 91 59 92 67 93 60 94 61 95 65 96
REMARK SMILES IDX 68 97 62 98 63 99 66 100 64 101
REMARK H PARENT 25 5 29 35 88 54 56 65
REMARK Flexibility Score: inf
ROOT
ATOM      1  C   UNL A   1      36.718  20.616  25.300  1.00  0.00     0.118 C 
ENDROOT
BRANCH   1   2
ATOM      2  N   UNL A   1      37.015  21.941  25.808  1.00  0.00    -0.352 N 
ATOM      3  C   UNL A   1      36.478  23.186  25.642  1.00  0.00     0.254 C 
ATOM      4  O   UNL A   1      36.989  24.065  26.344  1.00  0.00    -0.269 OA
ATOM      5  H   UNL A   1      37.788  21.944  26.417  1.00  0.00     0.163 HD
BRANCH   3   6
ATOM      6  C   UNL A   1      35.354  23.583  24.743  1.00  0.00     0.076 A 
ATOM      7  C   UNL A   1      33.226  24.790  24.615  1.00  0.00     0.089 A 
ATOM      8  C   UNL A   1      33.124  24.508  23.251  1.00  0.00     0.025 A 
ATOM      9  C   UNL A   1      34.342  24.366  25.348  1.00  0.00     0.039 A 
ATOM     10  C   UNL A   1      34.105  23.735  22.648  1.00  0.00     0.041 A 
ATOM     11  C   UNL A   1      35.210  23.290  23.382  1.00  0.00     0.136 A 
ATOM     12  F   UNL A   1      36.122  22.609  22.684  1.00  0.00    -0.206 F 
BRANCH   7  13
ATOM     13  S   UNL A   1      31.903  25.685  25.383  1.00  0.00     0.264 S 
ATOM     14  O   UNL A   1      32.102  25.548  26.811  1.00  0.00    -0.201 OA
ATOM     15  O   UNL A   1      30.659  25.237  24.786  1.00  0.00    -0.201 OA
BRANCH  13  16
ATOM     16  N   UNL A   1      32.095  27.331  24.967  1.00  0.00    -0.266 N 
ATOM     17  C   UNL A   1      33.279  30.678  27.247  1.00  0.00     0.001 A 
ATOM     18  C   UNL A   1      34.020  29.496  27.388  1.00  0.00     0.012 A 
ATOM     19  C   UNL A   1      32.192  30.704  26.364  1.00  0.00     0.016 A 
ATOM     20  C   UNL A   1      33.675  28.341  26.679  1.00  0.00     0.028 A 
ATOM     21  C   UNL A   1      31.856  29.535  25.680  1.00  0.00    -0.021 A 
ATOM     22  C   UNL A   1      32.544  28.340  25.883  1.00  0.00     0.055 A 
ATOM     23  C   UNL A   1      30.899  29.410  24.537  1.00  0.00     0.060 C 
ATOM     24  C   UNL A   1      30.854  27.893  24.312  1.00  0.00     0.140 C 
BRANCH  17  25
ATOM     25  C   UNL A   1      33.744  31.871  27.936  1.00  0.00     0.081 A 
ATOM     26  C   UNL A   1      33.101  35.378  28.708  1.00  0.00     0.079 C 
ATOM     27  C   UNL A   1      33.624  33.993  28.551  1.00  0.00     0.090 A 
ATOM     28  N   UNL A   1      33.026  33.053  27.853  1.00  0.00    -0.242 NA
ATOM     29  S   UNL A   1      35.100  33.530  29.298  1.00  0.00    -0.127 S 
ATOM     30  C   UNL A   1      34.911  31.944  28.668  1.00  0.00     0.095 A 
ENDBRANCH  17  25
ENDBRANCH  13  16
ENDBRANCH   7  13
ENDBRANCH   3   6
ENDBRANCH   1   2
BRANCH   1  31
ATOM     31  C   UNL A   1      37.996  19.837  24.987  1.00  0.00     0.042 C 
BRANCH  31  32
ATOM     32  C   UNL A   1      39.193  20.293  25.825  1.00  0.00     0.118 C 
BRANCH  32  33
ATOM     33  N   UNL A   1      40.208  19.248  25.949  1.00  0.00    -0.352 N 
ATOM     34  C   UNL A   1      41.573  19.329  26.051  1.00  0.00     0.251 C 
ATOM     35  H   UNL A   1      39.850  18.331  25.963  1.00  0.00     0.163 HD
ATOM     36  O   UNL A   1      42.260  18.328  25.870  1.00  0.00    -0.269 OA
BRANCH  34  37
ATOM     37  C   UNL A   1      42.223  20.614  26.375  1.00  0.00     0.039 A 
ATOM     38  C   UNL A   1      42.791  21.370  25.345  1.00  0.00     0.014 A 
ATOM     39  C   UNL A   1      42.302  21.057  27.696  1.00  0.00     0.014 A 
ATOM     40  C   UNL A   1      43.361  22.612  25.633  1.00  0.00     0.010 A 
ATOM     41  C   UNL A   1      42.791  22.328  27.970  1.00  0.00     0.010 A 
ATOM     42  C   UNL A   1      43.317  23.122  26.941  1.00  0.00    -0.014 A 
BRANCH  42  43
ATOM     43  C   UNL A   1      43.787  24.493  27.256  1.00  0.00     0.031 A 
ATOM     44  C   UNL A   1      42.819  25.531  27.746  1.00  0.00     0.074 A 
ATOM     45  C   UNL A   1      45.072  24.821  27.014  1.00  0.00     0.049 A 
ATOM     46  N   UNL A   1      43.015  26.807  27.961  1.00  0.00    -0.248 NA
ATOM     47  C   UNL A   1      41.440  25.084  28.002  1.00  0.00     0.031 C 
ATOM     48  C   UNL A   1      46.093  23.906  26.501  1.00  0.00     0.029 A 
ATOM     49  N   UNL A   1      45.736  26.015  27.152  1.00  0.00    -0.354 N 
ATOM     50  C   UNL A   1      41.787  27.313  28.363  1.00  0.00     0.074 A 
ATOM     51  C   UNL A   1      40.839  26.224  28.311  1.00  0.00     0.031 C 
ATOM     52  C   UNL A   1      47.259  24.563  26.393  1.00  0.00     0.029 A 
ATOM     53  C   UNL A   1      47.057  25.957  26.776  1.00  0.00     0.049 A 
ATOM     54  H   UNL A   1      45.307  26.834  27.488  1.00  0.00     0.167 HD
ATOM     55  C   UNL A   1      41.490  28.571  28.765  1.00  0.00     0.037 A 
ATOM     56  C   UNL A   1      47.995  26.922  26.728  1.00  0.00     0.037 A 
ATOM     57  C   UNL A   1      42.447  29.641  28.837  1.00  0.00     0.049 A 
ATOM     58  C   UNL A   1      47.629  28.319  27.147  1.00  0.00     0.074 A 
ATOM     59  C   UNL A   1      42.257  30.935  29.289  1.00  0.00     0.029 A 
ATOM     60  N   UNL A   1      43.774  29.544  28.446  1.00  0.00    -0.354 N 
ATOM     61  N   UNL A   1      46.479  28.774  27.583  1.00  0.00    -0.248 NA
ATOM     62  C   UNL A   1      48.684  29.338  27.065  1.00  0.00     0.031 C 
ATOM     63  C   UNL A   1      43.451  31.638  29.115  1.00  0.00     0.029 A 
ATOM     64  C   UNL A   1      44.406  30.766  28.615  1.00  0.00     0.049 A 
ATOM     65  H   UNL A   1      44.204  28.729  28.100  1.00  0.00     0.167 HD
ATOM     66  C   UNL A   1      46.676  30.122  27.848  1.00  0.00     0.074 A 
ATOM     67  C   UNL A   1      48.061  30.410  27.537  1.00  0.00     0.031 C 
ATOM     68  C   UNL A   1      45.788  31.035  28.307  1.00  0.00     0.037 A 
BRANCH  55  69
ATOM     69  C   UNL A   1      40.075  28.865  29.174  1.00  0.00     0.064 A 
ATOM     70  C   UNL A   1      39.665  28.680  30.503  1.00  0.00     0.173 A 
ATOM     71  C   UNL A   1      39.104  29.248  28.236  1.00  0.00     0.173 A 
ATOM     72  F   UNL A   1      40.551  28.308  31.440  1.00  0.00    -0.203 F 
ATOM     73  C   UNL A   1      38.333  28.848  30.873  1.00  0.00     0.198 A 
ATOM     74  C   UNL A   1      37.780  29.446  28.616  1.00  0.00     0.198 A 
ATOM     75  F   UNL A   1      39.445  29.448  26.955  1.00  0.00    -0.203 F 
ATOM     76  F   UNL A   1      37.959  28.625  32.141  1.00  0.00    -0.200 F 
ATOM     77  C   UNL A   1      37.392  29.234  29.931  1.00  0.00     0.200 A 
ATOM     78  F   UNL A   1      36.877  29.843  27.708  1.00  0.00    -0.200 F 
ATOM     79  F   UNL A   1      36.113  29.401  30.290  1.00  0.00    -0.200 F 
ENDBRANCH  55  69
BRANCH  56  80
ATOM     80  C   UNL A   1      49.374  26.583  26.289  1.00  0.00     0.064 A 
ATOM     81  C   UNL A   1      50.326  26.075  27.185  1.00  0.00     0.173 A 
ATOM     82  C   UNL A   1      49.779  26.802  24.964  1.00  0.00     0.173 A 
ATOM     83  F   UNL A   1      49.993  25.854  28.466  1.00  0.00    -0.203 F 
ATOM     84  C   UNL A   1      51.636  25.823  26.780  1.00  0.00     0.198 A 
ATOM     85  C   UNL A   1      51.080  26.521  24.552  1.00  0.00     0.198 A 
ATOM     86  F   UNL A   1      48.900  27.268  24.065  1.00  0.00    -0.203 F 
ATOM     87  F   UNL A   1      52.536  25.379  27.667  1.00  0.00    -0.200 F 
ATOM     88  C   UNL A   1      52.010  26.042  25.464  1.00  0.00     0.200 A 
ATOM     89  F   UNL A   1      51.431  26.712  23.274  1.00  0.00    -0.200 F 
ATOM     90  F   UNL A   1      53.266  25.790  25.071  1.00  0.00    -0.200 F 
ENDBRANCH  56  80
BRANCH  68  91
ATOM     91  C   UNL A   1      46.271  32.440  28.524  1.00  0.00     0.064 A 
ATOM     92  C   UNL A   1      46.754  32.836  29.781  1.00  0.00     0.173 A 
ATOM     93  C   UNL A   1      46.147  33.417  27.528  1.00  0.00     0.173 A 
ATOM     94  F   UNL A   1      46.884  31.939  30.771  1.00  0.00    -0.203 F 
ATOM     95  C   UNL A   1      47.066  34.167  30.041  1.00  0.00     0.198 A 
ATOM     96  C   UNL A   1      46.489  34.743  27.782  1.00  0.00     0.198 A 
ATOM     97  F   UNL A   1      45.702  33.085  26.307  1.00  0.00    -0.203 F 
ATOM     98  F   UNL A   1      47.476  34.532  31.263  1.00  0.00    -0.200 F 
ATOM     99  C   UNL A   1      46.933  35.119  29.042  1.00  0.00     0.200 A 
ATOM    100  F   UNL A   1      46.381  35.659  26.810  1.00  0.00    -0.200 F 
ATOM    101  F   UNL A   1      47.230  36.401  29.292  1.00  0.00    -0.200 F 
ENDBRANCH  68  91
ENDBRANCH  42  43
ENDBRANCH  34  37
ENDBRANCH  32  33
ENDBRANCH  31  32
ENDBRANCH   1  31
TORSDOF 13
ENDMDL
MODEL 2
REMARK VINA RESULT:     -14.1      5.528     11.582
REMARK SMILES Cc1nc(-c2ccc3c(c2)CCN3S(=O)(=O)c2ccc(F)c(C(=O)NCCCNC(=O)c3ccc(-c4c5nc(c(-c6c(F)c(F)c(F)c(F)c6F)c6ccc([nH]6)c(-c6c(F)c(F)c(F)c(F)c6F)c6nc(c(-c7c(F)c(F)c(F)c(F)c7F)c7ccc4[nH]7)C=C6)C=C5)cc3)c2)cs1
REMARK SMILES IDX 26 1 25 2 23 3 24 4 22 6 17 7 18 8 95 9 19 10 20 11 21 12
REMARK SMILES IDX 14 13 15 14 16 15 13 16 5 17 6 18 10 19 7 20 9 21 8 22 11 23
REMARK SMILES IDX 12 24 4 25 1 26 2 27 3 28 97 29 96 30 27 31 28 32 29 33
REMARK SMILES IDX 30 34 31 36 32 37 33 38 94 39 34 40 93 41 35 42 36 43 37 44
REMARK SMILES IDX 87 45 38 46 92 47 86 48 88 49 39 50 91 51 85 52 84 53 40 55
REMARK SMILES IDX 72 56 52 57 71 58 53 59 56 60 70 61 89 62 54 63 55 64 69 66
REMARK SMILES IDX 90 67 57 68 41 69 42 70 50 71 43 72 44 73 48 74 51 75 45 76
REMARK SMILES IDX 46 77 49 78 47 79 73 80 74 81 82 82 75 83 76 84 80 85 83 86
REMARK SMILES IDX 77 87 78 88 81 89 79 90 58 91 59 92 67 93 60 94 61 95 65 96
REMARK SMILES IDX 68 97 62 98 63 99 66 100 64 101
REMARK H PARENT 25 5 29 35 88 54 56 65
REMARK Flexibility Score: inf
ROOT
ATOM      1  C   UNL A   1      31.538  30.870  25.983  1.00  0.00     0.118 C 
ENDROOT
BRANCH   1   2
ATOM      2  N   UNL A   1      32.874  30.389  26.274  1.00  0.00    -0.352 N 
ATOM      3  C   UNL A   1      33.492  29.171  26.258  1.00  0.00     0.254 C 
ATOM      4  O   UNL A   1      34.703  29.205  26.497  1.00  0.00    -0.269 OA
ATOM      5  H   UNL A   1      33.480  31.113  26.549  1.00  0.00     0.163 HD
BRANCH   3   6
ATOM      6  C   UNL A   1      32.879  27.840  25.968  1.00  0.00     0.076 A 
ATOM      7  C   UNL A   1      32.722  26.026  24.330  1.00  0.00     0.089 A 
ATOM      8  C   UNL A   1      31.891  25.299  25.184  1.00  0.00     0.025 A 
ATOM      9  C   UNL A   1      33.241  27.265  24.725  1.00  0.00     0.039 A 
ATOM     10  C   UNL A   1      31.522  25.854  26.400  1.00  0.00     0.041 A 
ATOM     11  C   UNL A   1      32.020  27.103  26.790  1.00  0.00     0.136 A 
ATOM     12  F   UNL A   1      31.650  27.510  28.006  1.00  0.00    -0.206 F 
BRANCH   7  13
ATOM     13  S   UNL A   1      33.086  25.340  22.736  1.00  0.00     0.264 S 
ATOM     14  O   UNL A   1      33.765  26.384  21.996  1.00  0.00    -0.201 OA
ATOM     15  O   UNL A   1      31.862  24.767  22.210  1.00  0.00    -0.201 OA
BRANCH  13  16
ATOM     16  N   UNL A   1      34.181  24.051  22.977  1.00  0.00    -0.266 N 
ATOM     17  C   UNL A   1      33.606  20.100  24.342  1.00  0.00     0.001 A 
ATOM     18  C   UNL A   1      32.703  20.603  23.393  1.00  0.00     0.012 A 
ATOM     19  C   UNL A   1      34.651  20.918  24.792  1.00  0.00     0.016 A 
ATOM     20  C   UNL A   1      32.821  21.908  22.909  1.00  0.00     0.028 A 
ATOM     21  C   UNL A   1      34.738  22.222  24.307  1.00  0.00    -0.021 A 
ATOM     22  C   UNL A   1      33.793  22.745  23.425  1.00  0.00     0.055 A 
ATOM     23  C   UNL A   1      35.889  23.164  24.473  1.00  0.00     0.060 C 
ATOM     24  C   UNL A   1      35.345  24.458  23.852  1.00  0.00     0.140 C 
BRANCH  17  25
ATOM     25  C   UNL A   1      33.490  18.706  24.735  1.00  0.00     0.081 A 
ATOM     26  C   UNL A   1      35.221  15.529  25.205  1.00  0.00     0.079 C 
ATOM     27  C   UNL A   1      34.264  16.663  25.092  1.00  0.00     0.090 A 
ATOM     28  N   UNL A   1      34.596  17.872  24.694  1.00  0.00    -0.242 NA
ATOM     29  S   UNL A   1      32.606  16.447  25.485  1.00  0.00    -0.127 S 
ATOM     30  C   UNL A   1      32.314  18.101  25.127  1.00  0.00     0.095 A 
ENDBRANCH  17  25
ENDBRANCH  13  16
ENDBRANCH   7  13
ENDBRANCH   3   6
ENDBRANCH   1   2
BRANCH   1  31
ATOM     31  C   UNL A   1      31.318  32.280  26.531  1.00  0.00     0.042 C 
BRANCH  31  32
ATOM     32  C   UNL A   1      32.522  32.810  27.314  1.00  0.00     0.118 C 
BRANCH  32  33
ATOM     33  N   UNL A   1      32.391  34.232  27.629  1.00  0.00    -0.352 N 
ATOM     34  C   UNL A   1      32.990  34.996  28.597  1.00  0.00     0.251 C 
ATOM     35  H   UNL A   1      31.768  34.723  27.047  1.00  0.00     0.163 HD
ATOM     36  O   UNL A   1      32.538  36.105  28.866  1.00  0.00    -0.269 OA
BRANCH  34  37
ATOM     37  C   UNL A   1      34.174  34.493  29.320  1.00  0.00     0.039 A 
ATOM     38  C   UNL A   1      34.009  33.927  30.588  1.00  0.00     0.014 A 
ATOM     39  C   UNL A   1      35.449  34.608  28.764  1.00  0.00     0.014 A 
ATOM     40  C   UNL A   1      35.115  33.398  31.258  1.00  0.00     0.010 A 
ATOM     41  C   UNL A   1      36.533  34.007  29.391  1.00  0.00     0.010 A 
ATOM     42  C   UNL A   1      36.376  33.388  30.640  1.00  0.00    -0.014 A 
BRANCH  42  43
ATOM     43  C   UNL A   1      37.541  32.714  31.262  1.00  0.00     0.031 A 
ATOM     44  C   UNL A   1      38.211  31.565  30.566  1.00  0.00     0.074 A 
ATOM     45  C   UNL A   1      37.935  33.084  32.497  1.00  0.00     0.049 A 
ATOM     46  N   UNL A   1      39.161  30.777  30.999  1.00  0.00    -0.248 NA
ATOM     47  C   UNL A   1      37.731  31.238  29.213  1.00  0.00     0.031 C 
ATOM     48  C   UNL A   1      37.334  34.161  33.286  1.00  0.00     0.029 A 
ATOM     49  N   UNL A   1      38.923  32.589  33.311  1.00  0.00    -0.354 N 
ATOM     50  C   UNL A   1      39.382  29.859  29.982  1.00  0.00     0.074 A 
ATOM     51  C   UNL A   1      38.433  30.150  28.931  1.00  0.00     0.031 C 
ATOM     52  C   UNL A   1      37.981  34.262  34.458  1.00  0.00     0.029 A 
ATOM     53  C   UNL A   1      39.006  33.226  34.526  1.00  0.00     0.049 A 
ATOM     54  H   UNL A   1      39.515  31.848  33.050  1.00  0.00     0.167 HD
ATOM     55  C   UNL A   1      40.315  28.880  29.924  1.00  0.00     0.037 A 
ATOM     56  C   UNL A   1      39.805  32.990  35.584  1.00  0.00     0.037 A 
ATOM     57  C   UNL A   1      41.272  28.617  30.964  1.00  0.00     0.049 A 
ATOM     58  C   UNL A   1      40.810  31.873  35.506  1.00  0.00     0.074 A 
ATOM     59  C   UNL A   1      42.296  27.686  30.974  1.00  0.00     0.029 A 
ATOM     60  N   UNL A   1      41.323  29.282  32.180  1.00  0.00    -0.354 N 
ATOM     61  N   UNL A   1      41.051  31.049  34.516  1.00  0.00    -0.248 NA
ATOM     62  C   UNL A   1      41.649  31.647  36.691  1.00  0.00     0.031 C 
ATOM     63  C   UNL A   1      42.928  27.746  32.217  1.00  0.00     0.029 A 
ATOM     64  C   UNL A   1      42.341  28.758  32.961  1.00  0.00     0.049 A 
ATOM     65  H   UNL A   1      40.725  30.016  32.449  1.00  0.00     0.167 HD
ATOM     66  C   UNL A   1      42.081  30.224  34.946  1.00  0.00     0.074 A 
ATOM     67  C   UNL A   1      42.430  30.655  36.283  1.00  0.00     0.031 C 
ATOM     68  C   UNL A   1      42.681  29.203  34.289  1.00  0.00     0.037 A 
BRANCH  55  69
ATOM     69  C   UNL A   1      40.363  28.024  28.691  1.00  0.00     0.064 A 
ATOM     70  C   UNL A   1      39.713  26.781  28.661  1.00  0.00     0.173 A 
ATOM     71  C   UNL A   1      41.124  28.393  27.571  1.00  0.00     0.173 A 
ATOM     72  F   UNL A   1      38.978  26.375  29.708  1.00  0.00    -0.203 F 
ATOM     73  C   UNL A   1      39.838  25.932  27.564  1.00  0.00     0.198 A 
ATOM     74  C   UNL A   1      41.220  27.556  26.463  1.00  0.00     0.198 A 
ATOM     75  F   UNL A   1      41.757  29.575  27.544  1.00  0.00    -0.203 F 
ATOM     76  F   UNL A   1      39.241  24.732  27.576  1.00  0.00    -0.200 F 
ATOM     77  C   UNL A   1      40.588  26.321  26.465  1.00  0.00     0.200 A 
ATOM     78  F   UNL A   1      41.926  27.944  25.392  1.00  0.00    -0.200 F 
ATOM     79  F   UNL A   1      40.702  25.506  25.408  1.00  0.00    -0.200 F 
ENDBRANCH  55  69
BRANCH  56  80
ATOM     80  C   UNL A   1      39.698  33.850  36.791  1.00  0.00     0.064 A 
ATOM     81  C   UNL A   1      38.891  33.489  37.881  1.00  0.00     0.173 A 
ATOM     82  C   UNL A   1      40.373  35.077  36.860  1.00  0.00     0.173 A 
ATOM     83  F   UNL A   1      38.218  32.328  37.863  1.00  0.00    -0.203 F 
ATOM     84  C   UNL A   1      38.743  34.333  38.980  1.00  0.00     0.198 A 
ATOM     85  C   UNL A   1      40.248  35.907  37.973  1.00  0.00     0.198 A 
ATOM     86  F   UNL A   1      41.171  35.459  35.853  1.00  0.00    -0.203 F 
ATOM     87  F   UNL A   1      37.932  33.982  39.987  1.00  0.00    -0.200 F 
ATOM     88  C   UNL A   1      39.426  35.538  39.027  1.00  0.00     0.200 A 
ATOM     89  F   UNL A   1      40.928  37.060  38.025  1.00  0.00    -0.200 F 
ATOM     90  F   UNL A   1      39.292  36.345  40.088  1.00  0.00    -0.200 F 
ENDBRANCH  56  80
BRANCH  68  91
ATOM     91  C   UNL A   1      43.794  28.476  34.985  1.00  0.00     0.064 A 
ATOM     92  C   UNL A   1      45.126  28.883  34.807  1.00  0.00     0.173 A 
ATOM     93  C   UNL A   1      43.554  27.313  35.729  1.00  0.00     0.173 A 
ATOM     94  F   UNL A   1      45.408  29.985  34.096  1.00  0.00    -0.203 F 
ATOM     95  C   UNL A   1      46.178  28.132  35.324  1.00  0.00     0.198 A 
ATOM     96  C   UNL A   1      44.608  26.582  36.270  1.00  0.00     0.198 A 
ATOM     97  F   UNL A   1      42.298  26.891  35.937  1.00  0.00    -0.203 F 
ATOM     98  F   UNL A   1      47.443  28.511  35.097  1.00  0.00    -0.200 F 
ATOM     99  C   UNL A   1      45.919  26.984  36.055  1.00  0.00     0.200 A 
ATOM    100  F   UNL A   1      44.356  25.483  36.995  1.00  0.00    -0.200 F 
ATOM    101  F   UNL A   1      46.932  26.259  36.549  1.00  0.00    -0.200 F 
ENDBRANCH  68  91
ENDBRANCH  42  43
ENDBRANCH  34  37
ENDBRANCH  32  33
ENDBRANCH  31  32
ENDBRANCH   1  31
TORSDOF 13
ENDMDL
MODEL 3
REMARK VINA RESULT:     -14.1      5.295     11.501
REMARK SMILES Cc1nc(-c2ccc3c(c2)CCN3S(=O)(=O)c2ccc(F)c(C(=O)NCCCNC(=O)c3ccc(-c4c5nc(c(-c6c(F)c(F)c(F)c(F)c6F)c6ccc([nH]6)c(-c6c(F)c(F)c(F)c(F)c6F)c6nc(c(-c7c(F)c(F)c(F)c(F)c7F)c7ccc4[nH]7)C=C6)C=C5)cc3)c2)cs1
REMARK SMILES IDX 26 1 25 2 23 3 24 4 22 6 17 7 18 8 95 9 19 10 20 11 21 12
REMARK SMILES IDX 14 13 15 14 16 15 13 16 5 17 6 18 10 19 7 20 9 21 8 22 11 23
REMARK SMILES IDX 12 24 4 25 1 26 2 27 3 28 97 29 96 30 27 31 28 32 29 33
REMARK SMILES IDX 30 34 31 36 32 37 33 38 94 39 34 40 93 41 35 42 36 43 37 44
REMARK SMILES IDX 87 45 38 46 92 47 86 48 88 49 39 50 91 51 85 52 84 53 40 55
REMARK SMILES IDX 72 56 52 57 71 58 53 59 56 60 70 61 89 62 54 63 55 64 69 66
REMARK SMILES IDX 90 67 57 68 41 69 42 70 50 71 43 72 44 73 48 74 51 75 45 76
REMARK SMILES IDX 46 77 49 78 47 79 73 80 74 81 82 82 75 83 76 84 80 85 83 86
REMARK SMILES IDX 77 87 78 88 81 89 79 90 58 91 59 92 67 93 60 94 61 95 65 96
REMARK SMILES IDX 68 97 62 98 63 99 66 100 64 101
REMARK H PARENT 25 5 29 35 88 54 56 65
REMARK Flexibility Score: inf
ROOT
ATOM      1  C   UNL A   1      31.686  30.678  26.445  1.00  0.00     0.118 C 
ENDROOT
BRANCH   1   2
ATOM      2  N   UNL A   1      31.393  30.223  25.100  1.00  0.00    -0.352 N 
ATOM      3  C   UNL A   1      31.313  29.007  24.484  1.00  0.00     0.254 C 
ATOM      4  O   UNL A   1      30.939  29.050  23.307  1.00  0.00    -0.269 OA
ATOM      5  H   UNL A   1      31.208  30.968  24.485  1.00  0.00     0.163 HD
BRANCH   3   6
ATOM      6  C   UNL A   1      31.599  27.664  25.072  1.00  0.00     0.076 A 
ATOM      7  C   UNL A   1      32.531  25.443  24.625  1.00  0.00     0.089 A 
ATOM      8  C   UNL A   1      32.293  25.055  25.945  1.00  0.00     0.025 A 
ATOM      9  C   UNL A   1      32.223  26.741  24.198  1.00  0.00     0.039 A 
ATOM     10  C   UNL A   1      31.675  25.947  26.809  1.00  0.00     0.041 A 
ATOM     11  C   UNL A   1      31.344  27.238  26.379  1.00  0.00     0.136 A 
ATOM     12  F   UNL A   1      30.813  28.031  27.313  1.00  0.00    -0.206 F 
BRANCH   7  13
ATOM     13  S   UNL A   1      33.220  24.246  23.515  1.00  0.00     0.264 S 
ATOM     14  O   UNL A   1      34.331  24.901  22.856  1.00  0.00    -0.201 OA
ATOM     15  O   UNL A   1      32.135  23.702  22.720  1.00  0.00    -0.201 OA
BRANCH  13  16
ATOM     16  N   UNL A   1      33.835  22.967  24.465  1.00  0.00    -0.266 N 
ATOM     17  C   UNL A   1      37.776  21.932  25.561  1.00  0.00     0.001 A 
ATOM     18  C   UNL A   1      37.403  23.281  25.657  1.00  0.00     0.012 A 
ATOM     19  C   UNL A   1      36.838  20.993  25.114  1.00  0.00     0.016 A 
ATOM     20  C   UNL A   1      36.120  23.700  25.294  1.00  0.00     0.028 A 
ATOM     21  C   UNL A   1      35.569  21.437  24.742  1.00  0.00    -0.021 A 
ATOM     22  C   UNL A   1      35.227  22.788  24.762  1.00  0.00     0.055 A 
ATOM     23  C   UNL A   1      34.368  20.588  24.468  1.00  0.00     0.060 C 
ATOM     24  C   UNL A   1      33.341  21.621  23.984  1.00  0.00     0.140 C 
BRANCH  17  25
ATOM     25  C   UNL A   1      39.091  21.544  26.044  1.00  0.00     0.081 A 
ATOM     26  C   UNL A   1      42.060  22.547  27.912  1.00  0.00     0.079 C 
ATOM     27  C   UNL A   1      41.007  21.878  27.100  1.00  0.00     0.090 A 
ATOM     28  N   UNL A   1      39.866  22.439  26.764  1.00  0.00    -0.242 NA
ATOM     29  S   UNL A   1      41.236  20.274  26.528  1.00  0.00    -0.127 S 
ATOM     30  C   UNL A   1      39.680  20.320  25.804  1.00  0.00     0.095 A 
ENDBRANCH  17  25
ENDBRANCH  13  16
ENDBRANCH   7  13
ENDBRANCH   3   6
ENDBRANCH   1   2
BRANCH   1  31
ATOM     31  C   UNL A   1      31.604  32.201  26.552  1.00  0.00     0.042 C 
BRANCH  31  32
ATOM     32  C   UNL A   1      32.813  32.814  27.264  1.00  0.00     0.118 C 
BRANCH  32  33
ATOM     33  N   UNL A   1      32.579  34.206  27.644  1.00  0.00    -0.352 N 
ATOM     34  C   UNL A   1      33.076  34.948  28.685  1.00  0.00     0.251 C 
ATOM     35  H   UNL A   1      31.961  34.693  27.053  1.00  0.00     0.163 HD
ATOM     36  O   UNL A   1      32.543  36.012  28.986  1.00  0.00    -0.269 OA
BRANCH  34  37
ATOM     37  C   UNL A   1      34.246  34.474  29.450  1.00  0.00     0.039 A 
ATOM     38  C   UNL A   1      34.052  33.914  30.716  1.00  0.00     0.014 A 
ATOM     39  C   UNL A   1      35.535  34.611  28.933  1.00  0.00     0.014 A 
ATOM     40  C   UNL A   1      35.146  33.412  31.424  1.00  0.00     0.010 A 
ATOM     41  C   UNL A   1      36.611  34.037  29.598  1.00  0.00     0.010 A 
ATOM     42  C   UNL A   1      36.426  33.424  30.847  1.00  0.00    -0.014 A 
BRANCH  42  43
ATOM     43  C   UNL A   1      37.584  32.778  31.510  1.00  0.00     0.031 A 
ATOM     44  C   UNL A   1      38.246  31.584  30.885  1.00  0.00     0.074 A 
ATOM     45  C   UNL A   1      37.979  33.217  32.722  1.00  0.00     0.049 A 
ATOM     46  N   UNL A   1      39.189  30.815  31.367  1.00  0.00    -0.248 NA
ATOM     47  C   UNL A   1      37.765  31.181  29.552  1.00  0.00     0.031 C 
ATOM     48  C   UNL A   1      37.386  34.343  33.444  1.00  0.00     0.029 A 
ATOM     49  N   UNL A   1      38.961  32.762  33.566  1.00  0.00    -0.354 N 
ATOM     50  C   UNL A   1      39.404  29.837  30.406  1.00  0.00     0.074 A 
ATOM     51  C   UNL A   1      38.459  30.073  29.337  1.00  0.00     0.031 C 
ATOM     52  C   UNL A   1      38.031  34.509  34.610  1.00  0.00     0.029 A 
ATOM     53  C   UNL A   1      39.047  33.469  34.742  1.00  0.00     0.049 A 
ATOM     54  H   UNL A   1      39.548  32.002  33.351  1.00  0.00     0.167 HD
ATOM     55  C   UNL A   1      40.328  28.848  30.408  1.00  0.00     0.037 A 
ATOM     56  C   UNL A   1      39.842  33.289  35.815  1.00  0.00     0.037 A 
ATOM     57  C   UNL A   1      41.281  28.638  31.464  1.00  0.00     0.049 A 
ATOM     58  C   UNL A   1      40.837  32.161  35.805  1.00  0.00     0.074 A 
ATOM     59  C   UNL A   1      42.296  27.701  31.531  1.00  0.00     0.029 A 
ATOM     60  N   UNL A   1      41.335  29.374  32.639  1.00  0.00    -0.354 N 
ATOM     61  N   UNL A   1      41.073  31.278  34.866  1.00  0.00    -0.248 NA
ATOM     62  C   UNL A   1      41.673  31.999  37.003  1.00  0.00     0.031 C 
ATOM     63  C   UNL A   1      42.926  27.829  32.771  1.00  0.00     0.029 A 
ATOM     64  C   UNL A   1      42.347  28.888  33.453  1.00  0.00     0.049 A 
ATOM     65  H   UNL A   1      40.743  30.128  32.863  1.00  0.00     0.167 HD
ATOM     66  C   UNL A   1      42.095  30.472  35.346  1.00  0.00     0.074 A 
ATOM     67  C   UNL A   1      42.446  30.978  36.657  1.00  0.00     0.031 C 
ATOM     68  C   UNL A   1      42.688  29.408  34.752  1.00  0.00     0.037 A 
BRANCH  55  69
ATOM     69  C   UNL A   1      40.372  27.920  29.228  1.00  0.00     0.064 A 
ATOM     70  C   UNL A   1      41.144  28.237  28.101  1.00  0.00     0.173 A 
ATOM     71  C   UNL A   1      39.584  26.760  29.177  1.00  0.00     0.173 A 
ATOM     72  F   UNL A   1      41.910  29.339  28.093  1.00  0.00    -0.203 F 
ATOM     73  C   UNL A   1      41.110  27.439  26.960  1.00  0.00     0.198 A 
ATOM     74  C   UNL A   1      39.578  25.947  28.048  1.00  0.00     0.198 A 
ATOM     75  F   UNL A   1      38.835  26.405  30.232  1.00  0.00    -0.203 F 
ATOM     76  F   UNL A   1      41.825  27.786  25.881  1.00  0.00    -0.200 F 
ATOM     77  C   UNL A   1      40.330  26.293  26.935  1.00  0.00     0.200 A 
ATOM     78  F   UNL A   1      38.842  24.827  28.035  1.00  0.00    -0.200 F 
ATOM     79  F   UNL A   1      40.304  25.523  25.840  1.00  0.00    -0.200 F 
ENDBRANCH  55  69
BRANCH  56  80
ATOM     80  C   UNL A   1      39.740  34.220  36.968  1.00  0.00     0.064 A 
ATOM     81  C   UNL A   1      40.477  35.413  37.018  1.00  0.00     0.173 A 
ATOM     82  C   UNL A   1      38.927  33.911  38.069  1.00  0.00     0.173 A 
ATOM     83  F   UNL A   1      41.275  35.752  35.994  1.00  0.00    -0.203 F 
ATOM     84  C   UNL A   1      40.426  36.247  38.133  1.00  0.00     0.198 A 
ATOM     85  C   UNL A   1      38.853  34.761  39.171  1.00  0.00     0.198 A 
ATOM     86  F   UNL A   1      38.189  32.792  38.062  1.00  0.00    -0.203 F 
ATOM     87  F   UNL A   1      41.174  37.358  38.172  1.00  0.00    -0.200 F 
ATOM     88  C   UNL A   1      39.611  35.923  39.206  1.00  0.00     0.200 A 
ATOM     89  F   UNL A   1      38.047  34.456  40.196  1.00  0.00    -0.200 F 
ATOM     90  F   UNL A   1      39.553  36.730  40.274  1.00  0.00    -0.200 F 
ENDBRANCH  56  80
BRANCH  68  91
ATOM     91  C   UNL A   1      43.794  28.714  35.493  1.00  0.00     0.064 A 
ATOM     92  C   UNL A   1      45.134  29.035  35.227  1.00  0.00     0.173 A 
ATOM     93  C   UNL A   1      43.531  27.658  36.374  1.00  0.00     0.173 A 
ATOM     94  F   UNL A   1      45.438  30.033  34.384  1.00  0.00    -0.203 F 
ATOM     95  C   UNL A   1      46.171  28.300  35.794  1.00  0.00     0.198 A 
ATOM     96  C   UNL A   1      44.572  26.944  36.964  1.00  0.00     0.198 A 
ATOM     97  F   UNL A   1      42.266  27.322  36.670  1.00  0.00    -0.203 F 
ATOM     98  F   UNL A   1      47.443  28.590  35.486  1.00  0.00    -0.200 F 
ATOM     99  C   UNL A   1      45.889  27.256  36.662  1.00  0.00     0.200 A 
ATOM    100  F   UNL A   1      44.299  25.949  37.819  1.00  0.00    -0.200 F 
ATOM    101  F   UNL A   1      46.888  26.547  37.205  1.00  0.00    -0.200 F 
ENDBRANCH  68  91
ENDBRANCH  42  43
ENDBRANCH  34  37
ENDBRANCH  32  33
ENDBRANCH  31  32
ENDBRANCH   1  31
TORSDOF 13
ENDMDL
