MODEL 1
REMARK VINA RESULT:     -13.0      0.000      0.000
REMARK SMILES O=C(C[C@H]1S/C(=[NH+]/N=C/c2cccc(Cl)c2)NC1=O)NCCCNC(=O)c1ccc(-c2c3nc(c(-c4c(F)c(F)c(F)c(F)c4F)c4ccc([nH]4)c(-c4c(F)c(F)c(F)c(F)c4F)c4nc(c(-c5c(F)c(F)c(F)c(F)c5F)c5ccc2[nH]5)C=C4)C=C3)cc1
REMARK SMILES IDX 21 1 20 2 1 3 2 4 3 6 4 7 5 8 18 9 6 10 17 11 19 12 7 13
REMARK SMILES IDX 8 16 9 17 10 18 11 19 16 20 12 21 14 22 13 23 15 24 22 25
REMARK SMILES IDX 23 26 24 27 25 28 26 30 27 31 28 32 89 33 29 34 88 35 30 36
REMARK SMILES IDX 31 37 32 38 82 39 33 40 87 41 81 42 83 43 34 44 86 45 80 46
REMARK SMILES IDX 79 47 35 49 67 50 47 51 66 52 48 53 51 54 65 55 84 56 49 57
REMARK SMILES IDX 50 58 64 60 85 61 52 62 36 63 37 64 45 65 38 66 39 67 43 68
REMARK SMILES IDX 46 69 40 70 41 71 44 72 42 73 68 74 69 75 77 76 70 77 71 78
REMARK SMILES IDX 75 79 78 80 72 81 73 82 76 83 74 84 53 85 54 86 62 87 55 88
REMARK SMILES IDX 56 89 60 90 63 91 57 92 58 93 61 94 59 95
REMARK H PARENT 20 5 17 14 7 15 24 29 83 48 51 59
REMARK Flexibility Score: inf
ROOT
ATOM      1  C   UNL A   1      33.662  26.755  26.031  1.00  0.00     0.117 C 
ENDROOT
BRANCH   1   2
ATOM      2  N   UNL A   1      33.838  26.021  24.791  1.00  0.00    -0.356 N 
ATOM      3  O   UNL A   1      33.747  23.934  25.746  1.00  0.00    -0.275 OA
ATOM      4  C   UNL A   1      33.762  24.647  24.747  1.00  0.00     0.221 C 
ATOM      5  H   UNL A   1      34.017  26.518  23.960  1.00  0.00     0.163 HD
BRANCH   4   6
ATOM      6  C   UNL A   1      33.720  24.059  23.353  1.00  0.00     0.127 C 
BRANCH   6   7
ATOM      7  C   UNL A   1      32.430  24.281  22.552  1.00  0.00     0.183 C 
ATOM      8  S   UNL A   1      30.856  24.446  23.485  1.00  0.00    -0.020 SA
ATOM      9  C   UNL A   1      32.539  25.570  21.752  1.00  0.00     0.322 C 
ATOM     10  C   UNL A   1      30.677  26.113  23.048  1.00  0.00     0.337 C 
ATOM     11  N   UNL A   1      31.580  26.466  22.108  1.00  0.00    -0.202 N 
ATOM     12  O   UNL A   1      33.412  25.811  20.934  1.00  0.00    -0.246 OA
ATOM     13  N   UNL A   1      29.820  26.921  23.575  1.00  0.00    -0.142 N 
ATOM     14  H   UNL A   1      31.544  27.357  21.688  1.00  0.00     0.316 HD
ATOM     15  H   UNL A   1      29.206  26.677  24.304  1.00  0.00     0.343 HD
BRANCH  13  16
ATOM     16  N   UNL A   1      29.872  28.191  22.984  1.00  0.00    -0.093 NA
ATOM     17  C   UNL A   1      28.741  28.817  23.077  1.00  0.00     0.166 C 
BRANCH  17  18
ATOM     18  C   UNL A   1      28.564  30.143  22.454  1.00  0.00    -0.002 A 
ATOM     19  C   UNL A   1      28.022  30.249  21.166  1.00  0.00     0.010 A 
ATOM     20  C   UNL A   1      28.931  31.288  23.162  1.00  0.00     0.030 A 
ATOM     21  C   UNL A   1      27.848  31.504  20.583  1.00  0.00     0.002 A 
ATOM     22  C   UNL A   1      28.772  32.536  22.562  1.00  0.00     0.041 A 
ATOM     23  C   UNL A   1      28.230  32.650  21.280  1.00  0.00     0.020 A 
ATOM     24  Cl  UNL A   1      29.260  33.957  23.403  1.00  0.00    -0.084 Cl
ENDBRANCH  17  18
ENDBRANCH  13  16
ENDBRANCH   6   7
ENDBRANCH   4   6
ENDBRANCH   1   2
BRANCH   1  25
ATOM     25  C   UNL A   1      32.671  27.900  25.899  1.00  0.00     0.042 C 
BRANCH  25  26
ATOM     26  C   UNL A   1      33.277  29.214  25.421  1.00  0.00     0.118 C 
BRANCH  26  27
ATOM     27  N   UNL A   1      32.682  30.397  26.028  1.00  0.00    -0.352 N 
ATOM     28  C   UNL A   1      33.174  31.186  27.042  1.00  0.00     0.251 C 
ATOM     29  H   UNL A   1      31.808  30.669  25.664  1.00  0.00     0.163 HD
ATOM     30  O   UNL A   1      32.509  32.113  27.493  1.00  0.00    -0.269 OA
BRANCH  28  31
ATOM     31  C   UNL A   1      34.514  30.902  27.602  1.00  0.00     0.039 A 
ATOM     32  C   UNL A   1      35.445  31.939  27.708  1.00  0.00     0.014 A 
ATOM     33  C   UNL A   1      34.833  29.620  28.053  1.00  0.00     0.014 A 
ATOM     34  C   UNL A   1      36.667  31.709  28.350  1.00  0.00     0.010 A 
ATOM     35  C   UNL A   1      36.018  29.412  28.754  1.00  0.00     0.010 A 
ATOM     36  C   UNL A   1      36.943  30.457  28.920  1.00  0.00    -0.014 A 
BRANCH  36  37
ATOM     37  C   UNL A   1      38.178  30.203  29.708  1.00  0.00     0.031 A 
ATOM     38  C   UNL A   1      39.221  29.258  29.180  1.00  0.00     0.074 A 
ATOM     39  C   UNL A   1      38.313  30.731  30.939  1.00  0.00     0.049 A 
ATOM     40  N   UNL A   1      40.278  28.768  29.779  1.00  0.00    -0.248 NA
ATOM     41  C   UNL A   1      39.033  28.776  27.803  1.00  0.00     0.031 C 
ATOM     42  C   UNL A   1      37.361  31.638  31.583  1.00  0.00     0.029 A 
ATOM     43  N   UNL A   1      39.296  30.559  31.886  1.00  0.00    -0.354 N 
ATOM     44  C   UNL A   1      40.863  27.903  28.864  1.00  0.00     0.074 A 
ATOM     45  C   UNL A   1      40.024  27.903  27.685  1.00  0.00     0.031 C 
ATOM     46  C   UNL A   1      37.807  31.946  32.811  1.00  0.00     0.029 A 
ATOM     47  C   UNL A   1      39.052  31.224  33.062  1.00  0.00     0.049 A 
ATOM     48  H   UNL A   1      40.100  30.011  31.733  1.00  0.00     0.167 HD
ATOM     49  C   UNL A   1      42.006  27.188  28.990  1.00  0.00     0.037 A 
ATOM     50  C   UNL A   1      39.739  31.234  34.220  1.00  0.00     0.037 A 
ATOM     51  C   UNL A   1      42.858  27.214  30.151  1.00  0.00     0.049 A 
ATOM     52  C   UNL A   1      40.999  30.419  34.341  1.00  0.00     0.074 A 
ATOM     53  C   UNL A   1      44.065  26.568  30.349  1.00  0.00     0.029 A 
ATOM     54  N   UNL A   1      42.590  27.928  31.310  1.00  0.00    -0.354 N 
ATOM     55  N   UNL A   1      41.569  29.643  33.451  1.00  0.00    -0.248 NA
ATOM     56  C   UNL A   1      41.712  30.482  35.625  1.00  0.00     0.031 C 
ATOM     57  C   UNL A   1      44.509  26.855  31.644  1.00  0.00     0.029 A 
ATOM     58  C   UNL A   1      43.603  27.722  32.233  1.00  0.00     0.049 A 
ATOM     59  H   UNL A   1      41.799  28.495  31.455  1.00  0.00     0.167 HD
ATOM     60  C   UNL A   1      42.722  29.156  34.054  1.00  0.00     0.074 A 
ATOM     61  C   UNL A   1      42.773  29.726  35.383  1.00  0.00     0.031 C 
ATOM     62  C   UNL A   1      43.655  28.314  33.545  1.00  0.00     0.037 A 
BRANCH  49  63
ATOM     63  C   UNL A   1      42.406  26.309  27.841  1.00  0.00     0.064 A 
ATOM     64  C   UNL A   1      41.861  25.028  27.670  1.00  0.00     0.173 A 
ATOM     65  C   UNL A   1      43.314  26.771  26.875  1.00  0.00     0.173 A 
ATOM     66  F   UNL A   1      40.998  24.536  28.572  1.00  0.00    -0.203 F 
ATOM     67  C   UNL A   1      42.231  24.230  26.590  1.00  0.00     0.198 A 
ATOM     68  C   UNL A   1      43.658  25.983  25.781  1.00  0.00     0.198 A 
ATOM     69  F   UNL A   1      43.859  27.991  26.987  1.00  0.00    -0.203 F 
ATOM     70  F   UNL A   1      41.735  22.990  26.475  1.00  0.00    -0.200 F 
ATOM     71  C   UNL A   1      43.123  24.710  25.643  1.00  0.00     0.200 A 
ATOM     72  F   UNL A   1      44.509  26.453  24.859  1.00  0.00    -0.200 F 
ATOM     73  F   UNL A   1      43.473  23.944  24.601  1.00  0.00    -0.200 F 
ENDBRANCH  49  63
BRANCH  50  74
ATOM     74  C   UNL A   1      39.257  32.055  35.363  1.00  0.00     0.064 A 
ATOM     75  C   UNL A   1      39.591  33.412  35.461  1.00  0.00     0.173 A 
ATOM     76  C   UNL A   1      38.463  31.503  36.378  1.00  0.00     0.173 A 
ATOM     77  F   UNL A   1      40.368  33.980  34.527  1.00  0.00    -0.203 F 
ATOM     78  C   UNL A   1      39.164  34.183  36.542  1.00  0.00     0.198 A 
ATOM     79  C   UNL A   1      38.014  32.281  37.444  1.00  0.00     0.198 A 
ATOM     80  F   UNL A   1      38.113  30.209  36.330  1.00  0.00    -0.203 F 
ATOM     81  F   UNL A   1      39.535  35.467  36.634  1.00  0.00    -0.200 F 
ATOM     82  C   UNL A   1      38.371  33.618  37.529  1.00  0.00     0.200 A 
ATOM     83  F   UNL A   1      37.237  31.734  38.389  1.00  0.00    -0.200 F 
ATOM     84  F   UNL A   1      37.958  34.359  38.565  1.00  0.00    -0.200 F 
ENDBRANCH  50  74
BRANCH  62  85
ATOM     85  C   UNL A   1      44.846  27.998  34.401  1.00  0.00     0.064 A 
ATOM     86  C   UNL A   1      44.884  26.862  35.222  1.00  0.00     0.173 A 
ATOM     87  C   UNL A   1      45.990  28.809  34.345  1.00  0.00     0.173 A 
ATOM     88  F   UNL A   1      43.810  26.064  35.321  1.00  0.00    -0.203 F 
ATOM     89  C   UNL A   1      46.020  26.556  35.967  1.00  0.00     0.198 A 
ATOM     90  C   UNL A   1      47.133  28.486  35.070  1.00  0.00     0.198 A 
ATOM     91  F   UNL A   1      46.005  29.903  33.570  1.00  0.00    -0.203 F 
ATOM     92  F   UNL A   1      46.024  25.484  36.770  1.00  0.00    -0.200 F 
ATOM     93  C   UNL A   1      47.147  27.363  35.882  1.00  0.00     0.200 A 
ATOM     94  F   UNL A   1      48.224  29.258  34.976  1.00  0.00    -0.200 F 
ATOM     95  F   UNL A   1      48.245  27.058  36.587  1.00  0.00    -0.200 F 
ENDBRANCH  62  85
ENDBRANCH  36  37
ENDBRANCH  28  31
ENDBRANCH  26  27
ENDBRANCH  25  26
ENDBRANCH   1  25
TORSDOF 13
ENDMDL
MODEL 2
REMARK VINA RESULT:     -12.8      3.864      8.978
REMARK SMILES O=C(C[C@H]1S/C(=[NH+]/N=C/c2cccc(Cl)c2)NC1=O)NCCCNC(=O)c1ccc(-c2c3nc(c(-c4c(F)c(F)c(F)c(F)c4F)c4ccc([nH]4)c(-c4c(F)c(F)c(F)c(F)c4F)c4nc(c(-c5c(F)c(F)c(F)c(F)c5F)c5ccc2[nH]5)C=C4)C=C3)cc1
REMARK SMILES IDX 21 1 20 2 1 3 2 4 3 6 4 7 5 8 18 9 6 10 17 11 19 12 7 13
REMARK SMILES IDX 8 16 9 17 10 18 11 19 16 20 12 21 14 22 13 23 15 24 22 25
REMARK SMILES IDX 23 26 24 27 25 28 26 30 27 31 28 32 89 33 29 34 88 35 30 36
REMARK SMILES IDX 31 37 32 38 82 39 33 40 87 41 81 42 83 43 34 44 86 45 80 46
REMARK SMILES IDX 79 47 35 49 67 50 47 51 66 52 48 53 51 54 65 55 84 56 49 57
REMARK SMILES IDX 50 58 64 60 85 61 52 62 36 63 37 64 45 65 38 66 39 67 43 68
REMARK SMILES IDX 46 69 40 70 41 71 44 72 42 73 68 74 69 75 77 76 70 77 71 78
REMARK SMILES IDX 75 79 78 80 72 81 73 82 76 83 74 84 53 85 54 86 62 87 55 88
REMARK SMILES IDX 56 89 60 90 63 91 57 92 58 93 61 94 59 95
REMARK H PARENT 20 5 17 14 7 15 24 29 83 48 51 59
REMARK Flexibility Score: inf
ROOT
ATOM      1  C   UNL A   1      32.596  29.398  24.949  1.00  0.00     0.117 C 
ENDROOT
BRANCH   1   2
ATOM      2  N   UNL A   1      31.348  28.655  24.959  1.00  0.00    -0.356 N 
ATOM      3  O   UNL A   1      31.658  27.660  22.913  1.00  0.00    -0.275 OA
ATOM      4  C   UNL A   1      31.033  27.757  23.964  1.00  0.00     0.221 C 
ATOM      5  H   UNL A   1      30.712  28.797  25.696  1.00  0.00     0.163 HD
BRANCH   4   6
ATOM      6  C   UNL A   1      29.825  26.892  24.252  1.00  0.00     0.127 C 
BRANCH   6   7
ATOM      7  C   UNL A   1      30.101  25.464  24.741  1.00  0.00     0.183 C 
ATOM      8  S   UNL A   1      30.635  24.219  23.500  1.00  0.00    -0.020 SA
ATOM      9  C   UNL A   1      31.220  25.482  25.771  1.00  0.00     0.322 C 
ATOM     10  C   UNL A   1      32.220  24.094  24.186  1.00  0.00     0.337 C 
ATOM     11  N   UNL A   1      32.289  24.745  25.368  1.00  0.00    -0.202 N 
ATOM     12  O   UNL A   1      31.201  26.126  26.808  1.00  0.00    -0.246 OA
ATOM     13  N   UNL A   1      33.216  23.492  23.629  1.00  0.00    -0.142 N 
ATOM     14  H   UNL A   1      33.098  24.687  25.926  1.00  0.00     0.316 HD
ATOM     15  H   UNL A   1      33.179  23.073  22.738  1.00  0.00     0.343 HD
BRANCH  13  16
ATOM     16  N   UNL A   1      34.356  23.509  24.443  1.00  0.00    -0.093 NA
ATOM     17  C   UNL A   1      35.302  22.761  23.970  1.00  0.00     0.166 C 
BRANCH  17  18
ATOM     18  C   UNL A   1      36.564  22.585  24.716  1.00  0.00    -0.002 A 
ATOM     19  C   UNL A   1      37.115  23.658  25.430  1.00  0.00     0.010 A 
ATOM     20  C   UNL A   1      37.196  21.341  24.713  1.00  0.00     0.030 A 
ATOM     21  C   UNL A   1      38.302  23.487  26.140  1.00  0.00     0.002 A 
ATOM     22  C   UNL A   1      38.393  21.186  25.409  1.00  0.00     0.041 A 
ATOM     23  C   UNL A   1      38.946  22.250  26.125  1.00  0.00     0.020 A 
ATOM     24  Cl  UNL A   1      39.209  19.671  25.381  1.00  0.00    -0.084 Cl
ENDBRANCH  17  18
ENDBRANCH  13  16
ENDBRANCH   6   7
ENDBRANCH   4   6
ENDBRANCH   1   2
BRANCH   1  25
ATOM     25  C   UNL A   1      33.748  28.617  25.561  1.00  0.00     0.042 C 
BRANCH  25  26
ATOM     26  C   UNL A   1      33.818  28.673  27.082  1.00  0.00     0.118 C 
BRANCH  26  27
ATOM     27  N   UNL A   1      33.776  30.022  27.628  1.00  0.00    -0.352 N 
ATOM     28  C   UNL A   1      34.750  30.703  28.324  1.00  0.00     0.251 C 
ATOM     29  H   UNL A   1      32.937  30.516  27.480  1.00  0.00     0.163 HD
ATOM     30  O   UNL A   1      34.526  31.818  28.783  1.00  0.00    -0.269 OA
BRANCH  28  31
ATOM     31  C   UNL A   1      36.071  30.073  28.531  1.00  0.00     0.039 A 
ATOM     32  C   UNL A   1      37.044  30.180  27.534  1.00  0.00     0.014 A 
ATOM     33  C   UNL A   1      36.358  29.409  29.726  1.00  0.00     0.014 A 
ATOM     34  C   UNL A   1      38.336  29.698  27.771  1.00  0.00     0.010 A 
ATOM     35  C   UNL A   1      37.661  28.994  29.987  1.00  0.00     0.010 A 
ATOM     36  C   UNL A   1      38.667  29.144  29.018  1.00  0.00    -0.014 A 
BRANCH  36  37
ATOM     37  C   UNL A   1      40.053  28.723  29.352  1.00  0.00     0.031 A 
ATOM     38  C   UNL A   1      40.964  29.663  30.089  1.00  0.00     0.074 A 
ATOM     39  C   UNL A   1      40.528  27.546  28.900  1.00  0.00     0.049 A 
ATOM     40  N   UNL A   1      42.249  29.563  30.324  1.00  0.00    -0.248 NA
ATOM     41  C   UNL A   1      40.353  30.898  30.605  1.00  0.00     0.031 C 
ATOM     42  C   UNL A   1      39.759  26.554  28.146  1.00  0.00     0.029 A 
ATOM     43  N   UNL A   1      41.784  26.993  28.986  1.00  0.00    -0.354 N 
ATOM     44  C   UNL A   1      42.603  30.729  30.989  1.00  0.00     0.074 A 
ATOM     45  C   UNL A   1      41.408  31.541  31.086  1.00  0.00     0.031 C 
ATOM     46  C   UNL A   1      40.556  25.516  27.845  1.00  0.00     0.029 A 
ATOM     47  C   UNL A   1      41.902  25.786  28.342  1.00  0.00     0.049 A 
ATOM     48  H   UNL A   1      42.529  27.423  29.466  1.00  0.00     0.167 HD
ATOM     49  C   UNL A   1      43.811  31.083  31.490  1.00  0.00     0.037 A 
ATOM     50  C   UNL A   1      42.977  24.997  28.152  1.00  0.00     0.037 A 
ATOM     51  C   UNL A   1      44.990  30.260  31.423  1.00  0.00     0.049 A 
ATOM     52  C   UNL A   1      44.312  25.419  28.705  1.00  0.00     0.074 A 
ATOM     53  C   UNL A   1      46.245  30.508  31.951  1.00  0.00     0.029 A 
ATOM     54  N   UNL A   1      45.059  29.028  30.788  1.00  0.00    -0.354 N 
ATOM     55  N   UNL A   1      44.624  26.502  29.375  1.00  0.00    -0.248 NA
ATOM     56  C   UNL A   1      45.444  24.509  28.477  1.00  0.00     0.031 C 
ATOM     57  C   UNL A   1      47.085  29.446  31.600  1.00  0.00     0.029 A 
ATOM     58  C   UNL A   1      46.340  28.513  30.898  1.00  0.00     0.049 A 
ATOM     59  H   UNL A   1      44.308  28.586  30.329  1.00  0.00     0.167 HD
ATOM     60  C   UNL A   1      45.974  26.386  29.679  1.00  0.00     0.074 A 
ATOM     61  C   UNL A   1      46.423  25.127  29.123  1.00  0.00     0.031 C 
ATOM     62  C   UNL A   1      46.769  27.247  30.361  1.00  0.00     0.037 A 
BRANCH  49  63
ATOM     63  C   UNL A   1      43.922  32.423  32.156  1.00  0.00     0.064 A 
ATOM     64  C   UNL A   1      44.291  33.572  31.440  1.00  0.00     0.173 A 
ATOM     65  C   UNL A   1      43.613  32.569  33.517  1.00  0.00     0.173 A 
ATOM     66  F   UNL A   1      44.608  33.484  30.139  1.00  0.00    -0.203 F 
ATOM     67  C   UNL A   1      44.376  34.811  32.069  1.00  0.00     0.198 A 
ATOM     68  C   UNL A   1      43.668  33.814  34.135  1.00  0.00     0.198 A 
ATOM     69  F   UNL A   1      43.247  31.503  34.245  1.00  0.00    -0.203 F 
ATOM     70  F   UNL A   1      44.780  35.886  31.377  1.00  0.00    -0.200 F 
ATOM     71  C   UNL A   1      44.058  34.933  33.414  1.00  0.00     0.200 A 
ATOM     72  F   UNL A   1      43.347  33.933  35.431  1.00  0.00    -0.200 F 
ATOM     73  F   UNL A   1      44.132  36.128  34.016  1.00  0.00    -0.200 F 
ENDBRANCH  49  63
BRANCH  50  74
ATOM     74  C   UNL A   1      42.836  23.716  27.410  1.00  0.00     0.064 A 
ATOM     75  C   UNL A   1      42.324  22.575  28.042  1.00  0.00     0.173 A 
ATOM     76  C   UNL A   1      43.213  23.603  26.064  1.00  0.00     0.173 A 
ATOM     77  F   UNL A   1      41.972  22.627  29.335  1.00  0.00    -0.203 F 
ATOM     78  C   UNL A   1      42.212  21.363  27.362  1.00  0.00     0.198 A 
ATOM     79  C   UNL A   1      43.075  22.399  25.376  1.00  0.00     0.198 A 
ATOM     80  F   UNL A   1      43.706  24.667  25.413  1.00  0.00    -0.203 F 
ATOM     81  F   UNL A   1      41.761  20.276  28.003  1.00  0.00    -0.200 F 
ATOM     82  C   UNL A   1      42.581  21.278  26.028  1.00  0.00     0.200 A 
ATOM     83  F   UNL A   1      43.421  22.324  24.085  1.00  0.00    -0.200 F 
ATOM     84  F   UNL A   1      42.470  20.115  25.373  1.00  0.00    -0.200 F 
ENDBRANCH  50  74
BRANCH  62  85
ATOM     85  C   UNL A   1      48.192  26.839  30.601  1.00  0.00     0.064 A 
ATOM     86  C   UNL A   1      48.548  25.985  31.655  1.00  0.00     0.173 A 
ATOM     87  C   UNL A   1      49.203  27.256  29.720  1.00  0.00     0.173 A 
ATOM     88  F   UNL A   1      47.621  25.572  32.531  1.00  0.00    -0.203 F 
ATOM     89  C   UNL A   1      49.867  25.574  31.826  1.00  0.00     0.198 A 
ATOM     90  C   UNL A   1      50.515  26.821  29.879  1.00  0.00     0.198 A 
ATOM     91  F   UNL A   1      48.912  28.067  28.693  1.00  0.00    -0.203 F 
ATOM     92  F   UNL A   1      50.192  24.785  32.859  1.00  0.00    -0.200 F 
ATOM     93  C   UNL A   1      50.847  25.984  30.933  1.00  0.00     0.200 A 
ATOM     94  F   UNL A   1      51.457  27.207  29.008  1.00  0.00    -0.200 F 
ATOM     95  F   UNL A   1      52.113  25.574  31.091  1.00  0.00    -0.200 F 
ENDBRANCH  62  85
ENDBRANCH  36  37
ENDBRANCH  28  31
ENDBRANCH  26  27
ENDBRANCH  25  26
ENDBRANCH   1  25
TORSDOF 13
ENDMDL
MODEL 3
REMARK VINA RESULT:     -12.7      3.737      6.736
REMARK SMILES O=C(C[C@H]1S/C(=[NH+]/N=C/c2cccc(Cl)c2)NC1=O)NCCCNC(=O)c1ccc(-c2c3nc(c(-c4c(F)c(F)c(F)c(F)c4F)c4ccc([nH]4)c(-c4c(F)c(F)c(F)c(F)c4F)c4nc(c(-c5c(F)c(F)c(F)c(F)c5F)c5ccc2[nH]5)C=C4)C=C3)cc1
REMARK SMILES IDX 21 1 20 2 1 3 2 4 3 6 4 7 5 8 18 9 6 10 17 11 19 12 7 13
REMARK SMILES IDX 8 16 9 17 10 18 11 19 16 20 12 21 14 22 13 23 15 24 22 25
REMARK SMILES IDX 23 26 24 27 25 28 26 30 27 31 28 32 89 33 29 34 88 35 30 36
REMARK SMILES IDX 31 37 32 38 82 39 33 40 87 41 81 42 83 43 34 44 86 45 80 46
REMARK SMILES IDX 79 47 35 49 67 50 47 51 66 52 48 53 51 54 65 55 84 56 49 57
REMARK SMILES IDX 50 58 64 60 85 61 52 62 36 63 37 64 45 65 38 66 39 67 43 68
REMARK SMILES IDX 46 69 40 70 41 71 44 72 42 73 68 74 69 75 77 76 70 77 71 78
REMARK SMILES IDX 75 79 78 80 72 81 73 82 76 83 74 84 53 85 54 86 62 87 55 88
REMARK SMILES IDX 56 89 60 90 63 91 57 92 58 93 61 94 59 95
REMARK H PARENT 20 5 17 14 7 15 24 29 83 48 51 59
REMARK Flexibility Score: inf
ROOT
ATOM      1  C   UNL A   1      35.240  21.810  25.808  1.00  0.00     0.117 C 
ENDROOT
BRANCH   1   2
ATOM      2  N   UNL A   1      34.624  21.861  24.494  1.00  0.00    -0.356 N 
ATOM      3  O   UNL A   1      32.511  21.316  25.211  1.00  0.00    -0.275 OA
ATOM      4  C   UNL A   1      33.266  21.705  24.326  1.00  0.00     0.221 C 
ATOM      5  H   UNL A   1      35.191  22.012  23.704  1.00  0.00     0.163 HD
BRANCH   4   6
ATOM      6  C   UNL A   1      32.759  22.031  22.938  1.00  0.00     0.127 C 
BRANCH   6   7
ATOM      7  C   UNL A   1      32.284  23.471  22.700  1.00  0.00     0.183 C 
ATOM      8  S   UNL A   1      30.744  24.017  23.539  1.00  0.00    -0.020 SA
ATOM      9  C   UNL A   1      33.348  24.448  23.177  1.00  0.00     0.322 C 
ATOM     10  C   UNL A   1      31.596  25.128  24.559  1.00  0.00     0.337 C 
ATOM     11  N   UNL A   1      32.882  25.257  24.166  1.00  0.00    -0.202 N 
ATOM     12  O   UNL A   1      34.501  24.473  22.777  1.00  0.00    -0.246 OA
ATOM     13  N   UNL A   1      31.085  25.727  25.581  1.00  0.00    -0.142 N 
ATOM     14  H   UNL A   1      33.471  25.924  24.588  1.00  0.00     0.316 HD
ATOM     15  H   UNL A   1      30.165  25.583  25.902  1.00  0.00     0.343 HD
BRANCH  13  16
ATOM     16  N   UNL A   1      31.997  26.605  26.180  1.00  0.00    -0.093 NA
ATOM     17  C   UNL A   1      31.619  27.841  26.080  1.00  0.00     0.166 C 
BRANCH  17  18
ATOM     18  C   UNL A   1      32.477  28.931  26.585  1.00  0.00    -0.002 A 
ATOM     19  C   UNL A   1      33.794  28.664  26.983  1.00  0.00     0.010 A 
ATOM     20  C   UNL A   1      31.969  30.229  26.652  1.00  0.00     0.030 A 
ATOM     21  C   UNL A   1      34.605  29.697  27.452  1.00  0.00     0.002 A 
ATOM     22  C   UNL A   1      32.781  31.251  27.142  1.00  0.00     0.041 A 
ATOM     23  C   UNL A   1      34.095  30.992  27.537  1.00  0.00     0.020 A 
ATOM     24  Cl  UNL A   1      32.158  32.850  27.273  1.00  0.00    -0.084 Cl
ENDBRANCH  17  18
ENDBRANCH  13  16
ENDBRANCH   6   7
ENDBRANCH   4   6
ENDBRANCH   1   2
BRANCH   1  25
ATOM     25  C   UNL A   1      35.839  23.142  26.228  1.00  0.00     0.042 C 
BRANCH  25  26
ATOM     26  C   UNL A   1      37.070  23.565  25.436  1.00  0.00     0.118 C 
BRANCH  26  27
ATOM     27  N   UNL A   1      38.232  22.714  25.649  1.00  0.00    -0.352 N 
ATOM     28  C   UNL A   1      39.430  23.023  26.253  1.00  0.00     0.251 C 
ATOM     29  H   UNL A   1      38.151  21.791  25.315  1.00  0.00     0.163 HD
ATOM     30  O   UNL A   1      40.343  22.205  26.286  1.00  0.00    -0.269 OA
BRANCH  28  31
ATOM     31  C   UNL A   1      39.619  24.361  26.853  1.00  0.00     0.039 A 
ATOM     32  C   UNL A   1      39.200  24.587  28.167  1.00  0.00     0.014 A 
ATOM     33  C   UNL A   1      40.241  25.379  26.128  1.00  0.00     0.014 A 
ATOM     34  C   UNL A   1      39.487  25.809  28.785  1.00  0.00     0.010 A 
ATOM     35  C   UNL A   1      40.588  26.566  26.767  1.00  0.00     0.010 A 
ATOM     36  C   UNL A   1      40.226  26.790  28.105  1.00  0.00    -0.014 A 
BRANCH  36  37
ATOM     37  C   UNL A   1      40.650  28.055  28.761  1.00  0.00     0.031 A 
ATOM     38  C   UNL A   1      42.051  28.193  29.286  1.00  0.00     0.074 A 
ATOM     39  C   UNL A   1      39.751  29.034  28.983  1.00  0.00     0.049 A 
ATOM     40  N   UNL A   1      42.569  29.133  30.037  1.00  0.00    -0.248 NA
ATOM     41  C   UNL A   1      42.988  27.111  28.947  1.00  0.00     0.031 C 
ATOM     42  C   UNL A   1      38.352  29.015  28.554  1.00  0.00     0.029 A 
ATOM     43  N   UNL A   1      39.875  30.229  29.652  1.00  0.00    -0.354 N 
ATOM     44  C   UNL A   1      43.879  28.743  30.279  1.00  0.00     0.074 A 
ATOM     45  C   UNL A   1      44.067  27.463  29.631  1.00  0.00     0.031 C 
ATOM     46  C   UNL A   1      37.750  30.143  28.963  1.00  0.00     0.029 A 
ATOM     47  C   UNL A   1      38.704  30.945  29.723  1.00  0.00     0.049 A 
ATOM     48  H   UNL A   1      40.723  30.542  30.042  1.00  0.00     0.167 HD
ATOM     49  C   UNL A   1      44.843  29.403  30.966  1.00  0.00     0.037 A 
ATOM     50  C   UNL A   1      38.425  32.104  30.349  1.00  0.00     0.037 A 
ATOM     51  C   UNL A   1      44.665  30.692  31.581  1.00  0.00     0.049 A 
ATOM     52  C   UNL A   1      39.510  32.811  31.118  1.00  0.00     0.074 A 
ATOM     53  C   UNL A   1      45.599  31.465  32.249  1.00  0.00     0.029 A 
ATOM     54  N   UNL A   1      43.471  31.399  31.602  1.00  0.00    -0.354 N 
ATOM     55  N   UNL A   1      40.758  32.456  31.300  1.00  0.00    -0.248 NA
ATOM     56  C   UNL A   1      39.147  34.078  31.768  1.00  0.00     0.031 C 
ATOM     57  C   UNL A   1      44.961  32.620  32.712  1.00  0.00     0.029 A 
ATOM     58  C   UNL A   1      43.642  32.590  32.288  1.00  0.00     0.049 A 
ATOM     59  H   UNL A   1      42.628  31.098  31.192  1.00  0.00     0.167 HD
ATOM     60  C   UNL A   1      41.337  33.472  32.050  1.00  0.00     0.074 A 
ATOM     61  C   UNL A   1      40.305  34.458  32.289  1.00  0.00     0.031 C 
ATOM     62  C   UNL A   1      42.613  33.576  32.498  1.00  0.00     0.037 A 
BRANCH  49  63
ATOM     63  C   UNL A   1      46.184  28.740  31.091  1.00  0.00     0.064 A 
ATOM     64  C   UNL A   1      47.204  28.959  30.153  1.00  0.00     0.173 A 
ATOM     65  C   UNL A   1      46.466  27.908  32.185  1.00  0.00     0.173 A 
ATOM     66  F   UNL A   1      46.980  29.737  29.083  1.00  0.00    -0.203 F 
ATOM     67  C   UNL A   1      48.447  28.347  30.290  1.00  0.00     0.198 A 
ATOM     68  C   UNL A   1      47.720  27.323  32.336  1.00  0.00     0.198 A 
ATOM     69  F   UNL A   1      45.528  27.671  33.115  1.00  0.00    -0.203 F 
ATOM     70  F   UNL A   1      49.389  28.532  29.356  1.00  0.00    -0.200 F 
ATOM     71  C   UNL A   1      48.707  27.536  31.385  1.00  0.00     0.200 A 
ATOM     72  F   UNL A   1      47.974  26.551  33.401  1.00  0.00    -0.200 F 
ATOM     73  F   UNL A   1      49.906  26.954  31.520  1.00  0.00    -0.200 F 
ENDBRANCH  49  63
BRANCH  50  74
ATOM     74  C   UNL A   1      37.057  32.681  30.269  1.00  0.00     0.064 A 
ATOM     75  C   UNL A   1      36.690  33.507  29.197  1.00  0.00     0.173 A 
ATOM     76  C   UNL A   1      36.095  32.427  31.256  1.00  0.00     0.173 A 
ATOM     77  F   UNL A   1      37.583  33.798  28.240  1.00  0.00    -0.203 F 
ATOM     78  C   UNL A   1      35.417  34.072  29.126  1.00  0.00     0.198 A 
ATOM     79  C   UNL A   1      34.814  32.970  31.170  1.00  0.00     0.198 A 
ATOM     80  F   UNL A   1      36.395  31.641  32.301  1.00  0.00    -0.203 F 
ATOM     81  F   UNL A   1      35.108  34.894  28.114  1.00  0.00    -0.200 F 
ATOM     82  C   UNL A   1      34.479  33.798  30.109  1.00  0.00     0.200 A 
ATOM     83  F   UNL A   1      33.906  32.692  32.115  1.00  0.00    -0.200 F 
ATOM     84  F   UNL A   1      33.255  34.338  30.039  1.00  0.00    -0.200 F 
ENDBRANCH  50  74
BRANCH  62  85
ATOM     85  C   UNL A   1      42.989  34.822  33.243  1.00  0.00     0.064 A 
ATOM     86  C   UNL A   1      43.348  36.002  32.574  1.00  0.00     0.173 A 
ATOM     87  C   UNL A   1      42.923  34.854  34.644  1.00  0.00     0.173 A 
ATOM     88  F   UNL A   1      43.440  36.018  31.236  1.00  0.00    -0.203 F 
ATOM     89  C   UNL A   1      43.639  37.164  33.283  1.00  0.00     0.198 A 
ATOM     90  C   UNL A   1      43.189  36.024  35.348  1.00  0.00     0.198 A 
ATOM     91  F   UNL A   1      42.579  33.753  35.329  1.00  0.00    -0.203 F 
ATOM     92  F   UNL A   1      44.012  38.271  32.627  1.00  0.00    -0.200 F 
ATOM     93  C   UNL A   1      43.550  37.177  34.668  1.00  0.00     0.200 A 
ATOM     94  F   UNL A   1      43.088  36.038  36.684  1.00  0.00    -0.200 F 
ATOM     95  F   UNL A   1      43.816  38.302  35.347  1.00  0.00    -0.200 F 
ENDBRANCH  62  85
ENDBRANCH  36  37
ENDBRANCH  28  31
ENDBRANCH  26  27
ENDBRANCH  25  26
ENDBRANCH   1  25
TORSDOF 13
ENDMDL
