MODEL 1
REMARK VINA RESULT:     -11.4      0.000      0.000
REMARK SMILES Cc1cn2c(CC(=O)N[C@@H](C(=O)NCCCNC(=O)c3ccc(-c4c5nc(c(-c6c(F)c(F)c(F)c(F)c6F)c6ccc([nH]6)c(-c6c(F)c(F)c(F)c(F)c6F)c6nc(c(-c7c(F)c(F)c(F)c(F)c7F)c7ccc4[nH]7)C=C6)C=C5)cc3)[C@H](C)O)csc2n1
REMARK SMILES IDX 14 1 13 2 11 3 12 4 10 6 9 7 7 8 8 9 6 11 5 12 1 13 2 14
REMARK SMILES IDX 3 15 89 16 4 17 88 18 87 19 86 20 83 21 84 22 85 23 15 25
REMARK SMILES IDX 16 26 17 27 18 28 19 30 20 31 21 32 82 33 22 34 81 35 23 36
REMARK SMILES IDX 24 37 25 38 75 39 26 40 80 41 74 42 76 43 27 44 79 45 73 46
REMARK SMILES IDX 72 47 28 49 60 50 40 51 59 52 41 53 44 54 58 55 77 56 42 57
REMARK SMILES IDX 43 58 57 60 78 61 45 62 29 63 30 64 38 65 31 66 32 67 36 68
REMARK SMILES IDX 39 69 33 70 34 71 37 72 35 73 61 74 62 75 70 76 63 77 64 78
REMARK SMILES IDX 68 79 71 80 65 81 66 82 69 83 67 84 46 85 47 86 55 87 48 88
REMARK SMILES IDX 49 89 53 90 56 91 50 92 51 93 54 94 52 95
REMARK H PARENT 13 5 9 10 85 24 17 29 76 48 44 59
REMARK Flexibility Score: inf
ROOT
ATOM      1  C   UNL A   1      35.116  34.619  28.316  1.00  0.00     0.117 C 
ENDROOT
BRANCH   1   2
ATOM      2  N   UNL A   1      33.746  35.074  28.338  1.00  0.00    -0.354 N 
ATOM      3  C   UNL A   1      33.091  35.735  29.343  1.00  0.00     0.245 C 
ATOM      4  O   UNL A   1      32.072  36.350  29.022  1.00  0.00    -0.273 OA
ATOM      5  H   UNL A   1      33.216  34.887  27.529  1.00  0.00     0.163 HD
BRANCH   3   6
ATOM      6  C   UNL A   1      33.718  35.830  30.768  1.00  0.00     0.200 C 
BRANCH   6   7
ATOM      7  N   UNL A   1      33.559  34.556  31.508  1.00  0.00    -0.342 N 
ATOM      8  C   UNL A   1      34.483  33.668  31.979  1.00  0.00     0.226 C 
ATOM      9  O   UNL A   1      34.081  32.566  32.353  1.00  0.00    -0.275 OA
ATOM     10  H   UNL A   1      32.625  34.308  31.694  1.00  0.00     0.164 HD
BRANCH   8  11
ATOM     11  C   UNL A   1      35.968  34.022  32.036  1.00  0.00     0.155 C 
BRANCH  11  12
ATOM     12  C   UNL A   1      36.596  33.619  33.331  1.00  0.00     0.044 A 
ATOM     13  C   UNL A   1      38.872  29.179  33.139  1.00  0.00     0.068 C 
ATOM     14  C   UNL A   1      38.299  30.499  33.486  1.00  0.00     0.057 A 
ATOM     15  C   UNL A   1      37.746  31.443  32.634  1.00  0.00     0.117 A 
ATOM     16  N   UNL A   1      38.256  30.932  34.801  1.00  0.00    -0.224 NA
ATOM     17  N   UNL A   1      37.323  32.446  33.454  1.00  0.00    -0.294 N 
ATOM     18  C   UNL A   1      37.710  32.114  34.717  1.00  0.00     0.194 A 
ATOM     19  S   UNL A   1      37.241  33.333  35.857  1.00  0.00    -0.105 S 
ATOM     20  C   UNL A   1      36.485  34.236  34.528  1.00  0.00     0.091 A 
ENDBRANCH  11  12
ENDBRANCH   8  11
ENDBRANCH   6   7
BRANCH   6  21
ATOM     21  C   UNL A   1      33.114  37.031  31.553  1.00  0.00     0.143 C 
ATOM     22  C   UNL A   1      33.997  37.426  32.731  1.00  0.00     0.041 C 
BRANCH  21  23
ATOM     23  O   UNL A   1      31.809  36.746  32.075  1.00  0.00    -0.391 OA
ATOM     24  H   UNL A   1      31.384  37.573  32.353  1.00  0.00     0.211 HD
ENDBRANCH  21  23
ENDBRANCH   6  21
ENDBRANCH   3   6
ENDBRANCH   1   2
BRANCH   1  25
ATOM     25  C   UNL A   1      35.260  33.161  27.914  1.00  0.00     0.042 C 
BRANCH  25  26
ATOM     26  C   UNL A   1      34.509  32.223  28.847  1.00  0.00     0.118 C 
BRANCH  26  27
ATOM     27  N   UNL A   1      34.034  31.019  28.173  1.00  0.00    -0.352 N 
ATOM     28  C   UNL A   1      34.710  29.881  27.796  1.00  0.00     0.251 C 
ATOM     29  H   UNL A   1      33.075  31.021  27.953  1.00  0.00     0.163 HD
ATOM     30  O   UNL A   1      34.144  29.029  27.130  1.00  0.00    -0.269 OA
BRANCH  28  31
ATOM     31  C   UNL A   1      36.131  29.704  28.163  1.00  0.00     0.039 A 
ATOM     32  C   UNL A   1      36.438  29.235  29.444  1.00  0.00     0.014 A 
ATOM     33  C   UNL A   1      37.155  29.990  27.259  1.00  0.00     0.014 A 
ATOM     34  C   UNL A   1      37.767  28.977  29.787  1.00  0.00     0.010 A 
ATOM     35  C   UNL A   1      38.464  29.637  27.565  1.00  0.00     0.010 A 
ATOM     36  C   UNL A   1      38.784  29.132  28.833  1.00  0.00    -0.014 A 
BRANCH  36  37
ATOM     37  C   UNL A   1      40.194  28.781  29.138  1.00  0.00     0.031 A 
ATOM     38  C   UNL A   1      41.069  29.760  29.867  1.00  0.00     0.074 A 
ATOM     39  C   UNL A   1      40.703  27.620  28.685  1.00  0.00     0.049 A 
ATOM     40  N   UNL A   1      42.350  29.691  30.130  1.00  0.00    -0.248 NA
ATOM     41  C   UNL A   1      40.430  31.003  30.328  1.00  0.00     0.031 C 
ATOM     42  C   UNL A   1      39.968  26.616  27.913  1.00  0.00     0.029 A 
ATOM     43  N   UNL A   1      41.967  27.095  28.793  1.00  0.00    -0.354 N 
ATOM     44  C   UNL A   1      42.669  30.884  30.766  1.00  0.00     0.074 A 
ATOM     45  C   UNL A   1      41.465  31.685  30.792  1.00  0.00     0.031 C 
ATOM     46  C   UNL A   1      40.787  25.588  27.637  1.00  0.00     0.029 A 
ATOM     47  C   UNL A   1      42.111  25.877  28.174  1.00  0.00     0.049 A 
ATOM     48  H   UNL A   1      42.700  27.549  29.269  1.00  0.00     0.167 HD
ATOM     49  C   UNL A   1      43.850  31.264  31.307  1.00  0.00     0.037 A 
ATOM     50  C   UNL A   1      43.195  25.089  28.046  1.00  0.00     0.037 A 
ATOM     51  C   UNL A   1      45.036  30.449  31.305  1.00  0.00     0.049 A 
ATOM     52  C   UNL A   1      44.494  25.527  28.667  1.00  0.00     0.074 A 
ATOM     53  C   UNL A   1      46.269  30.715  31.874  1.00  0.00     0.029 A 
ATOM     54  N   UNL A   1      45.133  29.202  30.703  1.00  0.00    -0.354 N 
ATOM     55  N   UNL A   1      44.769  26.629  29.322  1.00  0.00    -0.248 NA
ATOM     56  C   UNL A   1      45.633  24.607  28.537  1.00  0.00     0.031 C 
ATOM     57  C   UNL A   1      47.124  29.647  31.582  1.00  0.00     0.029 A 
ATOM     58  C   UNL A   1      46.410  28.693  30.873  1.00  0.00     0.049 A 
ATOM     59  H   UNL A   1      44.403  28.747  30.225  1.00  0.00     0.167 HD
ATOM     60  C   UNL A   1      46.098  26.526  29.704  1.00  0.00     0.074 A 
ATOM     61  C   UNL A   1      46.572  25.245  29.221  1.00  0.00     0.031 C 
ATOM     62  C   UNL A   1      46.860  27.412  30.391  1.00  0.00     0.037 A 
BRANCH  49  63
ATOM     63  C   UNL A   1      43.910  32.618  31.954  1.00  0.00     0.064 A 
ATOM     64  C   UNL A   1      43.615  32.796  33.314  1.00  0.00     0.173 A 
ATOM     65  C   UNL A   1      44.286  33.748  31.213  1.00  0.00     0.173 A 
ATOM     66  F   UNL A   1      43.238  31.751  34.066  1.00  0.00    -0.203 F 
ATOM     67  C   UNL A   1      43.657  34.059  33.899  1.00  0.00     0.198 A 
ATOM     68  C   UNL A   1      44.360  35.005  31.809  1.00  0.00     0.198 A 
ATOM     69  F   UNL A   1      44.584  33.635  29.909  1.00  0.00    -0.203 F 
ATOM     70  F   UNL A   1      43.313  34.212  35.185  1.00  0.00    -0.200 F 
ATOM     71  C   UNL A   1      44.035  35.161  33.148  1.00  0.00     0.200 A 
ATOM     72  F   UNL A   1      44.738  36.067  31.085  1.00  0.00    -0.200 F 
ATOM     73  F   UNL A   1      44.079  36.375  33.713  1.00  0.00    -0.200 F 
ENDBRANCH  49  63
BRANCH  50  74
ATOM     74  C   UNL A   1      43.088  23.795  27.323  1.00  0.00     0.064 A 
ATOM     75  C   UNL A   1      42.600  22.650  27.966  1.00  0.00     0.173 A 
ATOM     76  C   UNL A   1      43.465  23.678  25.977  1.00  0.00     0.173 A 
ATOM     77  F   UNL A   1      42.244  22.708  29.258  1.00  0.00    -0.203 F 
ATOM     78  C   UNL A   1      42.508  21.432  27.296  1.00  0.00     0.198 A 
ATOM     79  C   UNL A   1      43.347  22.465  25.300  1.00  0.00     0.198 A 
ATOM     80  F   UNL A   1      43.933  24.745  25.314  1.00  0.00    -0.203 F 
ATOM     81  F   UNL A   1      42.078  20.342  27.947  1.00  0.00    -0.200 F 
ATOM     82  C   UNL A   1      42.876  21.341  25.962  1.00  0.00     0.200 A 
ATOM     83  F   UNL A   1      43.690  22.386  24.007  1.00  0.00    -0.200 F 
ATOM     84  F   UNL A   1      42.784  20.170  25.317  1.00  0.00    -0.200 F 
ENDBRANCH  50  74
BRANCH  62  85
ATOM     85  C   UNL A   1      48.276  27.013  30.690  1.00  0.00     0.064 A 
ATOM     86  C   UNL A   1      48.602  26.247  31.818  1.00  0.00     0.173 A 
ATOM     87  C   UNL A   1      49.312  27.369  29.813  1.00  0.00     0.173 A 
ATOM     88  F   UNL A   1      47.649  25.895  32.694  1.00  0.00    -0.203 F 
ATOM     89  C   UNL A   1      49.919  25.871  32.069  1.00  0.00     0.198 A 
ATOM     90  C   UNL A   1      50.622  26.965  30.052  1.00  0.00     0.198 A 
ATOM     91  F   UNL A   1      49.050  28.096  28.717  1.00  0.00    -0.203 F 
ATOM     92  F   UNL A   1      50.216  25.177  33.178  1.00  0.00    -0.200 F 
ATOM     93  C   UNL A   1      50.926  26.223  31.183  1.00  0.00     0.200 A 
ATOM     94  F   UNL A   1      51.591  27.294  29.186  1.00  0.00    -0.200 F 
ATOM     95  F   UNL A   1      52.191  25.852  31.422  1.00  0.00    -0.200 F 
ENDBRANCH  62  85
ENDBRANCH  36  37
ENDBRANCH  28  31
ENDBRANCH  26  27
ENDBRANCH  25  26
ENDBRANCH   1  25
TORSDOF 15
ENDMDL
MODEL 2
REMARK VINA RESULT:     -11.0      4.633      9.672
REMARK SMILES Cc1cn2c(CC(=O)N[C@@H](C(=O)NCCCNC(=O)c3ccc(-c4c5nc(c(-c6c(F)c(F)c(F)c(F)c6F)c6ccc([nH]6)c(-c6c(F)c(F)c(F)c(F)c6F)c6nc(c(-c7c(F)c(F)c(F)c(F)c7F)c7ccc4[nH]7)C=C6)C=C5)cc3)[C@H](C)O)csc2n1
REMARK SMILES IDX 14 1 13 2 11 3 12 4 10 6 9 7 7 8 8 9 6 11 5 12 1 13 2 14
REMARK SMILES IDX 3 15 89 16 4 17 88 18 87 19 86 20 83 21 84 22 85 23 15 25
REMARK SMILES IDX 16 26 17 27 18 28 19 30 20 31 21 32 82 33 22 34 81 35 23 36
REMARK SMILES IDX 24 37 25 38 75 39 26 40 80 41 74 42 76 43 27 44 79 45 73 46
REMARK SMILES IDX 72 47 28 49 60 50 40 51 59 52 41 53 44 54 58 55 77 56 42 57
REMARK SMILES IDX 43 58 57 60 78 61 45 62 29 63 30 64 38 65 31 66 32 67 36 68
REMARK SMILES IDX 39 69 33 70 34 71 37 72 35 73 61 74 62 75 70 76 63 77 64 78
REMARK SMILES IDX 68 79 71 80 65 81 66 82 69 83 67 84 46 85 47 86 55 87 48 88
REMARK SMILES IDX 49 89 53 90 56 91 50 92 51 93 54 94 52 95
REMARK H PARENT 13 5 9 10 85 24 17 29 76 48 44 59
REMARK Flexibility Score: inf
ROOT
ATOM      1  C   UNL A   1      36.692  21.177  24.968  1.00  0.00     0.117 C 
ENDROOT
BRANCH   1   2
ATOM      2  N   UNL A   1      36.004  21.339  26.228  1.00  0.00    -0.354 N 
ATOM      3  C   UNL A   1      34.673  21.579  26.440  1.00  0.00     0.245 C 
ATOM      4  O   UNL A   1      34.239  21.313  27.561  1.00  0.00    -0.273 OA
ATOM      5  H   UNL A   1      36.562  21.268  27.036  1.00  0.00     0.163 HD
BRANCH   3   6
ATOM      6  C   UNL A   1      33.747  22.002  25.257  1.00  0.00     0.200 C 
BRANCH   6   7
ATOM      7  N   UNL A   1      32.752  23.010  25.690  1.00  0.00    -0.342 N 
ATOM      8  C   UNL A   1      32.880  24.345  25.949  1.00  0.00     0.226 C 
ATOM      9  O   UNL A   1      31.949  24.910  26.524  1.00  0.00    -0.275 OA
ATOM     10  H   UNL A   1      31.842  22.658  25.811  1.00  0.00     0.164 HD
BRANCH   8  11
ATOM     11  C   UNL A   1      34.135  25.116  25.546  1.00  0.00     0.155 C 
BRANCH  11  12
ATOM     12  C   UNL A   1      33.823  26.292  24.677  1.00  0.00     0.044 A 
ATOM     13  C   UNL A   1      33.196  30.537  27.230  1.00  0.00     0.068 C 
ATOM     14  C   UNL A   1      33.333  29.456  26.228  1.00  0.00     0.057 A 
ATOM     15  C   UNL A   1      33.799  28.164  26.420  1.00  0.00     0.117 A 
ATOM     16  N   UNL A   1      32.969  29.662  24.908  1.00  0.00    -0.224 NA
ATOM     17  N   UNL A   1      33.674  27.566  25.202  1.00  0.00    -0.294 N 
ATOM     18  C   UNL A   1      33.237  28.521  24.334  1.00  0.00     0.194 A 
ATOM     19  S   UNL A   1      33.056  27.878  22.735  1.00  0.00    -0.105 S 
ATOM     20  C   UNL A   1      33.557  26.291  23.352  1.00  0.00     0.091 A 
ENDBRANCH  11  12
ENDBRANCH   8  11
ENDBRANCH   6   7
BRANCH   6  21
ATOM     21  C   UNL A   1      33.064  20.754  24.625  1.00  0.00     0.143 C 
ATOM     22  C   UNL A   1      32.256  21.129  23.388  1.00  0.00     0.041 C 
BRANCH  21  23
ATOM     23  O   UNL A   1      32.170  20.097  25.534  1.00  0.00    -0.391 OA
ATOM     24  H   UNL A   1      31.277  20.083  25.157  1.00  0.00     0.211 HD
ENDBRANCH  21  23
ENDBRANCH   6  21
ENDBRANCH   3   6
ENDBRANCH   1   2
BRANCH   1  25
ATOM     25  C   UNL A   1      37.737  20.075  24.991  1.00  0.00     0.042 C 
BRANCH  25  26
ATOM     26  C   UNL A   1      38.985  20.473  25.764  1.00  0.00     0.118 C 
BRANCH  26  27
ATOM     27  N   UNL A   1      39.995  19.419  25.785  1.00  0.00    -0.352 N 
ATOM     28  C   UNL A   1      41.343  19.480  26.055  1.00  0.00     0.251 C 
ATOM     29  H   UNL A   1      39.657  18.520  25.572  1.00  0.00     0.163 HD
ATOM     30  O   UNL A   1      42.040  18.490  25.902  1.00  0.00    -0.269 OA
BRANCH  28  31
ATOM     31  C   UNL A   1      41.957  20.751  26.496  1.00  0.00     0.039 A 
ATOM     32  C   UNL A   1      42.364  21.670  25.523  1.00  0.00     0.014 A 
ATOM     33  C   UNL A   1      42.127  21.044  27.849  1.00  0.00     0.014 A 
ATOM     34  C   UNL A   1      42.866  22.913  25.913  1.00  0.00     0.010 A 
ATOM     35  C   UNL A   1      42.531  22.316  28.234  1.00  0.00     0.010 A 
ATOM     36  C   UNL A   1      42.909  23.263  27.271  1.00  0.00    -0.014 A 
BRANCH  36  37
ATOM     37  C   UNL A   1      43.352  24.608  27.713  1.00  0.00     0.031 A 
ATOM     38  C   UNL A   1      42.334  25.657  28.059  1.00  0.00     0.074 A 
ATOM     39  C   UNL A   1      44.665  24.907  27.722  1.00  0.00     0.049 A 
ATOM     40  N   UNL A   1      42.512  26.919  28.358  1.00  0.00    -0.248 NA
ATOM     41  C   UNL A   1      40.922  25.244  28.026  1.00  0.00     0.031 C 
ATOM     42  C   UNL A   1      45.745  23.992  27.348  1.00  0.00     0.029 A 
ATOM     43  N   UNL A   1      45.315  26.073  28.041  1.00  0.00    -0.354 N 
ATOM     44  C   UNL A   1      41.239  27.449  28.528  1.00  0.00     0.074 A 
ATOM     45  C   UNL A   1      40.297  26.391  28.235  1.00  0.00     0.031 C 
ATOM     46  C   UNL A   1      46.923  24.623  27.481  1.00  0.00     0.029 A 
ATOM     47  C   UNL A   1      46.680  25.997  27.907  1.00  0.00     0.049 A 
ATOM     48  H   UNL A   1      44.847  26.888  28.337  1.00  0.00     0.167 HD
ATOM     49  C   UNL A   1      40.889  28.696  28.921  1.00  0.00     0.037 A 
ATOM     50  C   UNL A   1      47.627  26.935  28.096  1.00  0.00     0.037 A 
ATOM     51  C   UNL A   1      41.832  29.734  29.241  1.00  0.00     0.049 A 
ATOM     52  C   UNL A   1      47.214  28.310  28.547  1.00  0.00     0.074 A 
ATOM     53  C   UNL A   1      41.584  31.015  29.703  1.00  0.00     0.029 A 
ATOM     54  N   UNL A   1      43.209  29.608  29.132  1.00  0.00    -0.354 N 
ATOM     55  N   UNL A   1      46.011  28.783  28.765  1.00  0.00    -0.248 NA
ATOM     56  C   UNL A   1      48.291  29.280  28.783  1.00  0.00     0.031 C 
ATOM     57  C   UNL A   1      42.810  31.676  29.836  1.00  0.00     0.029 A 
ATOM     58  C   UNL A   1      43.824  30.792  29.503  1.00  0.00     0.049 A 
ATOM     59  H   UNL A   1      43.681  28.796  28.834  1.00  0.00     0.167 HD
ATOM     60  C   UNL A   1      46.185  30.092  29.189  1.00  0.00     0.074 A 
ATOM     61  C   UNL A   1      47.613  30.336  29.212  1.00  0.00     0.031 C 
ATOM     62  C   UNL A   1      45.248  31.011  29.527  1.00  0.00     0.037 A 
BRANCH  49  63
ATOM     63  C   UNL A   1      39.422  28.997  29.037  1.00  0.00     0.064 A 
ATOM     64  C   UNL A   1      38.661  29.384  27.924  1.00  0.00     0.173 A 
ATOM     65  C   UNL A   1      38.763  28.880  30.271  1.00  0.00     0.173 A 
ATOM     66  F   UNL A   1      39.244  29.524  26.723  1.00  0.00    -0.203 F 
ATOM     67  C   UNL A   1      37.305  29.678  28.047  1.00  0.00     0.198 A 
ATOM     68  C   UNL A   1      37.400  29.143  30.384  1.00  0.00     0.198 A 
ATOM     69  F   UNL A   1      39.441  28.509  31.368  1.00  0.00    -0.203 F 
ATOM     70  F   UNL A   1      36.614  30.103  26.980  1.00  0.00    -0.200 F 
ATOM     71  C   UNL A   1      36.675  29.551  29.274  1.00  0.00     0.200 A 
ATOM     72  F   UNL A   1      36.789  29.007  31.569  1.00  0.00    -0.200 F 
ATOM     73  F   UNL A   1      35.370  29.832  29.391  1.00  0.00    -0.200 F 
ENDBRANCH  49  63
BRANCH  50  74
ATOM     74  C   UNL A   1      49.058  26.594  27.887  1.00  0.00     0.064 A 
ATOM     75  C   UNL A   1      49.892  26.292  28.973  1.00  0.00     0.173 A 
ATOM     76  C   UNL A   1      49.619  26.558  26.603  1.00  0.00     0.173 A 
ATOM     77  F   UNL A   1      49.405  26.331  30.222  1.00  0.00    -0.203 F 
ATOM     78  C   UNL A   1      51.237  25.984  28.783  1.00  0.00     0.198 A 
ATOM     79  C   UNL A   1      50.959  26.222  26.411  1.00  0.00     0.198 A 
ATOM     80  F   UNL A   1      48.863  26.833  25.530  1.00  0.00    -0.203 F 
ATOM     81  F   UNL A   1      52.023  25.740  29.841  1.00  0.00    -0.200 F 
ATOM     82  C   UNL A   1      51.768  25.942  27.502  1.00  0.00     0.200 A 
ATOM     83  F   UNL A   1      51.464  26.169  25.171  1.00  0.00    -0.200 F 
ATOM     84  F   UNL A   1      53.062  25.641  27.320  1.00  0.00    -0.200 F 
ENDBRANCH  50  74
BRANCH  62  85
ATOM     85  C   UNL A   1      45.738  32.355  29.982  1.00  0.00     0.064 A 
ATOM     86  C   UNL A   1      45.916  33.417  29.084  1.00  0.00     0.173 A 
ATOM     87  C   UNL A   1      45.992  32.593  31.342  1.00  0.00     0.173 A 
ATOM     88  F   UNL A   1      45.702  33.235  27.772  1.00  0.00    -0.203 F 
ATOM     89  C   UNL A   1      46.353  34.662  29.528  1.00  0.00     0.198 A 
ATOM     90  C   UNL A   1      46.398  33.847  31.785  1.00  0.00     0.198 A 
ATOM     91  F   UNL A   1      45.829  31.611  32.242  1.00  0.00    -0.203 F 
ATOM     92  F   UNL A   1      46.562  35.651  28.646  1.00  0.00    -0.200 F 
ATOM     93  C   UNL A   1      46.587  34.879  30.878  1.00  0.00     0.200 A 
ATOM     94  F   UNL A   1      46.609  34.059  33.092  1.00  0.00    -0.200 F 
ATOM     95  F   UNL A   1      46.999  36.080  31.304  1.00  0.00    -0.200 F 
ENDBRANCH  62  85
ENDBRANCH  36  37
ENDBRANCH  28  31
ENDBRANCH  26  27
ENDBRANCH  25  26
ENDBRANCH   1  25
TORSDOF 15
ENDMDL
MODEL 3
REMARK VINA RESULT:     -11.0      0.352      7.407
REMARK SMILES Cc1cn2c(CC(=O)N[C@@H](C(=O)NCCCNC(=O)c3ccc(-c4c5nc(c(-c6c(F)c(F)c(F)c(F)c6F)c6ccc([nH]6)c(-c6c(F)c(F)c(F)c(F)c6F)c6nc(c(-c7c(F)c(F)c(F)c(F)c7F)c7ccc4[nH]7)C=C6)C=C5)cc3)[C@H](C)O)csc2n1
REMARK SMILES IDX 14 1 13 2 11 3 12 4 10 6 9 7 7 8 8 9 6 11 5 12 1 13 2 14
REMARK SMILES IDX 3 15 89 16 4 17 88 18 87 19 86 20 83 21 84 22 85 23 15 25
REMARK SMILES IDX 16 26 17 27 18 28 19 30 20 31 21 32 82 33 22 34 81 35 23 36
REMARK SMILES IDX 24 37 25 38 75 39 26 40 80 41 74 42 76 43 27 44 79 45 73 46
REMARK SMILES IDX 72 47 28 49 60 50 40 51 59 52 41 53 44 54 58 55 77 56 42 57
REMARK SMILES IDX 43 58 57 60 78 61 45 62 29 63 30 64 38 65 31 66 32 67 36 68
REMARK SMILES IDX 39 69 33 70 34 71 37 72 35 73 61 74 62 75 70 76 63 77 64 78
REMARK SMILES IDX 68 79 71 80 65 81 66 82 69 83 67 84 46 85 47 86 55 87 48 88
REMARK SMILES IDX 49 89 53 90 56 91 50 92 51 93 54 94 52 95
REMARK H PARENT 13 5 9 10 85 24 17 29 76 48 44 59
REMARK Flexibility Score: inf
ROOT
ATOM      1  C   UNL A   1      35.114  34.517  28.433  1.00  0.00     0.117 C 
ENDROOT
BRANCH   1   2
ATOM      2  N   UNL A   1      33.771  35.048  28.406  1.00  0.00    -0.354 N 
ATOM      3  C   UNL A   1      33.127  35.769  29.377  1.00  0.00     0.245 C 
ATOM      4  O   UNL A   1      32.154  36.431  29.014  1.00  0.00    -0.273 OA
ATOM      5  H   UNL A   1      33.253  34.870  27.588  1.00  0.00     0.163 HD
BRANCH   3   6
ATOM      6  C   UNL A   1      33.721  35.863  30.817  1.00  0.00     0.200 C 
BRANCH   6   7
ATOM      7  N   UNL A   1      33.538  34.593  31.555  1.00  0.00    -0.342 N 
ATOM      8  C   UNL A   1      34.447  33.695  32.039  1.00  0.00     0.226 C 
ATOM      9  O   UNL A   1      34.028  32.597  32.409  1.00  0.00    -0.275 OA
ATOM     10  H   UNL A   1      32.599  34.354  31.729  1.00  0.00     0.164 HD
BRANCH   8  11
ATOM     11  C   UNL A   1      35.934  34.032  32.114  1.00  0.00     0.155 C 
BRANCH  11  12
ATOM     12  C   UNL A   1      36.540  33.630  33.421  1.00  0.00     0.044 A 
ATOM     13  C   UNL A   1      39.141  29.374  33.179  1.00  0.00     0.068 C 
ATOM     14  C   UNL A   1      38.459  30.637  33.544  1.00  0.00     0.057 A 
ATOM     15  C   UNL A   1      37.872  31.568  32.701  1.00  0.00     0.117 A 
ATOM     16  N   UNL A   1      38.334  31.018  34.869  1.00  0.00    -0.224 NA
ATOM     17  N   UNL A   1      37.346  32.509  33.535  1.00  0.00    -0.294 N 
ATOM     18  C   UNL A   1      37.707  32.161  34.802  1.00  0.00     0.194 A 
ATOM     19  S   UNL A   1      37.105  33.301  35.960  1.00  0.00    -0.105 S 
ATOM     20  C   UNL A   1      36.338  34.194  34.632  1.00  0.00     0.091 A 
ENDBRANCH  11  12
ENDBRANCH   8  11
ENDBRANCH   6   7
BRANCH   6  21
ATOM     21  C   UNL A   1      33.105  37.070  31.584  1.00  0.00     0.143 C 
ATOM     22  C   UNL A   1      34.028  37.550  32.699  1.00  0.00     0.041 C 
BRANCH  21  23
ATOM     23  O   UNL A   1      31.842  36.752  32.184  1.00  0.00    -0.391 OA
ATOM     24  H   UNL A   1      31.539  37.503  32.718  1.00  0.00     0.211 HD
ENDBRANCH  21  23
ENDBRANCH   6  21
ENDBRANCH   3   6
ENDBRANCH   1   2
BRANCH   1  25
ATOM     25  C   UNL A   1      35.197  33.068  27.986  1.00  0.00     0.042 C 
BRANCH  25  26
ATOM     26  C   UNL A   1      34.483  32.123  28.939  1.00  0.00     0.118 C 
BRANCH  26  27
ATOM     27  N   UNL A   1      34.058  30.885  28.294  1.00  0.00    -0.352 N 
ATOM     28  C   UNL A   1      34.788  29.787  27.898  1.00  0.00     0.251 C 
ATOM     29  H   UNL A   1      33.092  30.825  28.112  1.00  0.00     0.163 HD
ATOM     30  O   UNL A   1      34.251  28.895  27.261  1.00  0.00    -0.269 OA
BRANCH  28  31
ATOM     31  C   UNL A   1      36.231  29.703  28.209  1.00  0.00     0.039 A 
ATOM     32  C   UNL A   1      36.617  29.299  29.492  1.00  0.00     0.014 A 
ATOM     33  C   UNL A   1      37.199  30.010  27.252  1.00  0.00     0.014 A 
ATOM     34  C   UNL A   1      37.971  29.128  29.786  1.00  0.00     0.010 A 
ATOM     35  C   UNL A   1      38.537  29.742  27.514  1.00  0.00     0.010 A 
ATOM     36  C   UNL A   1      38.938  29.303  28.784  1.00  0.00    -0.014 A 
BRANCH  36  37
ATOM     37  C   UNL A   1      40.376  29.042  29.039  1.00  0.00     0.031 A 
ATOM     38  C   UNL A   1      40.997  27.754  28.578  1.00  0.00     0.074 A 
ATOM     39  C   UNL A   1      41.096  29.925  29.756  1.00  0.00     0.049 A 
ATOM     40  N   UNL A   1      42.201  27.289  28.798  1.00  0.00    -0.248 NA
ATOM     41  C   UNL A   1      40.139  26.848  27.799  1.00  0.00     0.031 C 
ATOM     42  C   UNL A   1      40.588  31.182  30.310  1.00  0.00     0.029 A 
ATOM     43  N   UNL A   1      42.408  29.892  30.159  1.00  0.00    -0.354 N 
ATOM     44  C   UNL A   1      42.234  26.034  28.202  1.00  0.00     0.074 A 
ATOM     45  C   UNL A   1      40.914  25.782  27.670  1.00  0.00     0.031 C 
ATOM     46  C   UNL A   1      41.581  31.810  30.960  1.00  0.00     0.029 A 
ATOM     47  C   UNL A   1      42.782  30.983  30.905  1.00  0.00     0.049 A 
ATOM     48  H   UNL A   1      43.023  29.156  29.934  1.00  0.00     0.167 HD
ATOM     49  C   UNL A   1      43.280  25.182  28.084  1.00  0.00     0.037 A 
ATOM     50  C   UNL A   1      43.959  31.276  31.489  1.00  0.00     0.037 A 
ATOM     51  C   UNL A   1      44.600  25.453  28.590  1.00  0.00     0.049 A 
ATOM     52  C   UNL A   1      45.111  30.320  31.333  1.00  0.00     0.074 A 
ATOM     53  C   UNL A   1      45.744  24.682  28.474  1.00  0.00     0.029 A 
ATOM     54  N   UNL A   1      44.951  26.588  29.306  1.00  0.00    -0.354 N 
ATOM     55  N   UNL A   1      45.149  29.165  30.714  1.00  0.00    -0.248 NA
ATOM     56  C   UNL A   1      46.385  30.712  31.950  1.00  0.00     0.031 C 
ATOM     57  C   UNL A   1      46.778  25.333  29.157  1.00  0.00     0.029 A 
ATOM     58  C   UNL A   1      46.291  26.531  29.654  1.00  0.00     0.049 A 
ATOM     59  H   UNL A   1      44.339  27.324  29.535  1.00  0.00     0.167 HD
ATOM     60  C   UNL A   1      46.451  28.704  30.843  1.00  0.00     0.074 A 
ATOM     61  C   UNL A   1      47.178  29.713  31.587  1.00  0.00     0.031 C 
ATOM     62  C   UNL A   1      46.997  27.550  30.389  1.00  0.00     0.037 A 
BRANCH  49  63
ATOM     63  C   UNL A   1      43.036  23.883  27.371  1.00  0.00     0.064 A 
ATOM     64  C   UNL A   1      42.477  22.777  28.029  1.00  0.00     0.173 A 
ATOM     65  C   UNL A   1      43.345  23.746  26.009  1.00  0.00     0.173 A 
ATOM     66  F   UNL A   1      42.175  22.850  29.335  1.00  0.00    -0.203 F 
ATOM     67  C   UNL A   1      42.273  21.572  27.362  1.00  0.00     0.198 A 
ATOM     68  C   UNL A   1      43.108  22.551  25.336  1.00  0.00     0.198 A 
ATOM     69  F   UNL A   1      43.876  24.774  25.329  1.00  0.00    -0.203 F 
ATOM     70  F   UNL A   1      41.794  20.512  28.029  1.00  0.00    -0.200 F 
ATOM     71  C   UNL A   1      42.581  21.462  26.016  1.00  0.00     0.200 A 
ATOM     72  F   UNL A   1      43.394  22.449  24.032  1.00  0.00    -0.200 F 
ATOM     73  F   UNL A   1      42.381  20.303  25.374  1.00  0.00    -0.200 F 
ENDBRANCH  49  63
BRANCH  50  74
ATOM     74  C   UNL A   1      44.112  32.544  32.250  1.00  0.00     0.064 A 
ATOM     75  C   UNL A   1      44.545  33.716  31.615  1.00  0.00     0.173 A 
ATOM     76  C   UNL A   1      43.826  32.610  33.621  1.00  0.00     0.173 A 
ATOM     77  F   UNL A   1      44.848  33.697  30.309  1.00  0.00    -0.203 F 
ATOM     78  C   UNL A   1      44.702  34.904  32.327  1.00  0.00     0.198 A 
ATOM     79  C   UNL A   1      43.956  33.806  34.326  1.00  0.00     0.198 A 
ATOM     80  F   UNL A   1      43.403  31.518  34.274  1.00  0.00    -0.203 F 
ATOM     81  F   UNL A   1      45.157  36.000  31.705  1.00  0.00    -0.200 F 
ATOM     82  C   UNL A   1      44.401  34.950  33.680  1.00  0.00     0.200 A 
ATOM     83  F   UNL A   1      43.651  33.849  35.630  1.00  0.00    -0.200 F 
ATOM     84  F   UNL A   1      44.548  36.094  34.363  1.00  0.00    -0.200 F 
ENDBRANCH  50  74
BRANCH  62  85
ATOM     85  C   UNL A   1      48.458  27.330  30.656  1.00  0.00     0.064 A 
ATOM     86  C   UNL A   1      49.445  27.797  29.777  1.00  0.00     0.173 A 
ATOM     87  C   UNL A   1      48.874  26.678  31.827  1.00  0.00     0.173 A 
ATOM     88  F   UNL A   1      49.098  28.412  28.637  1.00  0.00    -0.203 F 
ATOM     89  C   UNL A   1      50.796  27.600  30.051  1.00  0.00     0.198 A 
ATOM     90  C   UNL A   1      50.225  26.511  32.112  1.00  0.00     0.198 A 
ATOM     91  F   UNL A   1      47.967  26.218  32.703  1.00  0.00    -0.203 F 
ATOM     92  F   UNL A   1      51.723  28.014  29.174  1.00  0.00    -0.200 F 
ATOM     93  C   UNL A   1      51.185  26.964  31.221  1.00  0.00     0.200 A 
ATOM     94  F   UNL A   1      50.599  25.909  33.250  1.00  0.00    -0.200 F 
ATOM     95  F   UNL A   1      52.486  26.783  31.485  1.00  0.00    -0.200 F 
ENDBRANCH  62  85
ENDBRANCH  36  37
ENDBRANCH  28  31
ENDBRANCH  26  27
ENDBRANCH  25  26
ENDBRANCH   1  25
TORSDOF 15
ENDMDL
