MODEL 1
REMARK VINA RESULT:     -12.5      0.000      0.000
REMARK SMILES NC(=O)c1cccc(NC2(CC(=O)NCCCNC(=O)c3ccc(-c4c5nc(c(-c6c(F)c(F)c(F)c(F)c6F)c6ccc([nH]6)c(-c6c(F)c(F)c(F)c(F)c6F)c6nc(c(-c7c(F)c(F)c(F)c(F)c7F)c7ccc4[nH]7)C=C6)C=C5)cc3)CCC2)n1
REMARK SMILES IDX 15 1 14 2 12 3 13 4 11 6 10 7 84 8 86 9 85 10 9 11 8 13 4 14
REMARK SMILES IDX 5 15 87 16 6 17 7 18 2 19 1 20 3 23 16 24 17 25 18 26 19 27
REMARK SMILES IDX 20 29 21 30 22 31 83 32 23 33 82 34 24 35 25 36 26 37 76 38
REMARK SMILES IDX 27 39 81 40 75 41 77 42 28 43 80 44 74 45 73 46 29 48 61 49
REMARK SMILES IDX 41 50 60 51 42 52 45 53 59 54 78 55 43 56 44 57 58 59 79 60
REMARK SMILES IDX 46 61 30 62 31 63 39 64 32 65 33 66 37 67 40 68 34 69 35 70
REMARK SMILES IDX 38 71 36 72 62 73 63 74 71 75 64 76 65 77 69 78 72 79 66 80
REMARK SMILES IDX 67 81 70 82 68 83 47 84 48 85 56 86 49 87 50 88 54 89 57 90
REMARK SMILES IDX 51 91 52 92 55 93 53 94
REMARK H PARENT 14 5 9 12 1 21 1 22 18 28 77 47 45 58
REMARK Flexibility Score: inf
ROOT
ATOM      1  C   UNL A   1      31.059  30.801  25.426  1.00  0.00     0.117 C 
ENDROOT
BRANCH   1   2
ATOM      2  N   UNL A   1      32.380  30.209  25.353  1.00  0.00    -0.356 N 
ATOM      3  C   UNL A   1      32.736  28.949  24.982  1.00  0.00     0.222 C 
ATOM      4  O   UNL A   1      33.890  28.575  25.209  1.00  0.00    -0.275 OA
ATOM      5  H   UNL A   1      33.124  30.801  25.607  1.00  0.00     0.163 HD
BRANCH   3   6
ATOM      6  C   UNL A   1      31.748  28.024  24.305  1.00  0.00     0.128 C 
BRANCH   6   7
ATOM      7  C   UNL A   1      31.975  27.785  22.804  1.00  0.00     0.048 C 
ATOM      8  C   UNL A   1      31.767  26.294  22.395  1.00  0.00     0.029 C 
ATOM      9  C   UNL A   1      33.460  27.617  22.365  1.00  0.00     0.029 C 
ATOM     10  C   UNL A   1      33.288  26.095  22.499  1.00  0.00     0.005 C 
BRANCH   7  11
ATOM     11  N   UNL A   1      31.177  28.687  22.009  1.00  0.00    -0.364 N 
ATOM     12  H   UNL A   1      31.543  28.891  21.118  1.00  0.00     0.162 HD
BRANCH  11  13
ATOM     13  C   UNL A   1      29.959  29.320  22.310  1.00  0.00     0.127 A 
ATOM     14  C   UNL A   1      28.671  31.237  22.520  1.00  0.00     0.130 A 
ATOM     15  C   UNL A   1      27.569  30.537  22.989  1.00  0.00     0.034 A 
ATOM     16  N   UNL A   1      29.842  30.649  22.177  1.00  0.00    -0.226 NA
ATOM     17  C   UNL A   1      27.692  29.162  23.126  1.00  0.00     0.006 A 
ATOM     18  C   UNL A   1      28.902  28.551  22.798  1.00  0.00     0.047 A 
BRANCH  14  19
ATOM     19  C   UNL A   1      28.640  32.728  22.397  1.00  0.00     0.267 C 
ATOM     20  N   UNL A   1      29.529  33.428  23.177  1.00  0.00    -0.364 N 
ATOM     21  H   UNL A   1      29.552  34.411  23.137  1.00  0.00     0.160 HD
ATOM     22  H   UNL A   1      30.142  32.946  23.778  1.00  0.00     0.160 HD
ATOM     23  O   UNL A   1      27.896  33.316  21.628  1.00  0.00    -0.268 OA
ENDBRANCH  14  19
ENDBRANCH  11  13
ENDBRANCH   7  11
ENDBRANCH   6   7
ENDBRANCH   3   6
ENDBRANCH   1   2
BRANCH   1  24
ATOM     24  C   UNL A   1      31.020  31.937  26.447  1.00  0.00     0.042 C 
BRANCH  24  25
ATOM     25  C   UNL A   1      32.393  32.440  26.874  1.00  0.00     0.118 C 
BRANCH  25  26
ATOM     26  N   UNL A   1      32.347  33.805  27.373  1.00  0.00    -0.352 N 
ATOM     27  C   UNL A   1      33.058  34.430  28.363  1.00  0.00     0.251 C 
ATOM     28  H   UNL A   1      31.689  34.381  26.920  1.00  0.00     0.163 HD
ATOM     29  O   UNL A   1      32.672  35.527  28.763  1.00  0.00    -0.269 OA
BRANCH  27  30
ATOM     30  C   UNL A   1      34.270  33.826  28.966  1.00  0.00     0.039 A 
ATOM     31  C   UNL A   1      34.103  32.742  29.835  1.00  0.00     0.014 A 
ATOM     32  C   UNL A   1      35.550  34.351  28.768  1.00  0.00     0.014 A 
ATOM     33  C   UNL A   1      35.209  32.169  30.467  1.00  0.00     0.010 A 
ATOM     34  C   UNL A   1      36.665  33.726  29.332  1.00  0.00     0.010 A 
ATOM     35  C   UNL A   1      36.505  32.638  30.201  1.00  0.00    -0.014 A 
BRANCH  35  36
ATOM     36  C   UNL A   1      37.685  31.991  30.834  1.00  0.00     0.031 A 
ATOM     37  C   UNL A   1      38.113  32.359  32.228  1.00  0.00     0.074 A 
ATOM     38  C   UNL A   1      38.385  31.075  30.137  1.00  0.00     0.049 A 
ATOM     39  N   UNL A   1      39.096  31.873  32.948  1.00  0.00    -0.248 NA
ATOM     40  C   UNL A   1      37.358  33.429  32.897  1.00  0.00     0.031 C 
ATOM     41  C   UNL A   1      38.109  30.677  28.756  1.00  0.00     0.029 A 
ATOM     42  N   UNL A   1      39.465  30.310  30.494  1.00  0.00    -0.354 N 
ATOM     43  C   UNL A   1      39.079  32.581  34.143  1.00  0.00     0.074 A 
ATOM     44  C   UNL A   1      38.027  33.568  34.032  1.00  0.00     0.031 C 
ATOM     45  C   UNL A   1      38.971  29.714  28.396  1.00  0.00     0.029 A 
ATOM     46  C   UNL A   1      39.877  29.446  29.508  1.00  0.00     0.049 A 
ATOM     47  H   UNL A   1      39.904  30.372  31.374  1.00  0.00     0.167 HD
ATOM     48  C   UNL A   1      39.852  32.407  35.242  1.00  0.00     0.037 A 
ATOM     49  C   UNL A   1      40.868  28.535  29.503  1.00  0.00     0.037 A 
ATOM     50  C   UNL A   1      40.886  31.410  35.359  1.00  0.00     0.049 A 
ATOM     51  C   UNL A   1      41.695  28.346  30.745  1.00  0.00     0.074 A 
ATOM     52  C   UNL A   1      41.685  31.115  36.450  1.00  0.00     0.029 A 
ATOM     53  N   UNL A   1      41.265  30.544  34.343  1.00  0.00    -0.354 N 
ATOM     54  N   UNL A   1      41.619  28.969  31.895  1.00  0.00    -0.248 NA
ATOM     55  C   UNL A   1      42.739  27.314  30.689  1.00  0.00     0.031 C 
ATOM     56  C   UNL A   1      42.577  30.102  36.081  1.00  0.00     0.029 A 
ATOM     57  C   UNL A   1      42.301  29.730  34.776  1.00  0.00     0.049 A 
ATOM     58  H   UNL A   1      40.860  30.512  33.447  1.00  0.00     0.167 HD
ATOM     59  C   UNL A   1      42.587  28.394  32.706  1.00  0.00     0.074 A 
ATOM     60  C   UNL A   1      43.220  27.352  31.923  1.00  0.00     0.031 C 
ATOM     61  C   UNL A   1      42.928  28.704  33.982  1.00  0.00     0.037 A 
BRANCH  48  62
ATOM     62  C   UNL A   1      39.607  33.313  36.416  1.00  0.00     0.064 A 
ATOM     63  C   UNL A   1      38.709  32.968  37.437  1.00  0.00     0.173 A 
ATOM     64  C   UNL A   1      40.307  34.524  36.541  1.00  0.00     0.173 A 
ATOM     65  F   UNL A   1      38.006  31.829  37.362  1.00  0.00    -0.203 F 
ATOM     66  C   UNL A   1      38.499  33.813  38.525  1.00  0.00     0.198 A 
ATOM     67  C   UNL A   1      40.117  35.352  37.645  1.00  0.00     0.198 A 
ATOM     68  F   UNL A   1      41.182  34.900  35.597  1.00  0.00    -0.203 F 
ATOM     69  F   UNL A   1      37.600  33.484  39.463  1.00  0.00    -0.200 F 
ATOM     70  C   UNL A   1      39.208  35.000  38.631  1.00  0.00     0.200 A 
ATOM     71  F   UNL A   1      40.812  36.492  37.753  1.00  0.00    -0.200 F 
ATOM     72  F   UNL A   1      39.011  35.808  39.682  1.00  0.00    -0.200 F 
ENDBRANCH  48  62
BRANCH  49  73
ATOM     73  C   UNL A   1      41.105  27.705  28.295  1.00  0.00     0.064 A 
ATOM     74  C   UNL A   1      40.496  26.450  28.152  1.00  0.00     0.173 A 
ATOM     75  C   UNL A   1      41.944  28.144  27.261  1.00  0.00     0.173 A 
ATOM     76  F   UNL A   1      39.702  25.977  29.124  1.00  0.00    -0.203 F 
ATOM     77  C   UNL A   1      40.734  25.658  27.031  1.00  0.00     0.198 A 
ATOM     78  C   UNL A   1      42.157  27.365  26.127  1.00  0.00     0.198 A 
ATOM     79  F   UNL A   1      42.546  29.341  27.348  1.00  0.00    -0.203 F 
ATOM     80  F   UNL A   1      40.177  24.443  26.943  1.00  0.00    -0.200 F 
ATOM     81  C   UNL A   1      41.560  26.118  26.017  1.00  0.00     0.200 A 
ATOM     82  F   UNL A   1      42.945  27.819  25.144  1.00  0.00    -0.200 F 
ATOM     83  F   UNL A   1      41.786  25.357  24.938  1.00  0.00    -0.200 F 
ENDBRANCH  49  73
BRANCH  61  84
ATOM     84  C   UNL A   1      44.023  27.890  34.609  1.00  0.00     0.064 A 
ATOM     85  C   UNL A   1      43.752  26.692  35.289  1.00  0.00     0.173 A 
ATOM     86  C   UNL A   1      45.359  28.312  34.531  1.00  0.00     0.173 A 
ATOM     87  F   UNL A   1      42.490  26.253  35.405  1.00  0.00    -0.203 F 
ATOM     88  C   UNL A   1      44.772  25.971  35.904  1.00  0.00     0.198 A 
ATOM     89  C   UNL A   1      46.380  27.571  35.119  1.00  0.00     0.198 A 
ATOM     90  F   UNL A   1      45.674  29.445  33.885  1.00  0.00    -0.203 F 
ATOM     91  F   UNL A   1      44.481  24.867  36.604  1.00  0.00    -0.200 F 
ATOM     92  C   UNL A   1      46.085  26.409  35.815  1.00  0.00     0.200 A 
ATOM     93  F   UNL A   1      47.650  27.988  35.020  1.00  0.00    -0.200 F 
ATOM     94  F   UNL A   1      47.065  25.716  36.412  1.00  0.00    -0.200 F 
ENDBRANCH  61  84
ENDBRANCH  35  36
ENDBRANCH  27  30
ENDBRANCH  25  26
ENDBRANCH  24  25
ENDBRANCH   1  24
TORSDOF 14
ENDMDL
MODEL 2
REMARK VINA RESULT:     -12.2      3.022      4.679
REMARK SMILES NC(=O)c1cccc(NC2(CC(=O)NCCCNC(=O)c3ccc(-c4c5nc(c(-c6c(F)c(F)c(F)c(F)c6F)c6ccc([nH]6)c(-c6c(F)c(F)c(F)c(F)c6F)c6nc(c(-c7c(F)c(F)c(F)c(F)c7F)c7ccc4[nH]7)C=C6)C=C5)cc3)CCC2)n1
REMARK SMILES IDX 15 1 14 2 12 3 13 4 11 6 10 7 84 8 86 9 85 10 9 11 8 13 4 14
REMARK SMILES IDX 5 15 87 16 6 17 7 18 2 19 1 20 3 23 16 24 17 25 18 26 19 27
REMARK SMILES IDX 20 29 21 30 22 31 83 32 23 33 82 34 24 35 25 36 26 37 76 38
REMARK SMILES IDX 27 39 81 40 75 41 77 42 28 43 80 44 74 45 73 46 29 48 61 49
REMARK SMILES IDX 41 50 60 51 42 52 45 53 59 54 78 55 43 56 44 57 58 59 79 60
REMARK SMILES IDX 46 61 30 62 31 63 39 64 32 65 33 66 37 67 40 68 34 69 35 70
REMARK SMILES IDX 38 71 36 72 62 73 63 74 71 75 64 76 65 77 69 78 72 79 66 80
REMARK SMILES IDX 67 81 70 82 68 83 47 84 48 85 56 86 49 87 50 88 54 89 57 90
REMARK SMILES IDX 51 91 52 92 55 93 53 94
REMARK H PARENT 14 5 9 12 1 21 1 22 18 28 77 47 45 58
REMARK Flexibility Score: inf
ROOT
ATOM      1  C   UNL A   1      32.171  28.380  23.091  1.00  0.00     0.117 C 
ENDROOT
BRANCH   1   2
ATOM      2  N   UNL A   1      32.627  27.551  21.993  1.00  0.00    -0.356 N 
ATOM      3  C   UNL A   1      32.625  26.195  21.884  1.00  0.00     0.222 C 
ATOM      4  O   UNL A   1      33.267  25.678  20.965  1.00  0.00    -0.275 OA
ATOM      5  H   UNL A   1      32.989  28.037  21.217  1.00  0.00     0.163 HD
BRANCH   3   6
ATOM      6  C   UNL A   1      31.854  25.332  22.860  1.00  0.00     0.128 C 
BRANCH   6   7
ATOM      7  C   UNL A   1      32.703  24.523  23.853  1.00  0.00     0.048 C 
ATOM      8  C   UNL A   1      31.981  24.301  25.219  1.00  0.00     0.029 C 
ATOM      9  C   UNL A   1      33.775  25.334  24.641  1.00  0.00     0.029 C 
ATOM     10  C   UNL A   1      32.754  25.507  25.778  1.00  0.00     0.005 C 
BRANCH   7  11
ATOM     11  N   UNL A   1      33.151  23.284  23.264  1.00  0.00    -0.364 N 
ATOM     12  H   UNL A   1      32.987  23.201  22.296  1.00  0.00     0.162 HD
BRANCH  11  13
ATOM     13  C   UNL A   1      33.785  22.179  23.855  1.00  0.00     0.127 A 
ATOM     14  C   UNL A   1      33.699  20.066  24.806  1.00  0.00     0.130 A 
ATOM     15  C   UNL A   1      35.056  20.057  25.093  1.00  0.00     0.034 A 
ATOM     16  N   UNL A   1      33.070  21.096  24.193  1.00  0.00    -0.226 NA
ATOM     17  C   UNL A   1      35.795  21.178  24.743  1.00  0.00     0.006 A 
ATOM     18  C   UNL A   1      35.150  22.254  24.133  1.00  0.00     0.047 A 
BRANCH  14  19
ATOM     19  C   UNL A   1      32.822  18.920  25.201  1.00  0.00     0.267 C 
ATOM     20  N   UNL A   1      32.918  18.493  26.504  1.00  0.00    -0.364 N 
ATOM     21  H   UNL A   1      32.363  17.743  26.818  1.00  0.00     0.160 HD
ATOM     22  H   UNL A   1      33.541  18.937  27.123  1.00  0.00     0.160 HD
ATOM     23  O   UNL A   1      32.031  18.393  24.434  1.00  0.00    -0.268 OA
ENDBRANCH  14  19
ENDBRANCH  11  13
ENDBRANCH   7  11
ENDBRANCH   6   7
ENDBRANCH   3   6
ENDBRANCH   1   2
BRANCH   1  24
ATOM     24  C   UNL A   1      33.330  29.160  23.711  1.00  0.00     0.042 C 
BRANCH  24  25
ATOM     25  C   UNL A   1      33.319  29.187  25.234  1.00  0.00     0.118 C 
BRANCH  25  26
ATOM     26  N   UNL A   1      32.834  30.454  25.757  1.00  0.00    -0.352 N 
ATOM     27  C   UNL A   1      33.234  31.199  26.835  1.00  0.00     0.251 C 
ATOM     28  H   UNL A   1      32.085  30.843  25.249  1.00  0.00     0.163 HD
ATOM     29  O   UNL A   1      32.511  32.118  27.216  1.00  0.00    -0.269 OA
BRANCH  27  30
ATOM     30  C   UNL A   1      34.504  30.932  27.552  1.00  0.00     0.039 A 
ATOM     31  C   UNL A   1      34.673  29.675  28.143  1.00  0.00     0.014 A 
ATOM     32  C   UNL A   1      35.486  31.910  27.732  1.00  0.00     0.014 A 
ATOM     33  C   UNL A   1      35.831  29.391  28.873  1.00  0.00     0.010 A 
ATOM     34  C   UNL A   1      36.679  31.599  28.387  1.00  0.00     0.010 A 
ATOM     35  C   UNL A   1      36.858  30.341  28.979  1.00  0.00    -0.014 A 
BRANCH  35  36
ATOM     36  C   UNL A   1      38.111  30.016  29.710  1.00  0.00     0.031 A 
ATOM     37  C   UNL A   1      38.352  30.535  31.102  1.00  0.00     0.074 A 
ATOM     38  C   UNL A   1      39.048  29.260  29.105  1.00  0.00     0.049 A 
ATOM     39  N   UNL A   1      39.370  30.324  31.899  1.00  0.00    -0.248 NA
ATOM     40  C   UNL A   1      37.327  31.427  31.667  1.00  0.00     0.031 C 
ATOM     41  C   UNL A   1      38.963  28.749  27.737  1.00  0.00     0.029 A 
ATOM     42  N   UNL A   1      40.251  28.785  29.563  1.00  0.00    -0.354 N 
ATOM     43  C   UNL A   1      39.113  31.060  33.050  1.00  0.00     0.074 A 
ATOM     44  C   UNL A   1      37.871  31.767  32.826  1.00  0.00     0.031 C 
ATOM     45  C   UNL A   1      40.045  27.999  27.479  1.00  0.00     0.029 A 
ATOM     46  C   UNL A   1      40.914  28.000  28.651  1.00  0.00     0.049 A 
ATOM     47  H   UNL A   1      40.605  28.987  30.460  1.00  0.00     0.167 HD
ATOM     48  C   UNL A   1      39.832  31.120  34.197  1.00  0.00     0.037 A 
ATOM     49  C   UNL A   1      42.087  27.347  28.752  1.00  0.00     0.037 A 
ATOM     50  C   UNL A   1      41.058  30.398  34.425  1.00  0.00     0.049 A 
ATOM     51  C   UNL A   1      42.853  27.411  30.045  1.00  0.00     0.074 A 
ATOM     52  C   UNL A   1      41.831  30.346  35.573  1.00  0.00     0.029 A 
ATOM     53  N   UNL A   1      41.693  29.602  33.483  1.00  0.00    -0.354 N 
ATOM     54  N   UNL A   1      42.560  28.048  31.152  1.00  0.00    -0.248 NA
ATOM     55  C   UNL A   1      44.108  26.650  30.105  1.00  0.00     0.031 C 
ATOM     56  C   UNL A   1      42.955  29.555  35.311  1.00  0.00     0.029 A 
ATOM     57  C   UNL A   1      42.858  29.072  34.016  1.00  0.00     0.049 A 
ATOM     58  H   UNL A   1      41.365  29.436  32.570  1.00  0.00     0.167 HD
ATOM     59  C   UNL A   1      43.579  27.752  32.044  1.00  0.00     0.074 A 
ATOM     60  C   UNL A   1      44.485  26.853  31.358  1.00  0.00     0.031 C 
ATOM     61  C   UNL A   1      43.755  28.187  33.318  1.00  0.00     0.037 A 
BRANCH  48  62
ATOM     62  C   UNL A   1      39.308  31.994  35.301  1.00  0.00     0.064 A 
ATOM     63  C   UNL A   1      38.479  31.485  36.312  1.00  0.00     0.173 A 
ATOM     64  C   UNL A   1      39.671  33.348  35.372  1.00  0.00     0.173 A 
ATOM     65  F   UNL A   1      38.093  30.200  36.287  1.00  0.00    -0.203 F 
ATOM     66  C   UNL A   1      38.009  32.303  37.336  1.00  0.00     0.198 A 
ATOM     67  C   UNL A   1      39.223  34.157  36.414  1.00  0.00     0.198 A 
ATOM     68  F   UNL A   1      40.466  33.886  34.436  1.00  0.00    -0.203 F 
ATOM     69  F   UNL A   1      37.179  31.805  38.263  1.00  0.00    -0.200 F 
ATOM     70  C   UNL A   1      38.387  33.636  37.390  1.00  0.00     0.200 A 
ATOM     71  F   UNL A   1      39.600  35.442  36.473  1.00  0.00    -0.200 F 
ATOM     72  F   UNL A   1      37.941  34.422  38.381  1.00  0.00    -0.200 F 
ENDBRANCH  48  62
BRANCH  49  73
ATOM     73  C   UNL A   1      42.587  26.543  27.608  1.00  0.00     0.064 A 
ATOM     74  C   UNL A   1      42.131  25.235  27.392  1.00  0.00     0.173 A 
ATOM     75  C   UNL A   1      43.531  27.061  26.710  1.00  0.00     0.173 A 
ATOM     76  F   UNL A   1      41.244  24.687  28.236  1.00  0.00    -0.203 F 
ATOM     77  C   UNL A   1      42.616  24.470  26.334  1.00  0.00     0.198 A 
ATOM     78  C   UNL A   1      43.992  26.306  25.635  1.00  0.00     0.198 A 
ATOM     79  F   UNL A   1      43.995  28.311  26.871  1.00  0.00    -0.203 F 
ATOM     80  F   UNL A   1      42.199  23.206  26.179  1.00  0.00    -0.200 F 
ATOM     81  C   UNL A   1      43.542  25.007  25.453  1.00  0.00     0.200 A 
ATOM     82  F   UNL A   1      44.876  26.835  24.779  1.00  0.00    -0.200 F 
ATOM     83  F   UNL A   1      44.005  24.272  24.433  1.00  0.00    -0.200 F 
ENDBRANCH  49  73
BRANCH  61  84
ATOM     84  C   UNL A   1      44.965  27.680  34.047  1.00  0.00     0.064 A 
ATOM     85  C   UNL A   1      44.937  26.480  34.775  1.00  0.00     0.173 A 
ATOM     86  C   UNL A   1      46.168  28.403  34.022  1.00  0.00     0.173 A 
ATOM     87  F   UNL A   1      43.806  25.760  34.844  1.00  0.00    -0.203 F 
ATOM     88  C   UNL A   1      46.053  26.045  35.484  1.00  0.00     0.198 A 
ATOM     89  C   UNL A   1      47.292  27.947  34.705  1.00  0.00     0.198 A 
ATOM     90  F   UNL A   1      46.253  29.552  33.334  1.00  0.00    -0.203 F 
ATOM     91  F   UNL A   1      45.981  24.932  36.225  1.00  0.00    -0.200 F 
ATOM     92  C   UNL A   1      47.231  26.777  35.446  1.00  0.00     0.200 A 
ATOM     93  F   UNL A   1      48.433  28.649  34.656  1.00  0.00    -0.200 F 
ATOM     94  F   UNL A   1      48.302  26.359  36.132  1.00  0.00    -0.200 F 
ENDBRANCH  61  84
ENDBRANCH  35  36
ENDBRANCH  27  30
ENDBRANCH  25  26
ENDBRANCH  24  25
ENDBRANCH   1  24
TORSDOF 14
ENDMDL
MODEL 3
REMARK VINA RESULT:     -12.1      6.514     11.804
REMARK SMILES NC(=O)c1cccc(NC2(CC(=O)NCCCNC(=O)c3ccc(-c4c5nc(c(-c6c(F)c(F)c(F)c(F)c6F)c6ccc([nH]6)c(-c6c(F)c(F)c(F)c(F)c6F)c6nc(c(-c7c(F)c(F)c(F)c(F)c7F)c7ccc4[nH]7)C=C6)C=C5)cc3)CCC2)n1
REMARK SMILES IDX 15 1 14 2 12 3 13 4 11 6 10 7 84 8 86 9 85 10 9 11 8 13 4 14
REMARK SMILES IDX 5 15 87 16 6 17 7 18 2 19 1 20 3 23 16 24 17 25 18 26 19 27
REMARK SMILES IDX 20 29 21 30 22 31 83 32 23 33 82 34 24 35 25 36 26 37 76 38
REMARK SMILES IDX 27 39 81 40 75 41 77 42 28 43 80 44 74 45 73 46 29 48 61 49
REMARK SMILES IDX 41 50 60 51 42 52 45 53 59 54 78 55 43 56 44 57 58 59 79 60
REMARK SMILES IDX 46 61 30 62 31 63 39 64 32 65 33 66 37 67 40 68 34 69 35 70
REMARK SMILES IDX 38 71 36 72 62 73 63 74 71 75 64 76 65 77 69 78 72 79 66 80
REMARK SMILES IDX 67 81 70 82 68 83 47 84 48 85 56 86 49 87 50 88 54 89 57 90
REMARK SMILES IDX 51 91 52 92 55 93 53 94
REMARK H PARENT 14 5 9 12 1 21 1 22 18 28 77 47 45 58
REMARK Flexibility Score: inf
ROOT
ATOM      1  C   UNL A   1      36.368  19.979  24.995  1.00  0.00     0.117 C 
ENDROOT
BRANCH   1   2
ATOM      2  N   UNL A   1      36.472  21.339  25.487  1.00  0.00    -0.356 N 
ATOM      3  C   UNL A   1      35.543  22.090  26.137  1.00  0.00     0.222 C 
ATOM      4  O   UNL A   1      35.751  23.300  26.265  1.00  0.00    -0.275 OA
ATOM      5  H   UNL A   1      37.338  21.781  25.328  1.00  0.00     0.163 HD
BRANCH   3   6
ATOM      6  C   UNL A   1      34.283  21.464  26.695  1.00  0.00     0.128 C 
BRANCH   6   7
ATOM      7  C   UNL A   1      33.080  21.415  25.740  1.00  0.00     0.048 C 
ATOM      8  C   UNL A   1      33.419  21.963  24.319  1.00  0.00     0.029 C 
ATOM      9  C   UNL A   1      32.068  22.592  25.868  1.00  0.00     0.029 C 
ATOM     10  C   UNL A   1      32.828  23.317  24.745  1.00  0.00     0.005 C 
BRANCH   7  11
ATOM     11  N   UNL A   1      32.509  20.090  25.693  1.00  0.00    -0.364 N 
ATOM     12  H   UNL A   1      31.768  19.934  26.322  1.00  0.00     0.162 HD
BRANCH  11  13
ATOM     13  C   UNL A   1      32.847  18.988  24.889  1.00  0.00     0.127 A 
ATOM     14  C   UNL A   1      33.877  16.931  24.604  1.00  0.00     0.130 A 
ATOM     15  C   UNL A   1      33.564  16.875  23.254  1.00  0.00     0.034 A 
ATOM     16  N   UNL A   1      33.523  17.956  25.414  1.00  0.00    -0.226 NA
ATOM     17  C   UNL A   1      32.865  17.945  22.712  1.00  0.00     0.006 A 
ATOM     18  C   UNL A   1      32.517  19.016  23.534  1.00  0.00     0.047 A 
BRANCH  14  19
ATOM     19  C   UNL A   1      34.678  15.846  25.253  1.00  0.00     0.267 C 
ATOM     20  N   UNL A   1      35.909  16.203  25.749  1.00  0.00    -0.364 N 
ATOM     21  H   UNL A   1      36.478  15.529  26.186  1.00  0.00     0.160 HD
ATOM     22  H   UNL A   1      36.222  17.133  25.666  1.00  0.00     0.160 HD
ATOM     23  O   UNL A   1      34.270  14.701  25.376  1.00  0.00    -0.268 OA
ENDBRANCH  14  19
ENDBRANCH  11  13
ENDBRANCH   7  11
ENDBRANCH   6   7
ENDBRANCH   3   6
ENDBRANCH   1   2
BRANCH   1  24
ATOM     24  C   UNL A   1      37.746  19.332  24.865  1.00  0.00     0.042 C 
BRANCH  24  25
ATOM     25  C   UNL A   1      38.846  20.045  25.642  1.00  0.00     0.118 C 
BRANCH  25  26
ATOM     26  N   UNL A   1      40.001  19.190  25.868  1.00  0.00    -0.352 N 
ATOM     27  C   UNL A   1      41.312  19.493  26.126  1.00  0.00     0.251 C 
ATOM     28  H   UNL A   1      39.806  18.226  25.827  1.00  0.00     0.163 HD
ATOM     29  O   UNL A   1      42.150  18.597  26.043  1.00  0.00    -0.269 OA
BRANCH  27  30
ATOM     30  C   UNL A   1      41.748  20.860  26.499  1.00  0.00     0.039 A 
ATOM     31  C   UNL A   1      41.889  21.806  25.478  1.00  0.00     0.014 A 
ATOM     32  C   UNL A   1      42.104  21.205  27.806  1.00  0.00     0.014 A 
ATOM     33  C   UNL A   1      42.345  23.094  25.771  1.00  0.00     0.010 A 
ATOM     34  C   UNL A   1      42.478  22.515  28.112  1.00  0.00     0.010 A 
ATOM     35  C   UNL A   1      42.619  23.470  27.095  1.00  0.00    -0.014 A 
BRANCH  35  36
ATOM     36  C   UNL A   1      43.052  24.858  27.410  1.00  0.00     0.031 A 
ATOM     37  C   UNL A   1      44.454  25.315  27.115  1.00  0.00     0.074 A 
ATOM     38  C   UNL A   1      42.175  25.706  27.982  1.00  0.00     0.049 A 
ATOM     39  N   UNL A   1      44.994  26.497  27.292  1.00  0.00    -0.248 NA
ATOM     40  C   UNL A   1      45.383  24.311  26.572  1.00  0.00     0.031 C 
ATOM     41  C   UNL A   1      40.808  25.366  28.375  1.00  0.00     0.029 A 
ATOM     42  N   UNL A   1      42.301  27.028  28.327  1.00  0.00    -0.354 N 
ATOM     43  C   UNL A   1      46.319  26.374  26.891  1.00  0.00     0.074 A 
ATOM     44  C   UNL A   1      46.518  24.992  26.516  1.00  0.00     0.031 C 
ATOM     45  C   UNL A   1      40.208  26.459  28.869  1.00  0.00     0.029 A 
ATOM     46  C   UNL A   1      41.155  27.569  28.857  1.00  0.00     0.049 A 
ATOM     47  H   UNL A   1      43.134  27.540  28.206  1.00  0.00     0.167 HD
ATOM     48  C   UNL A   1      47.274  27.333  26.819  1.00  0.00     0.037 A 
ATOM     49  C   UNL A   1      40.894  28.821  29.276  1.00  0.00     0.037 A 
ATOM     50  C   UNL A   1      47.068  28.714  27.174  1.00  0.00     0.049 A 
ATOM     51  C   UNL A   1      41.965  29.870  29.162  1.00  0.00     0.074 A 
ATOM     52  C   UNL A   1      47.955  29.774  27.081  1.00  0.00     0.029 A 
ATOM     53  N   UNL A   1      45.889  29.228  27.694  1.00  0.00    -0.354 N 
ATOM     54  N   UNL A   1      43.190  29.760  28.710  1.00  0.00    -0.248 NA
ATOM     55  C   UNL A   1      41.609  31.225  29.605  1.00  0.00     0.031 C 
ATOM     56  C   UNL A   1      47.327  30.918  27.586  1.00  0.00     0.029 A 
ATOM     57  C   UNL A   1      46.032  30.584  27.947  1.00  0.00     0.049 A 
ATOM     58  H   UNL A   1      45.070  28.707  27.860  1.00  0.00     0.167 HD
ATOM     59  C   UNL A   1      43.744  31.028  28.795  1.00  0.00     0.074 A 
ATOM     60  C   UNL A   1      42.711  31.900  29.315  1.00  0.00     0.031 C 
ATOM     61  C   UNL A   1      44.999  31.437  28.475  1.00  0.00     0.037 A 
BRANCH  48  62
ATOM     62  C   UNL A   1      48.635  26.923  26.330  1.00  0.00     0.064 A 
ATOM     63  C   UNL A   1      49.584  26.349  27.190  1.00  0.00     0.173 A 
ATOM     64  C   UNL A   1      48.981  27.069  24.977  1.00  0.00     0.173 A 
ATOM     65  F   UNL A   1      49.309  26.197  28.494  1.00  0.00    -0.203 F 
ATOM     66  C   UNL A   1      50.838  25.964  26.721  1.00  0.00     0.198 A 
ATOM     67  C   UNL A   1      50.225  26.655  24.506  1.00  0.00     0.198 A 
ATOM     68  F   UNL A   1      48.110  27.606  24.110  1.00  0.00    -0.203 F 
ATOM     69  F   UNL A   1      51.745  25.463  27.572  1.00  0.00    -0.200 F 
ATOM     70  C   UNL A   1      51.154  26.110  25.379  1.00  0.00     0.200 A 
ATOM     71  F   UNL A   1      50.524  26.785  23.207  1.00  0.00    -0.200 F 
ATOM     72  F   UNL A   1      52.358  25.732  24.928  1.00  0.00    -0.200 F 
ENDBRANCH  48  62
BRANCH  49  73
ATOM     73  C   UNL A   1      39.548  29.159  29.805  1.00  0.00     0.064 A 
ATOM     74  C   UNL A   1      39.243  28.988  31.163  1.00  0.00     0.173 A 
ATOM     75  C   UNL A   1      38.540  29.657  28.968  1.00  0.00     0.173 A 
ATOM     76  F   UNL A   1      40.168  28.495  31.999  1.00  0.00    -0.203 F 
ATOM     77  C   UNL A   1      37.975  29.281  31.658  1.00  0.00     0.198 A 
ATOM     78  C   UNL A   1      37.281  29.978  29.469  1.00  0.00     0.198 A 
ATOM     79  F   UNL A   1      38.783  29.844  27.661  1.00  0.00    -0.203 F 
ATOM     80  F   UNL A   1      37.696  29.063  32.950  1.00  0.00    -0.200 F 
ATOM     81  C   UNL A   1      36.996  29.782  30.813  1.00  0.00     0.200 A 
ATOM     82  F   UNL A   1      36.343  30.475  28.652  1.00  0.00    -0.200 F 
ATOM     83  F   UNL A   1      35.777  30.067  31.290  1.00  0.00    -0.200 F 
ENDBRANCH  49  73
BRANCH  61  84
ATOM     84  C   UNL A   1      45.307  32.893  28.668  1.00  0.00     0.064 A 
ATOM     85  C   UNL A   1      45.031  33.842  27.671  1.00  0.00     0.173 A 
ATOM     86  C   UNL A   1      45.889  33.347  29.862  1.00  0.00     0.173 A 
ATOM     87  F   UNL A   1      44.490  33.457  26.504  1.00  0.00    -0.203 F 
ATOM     88  C   UNL A   1      45.365  35.182  27.845  1.00  0.00     0.198 A 
ATOM     89  C   UNL A   1      46.190  34.693  30.045  1.00  0.00     0.198 A 
ATOM     90  F   UNL A   1      46.165  32.483  30.851  1.00  0.00    -0.203 F 
ATOM     91  F   UNL A   1      45.153  36.058  26.853  1.00  0.00    -0.200 F 
ATOM     92  C   UNL A   1      45.940  35.608  29.033  1.00  0.00     0.200 A 
ATOM     93  F   UNL A   1      46.733  35.105  31.199  1.00  0.00    -0.200 F 
ATOM     94  F   UNL A   1      46.265  36.897  29.198  1.00  0.00    -0.200 F 
ENDBRANCH  61  84
ENDBRANCH  35  36
ENDBRANCH  27  30
ENDBRANCH  25  26
ENDBRANCH  24  25
ENDBRANCH   1  24
TORSDOF 14
ENDMDL
