MODEL 1
REMARK VINA RESULT:     -13.1      0.000      0.000
REMARK SMILES C/C(=N/N=c1\[nH]c(O)c(C(=O)NCCCNC(=O)c2ccc(-c3c4nc(c(-c5c(F)c(F)c(F)c(F)c5F)c5ccc([nH]5)c(-c5c(F)c(F)c(F)c(F)c5F)c5nc(c(-c6c(F)c(F)c(F)c(F)c6F)c6ccc3[nH]6)C=C5)C=C4)cc2)s1)c1ccc2c(c1)OCO2
REMARK SMILES IDX 14 1 13 2 12 3 10 4 11 5 9 7 4 8 5 9 6 10 82 11 7 12 3 14
REMARK SMILES IDX 1 15 2 16 83 17 84 18 88 19 85 20 87 21 86 22 89 23 91 24
REMARK SMILES IDX 90 25 8 26 15 28 16 29 17 30 18 32 19 33 20 34 81 35 21 36
REMARK SMILES IDX 80 37 22 38 23 39 24 40 74 41 25 42 79 43 73 44 75 45 26 46
REMARK SMILES IDX 78 47 72 48 71 49 27 51 59 52 39 53 58 54 40 55 43 56 57 57
REMARK SMILES IDX 76 58 41 59 42 60 56 62 77 63 44 64 28 65 29 66 37 67 30 68
REMARK SMILES IDX 31 69 35 70 38 71 32 72 33 73 36 74 34 75 60 76 61 77 69 78
REMARK SMILES IDX 62 79 63 80 67 81 70 82 64 83 65 84 68 85 66 86 45 87 46 88
REMARK SMILES IDX 54 89 47 90 48 91 52 92 55 93 49 94 50 95 53 96 51 97
REMARK H PARENT 12 6 6 13 8 27 16 31 75 50 43 61
REMARK Flexibility Score: inf
ROOT
ATOM      1  C   UNL A   1      34.454  33.684  28.476  1.00  0.00     0.042 C 
ENDROOT
BRANCH   1   2
ATOM      2  C   UNL A   1      34.784  34.881  29.381  1.00  0.00     0.118 C 
BRANCH   2   3
ATOM      3  N   UNL A   1      33.610  35.675  29.741  1.00  0.00    -0.351 N 
ATOM      4  C   UNL A   1      33.096  36.036  30.961  1.00  0.00     0.266 C 
ATOM      5  O   UNL A   1      32.153  36.828  30.969  1.00  0.00    -0.268 OA
ATOM      6  H   UNL A   1      33.096  36.009  28.969  1.00  0.00     0.163 HD
BRANCH   4   7
ATOM      7  C   UNL A   1      33.668  35.509  32.225  1.00  0.00     0.155 A 
ATOM      8  N   UNL A   1      35.480  33.141  34.435  1.00  0.00    -0.121 NA
ATOM      9  C   UNL A   1      34.797  34.116  33.963  1.00  0.00     0.211 A 
ATOM     10  N   UNL A   1      34.683  35.445  34.273  1.00  0.00    -0.300 N 
ATOM     11  S   UNL A   1      33.824  33.794  32.528  1.00  0.00    -0.086 S 
ATOM     12  C   UNL A   1      34.088  36.214  33.299  1.00  0.00     0.214 A 
ATOM     13  H   UNL A   1      35.001  35.820  35.125  1.00  0.00     0.172 HD
BRANCH   8  14
ATOM     14  N   UNL A   1      36.279  33.453  35.521  1.00  0.00    -0.152 NA
ATOM     15  C   UNL A   1      38.586  33.547  36.275  1.00  0.00     0.069 C 
ATOM     16  C   UNL A   1      37.541  33.398  35.201  1.00  0.00     0.067 C 
BRANCH  16  17
ATOM     17  C   UNL A   1      38.068  33.167  33.832  1.00  0.00     0.001 A 
ATOM     18  C   UNL A   1      38.344  31.854  33.394  1.00  0.00     0.014 A 
ATOM     19  C   UNL A   1      38.190  34.264  32.976  1.00  0.00     0.060 A 
ATOM     20  C   UNL A   1      38.704  31.624  32.061  1.00  0.00     0.051 A 
ATOM     21  C   UNL A   1      38.510  33.996  31.667  1.00  0.00     0.166 A 
ATOM     22  C   UNL A   1      38.747  32.715  31.217  1.00  0.00     0.165 A 
ATOM     23  O   UNL A   1      38.573  34.916  30.666  1.00  0.00    -0.454 OA
ATOM     24  O   UNL A   1      38.973  32.680  29.875  1.00  0.00    -0.454 OA
ATOM     25  C   UNL A   1      38.636  34.039  29.522  1.00  0.00     0.468 C 
ENDBRANCH  16  17
ENDBRANCH   8  14
BRANCH  12  26
ATOM     26  O   UNL A   1      34.028  37.565  33.447  1.00  0.00    -0.493 OA
ATOM     27  H   UNL A   1      33.867  38.110  32.703  1.00  0.00     0.295 HD
ENDBRANCH  12  26
ENDBRANCH   4   7
ENDBRANCH   2   3
ENDBRANCH   1   2
BRANCH   1  28
ATOM     28  C   UNL A   1      34.509  32.355  29.204  1.00  0.00     0.118 C 
BRANCH  28  29
ATOM     29  N   UNL A   1      34.056  31.235  28.377  1.00  0.00    -0.352 N 
ATOM     30  C   UNL A   1      34.810  30.233  27.788  1.00  0.00     0.251 C 
ATOM     31  H   UNL A   1      33.085  31.188  28.216  1.00  0.00     0.163 HD
ATOM     32  O   UNL A   1      34.374  29.578  26.860  1.00  0.00    -0.269 OA
BRANCH  30  33
ATOM     33  C   UNL A   1      36.164  29.980  28.312  1.00  0.00     0.039 A 
ATOM     34  C   UNL A   1      36.369  29.328  29.531  1.00  0.00     0.014 A 
ATOM     35  C   UNL A   1      37.237  30.366  27.521  1.00  0.00     0.014 A 
ATOM     36  C   UNL A   1      37.671  28.989  29.895  1.00  0.00     0.010 A 
ATOM     37  C   UNL A   1      38.474  29.845  27.770  1.00  0.00     0.010 A 
ATOM     38  C   UNL A   1      38.716  29.231  28.991  1.00  0.00    -0.014 A 
BRANCH  38  39
ATOM     39  C   UNL A   1      40.070  28.752  29.242  1.00  0.00     0.031 A 
ATOM     40  C   UNL A   1      40.414  28.673  30.684  1.00  0.00     0.074 A 
ATOM     41  C   UNL A   1      40.820  28.183  28.270  1.00  0.00     0.049 A 
ATOM     42  N   UNL A   1      41.275  29.388  31.328  1.00  0.00    -0.248 NA
ATOM     43  C   UNL A   1      39.603  27.801  31.553  1.00  0.00     0.031 C 
ATOM     44  C   UNL A   1      40.404  27.885  26.890  1.00  0.00     0.029 A 
ATOM     45  N   UNL A   1      42.065  27.626  28.328  1.00  0.00    -0.354 N 
ATOM     46  C   UNL A   1      41.295  28.869  32.622  1.00  0.00     0.074 A 
ATOM     47  C   UNL A   1      40.103  28.080  32.759  1.00  0.00     0.031 C 
ATOM     48  C   UNL A   1      41.253  26.993  26.338  1.00  0.00     0.029 A 
ATOM     49  C   UNL A   1      42.374  26.816  27.238  1.00  0.00     0.049 A 
ATOM     50  H   UNL A   1      42.689  27.784  29.073  1.00  0.00     0.167 HD
ATOM     51  C   UNL A   1      42.462  28.851  33.325  1.00  0.00     0.037 A 
ATOM     52  C   UNL A   1      43.476  26.048  27.076  1.00  0.00     0.037 A 
ATOM     53  C   UNL A   1      43.450  29.672  32.674  1.00  0.00     0.049 A 
ATOM     54  C   UNL A   1      44.517  26.559  27.992  1.00  0.00     0.074 A 
ATOM     55  C   UNL A   1      43.727  31.015  32.560  1.00  0.00     0.029 A 
ATOM     56  N   UNL A   1      44.105  29.029  31.659  1.00  0.00    -0.354 N 
ATOM     57  N   UNL A   1      45.071  27.733  27.861  1.00  0.00    -0.248 NA
ATOM     58  C   UNL A   1      44.700  25.919  29.290  1.00  0.00     0.031 C 
ATOM     59  C   UNL A   1      44.487  31.167  31.361  1.00  0.00     0.029 A 
ATOM     60  C   UNL A   1      44.694  29.911  30.796  1.00  0.00     0.049 A 
ATOM     61  H   UNL A   1      44.146  28.051  31.562  1.00  0.00     0.167 HD
ATOM     62  C   UNL A   1      45.281  28.151  29.159  1.00  0.00     0.074 A 
ATOM     63  C   UNL A   1      45.212  26.946  29.974  1.00  0.00     0.031 C 
ATOM     64  C   UNL A   1      45.137  29.464  29.496  1.00  0.00     0.037 A 
BRANCH  51  65
ATOM     65  C   UNL A   1      42.909  27.740  34.259  1.00  0.00     0.064 A 
ATOM     66  C   UNL A   1      43.231  26.481  33.704  1.00  0.00     0.173 A 
ATOM     67  C   UNL A   1      42.722  27.748  35.658  1.00  0.00     0.173 A 
ATOM     68  F   UNL A   1      43.417  26.344  32.382  1.00  0.00    -0.203 F 
ATOM     69  C   UNL A   1      43.282  25.317  34.479  1.00  0.00     0.198 A 
ATOM     70  C   UNL A   1      42.824  26.594  36.436  1.00  0.00     0.198 A 
ATOM     71  F   UNL A   1      42.321  28.837  36.321  1.00  0.00    -0.203 F 
ATOM     72  F   UNL A   1      43.469  24.130  33.888  1.00  0.00    -0.200 F 
ATOM     73  C   UNL A   1      43.071  25.374  35.844  1.00  0.00     0.200 A 
ATOM     74  F   UNL A   1      42.594  26.668  37.754  1.00  0.00    -0.200 F 
ATOM     75  F   UNL A   1      43.061  24.257  36.581  1.00  0.00    -0.200 F 
ENDBRANCH  51  65
BRANCH  52  76
ATOM     76  C   UNL A   1      43.620  24.775  26.336  1.00  0.00     0.064 A 
ATOM     77  C   UNL A   1      44.582  24.618  25.328  1.00  0.00     0.173 A 
ATOM     78  C   UNL A   1      43.000  23.601  26.804  1.00  0.00     0.173 A 
ATOM     79  F   UNL A   1      45.244  25.685  24.857  1.00  0.00    -0.203 F 
ATOM     80  C   UNL A   1      44.928  23.355  24.836  1.00  0.00     0.198 A 
ATOM     81  C   UNL A   1      43.344  22.341  26.311  1.00  0.00     0.198 A 
ATOM     82  F   UNL A   1      42.119  23.650  27.814  1.00  0.00    -0.203 F 
ATOM     83  F   UNL A   1      45.896  23.238  23.916  1.00  0.00    -0.200 F 
ATOM     84  C   UNL A   1      44.318  22.217  25.339  1.00  0.00     0.200 A 
ATOM     85  F   UNL A   1      42.776  21.244  26.832  1.00  0.00    -0.200 F 
ATOM     86  F   UNL A   1      44.698  21.002  24.917  1.00  0.00    -0.200 F 
ENDBRANCH  52  76
BRANCH  64  87
ATOM     87  C   UNL A   1      45.302  30.480  28.412  1.00  0.00     0.064 A 
ATOM     88  C   UNL A   1      44.263  30.956  27.598  1.00  0.00     0.173 A 
ATOM     89  C   UNL A   1      46.572  31.049  28.247  1.00  0.00     0.173 A 
ATOM     90  F   UNL A   1      43.010  30.510  27.746  1.00  0.00    -0.203 F 
ATOM     91  C   UNL A   1      44.500  31.938  26.636  1.00  0.00     0.198 A 
ATOM     92  C   UNL A   1      46.796  32.052  27.314  1.00  0.00     0.198 A 
ATOM     93  F   UNL A   1      47.590  30.653  29.027  1.00  0.00    -0.203 F 
ATOM     94  F   UNL A   1      43.498  32.370  25.855  1.00  0.00    -0.200 F 
ATOM     95  C   UNL A   1      45.764  32.490  26.501  1.00  0.00     0.200 A 
ATOM     96  F   UNL A   1      48.012  32.609  27.216  1.00  0.00    -0.200 F 
ATOM     97  F   UNL A   1      45.983  33.458  25.600  1.00  0.00    -0.200 F 
ENDBRANCH  64  87
ENDBRANCH  38  39
ENDBRANCH  30  33
ENDBRANCH  28  29
ENDBRANCH   1  28
TORSDOF 13
ENDMDL
MODEL 2
REMARK VINA RESULT:     -13.0      4.911      9.881
REMARK SMILES C/C(=N/N=c1\[nH]c(O)c(C(=O)NCCCNC(=O)c2ccc(-c3c4nc(c(-c5c(F)c(F)c(F)c(F)c5F)c5ccc([nH]5)c(-c5c(F)c(F)c(F)c(F)c5F)c5nc(c(-c6c(F)c(F)c(F)c(F)c6F)c6ccc3[nH]6)C=C5)C=C4)cc2)s1)c1ccc2c(c1)OCO2
REMARK SMILES IDX 14 1 13 2 12 3 10 4 11 5 9 7 4 8 5 9 6 10 82 11 7 12 3 14
REMARK SMILES IDX 1 15 2 16 83 17 84 18 88 19 85 20 87 21 86 22 89 23 91 24
REMARK SMILES IDX 90 25 8 26 15 28 16 29 17 30 18 32 19 33 20 34 81 35 21 36
REMARK SMILES IDX 80 37 22 38 23 39 24 40 74 41 25 42 79 43 73 44 75 45 26 46
REMARK SMILES IDX 78 47 72 48 71 49 27 51 59 52 39 53 58 54 40 55 43 56 57 57
REMARK SMILES IDX 76 58 41 59 42 60 56 62 77 63 44 64 28 65 29 66 37 67 30 68
REMARK SMILES IDX 31 69 35 70 38 71 32 72 33 73 36 74 34 75 60 76 61 77 69 78
REMARK SMILES IDX 62 79 63 80 67 81 70 82 64 83 65 84 68 85 66 86 45 87 46 88
REMARK SMILES IDX 54 89 47 90 48 91 52 92 55 93 49 94 50 95 53 96 51 97
REMARK H PARENT 12 6 6 13 8 27 16 31 75 50 43 61
REMARK Flexibility Score: inf
ROOT
ATOM      1  C   UNL A   1      37.874  19.400  25.029  1.00  0.00     0.042 C 
ENDROOT
BRANCH   1   2
ATOM      2  C   UNL A   1      36.720  20.413  24.967  1.00  0.00     0.118 C 
BRANCH   2   3
ATOM      3  N   UNL A   1      35.403  19.783  24.874  1.00  0.00    -0.351 N 
ATOM      4  C   UNL A   1      34.140  20.290  25.048  1.00  0.00     0.266 C 
ATOM      5  O   UNL A   1      33.190  19.553  24.780  1.00  0.00    -0.268 OA
ATOM      6  H   UNL A   1      35.428  18.825  24.647  1.00  0.00     0.163 HD
BRANCH   4   7
ATOM      7  C   UNL A   1      33.924  21.680  25.521  1.00  0.00     0.155 A 
ATOM      8  N   UNL A   1      32.284  25.002  25.745  1.00  0.00    -0.121 NA
ATOM      9  C   UNL A   1      33.072  24.000  25.875  1.00  0.00     0.211 A 
ATOM     10  N   UNL A   1      33.821  23.498  26.904  1.00  0.00    -0.300 N 
ATOM     11  S   UNL A   1      33.213  22.907  24.498  1.00  0.00    -0.086 S 
ATOM     12  C   UNL A   1      34.262  22.207  26.718  1.00  0.00     0.214 A 
ATOM     13  H   UNL A   1      34.028  24.018  27.714  1.00  0.00     0.172 HD
BRANCH   8  14
ATOM     14  N   UNL A   1      32.152  25.797  26.870  1.00  0.00    -0.152 NA
ATOM     15  C   UNL A   1      31.434  27.990  27.628  1.00  0.00     0.069 C 
ATOM     16  C   UNL A   1      31.542  26.912  26.582  1.00  0.00     0.067 C 
BRANCH  16  17
ATOM     17  C   UNL A   1      30.943  27.245  25.265  1.00  0.00     0.001 A 
ATOM     18  C   UNL A   1      29.763  26.597  24.842  1.00  0.00     0.014 A 
ATOM     19  C   UNL A   1      31.521  28.272  24.516  1.00  0.00     0.060 A 
ATOM     20  C   UNL A   1      29.119  27.011  23.670  1.00  0.00     0.051 A 
ATOM     21  C   UNL A   1      30.842  28.676  23.391  1.00  0.00     0.166 A 
ATOM     22  C   UNL A   1      29.670  28.075  22.986  1.00  0.00     0.165 A 
ATOM     23  O   UNL A   1      31.189  29.722  22.593  1.00  0.00    -0.454 OA
ATOM     24  O   UNL A   1      29.137  28.685  21.891  1.00  0.00    -0.454 OA
ATOM     25  C   UNL A   1      29.989  29.847  21.804  1.00  0.00     0.468 C 
ENDBRANCH  16  17
ENDBRANCH   8  14
BRANCH  12  26
ATOM     26  O   UNL A   1      34.915  21.565  27.724  1.00  0.00    -0.493 OA
ATOM     27  H   UNL A   1      34.460  20.940  28.253  1.00  0.00     0.295 HD
ENDBRANCH  12  26
ENDBRANCH   4   7
ENDBRANCH   2   3
ENDBRANCH   1   2
BRANCH   1  28
ATOM     28  C   UNL A   1      39.102  19.942  25.735  1.00  0.00     0.118 C 
BRANCH  28  29
ATOM     29  N   UNL A   1      40.206  18.981  25.771  1.00  0.00    -0.352 N 
ATOM     30  C   UNL A   1      41.559  19.223  25.944  1.00  0.00     0.251 C 
ATOM     31  H   UNL A   1      39.954  18.036  25.655  1.00  0.00     0.163 HD
ATOM     32  O   UNL A   1      42.395  18.403  25.613  1.00  0.00    -0.269 OA
BRANCH  30  33
ATOM     33  C   UNL A   1      41.967  20.509  26.538  1.00  0.00     0.039 A 
ATOM     34  C   UNL A   1      42.432  21.566  25.750  1.00  0.00     0.014 A 
ATOM     35  C   UNL A   1      41.817  20.655  27.910  1.00  0.00     0.014 A 
ATOM     36  C   UNL A   1      42.657  22.800  26.357  1.00  0.00     0.010 A 
ATOM     37  C   UNL A   1      41.828  21.907  28.455  1.00  0.00     0.010 A 
ATOM     38  C   UNL A   1      42.326  22.965  27.710  1.00  0.00    -0.014 A 
BRANCH  38  39
ATOM     39  C   UNL A   1      42.383  24.270  28.357  1.00  0.00     0.031 A 
ATOM     40  C   UNL A   1      41.197  25.121  28.083  1.00  0.00     0.074 A 
ATOM     41  C   UNL A   1      43.290  24.554  29.320  1.00  0.00     0.049 A 
ATOM     42  N   UNL A   1      41.154  26.216  27.400  1.00  0.00    -0.248 NA
ATOM     43  C   UNL A   1      39.869  24.625  28.486  1.00  0.00     0.031 C 
ATOM     44  C   UNL A   1      44.269  23.630  29.915  1.00  0.00     0.029 A 
ATOM     45  N   UNL A   1      43.454  25.680  30.074  1.00  0.00    -0.354 N 
ATOM     46  C   UNL A   1      39.843  26.675  27.515  1.00  0.00     0.074 A 
ATOM     47  C   UNL A   1      39.064  25.560  27.975  1.00  0.00     0.031 C 
ATOM     48  C   UNL A   1      44.727  24.135  31.079  1.00  0.00     0.029 A 
ATOM     49  C   UNL A   1      44.239  25.492  31.209  1.00  0.00     0.049 A 
ATOM     50  H   UNL A   1      43.054  26.548  29.836  1.00  0.00     0.167 HD
ATOM     51  C   UNL A   1      39.597  28.015  27.563  1.00  0.00     0.037 A 
ATOM     52  C   UNL A   1      44.478  26.386  32.196  1.00  0.00     0.037 A 
ATOM     53  C   UNL A   1      40.774  28.751  27.179  1.00  0.00     0.049 A 
ATOM     54  C   UNL A   1      44.185  27.732  31.662  1.00  0.00     0.074 A 
ATOM     55  C   UNL A   1      41.424  29.076  26.011  1.00  0.00     0.029 A 
ATOM     56  N   UNL A   1      41.663  28.924  28.206  1.00  0.00    -0.354 N 
ATOM     57  N   UNL A   1      44.882  28.291  30.711  1.00  0.00    -0.248 NA
ATOM     58  C   UNL A   1      42.881  28.334  31.922  1.00  0.00     0.031 C 
ATOM     59  C   UNL A   1      42.781  29.342  26.368  1.00  0.00     0.029 A 
ATOM     60  C   UNL A   1      42.917  29.219  27.748  1.00  0.00     0.049 A 
ATOM     61  H   UNL A   1      41.428  28.846  29.159  1.00  0.00     0.167 HD
ATOM     62  C   UNL A   1      43.949  29.005  29.986  1.00  0.00     0.074 A 
ATOM     63  C   UNL A   1      42.796  29.147  30.865  1.00  0.00     0.031 C 
ATOM     64  C   UNL A   1      44.054  29.106  28.631  1.00  0.00     0.037 A 
BRANCH  51  65
ATOM     65  C   UNL A   1      38.541  28.685  28.422  1.00  0.00     0.064 A 
ATOM     66  C   UNL A   1      37.793  29.747  27.866  1.00  0.00     0.173 A 
ATOM     67  C   UNL A   1      38.458  28.566  29.827  1.00  0.00     0.173 A 
ATOM     68  F   UNL A   1      37.805  29.972  26.543  1.00  0.00    -0.203 F 
ATOM     69  C   UNL A   1      37.087  30.658  28.661  1.00  0.00     0.198 A 
ATOM     70  C   UNL A   1      37.712  29.444  30.612  1.00  0.00     0.198 A 
ATOM     71  F   UNL A   1      39.180  27.674  30.513  1.00  0.00    -0.203 F 
ATOM     72  F   UNL A   1      36.496  31.718  28.096  1.00  0.00    -0.200 F 
ATOM     73  C   UNL A   1      37.054  30.509  30.035  1.00  0.00     0.200 A 
ATOM     74  F   UNL A   1      37.712  29.296  31.944  1.00  0.00    -0.200 F 
ATOM     75  F   UNL A   1      36.430  31.409  30.805  1.00  0.00    -0.200 F 
ENDBRANCH  51  65
BRANCH  52  76
ATOM     76  C   UNL A   1      44.742  26.138  33.630  1.00  0.00     0.064 A 
ATOM     77  C   UNL A   1      43.699  25.902  34.537  1.00  0.00     0.173 A 
ATOM     78  C   UNL A   1      46.045  25.851  34.080  1.00  0.00     0.173 A 
ATOM     79  F   UNL A   1      42.427  26.116  34.170  1.00  0.00    -0.203 F 
ATOM     80  C   UNL A   1      43.941  25.379  35.812  1.00  0.00     0.198 A 
ATOM     81  C   UNL A   1      46.286  25.330  35.352  1.00  0.00     0.198 A 
ATOM     82  F   UNL A   1      47.096  25.982  33.256  1.00  0.00    -0.203 F 
ATOM     83  F   UNL A   1      42.914  25.108  36.630  1.00  0.00    -0.200 F 
ATOM     84  C   UNL A   1      45.233  25.080  36.212  1.00  0.00     0.200 A 
ATOM     85  F   UNL A   1      47.537  25.009  35.714  1.00  0.00    -0.200 F 
ATOM     86  F   UNL A   1      45.459  24.514  37.406  1.00  0.00    -0.200 F 
ENDBRANCH  52  76
BRANCH  64  87
ATOM     87  C   UNL A   1      45.410  28.937  28.026  1.00  0.00     0.064 A 
ATOM     88  C   UNL A   1      45.920  27.727  27.531  1.00  0.00     0.173 A 
ATOM     89  C   UNL A   1      46.200  30.085  27.879  1.00  0.00     0.173 A 
ATOM     90  F   UNL A   1      45.194  26.603  27.574  1.00  0.00    -0.203 F 
ATOM     91  C   UNL A   1      47.184  27.668  26.944  1.00  0.00     0.198 A 
ATOM     92  C   UNL A   1      47.442  30.030  27.261  1.00  0.00     0.198 A 
ATOM     93  F   UNL A   1      45.742  31.273  28.303  1.00  0.00    -0.203 F 
ATOM     94  F   UNL A   1      47.661  26.499  26.491  1.00  0.00    -0.200 F 
ATOM     95  C   UNL A   1      47.939  28.822  26.803  1.00  0.00     0.200 A 
ATOM     96  F   UNL A   1      48.150  31.156  27.092  1.00  0.00    -0.200 F 
ATOM     97  F   UNL A   1      49.140  28.771  26.207  1.00  0.00    -0.200 F 
ENDBRANCH  64  87
ENDBRANCH  38  39
ENDBRANCH  30  33
ENDBRANCH  28  29
ENDBRANCH   1  28
TORSDOF 13
ENDMDL
MODEL 3
REMARK VINA RESULT:     -12.7      4.816     10.727
REMARK SMILES C/C(=N/N=c1\[nH]c(O)c(C(=O)NCCCNC(=O)c2ccc(-c3c4nc(c(-c5c(F)c(F)c(F)c(F)c5F)c5ccc([nH]5)c(-c5c(F)c(F)c(F)c(F)c5F)c5nc(c(-c6c(F)c(F)c(F)c(F)c6F)c6ccc3[nH]6)C=C5)C=C4)cc2)s1)c1ccc2c(c1)OCO2
REMARK SMILES IDX 14 1 13 2 12 3 10 4 11 5 9 7 4 8 5 9 6 10 82 11 7 12 3 14
REMARK SMILES IDX 1 15 2 16 83 17 84 18 88 19 85 20 87 21 86 22 89 23 91 24
REMARK SMILES IDX 90 25 8 26 15 28 16 29 17 30 18 32 19 33 20 34 81 35 21 36
REMARK SMILES IDX 80 37 22 38 23 39 24 40 74 41 25 42 79 43 73 44 75 45 26 46
REMARK SMILES IDX 78 47 72 48 71 49 27 51 59 52 39 53 58 54 40 55 43 56 57 57
REMARK SMILES IDX 76 58 41 59 42 60 56 62 77 63 44 64 28 65 29 66 37 67 30 68
REMARK SMILES IDX 31 69 35 70 38 71 32 72 33 73 36 74 34 75 60 76 61 77 69 78
REMARK SMILES IDX 62 79 63 80 67 81 70 82 64 83 65 84 68 85 66 86 45 87 46 88
REMARK SMILES IDX 54 89 47 90 48 91 52 92 55 93 49 94 50 95 53 96 51 97
REMARK H PARENT 12 6 6 13 8 27 16 31 75 50 43 61
REMARK Flexibility Score: inf
ROOT
ATOM      1  C   UNL A   1      36.833  23.064  24.931  1.00  0.00     0.042 C 
ENDROOT
BRANCH   1   2
ATOM      2  C   UNL A   1      35.333  22.956  25.248  1.00  0.00     0.118 C 
BRANCH   2   3
ATOM      3  N   UNL A   1      34.790  21.616  25.026  1.00  0.00    -0.351 N 
ATOM      4  C   UNL A   1      33.576  21.197  24.542  1.00  0.00     0.266 C 
ATOM      5  O   UNL A   1      33.432  19.991  24.338  1.00  0.00    -0.268 OA
ATOM      6  H   UNL A   1      35.405  20.886  25.267  1.00  0.00     0.163 HD
BRANCH   4   7
ATOM      7  C   UNL A   1      32.485  22.161  24.255  1.00  0.00     0.155 A 
ATOM      8  N   UNL A   1      30.384  25.186  24.715  1.00  0.00    -0.121 NA
ATOM      9  C   UNL A   1      30.884  24.077  24.316  1.00  0.00     0.211 A 
ATOM     10  N   UNL A   1      31.004  23.463  23.098  1.00  0.00    -0.300 N 
ATOM     11  S   UNL A   1      31.714  23.091  25.520  1.00  0.00    -0.086 S 
ATOM     12  C   UNL A   1      31.910  22.428  23.062  1.00  0.00     0.214 A 
ATOM     13  H   UNL A   1      30.482  23.740  22.311  1.00  0.00     0.172 HD
BRANCH   8  14
ATOM     14  N   UNL A   1      29.800  25.959  23.727  1.00  0.00    -0.152 NA
ATOM     15  C   UNL A   1      29.728  28.203  22.801  1.00  0.00     0.069 C 
ATOM     16  C   UNL A   1      30.326  27.150  23.697  1.00  0.00     0.067 C 
BRANCH  16  17
ATOM     17  C   UNL A   1      31.486  27.596  24.509  1.00  0.00     0.001 A 
ATOM     18  C   UNL A   1      32.797  27.250  24.118  1.00  0.00     0.014 A 
ATOM     19  C   UNL A   1      31.246  28.435  25.600  1.00  0.00     0.060 A 
ATOM     20  C   UNL A   1      33.894  27.788  24.799  1.00  0.00     0.051 A 
ATOM     21  C   UNL A   1      32.348  28.972  26.223  1.00  0.00     0.166 A 
ATOM     22  C   UNL A   1      33.633  28.670  25.827  1.00  0.00     0.165 A 
ATOM     23  O   UNL A   1      32.318  29.885  27.231  1.00  0.00    -0.454 OA
ATOM     24  O   UNL A   1      34.561  29.372  26.536  1.00  0.00    -0.454 OA
ATOM     25  C   UNL A   1      33.702  30.287  27.249  1.00  0.00     0.468 C 
ENDBRANCH  16  17
ENDBRANCH   8  14
BRANCH  12  26
ATOM     26  O   UNL A   1      32.198  21.822  21.878  1.00  0.00    -0.493 OA
ATOM     27  H   UNL A   1      32.106  22.297  21.076  1.00  0.00     0.295 HD
ENDBRANCH  12  26
ENDBRANCH   4   7
ENDBRANCH   2   3
ENDBRANCH   1   2
BRANCH   1  28
ATOM     28  C   UNL A   1      37.670  23.432  26.140  1.00  0.00     0.118 C 
BRANCH  28  29
ATOM     29  N   UNL A   1      38.786  22.509  26.359  1.00  0.00    -0.352 N 
ATOM     30  C   UNL A   1      40.130  22.800  26.529  1.00  0.00     0.251 C 
ATOM     31  H   UNL A   1      38.550  21.553  26.389  1.00  0.00     0.163 HD
ATOM     32  O   UNL A   1      40.986  21.953  26.357  1.00  0.00    -0.269 OA
BRANCH  30  33
ATOM     33  C   UNL A   1      40.502  24.172  26.920  1.00  0.00     0.039 A 
ATOM     34  C   UNL A   1      40.215  25.270  26.105  1.00  0.00     0.014 A 
ATOM     35  C   UNL A   1      41.100  24.342  28.160  1.00  0.00     0.014 A 
ATOM     36  C   UNL A   1      40.458  26.550  26.600  1.00  0.00     0.010 A 
ATOM     37  C   UNL A   1      41.133  25.586  28.723  1.00  0.00     0.010 A 
ATOM     38  C   UNL A   1      40.895  26.696  27.925  1.00  0.00    -0.014 A 
BRANCH  38  39
ATOM     39  C   UNL A   1      41.009  28.007  28.553  1.00  0.00     0.031 A 
ATOM     40  C   UNL A   1      42.153  28.808  28.051  1.00  0.00     0.074 A 
ATOM     41  C   UNL A   1      40.013  28.530  29.305  1.00  0.00     0.049 A 
ATOM     42  N   UNL A   1      43.215  29.157  28.698  1.00  0.00    -0.248 NA
ATOM     43  C   UNL A   1      42.203  29.139  26.615  1.00  0.00     0.031 C 
ATOM     44  C   UNL A   1      38.683  27.946  29.544  1.00  0.00     0.029 A 
ATOM     45  N   UNL A   1      39.912  29.749  29.912  1.00  0.00    -0.354 N 
ATOM     46  C   UNL A   1      43.933  29.971  27.824  1.00  0.00     0.074 A 
ATOM     47  C   UNL A   1      43.397  29.728  26.514  1.00  0.00     0.031 C 
ATOM     48  C   UNL A   1      37.842  28.896  30.005  1.00  0.00     0.029 A 
ATOM     49  C   UNL A   1      38.614  30.088  30.287  1.00  0.00     0.049 A 
ATOM     50  H   UNL A   1      40.687  30.335  30.070  1.00  0.00     0.167 HD
ATOM     51  C   UNL A   1      44.651  31.021  28.313  1.00  0.00     0.037 A 
ATOM     52  C   UNL A   1      38.192  31.268  30.798  1.00  0.00     0.037 A 
ATOM     53  C   UNL A   1      44.769  30.921  29.745  1.00  0.00     0.049 A 
ATOM     54  C   UNL A   1      39.374  31.968  31.344  1.00  0.00     0.074 A 
ATOM     55  C   UNL A   1      45.517  30.199  30.646  1.00  0.00     0.029 A 
ATOM     56  N   UNL A   1      43.681  31.412  30.414  1.00  0.00    -0.354 N 
ATOM     57  N   UNL A   1      40.049  31.535  32.372  1.00  0.00    -0.248 NA
ATOM     58  C   UNL A   1      40.048  32.971  30.527  1.00  0.00     0.031 C 
ATOM     59  C   UNL A   1      44.770  30.181  31.863  1.00  0.00     0.029 A 
ATOM     60  C   UNL A   1      43.609  30.928  31.690  1.00  0.00     0.049 A 
ATOM     61  H   UNL A   1      43.029  32.038  30.023  1.00  0.00     0.167 HD
ATOM     62  C   UNL A   1      41.356  31.872  32.083  1.00  0.00     0.074 A 
ATOM     63  C   UNL A   1      41.275  32.898  31.052  1.00  0.00     0.031 C 
ATOM     64  C   UNL A   1      42.380  31.048  32.441  1.00  0.00     0.037 A 
BRANCH  51  65
ATOM     65  C   UNL A   1      44.795  32.376  27.643  1.00  0.00     0.064 A 
ATOM     66  C   UNL A   1      45.986  32.654  26.933  1.00  0.00     0.173 A 
ATOM     67  C   UNL A   1      43.994  33.501  27.933  1.00  0.00     0.173 A 
ATOM     68  F   UNL A   1      46.837  31.667  26.614  1.00  0.00    -0.203 F 
ATOM     69  C   UNL A   1      46.374  33.960  26.614  1.00  0.00     0.198 A 
ATOM     70  C   UNL A   1      44.360  34.797  27.567  1.00  0.00     0.198 A 
ATOM     71  F   UNL A   1      42.887  33.419  28.677  1.00  0.00    -0.203 F 
ATOM     72  F   UNL A   1      47.569  34.181  26.052  1.00  0.00    -0.200 F 
ATOM     73  C   UNL A   1      45.563  35.031  26.938  1.00  0.00     0.200 A 
ATOM     74  F   UNL A   1      43.570  35.824  27.912  1.00  0.00    -0.200 F 
ATOM     75  F   UNL A   1      45.956  36.286  26.688  1.00  0.00    -0.200 F 
ENDBRANCH  51  65
BRANCH  52  76
ATOM     76  C   UNL A   1      36.873  31.921  30.658  1.00  0.00     0.064 A 
ATOM     77  C   UNL A   1      35.967  31.978  31.727  1.00  0.00     0.173 A 
ATOM     78  C   UNL A   1      36.596  32.749  29.552  1.00  0.00     0.173 A 
ATOM     79  F   UNL A   1      36.181  31.248  32.831  1.00  0.00    -0.203 F 
ATOM     80  C   UNL A   1      34.862  32.837  31.705  1.00  0.00     0.198 A 
ATOM     81  C   UNL A   1      35.494  33.604  29.531  1.00  0.00     0.198 A 
ATOM     82  F   UNL A   1      37.446  32.809  28.516  1.00  0.00    -0.203 F 
ATOM     83  F   UNL A   1      34.051  32.910  32.770  1.00  0.00    -0.200 F 
ATOM     84  C   UNL A   1      34.635  33.658  30.613  1.00  0.00     0.200 A 
ATOM     85  F   UNL A   1      35.306  34.422  28.486  1.00  0.00    -0.200 F 
ATOM     86  F   UNL A   1      33.617  34.531  30.621  1.00  0.00    -0.200 F 
ENDBRANCH  52  76
BRANCH  64  87
ATOM     87  C   UNL A   1      42.151  30.113  33.584  1.00  0.00     0.064 A 
ATOM     88  C   UNL A   1      41.738  28.778  33.454  1.00  0.00     0.173 A 
ATOM     89  C   UNL A   1      42.438  30.583  34.872  1.00  0.00     0.173 A 
ATOM     90  F   UNL A   1      41.513  28.239  32.250  1.00  0.00    -0.203 F 
ATOM     91  C   UNL A   1      41.588  27.962  34.575  1.00  0.00     0.198 A 
ATOM     92  C   UNL A   1      42.323  29.758  35.983  1.00  0.00     0.198 A 
ATOM     93  F   UNL A   1      42.870  31.842  35.045  1.00  0.00    -0.203 F 
ATOM     94  F   UNL A   1      41.176  26.693  34.433  1.00  0.00    -0.200 F 
ATOM     95  C   UNL A   1      41.888  28.451  35.837  1.00  0.00     0.200 A 
ATOM     96  F   UNL A   1      42.652  30.226  37.195  1.00  0.00    -0.200 F 
ATOM     97  F   UNL A   1      41.776  27.657  36.911  1.00  0.00    -0.200 F 
ENDBRANCH  64  87
ENDBRANCH  38  39
ENDBRANCH  30  33
ENDBRANCH  28  29
ENDBRANCH   1  28
TORSDOF 13
ENDMDL
