MODEL 1
REMARK VINA RESULT:     -12.8      0.000      0.000
REMARK SMILES Cc1ccc(-c2c[nH]c(=O)cc2C(=O)NCCCNC(=O)c2ccc(-c3c4nc(c(-c5c(F)c(F)c(F)c(F)c5F)c5ccc([nH]5)c(-c5c(F)c(F)c(F)c(F)c5F)c5nc(c(-c6c(F)c(F)c(F)c(F)c6F)c6ccc3[nH]6)C=C5)C=C4)cc2)cc1Cl
REMARK SMILES IDX 17 1 16 2 15 3 13 4 14 5 12 7 6 8 7 9 8 10 11 11 9 12 10 14
REMARK SMILES IDX 5 15 1 16 2 17 3 18 86 19 4 20 85 21 87 22 18 23 19 24 20 25
REMARK SMILES IDX 21 27 22 28 23 29 84 30 24 31 83 32 25 33 26 34 27 35 77 36
REMARK SMILES IDX 28 37 82 38 76 39 78 40 29 41 81 42 75 43 74 44 30 46 62 47
REMARK SMILES IDX 42 48 61 49 43 50 46 51 60 52 79 53 44 54 45 55 59 57 80 58
REMARK SMILES IDX 47 59 31 60 32 61 40 62 33 63 34 64 38 65 41 66 35 67 36 68
REMARK SMILES IDX 39 69 37 70 63 71 64 72 72 73 65 74 66 75 70 76 73 77 67 78
REMARK SMILES IDX 68 79 71 80 69 81 48 82 49 83 57 84 50 85 51 86 55 87 58 88
REMARK SMILES IDX 52 89 53 90 56 91 54 92
REMARK H PARENT 15 6 8 13 19 26 78 45 46 56
REMARK Flexibility Score: inf
ROOT
ATOM      1  C   UNL A   1      33.417  27.870  26.876  1.00  0.00     0.042 C 
ENDROOT
BRANCH   1   2
ATOM      2  C   UNL A   1      31.958  28.154  27.240  1.00  0.00     0.118 C 
BRANCH   2   3
ATOM      3  N   UNL A   1      31.142  26.973  27.040  1.00  0.00    -0.352 N 
ATOM      4  C   UNL A   1      30.597  26.327  25.980  1.00  0.00     0.252 C 
ATOM      5  O   UNL A   1      29.905  25.359  26.301  1.00  0.00    -0.269 OA
ATOM      6  H   UNL A   1      30.927  26.527  27.892  1.00  0.00     0.163 HD
BRANCH   4   7
ATOM      7  C   UNL A   1      30.824  26.687  24.529  1.00  0.00     0.054 A 
ATOM      8  C   UNL A   1      31.894  26.010  23.749  1.00  0.00     0.011 A 
ATOM      9  C   UNL A   1      32.150  26.432  22.494  1.00  0.00     0.095 A 
ATOM     10  N   UNL A   1      31.431  27.445  21.922  1.00  0.00    -0.328 N 
ATOM     11  C   UNL A   1      30.052  27.589  23.897  1.00  0.00     0.086 A 
ATOM     12  C   UNL A   1      30.373  28.058  22.529  1.00  0.00     0.248 A 
ATOM     13  H   UNL A   1      31.691  27.749  21.022  1.00  0.00     0.169 HD
ATOM     14  O   UNL A   1      29.724  28.951  22.001  1.00  0.00    -0.270 OA
BRANCH   8  15
ATOM     15  C   UNL A   1      32.674  24.827  24.180  1.00  0.00    -0.015 A 
ATOM     16  C   UNL A   1      34.851  21.323  25.496  1.00  0.00     0.046 C 
ATOM     17  C   UNL A   1      34.123  22.549  25.023  1.00  0.00    -0.032 A 
ATOM     18  C   UNL A   1      32.845  22.417  24.464  1.00  0.00     0.005 A 
ATOM     19  C   UNL A   1      34.679  23.833  25.124  1.00  0.00     0.044 A 
ATOM     20  C   UNL A   1      32.139  23.540  24.030  1.00  0.00     0.009 A 
ATOM     21  C   UNL A   1      33.960  24.962  24.717  1.00  0.00     0.029 A 
ATOM     22  Cl  UNL A   1      36.272  24.078  25.751  1.00  0.00    -0.084 Cl
ENDBRANCH   8  15
ENDBRANCH   4   7
ENDBRANCH   2   3
ENDBRANCH   1   2
BRANCH   1  23
ATOM     23  C   UNL A   1      34.028  28.937  25.964  1.00  0.00     0.118 C 
BRANCH  23  24
ATOM     24  N   UNL A   1      33.903  30.275  26.529  1.00  0.00    -0.352 N 
ATOM     25  C   UNL A   1      34.578  30.870  27.564  1.00  0.00     0.251 C 
ATOM     26  H   UNL A   1      33.223  30.842  26.098  1.00  0.00     0.163 HD
ATOM     27  O   UNL A   1      34.135  31.900  28.063  1.00  0.00    -0.269 OA
BRANCH  25  28
ATOM     28  C   UNL A   1      35.833  30.287  28.078  1.00  0.00     0.039 A 
ATOM     29  C   UNL A   1      36.960  30.272  27.251  1.00  0.00     0.014 A 
ATOM     30  C   UNL A   1      35.889  29.703  29.347  1.00  0.00     0.014 A 
ATOM     31  C   UNL A   1      38.155  29.720  27.717  1.00  0.00     0.010 A 
ATOM     32  C   UNL A   1      37.099  29.224  29.838  1.00  0.00     0.010 A 
ATOM     33  C   UNL A   1      38.244  29.222  29.026  1.00  0.00    -0.014 A 
BRANCH  33  34
ATOM     34  C   UNL A   1      39.525  28.698  29.565  1.00  0.00     0.031 A 
ATOM     35  C   UNL A   1      40.258  29.449  30.643  1.00  0.00     0.074 A 
ATOM     36  C   UNL A   1      40.056  27.578  29.035  1.00  0.00     0.049 A 
ATOM     37  N   UNL A   1      41.419  29.188  31.190  1.00  0.00    -0.248 NA
ATOM     38  C   UNL A   1      39.617  30.670  31.157  1.00  0.00     0.031 C 
ATOM     39  C   UNL A   1      39.459  26.787  27.957  1.00  0.00     0.029 A 
ATOM     40  N   UNL A   1      41.223  26.916  29.323  1.00  0.00    -0.354 N 
ATOM     41  C   UNL A   1      41.654  30.217  32.092  1.00  0.00     0.074 A 
ATOM     42  C   UNL A   1      40.539  31.134  31.988  1.00  0.00     0.031 C 
ATOM     43  C   UNL A   1      40.247  25.734  27.694  1.00  0.00     0.029 A 
ATOM     44  C   UNL A   1      41.427  25.798  28.549  1.00  0.00     0.049 A 
ATOM     45  H   UNL A   1      41.853  27.211  30.018  1.00  0.00     0.167 HD
ATOM     46  C   UNL A   1      42.698  30.374  32.940  1.00  0.00     0.037 A 
ATOM     47  C   UNL A   1      42.460  24.933  28.523  1.00  0.00     0.037 A 
ATOM     48  C   UNL A   1      43.786  29.439  33.061  1.00  0.00     0.049 A 
ATOM     49  C   UNL A   1      43.611  25.143  29.472  1.00  0.00     0.074 A 
ATOM     50  C   UNL A   1      44.848  29.464  33.949  1.00  0.00     0.029 A 
ATOM     51  N   UNL A   1      43.954  28.314  32.268  1.00  0.00    -0.354 N 
ATOM     52  N   UNL A   1      43.778  26.073  30.381  1.00  0.00    -0.248 NA
ATOM     53  C   UNL A   1      44.716  24.179  29.392  1.00  0.00     0.031 C 
ATOM     54  C   UNL A   1      45.693  28.391  33.649  1.00  0.00     0.029 A 
ATOM     55  C   UNL A   1      45.122  27.659  32.621  1.00  0.00     0.049 A 
ATOM     56  H   UNL A   1      43.335  28.024  31.559  1.00  0.00     0.167 HD
ATOM     57  C   UNL A   1      44.983  25.783  31.007  1.00  0.00     0.074 A 
ATOM     58  C   UNL A   1      45.496  24.581  30.385  1.00  0.00     0.031 C 
ATOM     59  C   UNL A   1      45.609  26.451  32.006  1.00  0.00     0.037 A 
BRANCH  46  60
ATOM     60  C   UNL A   1      42.728  31.599  33.808  1.00  0.00     0.064 A 
ATOM     61  C   UNL A   1      43.349  32.786  33.394  1.00  0.00     0.173 A 
ATOM     62  C   UNL A   1      42.055  31.609  35.041  1.00  0.00     0.173 A 
ATOM     63  F   UNL A   1      44.014  32.830  32.229  1.00  0.00    -0.203 F 
ATOM     64  C   UNL A   1      43.313  33.930  34.187  1.00  0.00     0.198 A 
ATOM     65  C   UNL A   1      41.994  32.763  35.816  1.00  0.00     0.198 A 
ATOM     66  F   UNL A   1      41.438  30.502  35.483  1.00  0.00    -0.203 F 
ATOM     67  F   UNL A   1      43.946  35.042  33.788  1.00  0.00    -0.200 F 
ATOM     68  C   UNL A   1      42.626  33.920  35.392  1.00  0.00     0.200 A 
ATOM     69  F   UNL A   1      41.315  32.756  36.972  1.00  0.00    -0.200 F 
ATOM     70  F   UNL A   1      42.575  35.028  36.146  1.00  0.00    -0.200 F 
ENDBRANCH  46  60
BRANCH  47  71
ATOM     71  C   UNL A   1      42.458  23.781  27.583  1.00  0.00     0.064 A 
ATOM     72  C   UNL A   1      42.010  22.516  27.994  1.00  0.00     0.173 A 
ATOM     73  C   UNL A   1      42.945  23.902  26.273  1.00  0.00     0.173 A 
ATOM     74  F   UNL A   1      41.551  22.343  29.242  1.00  0.00    -0.203 F 
ATOM     75  C   UNL A   1      42.088  21.412  27.147  1.00  0.00     0.198 A 
ATOM     76  C   UNL A   1      42.989  22.805  25.414  1.00  0.00     0.198 A 
ATOM     77  F   UNL A   1      43.380  25.089  25.824  1.00  0.00    -0.203 F 
ATOM     78  F   UNL A   1      41.720  20.203  27.592  1.00  0.00    -0.200 F 
ATOM     79  C   UNL A   1      42.575  21.558  25.858  1.00  0.00     0.200 A 
ATOM     80  F   UNL A   1      43.445  22.953  24.164  1.00  0.00    -0.200 F 
ATOM     81  F   UNL A   1      42.659  20.494  25.046  1.00  0.00    -0.200 F 
ENDBRANCH  47  71
BRANCH  59  82
ATOM     82  C   UNL A   1      46.892  25.868  32.528  1.00  0.00     0.064 A 
ATOM     83  C   UNL A   1      46.916  24.986  33.618  1.00  0.00     0.173 A 
ATOM     84  C   UNL A   1      48.111  26.168  31.899  1.00  0.00     0.173 A 
ATOM     85  F   UNL A   1      45.780  24.678  34.263  1.00  0.00    -0.203 F 
ATOM     86  C   UNL A   1      48.117  24.454  34.081  1.00  0.00     0.198 A 
ATOM     87  C   UNL A   1      49.303  25.604  32.340  1.00  0.00     0.198 A 
ATOM     88  F   UNL A   1      48.142  26.998  30.845  1.00  0.00    -0.203 F 
ATOM     89  F   UNL A   1      48.122  23.660  35.161  1.00  0.00    -0.200 F 
ATOM     90  C   UNL A   1      49.307  24.756  33.437  1.00  0.00     0.200 A 
ATOM     91  F   UNL A   1      50.450  25.882  31.705  1.00  0.00    -0.200 F 
ATOM     92  F   UNL A   1      50.459  24.234  33.878  1.00  0.00    -0.200 F 
ENDBRANCH  59  82
ENDBRANCH  33  34
ENDBRANCH  25  28
ENDBRANCH  23  24
ENDBRANCH   1  23
TORSDOF 11
ENDMDL
MODEL 2
REMARK VINA RESULT:     -12.6      4.763      8.274
REMARK SMILES Cc1ccc(-c2c[nH]c(=O)cc2C(=O)NCCCNC(=O)c2ccc(-c3c4nc(c(-c5c(F)c(F)c(F)c(F)c5F)c5ccc([nH]5)c(-c5c(F)c(F)c(F)c(F)c5F)c5nc(c(-c6c(F)c(F)c(F)c(F)c6F)c6ccc3[nH]6)C=C5)C=C4)cc2)cc1Cl
REMARK SMILES IDX 17 1 16 2 15 3 13 4 14 5 12 7 6 8 7 9 8 10 11 11 9 12 10 14
REMARK SMILES IDX 5 15 1 16 2 17 3 18 86 19 4 20 85 21 87 22 18 23 19 24 20 25
REMARK SMILES IDX 21 27 22 28 23 29 84 30 24 31 83 32 25 33 26 34 27 35 77 36
REMARK SMILES IDX 28 37 82 38 76 39 78 40 29 41 81 42 75 43 74 44 30 46 62 47
REMARK SMILES IDX 42 48 61 49 43 50 46 51 60 52 79 53 44 54 45 55 59 57 80 58
REMARK SMILES IDX 47 59 31 60 32 61 40 62 33 63 34 64 38 65 41 66 35 67 36 68
REMARK SMILES IDX 39 69 37 70 63 71 64 72 72 73 65 74 66 75 70 76 73 77 67 78
REMARK SMILES IDX 68 79 71 80 69 81 48 82 49 83 57 84 50 85 51 86 55 87 58 88
REMARK SMILES IDX 52 89 53 90 56 91 54 92
REMARK H PARENT 15 6 8 13 19 26 78 45 46 56
REMARK Flexibility Score: inf
ROOT
ATOM      1  C   UNL A   1      37.966  19.679  24.948  1.00  0.00     0.042 C 
ENDROOT
BRANCH   1   2
ATOM      2  C   UNL A   1      36.978  20.791  24.593  1.00  0.00     0.118 C 
BRANCH   2   3
ATOM      3  N   UNL A   1      35.910  20.859  25.571  1.00  0.00    -0.352 N 
ATOM      4  C   UNL A   1      34.629  20.424  25.652  1.00  0.00     0.252 C 
ATOM      5  O   UNL A   1      34.059  20.773  26.688  1.00  0.00    -0.269 OA
ATOM      6  H   UNL A   1      36.185  21.346  26.381  1.00  0.00     0.163 HD
BRANCH   4   7
ATOM      7  C   UNL A   1      33.936  19.554  24.627  1.00  0.00     0.054 A 
ATOM      8  C   UNL A   1      32.780  20.083  23.856  1.00  0.00     0.011 A 
ATOM      9  C   UNL A   1      32.110  19.249  23.035  1.00  0.00     0.095 A 
ATOM     10  N   UNL A   1      32.487  17.944  22.881  1.00  0.00    -0.328 N 
ATOM     11  C   UNL A   1      34.360  18.306  24.359  1.00  0.00     0.086 A 
ATOM     12  C   UNL A   1      33.589  17.399  23.478  1.00  0.00     0.248 A 
ATOM     13  H   UNL A   1      31.934  17.364  22.309  1.00  0.00     0.169 HD
ATOM     14  O   UNL A   1      33.929  16.235  23.319  1.00  0.00    -0.270 OA
BRANCH   8  15
ATOM     15  C   UNL A   1      32.324  21.492  23.820  1.00  0.00    -0.015 A 
ATOM     16  C   UNL A   1      30.877  25.572  23.737  1.00  0.00     0.046 C 
ATOM     17  C   UNL A   1      31.410  24.167  23.761  1.00  0.00    -0.032 A 
ATOM     18  C   UNL A   1      30.998  23.293  24.776  1.00  0.00     0.005 A 
ATOM     19  C   UNL A   1      32.311  23.694  22.795  1.00  0.00     0.044 A 
ATOM     20  C   UNL A   1      31.465  21.978  24.815  1.00  0.00     0.009 A 
ATOM     21  C   UNL A   1      32.757  22.368  22.817  1.00  0.00     0.029 A 
ATOM     22  Cl  UNL A   1      32.911  24.723  21.543  1.00  0.00    -0.084 Cl
ENDBRANCH   8  15
ENDBRANCH   4   7
ENDBRANCH   2   3
ENDBRANCH   1   2
BRANCH   1  23
ATOM     23  C   UNL A   1      39.049  20.127  25.933  1.00  0.00     0.118 C 
BRANCH  23  24
ATOM     24  N   UNL A   1      40.160  19.185  25.990  1.00  0.00    -0.352 N 
ATOM     25  C   UNL A   1      41.512  19.406  26.039  1.00  0.00     0.251 C 
ATOM     26  H   UNL A   1      39.896  18.237  25.993  1.00  0.00     0.163 HD
ATOM     27  O   UNL A   1      42.286  18.484  25.803  1.00  0.00    -0.269 OA
BRANCH  25  28
ATOM     28  C   UNL A   1      42.045  20.741  26.379  1.00  0.00     0.039 A 
ATOM     29  C   UNL A   1      42.334  21.637  25.346  1.00  0.00     0.014 A 
ATOM     30  C   UNL A   1      42.315  21.092  27.705  1.00  0.00     0.014 A 
ATOM     31  C   UNL A   1      42.844  22.902  25.647  1.00  0.00     0.010 A 
ATOM     32  C   UNL A   1      42.749  22.378  28.008  1.00  0.00     0.010 A 
ATOM     33  C   UNL A   1      43.024  23.295  26.982  1.00  0.00    -0.014 A 
BRANCH  33  34
ATOM     34  C   UNL A   1      43.496  24.662  27.325  1.00  0.00     0.031 A 
ATOM     35  C   UNL A   1      42.538  25.674  27.892  1.00  0.00     0.074 A 
ATOM     36  C   UNL A   1      44.773  25.004  27.064  1.00  0.00     0.049 A 
ATOM     37  N   UNL A   1      42.745  26.932  28.189  1.00  0.00    -0.248 NA
ATOM     38  C   UNL A   1      41.158  25.223  28.133  1.00  0.00     0.031 C 
ATOM     39  C   UNL A   1      45.783  24.121  26.476  1.00  0.00     0.029 A 
ATOM     40  N   UNL A   1      45.439  26.190  27.249  1.00  0.00    -0.354 N 
ATOM     41  C   UNL A   1      41.524  27.424  28.629  1.00  0.00     0.074 A 
ATOM     42  C   UNL A   1      40.568  26.344  28.520  1.00  0.00     0.031 C 
ATOM     43  C   UNL A   1      46.944  24.785  26.375  1.00  0.00     0.029 A 
ATOM     44  C   UNL A   1      46.752  26.153  26.845  1.00  0.00     0.049 A 
ATOM     45  H   UNL A   1      45.017  26.990  27.636  1.00  0.00     0.167 HD
ATOM     46  C   UNL A   1      41.232  28.661  29.098  1.00  0.00     0.037 A 
ATOM     47  C   UNL A   1      47.689  27.120  26.841  1.00  0.00     0.037 A 
ATOM     48  C   UNL A   1      42.198  29.720  29.237  1.00  0.00     0.049 A 
ATOM     49  C   UNL A   1      47.328  28.488  27.358  1.00  0.00     0.074 A 
ATOM     50  C   UNL A   1      42.021  30.981  29.779  1.00  0.00     0.029 A 
ATOM     51  N   UNL A   1      43.520  29.643  28.827  1.00  0.00    -0.354 N 
ATOM     52  N   UNL A   1      46.192  28.915  27.853  1.00  0.00    -0.248 NA
ATOM     53  C   UNL A   1      48.384  29.509  27.318  1.00  0.00     0.031 C 
ATOM     54  C   UNL A   1      43.218  31.690  29.636  1.00  0.00     0.029 A 
ATOM     55  C   UNL A   1      44.160  30.847  29.069  1.00  0.00     0.049 A 
ATOM     56  H   UNL A   1      43.942  28.850  28.422  1.00  0.00     0.167 HD
ATOM     57  C   UNL A   1      46.408  30.236  28.221  1.00  0.00     0.074 A 
ATOM     58  C   UNL A   1      47.789  30.535  27.907  1.00  0.00     0.031 C 
ATOM     59  C   UNL A   1      45.542  31.123  28.769  1.00  0.00     0.037 A 
BRANCH  46  60
ATOM     60  C   UNL A   1      39.814  28.951  29.497  1.00  0.00     0.064 A 
ATOM     61  C   UNL A   1      38.862  29.406  28.572  1.00  0.00     0.173 A 
ATOM     62  C   UNL A   1      39.381  28.694  30.808  1.00  0.00     0.173 A 
ATOM     63  F   UNL A   1      39.223  29.676  27.308  1.00  0.00    -0.203 F 
ATOM     64  C   UNL A   1      37.537  29.611  28.947  1.00  0.00     0.198 A 
ATOM     65  C   UNL A   1      38.049  28.869  31.171  1.00  0.00     0.198 A 
ATOM     66  F   UNL A   1      40.248  28.252  31.731  1.00  0.00    -0.203 F 
ATOM     67  F   UNL A   1      36.654  30.082  28.056  1.00  0.00    -0.200 F 
ATOM     68  C   UNL A   1      37.129  29.332  30.244  1.00  0.00     0.200 A 
ATOM     69  F   UNL A   1      37.654  28.582  32.420  1.00  0.00    -0.200 F 
ATOM     70  F   UNL A   1      35.849  29.510  30.599  1.00  0.00    -0.200 F 
ENDBRANCH  46  60
BRANCH  47  71
ATOM     71  C   UNL A   1      49.064  26.839  26.346  1.00  0.00     0.064 A 
ATOM     72  C   UNL A   1      49.404  27.053  25.002  1.00  0.00     0.173 A 
ATOM     73  C   UNL A   1      50.052  26.308  27.189  1.00  0.00     0.173 A 
ATOM     74  F   UNL A   1      48.490  27.541  24.150  1.00  0.00    -0.203 F 
ATOM     75  C   UNL A   1      50.663  26.709  24.512  1.00  0.00     0.198 A 
ATOM     76  C   UNL A   1      51.323  25.999  26.706  1.00  0.00     0.198 A 
ATOM     77  F   UNL A   1      49.784  26.090  28.485  1.00  0.00    -0.203 F 
ATOM     78  F   UNL A   1      50.935  26.857  23.208  1.00  0.00    -0.200 F 
ATOM     79  C   UNL A   1      51.621  26.184  25.365  1.00  0.00     0.200 A 
ATOM     80  F   UNL A   1      52.251  25.508  27.537  1.00  0.00    -0.200 F 
ATOM     81  F   UNL A   1      52.828  25.845  24.892  1.00  0.00    -0.200 F 
ENDBRANCH  47  71
BRANCH  59  82
ATOM     82  C   UNL A   1      46.074  32.485  29.114  1.00  0.00     0.064 A 
ATOM     83  C   UNL A   1      46.007  33.557  28.214  1.00  0.00     0.173 A 
ATOM     84  C   UNL A   1      46.626  32.725  30.383  1.00  0.00     0.173 A 
ATOM     85  F   UNL A   1      45.502  33.376  26.984  1.00  0.00    -0.203 F 
ATOM     86  C   UNL A   1      46.503  34.812  28.558  1.00  0.00     0.198 A 
ATOM     87  C   UNL A   1      47.085  33.990  30.737  1.00  0.00     0.198 A 
ATOM     88  F   UNL A   1      46.705  31.736  31.286  1.00  0.00    -0.203 F 
ATOM     89  F   UNL A   1      46.480  35.807  27.660  1.00  0.00    -0.200 F 
ATOM     90  C   UNL A   1      47.032  35.030  29.821  1.00  0.00     0.200 A 
ATOM     91  F   UNL A   1      47.579  34.203  31.964  1.00  0.00    -0.200 F 
ATOM     92  F   UNL A   1      47.499  36.241  30.153  1.00  0.00    -0.200 F 
ENDBRANCH  59  82
ENDBRANCH  33  34
ENDBRANCH  25  28
ENDBRANCH  23  24
ENDBRANCH   1  23
TORSDOF 11
ENDMDL
MODEL 3
REMARK VINA RESULT:     -12.5      4.584      8.302
REMARK SMILES Cc1ccc(-c2c[nH]c(=O)cc2C(=O)NCCCNC(=O)c2ccc(-c3c4nc(c(-c5c(F)c(F)c(F)c(F)c5F)c5ccc([nH]5)c(-c5c(F)c(F)c(F)c(F)c5F)c5nc(c(-c6c(F)c(F)c(F)c(F)c6F)c6ccc3[nH]6)C=C5)C=C4)cc2)cc1Cl
REMARK SMILES IDX 17 1 16 2 15 3 13 4 14 5 12 7 6 8 7 9 8 10 11 11 9 12 10 14
REMARK SMILES IDX 5 15 1 16 2 17 3 18 86 19 4 20 85 21 87 22 18 23 19 24 20 25
REMARK SMILES IDX 21 27 22 28 23 29 84 30 24 31 83 32 25 33 26 34 27 35 77 36
REMARK SMILES IDX 28 37 82 38 76 39 78 40 29 41 81 42 75 43 74 44 30 46 62 47
REMARK SMILES IDX 42 48 61 49 43 50 46 51 60 52 79 53 44 54 45 55 59 57 80 58
REMARK SMILES IDX 47 59 31 60 32 61 40 62 33 63 34 64 38 65 41 66 35 67 36 68
REMARK SMILES IDX 39 69 37 70 63 71 64 72 72 73 65 74 66 75 70 76 73 77 67 78
REMARK SMILES IDX 68 79 71 80 69 81 48 82 49 83 57 84 50 85 51 86 55 87 58 88
REMARK SMILES IDX 52 89 53 90 56 91 54 92
REMARK H PARENT 15 6 8 13 19 26 78 45 46 56
REMARK Flexibility Score: inf
ROOT
ATOM      1  C   UNL A   1      37.989  19.606  24.935  1.00  0.00     0.042 C 
ENDROOT
BRANCH   1   2
ATOM      2  C   UNL A   1      37.005  20.706  24.532  1.00  0.00     0.118 C 
BRANCH   2   3
ATOM      3  N   UNL A   1      35.940  20.824  25.508  1.00  0.00    -0.352 N 
ATOM      4  C   UNL A   1      34.648  20.425  25.600  1.00  0.00     0.252 C 
ATOM      5  O   UNL A   1      34.089  20.812  26.628  1.00  0.00    -0.269 OA
ATOM      6  H   UNL A   1      36.229  21.321  26.308  1.00  0.00     0.163 HD
BRANCH   4   7
ATOM      7  C   UNL A   1      33.931  19.551  24.595  1.00  0.00     0.054 A 
ATOM      8  C   UNL A   1      32.768  20.084  23.836  1.00  0.00     0.011 A 
ATOM      9  C   UNL A   1      32.077  19.248  23.035  1.00  0.00     0.095 A 
ATOM     10  N   UNL A   1      32.440  17.939  22.888  1.00  0.00    -0.328 N 
ATOM     11  C   UNL A   1      34.339  18.297  24.333  1.00  0.00     0.086 A 
ATOM     12  C   UNL A   1      33.545  17.389  23.472  1.00  0.00     0.248 A 
ATOM     13  H   UNL A   1      31.872  17.358  22.331  1.00  0.00     0.169 HD
ATOM     14  O   UNL A   1      33.872  16.221  23.320  1.00  0.00    -0.270 OA
BRANCH   8  15
ATOM     15  C   UNL A   1      32.325  21.497  23.793  1.00  0.00    -0.015 A 
ATOM     16  C   UNL A   1      30.914  25.589  23.687  1.00  0.00     0.046 C 
ATOM     17  C   UNL A   1      31.435  24.180  23.720  1.00  0.00    -0.032 A 
ATOM     18  C   UNL A   1      30.994  23.308  24.724  1.00  0.00     0.005 A 
ATOM     19  C   UNL A   1      32.351  23.701  22.773  1.00  0.00     0.044 A 
ATOM     20  C   UNL A   1      31.449  21.989  24.771  1.00  0.00     0.009 A 
ATOM     21  C   UNL A   1      32.786  22.371  22.801  1.00  0.00     0.029 A 
ATOM     22  Cl  UNL A   1      32.987  24.727  21.535  1.00  0.00    -0.084 Cl
ENDBRANCH   8  15
ENDBRANCH   4   7
ENDBRANCH   2   3
ENDBRANCH   1   2
BRANCH   1  23
ATOM     23  C   UNL A   1      39.084  20.096  25.885  1.00  0.00     0.118 C 
BRANCH  23  24
ATOM     24  N   UNL A   1      40.209  19.170  25.946  1.00  0.00    -0.352 N 
ATOM     25  C   UNL A   1      41.556  19.412  26.027  1.00  0.00     0.251 C 
ATOM     26  H   UNL A   1      39.960  18.218  25.925  1.00  0.00     0.163 HD
ATOM     27  O   UNL A   1      42.350  18.506  25.788  1.00  0.00    -0.269 OA
BRANCH  25  28
ATOM     28  C   UNL A   1      42.060  20.748  26.403  1.00  0.00     0.039 A 
ATOM     29  C   UNL A   1      42.429  21.641  25.393  1.00  0.00     0.014 A 
ATOM     30  C   UNL A   1      42.227  21.102  27.745  1.00  0.00     0.014 A 
ATOM     31  C   UNL A   1      42.914  22.907  25.729  1.00  0.00     0.010 A 
ATOM     32  C   UNL A   1      42.635  22.390  28.077  1.00  0.00     0.010 A 
ATOM     33  C   UNL A   1      42.989  23.304  27.073  1.00  0.00    -0.014 A 
BRANCH  33  34
ATOM     34  C   UNL A   1      43.432  24.672  27.447  1.00  0.00     0.031 A 
ATOM     35  C   UNL A   1      42.428  25.698  27.897  1.00  0.00     0.074 A 
ATOM     36  C   UNL A   1      44.732  25.003  27.319  1.00  0.00     0.049 A 
ATOM     37  N   UNL A   1      42.612  26.958  28.199  1.00  0.00    -0.248 NA
ATOM     38  C   UNL A   1      41.026  25.259  27.996  1.00  0.00     0.031 C 
ATOM     39  C   UNL A   1      45.792  24.106  26.852  1.00  0.00     0.029 A 
ATOM     40  N   UNL A   1      45.384  26.187  27.559  1.00  0.00    -0.354 N 
ATOM     41  C   UNL A   1      41.354  27.464  28.502  1.00  0.00     0.074 A 
ATOM     42  C   UNL A   1      40.407  26.389  28.304  1.00  0.00     0.031 C 
ATOM     43  C   UNL A   1      46.962  24.762  26.866  1.00  0.00     0.029 A 
ATOM     44  C   UNL A   1      46.732  26.137  27.297  1.00  0.00     0.049 A 
ATOM     45  H   UNL A   1      44.929  26.995  27.890  1.00  0.00     0.167 HD
ATOM     46  C   UNL A   1      41.024  28.708  28.922  1.00  0.00     0.037 A 
ATOM     47  C   UNL A   1      47.672  27.098  27.380  1.00  0.00     0.037 A 
ATOM     48  C   UNL A   1      41.978  29.762  29.150  1.00  0.00     0.049 A 
ATOM     49  C   UNL A   1      47.269  28.475  27.840  1.00  0.00     0.074 A 
ATOM     50  C   UNL A   1      41.754  31.032  29.654  1.00  0.00     0.029 A 
ATOM     51  N   UNL A   1      43.336  29.672  28.883  1.00  0.00    -0.354 N 
ATOM     52  N   UNL A   1      46.089  28.914  28.207  1.00  0.00    -0.248 NA
ATOM     53  C   UNL A   1      48.331  29.488  27.900  1.00  0.00     0.031 C 
ATOM     54  C   UNL A   1      42.965  31.731  29.630  1.00  0.00     0.029 A 
ATOM     55  C   UNL A   1      43.955  30.875  29.177  1.00  0.00     0.049 A 
ATOM     56  H   UNL A   1      43.792  28.871  28.535  1.00  0.00     0.167 HD
ATOM     57  C   UNL A   1      46.276  30.239  28.579  1.00  0.00     0.074 A 
ATOM     58  C   UNL A   1      47.684  30.525  28.410  1.00  0.00     0.031 C 
ATOM     59  C   UNL A   1      45.363  31.138  29.022  1.00  0.00     0.037 A 
BRANCH  46  60
ATOM     60  C   UNL A   1      39.574  29.012  29.164  1.00  0.00     0.064 A 
ATOM     61  C   UNL A   1      39.000  28.920  30.441  1.00  0.00     0.173 A 
ATOM     62  C   UNL A   1      38.763  29.478  28.116  1.00  0.00     0.173 A 
ATOM     63  F   UNL A   1      39.726  28.472  31.477  1.00  0.00    -0.203 F 
ATOM     64  C   UNL A   1      37.668  29.264  30.657  1.00  0.00     0.198 A 
ATOM     65  C   UNL A   1      37.442  29.851  28.341  1.00  0.00     0.198 A 
ATOM     66  F   UNL A   1      39.262  29.591  26.876  1.00  0.00    -0.203 F 
ATOM     67  F   UNL A   1      37.132  29.133  31.878  1.00  0.00    -0.200 F 
ATOM     68  C   UNL A   1      36.894  29.740  29.609  1.00  0.00     0.200 A 
ATOM     69  F   UNL A   1      36.701  30.327  27.331  1.00  0.00    -0.200 F 
ATOM     70  F   UNL A   1      35.617  30.090  29.822  1.00  0.00    -0.200 F 
ENDBRANCH  46  60
BRANCH  47  71
ATOM     71  C   UNL A   1      49.089  26.802  27.038  1.00  0.00     0.064 A 
ATOM     72  C   UNL A   1      49.547  26.900  25.715  1.00  0.00     0.173 A 
ATOM     73  C   UNL A   1      50.004  26.369  28.011  1.00  0.00     0.173 A 
ATOM     74  F   UNL A   1      48.707  27.291  24.745  1.00  0.00    -0.203 F 
ATOM     75  C   UNL A   1      50.849  26.539  25.373  1.00  0.00     0.198 A 
ATOM     76  C   UNL A   1      51.316  26.044  27.673  1.00  0.00     0.198 A 
ATOM     77  F   UNL A   1      49.623  26.264  29.292  1.00  0.00    -0.203 F 
ATOM     78  F   UNL A   1      51.235  26.575  24.090  1.00  0.00    -0.200 F 
ATOM     79  C   UNL A   1      51.732  26.113  26.352  1.00  0.00     0.200 A 
ATOM     80  F   UNL A   1      52.172  25.649  28.624  1.00  0.00    -0.200 F 
ATOM     81  F   UNL A   1      52.982  25.758  26.022  1.00  0.00    -0.200 F 
ENDBRANCH  47  71
BRANCH  59  82
ATOM     82  C   UNL A   1      45.867  32.501  29.405  1.00  0.00     0.064 A 
ATOM     83  C   UNL A   1      46.330  32.783  30.698  1.00  0.00     0.173 A 
ATOM     84  C   UNL A   1      45.920  33.528  28.449  1.00  0.00     0.173 A 
ATOM     85  F   UNL A   1      46.287  31.840  31.652  1.00  0.00    -0.203 F 
ATOM     86  C   UNL A   1      46.797  34.052  31.030  1.00  0.00     0.198 A 
ATOM     87  C   UNL A   1      46.424  34.783  28.774  1.00  0.00     0.198 A 
ATOM     88  F   UNL A   1      45.498  33.308  27.195  1.00  0.00    -0.203 F 
ATOM     89  F   UNL A   1      47.181  34.314  32.287  1.00  0.00    -0.200 F 
ATOM     90  C   UNL A   1      46.852  35.048  30.066  1.00  0.00     0.200 A 
ATOM     91  F   UNL A   1      46.494  35.739  27.837  1.00  0.00    -0.200 F 
ATOM     92  F   UNL A   1      47.312  36.265  30.385  1.00  0.00    -0.200 F 
ENDBRANCH  59  82
ENDBRANCH  33  34
ENDBRANCH  25  28
ENDBRANCH  23  24
ENDBRANCH   1  23
TORSDOF 11
ENDMDL
