MODEL 1
REMARK VINA RESULT:     -12.7      0.000      0.000
REMARK SMILES CC(C)n1c(CCC(=O)NCCCNC(=O)c2ccc(-c3c4nc(c(-c5c(F)c(F)c(F)c(F)c5F)c5ccc([nH]5)c(-c5c(F)c(F)c(F)c(F)c5F)c5nc(c(-c6c(F)c(F)c(F)c(F)c6F)c6ccc3[nH]6)C=C5)C=C4)cc2)ccc1-c1ccc(F)cc1
REMARK SMILES IDX 11 1 10 2 8 3 9 4 7 6 6 7 5 8 4 9 82 10 80 11 81 12 2 13
REMARK SMILES IDX 1 14 3 15 83 16 84 17 89 18 85 19 88 20 86 21 87 22 12 23
REMARK SMILES IDX 13 24 14 25 15 26 16 28 17 29 18 30 79 31 19 32 78 33 20 34
REMARK SMILES IDX 21 35 22 36 72 37 23 38 77 39 71 40 73 41 24 42 76 43 70 44
REMARK SMILES IDX 69 45 25 47 57 48 37 49 56 50 38 51 41 52 55 53 74 54 39 55
REMARK SMILES IDX 40 56 54 58 75 59 42 60 26 61 27 62 35 63 28 64 29 65 33 66
REMARK SMILES IDX 36 67 30 68 31 69 34 70 32 71 58 72 59 73 67 74 60 75 61 76
REMARK SMILES IDX 65 77 68 78 62 79 63 80 66 81 64 82 43 83 44 84 52 85 45 86
REMARK SMILES IDX 46 87 50 88 53 89 47 90 48 91 51 92 49 93
REMARK H PARENT 10 5 14 27 73 46 41 57
REMARK Flexibility Score: inf
ROOT
ATOM      1  C   UNL A   1      35.269  24.475  25.025  1.00  0.00     0.117 C 
ENDROOT
BRANCH   1   2
ATOM      2  N   UNL A   1      34.163  23.718  25.610  1.00  0.00    -0.356 N 
ATOM      3  C   UNL A   1      33.207  22.910  25.062  1.00  0.00     0.220 C 
ATOM      4  O   UNL A   1      32.447  22.337  25.847  1.00  0.00    -0.275 OA
ATOM      5  H   UNL A   1      34.093  23.809  26.588  1.00  0.00     0.163 HD
BRANCH   3   6
ATOM      6  C   UNL A   1      33.112  22.666  23.563  1.00  0.00     0.106 C 
BRANCH   6   7
ATOM      7  C   UNL A   1      31.997  23.482  22.874  1.00  0.00     0.064 C 
BRANCH   7   8
ATOM      8  C   UNL A   1      32.283  24.960  22.912  1.00  0.00     0.019 A 
ATOM      9  N   UNL A   1      31.675  25.860  23.783  1.00  0.00    -0.342 N 
ATOM     10  C   UNL A   1      32.478  27.004  23.822  1.00  0.00     0.048 A 
ATOM     11  C   UNL A   1      33.170  25.685  22.134  1.00  0.00     0.024 A 
ATOM     12  C   UNL A   1      33.292  26.971  22.704  1.00  0.00     0.029 A 
BRANCH   9  13
ATOM     13  C   UNL A   1      30.409  25.567  24.481  1.00  0.00     0.081 C 
ATOM     14  C   UNL A   1      30.352  25.456  26.008  1.00  0.00     0.031 C 
ATOM     15  C   UNL A   1      29.307  26.521  24.021  1.00  0.00     0.031 C 
ENDBRANCH   9  13
BRANCH  10  16
ATOM     16  C   UNL A   1      32.661  27.817  25.015  1.00  0.00    -0.002 A 
ATOM     17  C   UNL A   1      33.581  27.599  26.039  1.00  0.00     0.013 A 
ATOM     18  C   UNL A   1      31.872  28.956  25.045  1.00  0.00     0.013 A 
ATOM     19  C   UNL A   1      33.808  28.608  26.991  1.00  0.00     0.040 A 
ATOM     20  C   UNL A   1      32.233  30.003  25.861  1.00  0.00     0.040 A 
ATOM     21  C   UNL A   1      33.172  29.831  26.852  1.00  0.00     0.123 A 
ATOM     22  F   UNL A   1      33.502  30.873  27.624  1.00  0.00    -0.207 F 
ENDBRANCH  10  16
ENDBRANCH   7   8
ENDBRANCH   6   7
ENDBRANCH   3   6
ENDBRANCH   1   2
BRANCH   1  23
ATOM     23  C   UNL A   1      36.606  23.701  25.048  1.00  0.00     0.042 C 
BRANCH  23  24
ATOM     24  C   UNL A   1      37.404  23.720  26.371  1.00  0.00     0.118 C 
BRANCH  24  25
ATOM     25  N   UNL A   1      38.859  23.544  26.176  1.00  0.00    -0.352 N 
ATOM     26  C   UNL A   1      39.962  24.139  26.782  1.00  0.00     0.251 C 
ATOM     27  H   UNL A   1      39.091  22.878  25.488  1.00  0.00     0.163 HD
ATOM     28  O   UNL A   1      41.049  23.570  26.752  1.00  0.00    -0.269 OA
BRANCH  26  29
ATOM     29  C   UNL A   1      39.873  25.493  27.389  1.00  0.00     0.039 A 
ATOM     30  C   UNL A   1      40.205  26.686  26.757  1.00  0.00     0.014 A 
ATOM     31  C   UNL A   1      39.315  25.571  28.644  1.00  0.00     0.014 A 
ATOM     32  C   UNL A   1      40.051  27.913  27.449  1.00  0.00     0.010 A 
ATOM     33  C   UNL A   1      39.255  26.757  29.369  1.00  0.00     0.010 A 
ATOM     34  C   UNL A   1      39.628  27.968  28.803  1.00  0.00    -0.014 A 
BRANCH  34  35
ATOM     35  C   UNL A   1      39.666  29.253  29.611  1.00  0.00     0.031 A 
ATOM     36  C   UNL A   1      38.458  30.217  29.547  1.00  0.00     0.074 A 
ATOM     37  C   UNL A   1      40.796  29.473  30.355  1.00  0.00     0.049 A 
ATOM     38  N   UNL A   1      38.442  31.517  29.400  1.00  0.00    -0.248 NA
ATOM     39  C   UNL A   1      37.078  29.685  29.618  1.00  0.00     0.031 C 
ATOM     40  C   UNL A   1      41.820  28.441  30.592  1.00  0.00     0.029 A 
ATOM     41  N   UNL A   1      41.319  30.548  31.062  1.00  0.00    -0.354 N 
ATOM     42  C   UNL A   1      37.088  31.935  29.438  1.00  0.00     0.074 A 
ATOM     43  C   UNL A   1      36.300  30.746  29.400  1.00  0.00     0.031 C 
ATOM     44  C   UNL A   1      42.868  28.947  31.263  1.00  0.00     0.029 A 
ATOM     45  C   UNL A   1      42.643  30.349  31.542  1.00  0.00     0.049 A 
ATOM     46  H   UNL A   1      40.816  31.380  31.219  1.00  0.00     0.167 HD
ATOM     47  C   UNL A   1      36.662  33.209  29.701  1.00  0.00     0.037 A 
ATOM     48  C   UNL A   1      43.535  31.231  32.091  1.00  0.00     0.037 A 
ATOM     49  C   UNL A   1      37.765  34.051  30.019  1.00  0.00     0.049 A 
ATOM     50  C   UNL A   1      42.811  32.498  32.288  1.00  0.00     0.074 A 
ATOM     51  C   UNL A   1      38.786  34.622  29.310  1.00  0.00     0.029 A 
ATOM     52  N   UNL A   1      38.011  34.230  31.357  1.00  0.00    -0.354 N 
ATOM     53  N   UNL A   1      41.914  32.697  33.205  1.00  0.00    -0.248 NA
ATOM     54  C   UNL A   1      43.097  33.633  31.401  1.00  0.00     0.031 C 
ATOM     55  C   UNL A   1      39.815  34.815  30.260  1.00  0.00     0.029 A 
ATOM     56  C   UNL A   1      39.363  34.385  31.511  1.00  0.00     0.049 A 
ATOM     57  H   UNL A   1      37.339  34.245  32.076  1.00  0.00     0.167 HD
ATOM     58  C   UNL A   1      41.307  33.858  32.785  1.00  0.00     0.074 A 
ATOM     59  C   UNL A   1      42.234  34.517  31.896  1.00  0.00     0.031 C 
ATOM     60  C   UNL A   1      39.954  33.901  32.739  1.00  0.00     0.037 A 
BRANCH  47  61
ATOM     61  C   UNL A   1      35.290  33.781  30.008  1.00  0.00     0.064 A 
ATOM     62  C   UNL A   1      34.660  34.571  29.008  1.00  0.00     0.173 A 
ATOM     63  C   UNL A   1      34.721  33.864  31.287  1.00  0.00     0.173 A 
ATOM     64  F   UNL A   1      35.108  34.559  27.742  1.00  0.00    -0.203 F 
ATOM     65  C   UNL A   1      33.615  35.451  29.295  1.00  0.00     0.198 A 
ATOM     66  C   UNL A   1      33.629  34.700  31.556  1.00  0.00     0.198 A 
ATOM     67  F   UNL A   1      35.260  33.231  32.335  1.00  0.00    -0.203 F 
ATOM     68  F   UNL A   1      33.151  36.273  28.342  1.00  0.00    -0.200 F 
ATOM     69  C   UNL A   1      33.103  35.519  30.573  1.00  0.00     0.200 A 
ATOM     70  F   UNL A   1      33.136  34.763  32.801  1.00  0.00    -0.200 F 
ATOM     71  F   UNL A   1      32.134  36.398  30.868  1.00  0.00    -0.200 F 
ENDBRANCH  47  61
BRANCH  48  72
ATOM     72  C   UNL A   1      45.006  31.240  32.475  1.00  0.00     0.064 A 
ATOM     73  C   UNL A   1      46.092  31.348  31.595  1.00  0.00     0.173 A 
ATOM     74  C   UNL A   1      45.381  31.256  33.850  1.00  0.00     0.173 A 
ATOM     75  F   UNL A   1      45.938  31.289  30.271  1.00  0.00    -0.203 F 
ATOM     76  C   UNL A   1      47.412  31.539  32.041  1.00  0.00     0.198 A 
ATOM     77  C   UNL A   1      46.684  31.500  34.295  1.00  0.00     0.198 A 
ATOM     78  F   UNL A   1      44.485  31.055  34.826  1.00  0.00    -0.203 F 
ATOM     79  F   UNL A   1      48.403  31.641  31.144  1.00  0.00    -0.200 F 
ATOM     80  C   UNL A   1      47.702  31.654  33.386  1.00  0.00     0.200 A 
ATOM     81  F   UNL A   1      46.929  31.609  35.608  1.00  0.00    -0.200 F 
ATOM     82  F   UNL A   1      48.949  31.908  33.800  1.00  0.00    -0.200 F 
ENDBRANCH  48  72
BRANCH  60  83
ATOM     83  C   UNL A   1      39.310  32.950  33.730  1.00  0.00     0.064 A 
ATOM     84  C   UNL A   1      39.333  33.241  35.103  1.00  0.00     0.173 A 
ATOM     85  C   UNL A   1      38.836  31.677  33.373  1.00  0.00     0.173 A 
ATOM     86  F   UNL A   1      39.767  34.438  35.527  1.00  0.00    -0.203 F 
ATOM     87  C   UNL A   1      38.932  32.301  36.057  1.00  0.00     0.198 A 
ATOM     88  C   UNL A   1      38.419  30.743  34.320  1.00  0.00     0.198 A 
ATOM     89  F   UNL A   1      38.787  31.310  32.092  1.00  0.00    -0.203 F 
ATOM     90  F   UNL A   1      38.992  32.605  37.362  1.00  0.00    -0.200 F 
ATOM     91  C   UNL A   1      38.479  31.051  35.666  1.00  0.00     0.200 A 
ATOM     92  F   UNL A   1      37.965  29.544  33.924  1.00  0.00    -0.200 F 
ATOM     93  F   UNL A   1      38.096  30.150  36.580  1.00  0.00    -0.200 F 
ENDBRANCH  60  83
ENDBRANCH  34  35
ENDBRANCH  26  29
ENDBRANCH  24  25
ENDBRANCH  23  24
ENDBRANCH   1  23
TORSDOF 14
ENDMDL
MODEL 2
REMARK VINA RESULT:     -12.7      4.748      9.673
REMARK SMILES CC(C)n1c(CCC(=O)NCCCNC(=O)c2ccc(-c3c4nc(c(-c5c(F)c(F)c(F)c(F)c5F)c5ccc([nH]5)c(-c5c(F)c(F)c(F)c(F)c5F)c5nc(c(-c6c(F)c(F)c(F)c(F)c6F)c6ccc3[nH]6)C=C5)C=C4)cc2)ccc1-c1ccc(F)cc1
REMARK SMILES IDX 11 1 10 2 8 3 9 4 7 6 6 7 5 8 4 9 82 10 80 11 81 12 2 13
REMARK SMILES IDX 1 14 3 15 83 16 84 17 89 18 85 19 88 20 86 21 87 22 12 23
REMARK SMILES IDX 13 24 14 25 15 26 16 28 17 29 18 30 79 31 19 32 78 33 20 34
REMARK SMILES IDX 21 35 22 36 72 37 23 38 77 39 71 40 73 41 24 42 76 43 70 44
REMARK SMILES IDX 69 45 25 47 57 48 37 49 56 50 38 51 41 52 55 53 74 54 39 55
REMARK SMILES IDX 40 56 54 58 75 59 42 60 26 61 27 62 35 63 28 64 29 65 33 66
REMARK SMILES IDX 36 67 30 68 31 69 34 70 32 71 58 72 59 73 67 74 60 75 61 76
REMARK SMILES IDX 65 77 68 78 62 79 63 80 66 81 64 82 43 83 44 84 52 85 45 86
REMARK SMILES IDX 46 87 50 88 53 89 47 90 48 91 51 92 49 93
REMARK H PARENT 10 5 14 27 73 46 41 57
REMARK Flexibility Score: inf
ROOT
ATOM      1  C   UNL A   1      33.554  28.366  24.790  1.00  0.00     0.117 C 
ENDROOT
BRANCH   1   2
ATOM      2  N   UNL A   1      32.233  28.001  24.282  1.00  0.00    -0.356 N 
ATOM      3  C   UNL A   1      31.282  27.126  24.730  1.00  0.00     0.220 C 
ATOM      4  O   UNL A   1      30.213  27.103  24.113  1.00  0.00    -0.275 OA
ATOM      5  H   UNL A   1      31.978  28.475  23.458  1.00  0.00     0.163 HD
BRANCH   3   6
ATOM      6  C   UNL A   1      31.491  26.262  25.964  1.00  0.00     0.106 C 
BRANCH   6   7
ATOM      7  C   UNL A   1      30.841  24.865  25.858  1.00  0.00     0.064 C 
BRANCH   7   8
ATOM      8  C   UNL A   1      31.832  23.767  26.139  1.00  0.00     0.019 A 
ATOM      9  N   UNL A   1      32.810  23.338  25.246  1.00  0.00    -0.342 N 
ATOM     10  C   UNL A   1      33.774  22.647  25.988  1.00  0.00     0.048 A 
ATOM     11  C   UNL A   1      31.971  23.007  27.288  1.00  0.00     0.024 A 
ATOM     12  C   UNL A   1      33.191  22.300  27.193  1.00  0.00     0.029 A 
BRANCH   9  13
ATOM     13  C   UNL A   1      32.744  23.606  23.797  1.00  0.00     0.081 C 
ATOM     14  C   UNL A   1      33.696  24.604  23.131  1.00  0.00     0.031 C 
ATOM     15  C   UNL A   1      32.776  22.300  23.005  1.00  0.00     0.031 C 
ENDBRANCH   9  13
BRANCH  10  16
ATOM     16  C   UNL A   1      35.194  22.667  25.675  1.00  0.00    -0.002 A 
ATOM     17  C   UNL A   1      36.079  23.724  25.883  1.00  0.00     0.013 A 
ATOM     18  C   UNL A   1      35.683  21.459  25.203  1.00  0.00     0.013 A 
ATOM     19  C   UNL A   1      37.462  23.501  25.767  1.00  0.00     0.040 A 
ATOM     20  C   UNL A   1      37.033  21.204  25.276  1.00  0.00     0.040 A 
ATOM     21  C   UNL A   1      37.928  22.219  25.525  1.00  0.00     0.123 A 
ATOM     22  F   UNL A   1      39.233  21.935  25.593  1.00  0.00    -0.207 F 
ENDBRANCH  10  16
ENDBRANCH   7   8
ENDBRANCH   6   7
ENDBRANCH   3   6
ENDBRANCH   1   2
BRANCH   1  23
ATOM     23  C   UNL A   1      33.490  29.330  25.994  1.00  0.00     0.042 C 
BRANCH  23  24
ATOM     24  C   UNL A   1      34.373  28.987  27.214  1.00  0.00     0.118 C 
BRANCH  24  25
ATOM     25  N   UNL A   1      34.695  30.163  28.050  1.00  0.00    -0.352 N 
ATOM     26  C   UNL A   1      35.905  30.701  28.482  1.00  0.00     0.251 C 
ATOM     27  H   UNL A   1      33.903  30.661  28.360  1.00  0.00     0.163 HD
ATOM     28  O   UNL A   1      35.955  31.878  28.824  1.00  0.00    -0.269 OA
BRANCH  26  29
ATOM     29  C   UNL A   1      37.120  29.856  28.620  1.00  0.00     0.039 A 
ATOM     30  C   UNL A   1      37.410  29.027  29.698  1.00  0.00     0.014 A 
ATOM     31  C   UNL A   1      37.972  29.819  27.541  1.00  0.00     0.014 A 
ATOM     32  C   UNL A   1      38.599  28.257  29.691  1.00  0.00     0.010 A 
ATOM     33  C   UNL A   1      39.190  29.148  27.567  1.00  0.00     0.010 A 
ATOM     34  C   UNL A   1      39.552  28.351  28.643  1.00  0.00    -0.014 A 
BRANCH  34  35
ATOM     35  C   UNL A   1      40.919  27.696  28.733  1.00  0.00     0.031 A 
ATOM     36  C   UNL A   1      41.116  26.284  28.131  1.00  0.00     0.074 A 
ATOM     37  C   UNL A   1      41.903  28.418  29.355  1.00  0.00     0.049 A 
ATOM     38  N   UNL A   1      41.717  25.241  28.645  1.00  0.00    -0.248 NA
ATOM     39  C   UNL A   1      40.547  25.954  26.804  1.00  0.00     0.031 C 
ATOM     40  C   UNL A   1      41.762  29.843  29.701  1.00  0.00     0.029 A 
ATOM     41  N   UNL A   1      43.188  28.150  29.809  1.00  0.00    -0.354 N 
ATOM     42  C   UNL A   1      41.657  24.197  27.687  1.00  0.00     0.074 A 
ATOM     43  C   UNL A   1      40.779  24.649  26.657  1.00  0.00     0.031 C 
ATOM     44  C   UNL A   1      42.828  30.279  30.393  1.00  0.00     0.029 A 
ATOM     45  C   UNL A   1      43.775  29.199  30.569  1.00  0.00     0.049 A 
ATOM     46  H   UNL A   1      43.656  27.304  29.621  1.00  0.00     0.167 HD
ATOM     47  C   UNL A   1      42.474  23.099  27.665  1.00  0.00     0.037 A 
ATOM     48  C   UNL A   1      44.916  29.222  31.326  1.00  0.00     0.037 A 
ATOM     49  C   UNL A   1      43.457  23.184  28.690  1.00  0.00     0.049 A 
ATOM     50  C   UNL A   1      45.604  27.941  31.094  1.00  0.00     0.074 A 
ATOM     51  C   UNL A   1      43.454  23.055  30.051  1.00  0.00     0.029 A 
ATOM     52  N   UNL A   1      44.682  23.668  28.302  1.00  0.00    -0.354 N 
ATOM     53  N   UNL A   1      46.231  27.632  30.000  1.00  0.00    -0.248 NA
ATOM     54  C   UNL A   1      45.597  26.921  32.150  1.00  0.00     0.031 C 
ATOM     55  C   UNL A   1      44.563  23.818  30.484  1.00  0.00     0.029 A 
ATOM     56  C   UNL A   1      45.213  24.348  29.365  1.00  0.00     0.049 A 
ATOM     57  H   UNL A   1      45.102  23.549  27.420  1.00  0.00     0.167 HD
ATOM     58  C   UNL A   1      46.397  26.271  30.123  1.00  0.00     0.074 A 
ATOM     59  C   UNL A   1      46.276  25.961  31.527  1.00  0.00     0.031 C 
ATOM     60  C   UNL A   1      46.062  25.481  29.075  1.00  0.00     0.037 A 
BRANCH  47  61
ATOM     61  C   UNL A   1      42.709  22.027  26.615  1.00  0.00     0.064 A 
ATOM     62  C   UNL A   1      42.191  20.727  26.865  1.00  0.00     0.173 A 
ATOM     63  C   UNL A   1      43.645  22.112  25.575  1.00  0.00     0.173 A 
ATOM     64  F   UNL A   1      41.276  20.527  27.827  1.00  0.00    -0.203 F 
ATOM     65  C   UNL A   1      42.657  19.593  26.198  1.00  0.00     0.198 A 
ATOM     66  C   UNL A   1      44.062  20.979  24.863  1.00  0.00     0.198 A 
ATOM     67  F   UNL A   1      44.266  23.261  25.284  1.00  0.00    -0.203 F 
ATOM     68  F   UNL A   1      42.234  18.376  26.571  1.00  0.00    -0.200 F 
ATOM     69  C   UNL A   1      43.598  19.720  25.199  1.00  0.00     0.200 A 
ATOM     70  F   UNL A   1      44.978  21.108  23.892  1.00  0.00    -0.200 F 
ATOM     71  F   UNL A   1      44.088  18.631  24.589  1.00  0.00    -0.200 F 
ENDBRANCH  47  61
BRANCH  48  72
ATOM     72  C   UNL A   1      45.577  30.160  32.323  1.00  0.00     0.064 A 
ATOM     73  C   UNL A   1      45.164  30.393  33.643  1.00  0.00     0.173 A 
ATOM     74  C   UNL A   1      46.801  30.808  31.985  1.00  0.00     0.173 A 
ATOM     75  F   UNL A   1      44.012  29.917  34.117  1.00  0.00    -0.203 F 
ATOM     76  C   UNL A   1      45.936  31.128  34.559  1.00  0.00     0.198 A 
ATOM     77  C   UNL A   1      47.595  31.494  32.908  1.00  0.00     0.198 A 
ATOM     78  F   UNL A   1      47.287  30.784  30.737  1.00  0.00    -0.203 F 
ATOM     79  F   UNL A   1      45.485  31.307  35.808  1.00  0.00    -0.200 F 
ATOM     80  C   UNL A   1      47.167  31.644  34.204  1.00  0.00     0.200 A 
ATOM     81  F   UNL A   1      48.786  31.979  32.531  1.00  0.00    -0.200 F 
ATOM     82  F   UNL A   1      47.930  32.281  35.102  1.00  0.00    -0.200 F 
ENDBRANCH  48  72
BRANCH  60  83
ATOM     83  C   UNL A   1      46.170  26.205  27.746  1.00  0.00     0.064 A 
ATOM     84  C   UNL A   1      45.011  26.644  27.086  1.00  0.00     0.173 A 
ATOM     85  C   UNL A   1      47.372  26.310  27.028  1.00  0.00     0.173 A 
ATOM     86  F   UNL A   1      43.823  26.582  27.706  1.00  0.00    -0.203 F 
ATOM     87  C   UNL A   1      45.056  27.130  25.776  1.00  0.00     0.198 A 
ATOM     88  C   UNL A   1      47.423  26.811  25.727  1.00  0.00     0.198 A 
ATOM     89  F   UNL A   1      48.521  25.909  27.572  1.00  0.00    -0.203 F 
ATOM     90  F   UNL A   1      43.926  27.517  25.168  1.00  0.00    -0.200 F 
ATOM     91  C   UNL A   1      46.261  27.210  25.096  1.00  0.00     0.200 A 
ATOM     92  F   UNL A   1      48.600  26.900  25.089  1.00  0.00    -0.200 F 
ATOM     93  F   UNL A   1      46.303  27.676  23.840  1.00  0.00    -0.200 F 
ENDBRANCH  60  83
ENDBRANCH  34  35
ENDBRANCH  26  29
ENDBRANCH  24  25
ENDBRANCH  23  24
ENDBRANCH   1  23
TORSDOF 14
ENDMDL
MODEL 3
REMARK VINA RESULT:     -12.6      1.120      2.132
REMARK SMILES CC(C)n1c(CCC(=O)NCCCNC(=O)c2ccc(-c3c4nc(c(-c5c(F)c(F)c(F)c(F)c5F)c5ccc([nH]5)c(-c5c(F)c(F)c(F)c(F)c5F)c5nc(c(-c6c(F)c(F)c(F)c(F)c6F)c6ccc3[nH]6)C=C5)C=C4)cc2)ccc1-c1ccc(F)cc1
REMARK SMILES IDX 11 1 10 2 8 3 9 4 7 6 6 7 5 8 4 9 82 10 80 11 81 12 2 13
REMARK SMILES IDX 1 14 3 15 83 16 84 17 89 18 85 19 88 20 86 21 87 22 12 23
REMARK SMILES IDX 13 24 14 25 15 26 16 28 17 29 18 30 79 31 19 32 78 33 20 34
REMARK SMILES IDX 21 35 22 36 72 37 23 38 77 39 71 40 73 41 24 42 76 43 70 44
REMARK SMILES IDX 69 45 25 47 57 48 37 49 56 50 38 51 41 52 55 53 74 54 39 55
REMARK SMILES IDX 40 56 54 58 75 59 42 60 26 61 27 62 35 63 28 64 29 65 33 66
REMARK SMILES IDX 36 67 30 68 31 69 34 70 32 71 58 72 59 73 67 74 60 75 61 76
REMARK SMILES IDX 65 77 68 78 62 79 63 80 66 81 64 82 43 83 44 84 52 85 45 86
REMARK SMILES IDX 46 87 50 88 53 89 47 90 48 91 51 92 49 93
REMARK H PARENT 10 5 14 27 73 46 41 57
REMARK Flexibility Score: inf
ROOT
ATOM      1  C   UNL A   1      35.881  22.075  24.559  1.00  0.00     0.117 C 
ENDROOT
BRANCH   1   2
ATOM      2  N   UNL A   1      35.276  22.024  25.889  1.00  0.00    -0.356 N 
ATOM      3  C   UNL A   1      34.088  21.522  26.343  1.00  0.00     0.220 C 
ATOM      4  O   UNL A   1      33.898  21.559  27.562  1.00  0.00    -0.275 OA
ATOM      5  H   UNL A   1      35.830  22.430  26.593  1.00  0.00     0.163 HD
BRANCH   3   6
ATOM      6  C   UNL A   1      33.067  20.886  25.412  1.00  0.00     0.106 C 
BRANCH   6   7
ATOM      7  C   UNL A   1      32.389  21.893  24.457  1.00  0.00     0.064 C 
BRANCH   7   8
ATOM      8  C   UNL A   1      31.767  23.041  25.208  1.00  0.00     0.019 A 
ATOM      9  N   UNL A   1      32.167  24.369  25.092  1.00  0.00    -0.342 N 
ATOM     10  C   UNL A   1      31.119  25.160  25.577  1.00  0.00     0.048 A 
ATOM     11  C   UNL A   1      30.719  23.010  26.112  1.00  0.00     0.024 A 
ATOM     12  C   UNL A   1      30.312  24.342  26.346  1.00  0.00     0.029 A 
BRANCH   9  13
ATOM     13  C   UNL A   1      33.480  24.766  24.551  1.00  0.00     0.081 C 
ATOM     14  C   UNL A   1      33.602  25.465  23.195  1.00  0.00     0.031 C 
ATOM     15  C   UNL A   1      34.268  25.569  25.586  1.00  0.00     0.031 C 
ENDBRANCH   9  13
BRANCH  10  16
ATOM     16  C   UNL A   1      30.778  26.464  25.030  1.00  0.00    -0.002 A 
ATOM     17  C   UNL A   1      31.340  27.689  25.384  1.00  0.00     0.013 A 
ATOM     18  C   UNL A   1      29.855  26.417  23.997  1.00  0.00     0.013 A 
ATOM     19  C   UNL A   1      31.088  28.821  24.590  1.00  0.00     0.040 A 
ATOM     20  C   UNL A   1      29.766  27.476  23.124  1.00  0.00     0.040 A 
ATOM     21  C   UNL A   1      30.350  28.686  23.425  1.00  0.00     0.123 A 
ATOM     22  F   UNL A   1      30.246  29.694  22.552  1.00  0.00    -0.207 F 
ENDBRANCH  10  16
ENDBRANCH   7   8
ENDBRANCH   6   7
ENDBRANCH   3   6
ENDBRANCH   1   2
BRANCH   1  23
ATOM     23  C   UNL A   1      36.919  23.209  24.414  1.00  0.00     0.042 C 
BRANCH  23  24
ATOM     24  C   UNL A   1      37.470  23.825  25.719  1.00  0.00     0.118 C 
BRANCH  24  25
ATOM     25  N   UNL A   1      38.846  23.385  26.036  1.00  0.00    -0.352 N 
ATOM     26  C   UNL A   1      39.766  23.809  26.991  1.00  0.00     0.251 C 
ATOM     27  H   UNL A   1      39.173  22.653  25.463  1.00  0.00     0.163 HD
ATOM     28  O   UNL A   1      40.674  23.057  27.332  1.00  0.00    -0.269 OA
BRANCH  26  29
ATOM     29  C   UNL A   1      39.725  25.187  27.545  1.00  0.00     0.039 A 
ATOM     30  C   UNL A   1      40.182  26.332  26.901  1.00  0.00     0.014 A 
ATOM     31  C   UNL A   1      39.087  25.349  28.753  1.00  0.00     0.014 A 
ATOM     32  C   UNL A   1      40.061  27.592  27.539  1.00  0.00     0.010 A 
ATOM     33  C   UNL A   1      39.055  26.563  29.431  1.00  0.00     0.010 A 
ATOM     34  C   UNL A   1      39.548  27.724  28.854  1.00  0.00    -0.014 A 
BRANCH  34  35
ATOM     35  C   UNL A   1      39.615  29.034  29.621  1.00  0.00     0.031 A 
ATOM     36  C   UNL A   1      38.424  30.017  29.533  1.00  0.00     0.074 A 
ATOM     37  C   UNL A   1      40.753  29.257  30.351  1.00  0.00     0.049 A 
ATOM     38  N   UNL A   1      38.431  31.312  29.343  1.00  0.00    -0.248 NA
ATOM     39  C   UNL A   1      37.035  29.513  29.629  1.00  0.00     0.031 C 
ATOM     40  C   UNL A   1      41.760  28.214  30.615  1.00  0.00     0.029 A 
ATOM     41  N   UNL A   1      41.301  30.344  31.019  1.00  0.00    -0.354 N 
ATOM     42  C   UNL A   1      37.085  31.756  29.376  1.00  0.00     0.074 A 
ATOM     43  C   UNL A   1      36.275  30.581  29.382  1.00  0.00     0.031 C 
ATOM     44  C   UNL A   1      42.821  28.722  31.263  1.00  0.00     0.029 A 
ATOM     45  C   UNL A   1      42.624  30.136  31.497  1.00  0.00     0.049 A 
ATOM     46  H   UNL A   1      40.814  31.190  31.152  1.00  0.00     0.167 HD
ATOM     47  C   UNL A   1      36.685  33.046  29.600  1.00  0.00     0.037 A 
ATOM     48  C   UNL A   1      43.535  31.019  32.013  1.00  0.00     0.037 A 
ATOM     49  C   UNL A   1      37.805  33.877  29.884  1.00  0.00     0.049 A 
ATOM     50  C   UNL A   1      42.836  32.304  32.172  1.00  0.00     0.074 A 
ATOM     51  C   UNL A   1      38.831  34.406  29.151  1.00  0.00     0.029 A 
ATOM     52  N   UNL A   1      38.063  34.095  31.215  1.00  0.00    -0.354 N 
ATOM     53  N   UNL A   1      41.949  32.549  33.088  1.00  0.00    -0.248 NA
ATOM     54  C   UNL A   1      43.137  33.405  31.248  1.00  0.00     0.031 C 
ATOM     55  C   UNL A   1      39.870  34.611  30.089  1.00  0.00     0.029 A 
ATOM     56  C   UNL A   1      39.418  34.230  31.356  1.00  0.00     0.049 A 
ATOM     57  H   UNL A   1      37.395  34.145  31.936  1.00  0.00     0.167 HD
ATOM     58  C   UNL A   1      41.360  33.708  32.634  1.00  0.00     0.074 A 
ATOM     59  C   UNL A   1      42.293  34.320  31.719  1.00  0.00     0.031 C 
ATOM     60  C   UNL A   1      40.008  33.774  32.595  1.00  0.00     0.037 A 
BRANCH  47  61
ATOM     61  C   UNL A   1      35.325  33.653  29.897  1.00  0.00     0.064 A 
ATOM     62  C   UNL A   1      34.737  34.484  28.905  1.00  0.00     0.173 A 
ATOM     63  C   UNL A   1      34.736  33.724  31.167  1.00  0.00     0.173 A 
ATOM     64  F   UNL A   1      35.207  34.487  27.647  1.00  0.00    -0.203 F 
ATOM     65  C   UNL A   1      33.714  35.389  29.194  1.00  0.00     0.198 A 
ATOM     66  C   UNL A   1      33.665  34.587  31.437  1.00  0.00     0.198 A 
ATOM     67  F   UNL A   1      35.237  33.051  32.210  1.00  0.00    -0.203 F 
ATOM     68  F   UNL A   1      33.293  36.246  28.252  1.00  0.00    -0.200 F 
ATOM     69  C   UNL A   1      33.182  35.444  30.464  1.00  0.00     0.200 A 
ATOM     70  F   UNL A   1      33.151  34.637  32.675  1.00  0.00    -0.200 F 
ATOM     71  F   UNL A   1      32.235  36.346  30.763  1.00  0.00    -0.200 F 
ENDBRANCH  47  61
BRANCH  48  72
ATOM     72  C   UNL A   1      45.009  31.013  32.387  1.00  0.00     0.064 A 
ATOM     73  C   UNL A   1      45.545  31.299  33.651  1.00  0.00     0.173 A 
ATOM     74  C   UNL A   1      45.980  30.573  31.441  1.00  0.00     0.173 A 
ATOM     75  F   UNL A   1      44.795  31.780  34.644  1.00  0.00    -0.203 F 
ATOM     76  C   UNL A   1      46.899  31.086  33.964  1.00  0.00     0.198 A 
ATOM     77  C   UNL A   1      47.314  30.310  31.765  1.00  0.00     0.198 A 
ATOM     78  F   UNL A   1      45.664  30.359  30.156  1.00  0.00    -0.203 F 
ATOM     79  F   UNL A   1      47.344  31.375  35.195  1.00  0.00    -0.200 F 
ATOM     80  C   UNL A   1      47.773  30.557  33.036  1.00  0.00     0.200 A 
ATOM     81  F   UNL A   1      48.135  29.793  30.840  1.00  0.00    -0.200 F 
ATOM     82  F   UNL A   1      49.043  30.290  33.363  1.00  0.00    -0.200 F 
ENDBRANCH  48  72
BRANCH  60  83
ATOM     83  C   UNL A   1      39.353  32.868  33.620  1.00  0.00     0.064 A 
ATOM     84  C   UNL A   1      39.402  33.196  34.984  1.00  0.00     0.173 A 
ATOM     85  C   UNL A   1      38.842  31.598  33.304  1.00  0.00     0.173 A 
ATOM     86  F   UNL A   1      39.872  34.392  35.369  1.00  0.00    -0.203 F 
ATOM     87  C   UNL A   1      38.990  32.293  35.969  1.00  0.00     0.198 A 
ATOM     88  C   UNL A   1      38.414  30.701  34.282  1.00  0.00     0.198 A 
ATOM     89  F   UNL A   1      38.767  31.198  32.035  1.00  0.00    -0.203 F 
ATOM     90  F   UNL A   1      39.075  32.631  37.264  1.00  0.00    -0.200 F 
ATOM     91  C   UNL A   1      38.500  31.045  35.618  1.00  0.00     0.200 A 
ATOM     92  F   UNL A   1      37.925  29.504  33.926  1.00  0.00    -0.200 F 
ATOM     93  F   UNL A   1      38.106  30.179  36.562  1.00  0.00    -0.200 F 
ENDBRANCH  60  83
ENDBRANCH  34  35
ENDBRANCH  26  29
ENDBRANCH  24  25
ENDBRANCH  23  24
ENDBRANCH   1  23
TORSDOF 14
ENDMDL
