MODEL 1
REMARK VINA RESULT:     -13.4      0.000      0.000
REMARK SMILES CC(C)N(c1cc2c(cc1Cl)C=C(C(=O)NCCCNC(=O)c1ccc(-c3c4nc(c(-c5c(F)c(F)c(F)c(F)c5F)c5ccc([nH]5)c(-c5c(F)c(F)c(F)c(F)c5F)c5nc(c(-c6c(F)c(F)c(F)c(F)c6F)c6ccc3[nH]6)C=C5)C=C4)cc1)[C@@H](C(F)(F)F)O2)C(C)C
REMARK SMILES IDX 18 1 17 2 16 3 14 4 15 5 13 7 5 8 6 9 10 10 7 11 9 12 11 13
REMARK SMILES IDX 8 14 91 15 12 16 86 17 4 18 2 19 1 20 3 21 92 22 93 23 94 24
REMARK SMILES IDX 87 25 88 26 89 27 90 28 19 29 20 30 21 31 22 33 23 34 24 35
REMARK SMILES IDX 85 36 25 37 84 38 26 39 27 40 28 41 78 42 29 43 83 44 77 45
REMARK SMILES IDX 79 46 30 47 82 48 76 49 75 50 31 52 63 53 43 54 62 55 44 56
REMARK SMILES IDX 47 57 61 58 80 59 45 60 46 61 60 63 81 64 48 65 32 66 33 67
REMARK SMILES IDX 41 68 34 69 35 70 39 71 42 72 36 73 37 74 40 75 38 76 64 77
REMARK SMILES IDX 65 78 73 79 66 80 67 81 71 82 74 83 68 84 69 85 72 86 70 87
REMARK SMILES IDX 49 88 50 89 58 90 51 91 52 92 56 93 59 94 53 95 54 96 57 97
REMARK SMILES IDX 55 98
REMARK H PARENT 16 6 20 32 79 51 47 62
REMARK Flexibility Score: inf
ROOT
ATOM      1  C   UNL A   1      31.449  31.891  26.606  1.00  0.00     0.042 C 
ENDROOT
BRANCH   1   2
ATOM      2  C   UNL A   1      31.799  30.590  25.898  1.00  0.00     0.118 C 
BRANCH   2   3
ATOM      3  N   UNL A   1      30.859  30.290  24.829  1.00  0.00    -0.352 N 
ATOM      4  C   UNL A   1      30.642  29.289  23.946  1.00  0.00     0.251 C 
ATOM      5  O   UNL A   1      29.703  29.477  23.166  1.00  0.00    -0.270 OA
ATOM      6  H   UNL A   1      30.200  31.013  24.717  1.00  0.00     0.163 HD
BRANCH   4   7
ATOM      7  C   UNL A   1      31.431  28.028  23.861  1.00  0.00     0.067 C 
ATOM      8  C   UNL A   1      33.549  23.513  24.759  1.00  0.00     0.060 A 
ATOM      9  C   UNL A   1      33.390  24.337  23.629  1.00  0.00     0.074 A 
ATOM     10  C   UNL A   1      32.901  23.934  25.946  1.00  0.00     0.065 A 
ATOM     11  C   UNL A   1      32.669  25.530  23.688  1.00  0.00     0.130 A 
ATOM     12  C   UNL A   1      32.128  25.107  25.985  1.00  0.00     0.034 A 
ATOM     13  Cl  UNL A   1      33.083  23.109  27.461  1.00  0.00    -0.082 Cl
ATOM     14  C   UNL A   1      32.020  25.915  24.857  1.00  0.00     0.019 A 
ATOM     15  O   UNL A   1      32.621  26.284  22.549  1.00  0.00    -0.475 OA
ATOM     16  C   UNL A   1      31.245  27.149  24.865  1.00  0.00     0.025 C 
ATOM     17  C   UNL A   1      32.416  27.710  22.770  1.00  0.00     0.314 C 
BRANCH   8  18
ATOM     18  N   UNL A   1      34.346  22.355  24.652  1.00  0.00    -0.365 N 
BRANCH  18  19
ATOM     19  C   UNL A   1      35.813  22.545  24.648  1.00  0.00     0.076 C 
ATOM     20  C   UNL A   1      36.378  22.789  23.251  1.00  0.00     0.030 C 
ATOM     21  C   UNL A   1      36.284  23.623  25.621  1.00  0.00     0.030 C 
ENDBRANCH  18  19
BRANCH  18  22
ATOM     22  C   UNL A   1      33.631  21.059  24.718  1.00  0.00     0.076 C 
ATOM     23  C   UNL A   1      32.587  20.900  23.616  1.00  0.00     0.030 C 
ATOM     24  C   UNL A   1      34.560  19.849  24.780  1.00  0.00     0.030 C 
ENDBRANCH  18  22
ENDBRANCH   8  18
BRANCH  17  25
ATOM     25  C   UNL A   1      33.774  28.412  22.976  1.00  0.00     0.429 C 
ATOM     26  F   UNL A   1      33.597  29.748  23.124  1.00  0.00    -0.167 F 
ATOM     27  F   UNL A   1      34.413  27.985  24.092  1.00  0.00    -0.167 F 
ATOM     28  F   UNL A   1      34.628  28.226  21.945  1.00  0.00    -0.167 F 
ENDBRANCH  17  25
ENDBRANCH   4   7
ENDBRANCH   2   3
ENDBRANCH   1   2
BRANCH   1  29
ATOM     29  C   UNL A   1      32.664  32.536  27.263  1.00  0.00     0.118 C 
BRANCH  29  30
ATOM     30  N   UNL A   1      32.438  33.946  27.572  1.00  0.00    -0.352 N 
ATOM     31  C   UNL A   1      33.008  34.754  28.527  1.00  0.00     0.251 C 
ATOM     32  H   UNL A   1      31.768  34.390  27.004  1.00  0.00     0.163 HD
ATOM     33  O   UNL A   1      32.515  35.849  28.779  1.00  0.00    -0.269 OA
BRANCH  31  34
ATOM     34  C   UNL A   1      34.201  34.296  29.268  1.00  0.00     0.039 A 
ATOM     35  C   UNL A   1      35.478  34.547  28.769  1.00  0.00     0.014 A 
ATOM     36  C   UNL A   1      34.044  33.605  30.472  1.00  0.00     0.014 A 
ATOM     37  C   UNL A   1      36.575  33.932  29.352  1.00  0.00     0.010 A 
ATOM     38  C   UNL A   1      35.165  33.080  31.123  1.00  0.00     0.010 A 
ATOM     39  C   UNL A   1      36.434  33.188  30.535  1.00  0.00    -0.014 A 
BRANCH  39  40
ATOM     40  C   UNL A   1      37.631  32.528  31.117  1.00  0.00     0.031 A 
ATOM     41  C   UNL A   1      38.089  32.864  32.511  1.00  0.00     0.074 A 
ATOM     42  C   UNL A   1      38.247  31.554  30.418  1.00  0.00     0.049 A 
ATOM     43  N   UNL A   1      39.091  32.365  33.192  1.00  0.00    -0.248 NA
ATOM     44  C   UNL A   1      37.330  33.893  33.238  1.00  0.00     0.031 C 
ATOM     45  C   UNL A   1      37.875  31.126  29.069  1.00  0.00     0.029 A 
ATOM     46  N   UNL A   1      39.282  30.721  30.757  1.00  0.00    -0.354 N 
ATOM     47  C   UNL A   1      39.094  33.031  34.411  1.00  0.00     0.074 A 
ATOM     48  C   UNL A   1      38.013  33.990  34.371  1.00  0.00     0.031 C 
ATOM     49  C   UNL A   1      38.613  30.060  28.727  1.00  0.00     0.029 A 
ATOM     50  C   UNL A   1      39.562  29.779  29.798  1.00  0.00     0.049 A 
ATOM     51  H   UNL A   1      39.775  30.791  31.607  1.00  0.00     0.167 HD
ATOM     52  C   UNL A   1      39.916  32.848  35.470  1.00  0.00     0.037 A 
ATOM     53  C   UNL A   1      40.489  28.803  29.777  1.00  0.00     0.037 A 
ATOM     54  C   UNL A   1      40.972  31.870  35.518  1.00  0.00     0.049 A 
ATOM     55  C   UNL A   1      41.417  28.654  30.947  1.00  0.00     0.074 A 
ATOM     56  C   UNL A   1      41.857  31.606  36.548  1.00  0.00     0.029 A 
ATOM     57  N   UNL A   1      41.276  30.986  34.492  1.00  0.00    -0.354 N 
ATOM     58  N   UNL A   1      41.424  29.310  32.082  1.00  0.00    -0.248 NA
ATOM     59  C   UNL A   1      42.475  27.644  30.827  1.00  0.00     0.031 C 
ATOM     60  C   UNL A   1      42.720  30.587  36.133  1.00  0.00     0.029 A 
ATOM     61  C   UNL A   1      42.346  30.187  34.861  1.00  0.00     0.049 A 
ATOM     62  H   UNL A   1      40.802  30.935  33.631  1.00  0.00     0.167 HD
ATOM     63  C   UNL A   1      42.483  28.792  32.813  1.00  0.00     0.074 A 
ATOM     64  C   UNL A   1      43.079  27.749  32.004  1.00  0.00     0.031 C 
ATOM     65  C   UNL A   1      42.926  29.155  34.040  1.00  0.00     0.037 A 
BRANCH  52  66
ATOM     66  C   UNL A   1      39.718  33.723  36.672  1.00  0.00     0.064 A 
ATOM     67  C   UNL A   1      40.299  34.996  36.759  1.00  0.00     0.173 A 
ATOM     68  C   UNL A   1      38.879  33.313  37.721  1.00  0.00     0.173 A 
ATOM     69  F   UNL A   1      41.119  35.431  35.789  1.00  0.00    -0.203 F 
ATOM     70  C   UNL A   1      40.059  35.821  37.855  1.00  0.00     0.198 A 
ATOM     71  C   UNL A   1      38.622  34.149  38.804  1.00  0.00     0.198 A 
ATOM     72  F   UNL A   1      38.295  32.105  37.685  1.00  0.00    -0.203 F 
ATOM     73  F   UNL A   1      40.649  37.022  37.930  1.00  0.00    -0.200 F 
ATOM     74  C   UNL A   1      39.214  35.401  38.871  1.00  0.00     0.200 A 
ATOM     75  F   UNL A   1      37.796  33.746  39.779  1.00  0.00    -0.200 F 
ATOM     76  F   UNL A   1      38.973  36.202  39.918  1.00  0.00    -0.200 F 
ENDBRANCH  52  66
BRANCH  53  77
ATOM     77  C   UNL A   1      40.576  27.898  28.602  1.00  0.00     0.064 A 
ATOM     78  C   UNL A   1      39.878  26.685  28.578  1.00  0.00     0.173 A 
ATOM     79  C   UNL A   1      41.329  28.242  27.470  1.00  0.00     0.173 A 
ATOM     80  F   UNL A   1      39.160  26.302  29.645  1.00  0.00    -0.203 F 
ATOM     81  C   UNL A   1      39.930  25.847  27.465  1.00  0.00     0.198 A 
ATOM     82  C   UNL A   1      41.358  27.419  26.348  1.00  0.00     0.198 A 
ATOM     83  F   UNL A   1      42.015  29.395  27.444  1.00  0.00    -0.203 F 
ATOM     84  F   UNL A   1      39.274  24.679  27.476  1.00  0.00    -0.200 F 
ATOM     85  C   UNL A   1      40.661  26.221  26.347  1.00  0.00     0.200 A 
ATOM     86  F   UNL A   1      42.051  27.792  25.264  1.00  0.00    -0.200 F 
ATOM     87  F   UNL A   1      40.697  25.423  25.270  1.00  0.00    -0.200 F 
ENDBRANCH  53  77
BRANCH  65  88
ATOM     88  C   UNL A   1      44.111  28.419  34.588  1.00  0.00     0.064 A 
ATOM     89  C   UNL A   1      43.958  27.221  35.300  1.00  0.00     0.173 A 
ATOM     90  C   UNL A   1      45.412  28.883  34.346  1.00  0.00     0.173 A 
ATOM     91  F   UNL A   1      42.732  26.747  35.568  1.00  0.00    -0.203 F 
ATOM     92  C   UNL A   1      45.067  26.520  35.763  1.00  0.00     0.198 A 
ATOM     93  C   UNL A   1      46.519  28.166  34.790  1.00  0.00     0.198 A 
ATOM     94  F   UNL A   1      45.608  30.020  33.664  1.00  0.00    -0.203 F 
ATOM     95  F   UNL A   1      44.898  25.394  36.471  1.00  0.00    -0.200 F 
ATOM     96  C   UNL A   1      46.346  26.988  35.501  1.00  0.00     0.200 A 
ATOM     97  F   UNL A   1      47.755  28.612  34.525  1.00  0.00    -0.200 F 
ATOM     98  F   UNL A   1      47.413  26.305  35.937  1.00  0.00    -0.200 F 
ENDBRANCH  65  88
ENDBRANCH  39  40
ENDBRANCH  31  34
ENDBRANCH  29  30
ENDBRANCH   1  29
TORSDOF 14
ENDMDL
MODEL 2
REMARK VINA RESULT:     -13.4      5.380     10.911
REMARK SMILES CC(C)N(c1cc2c(cc1Cl)C=C(C(=O)NCCCNC(=O)c1ccc(-c3c4nc(c(-c5c(F)c(F)c(F)c(F)c5F)c5ccc([nH]5)c(-c5c(F)c(F)c(F)c(F)c5F)c5nc(c(-c6c(F)c(F)c(F)c(F)c6F)c6ccc3[nH]6)C=C5)C=C4)cc1)[C@@H](C(F)(F)F)O2)C(C)C
REMARK SMILES IDX 18 1 17 2 16 3 14 4 15 5 13 7 5 8 6 9 10 10 7 11 9 12 11 13
REMARK SMILES IDX 8 14 91 15 12 16 86 17 4 18 2 19 1 20 3 21 92 22 93 23 94 24
REMARK SMILES IDX 87 25 88 26 89 27 90 28 19 29 20 30 21 31 22 33 23 34 24 35
REMARK SMILES IDX 85 36 25 37 84 38 26 39 27 40 28 41 78 42 29 43 83 44 77 45
REMARK SMILES IDX 79 46 30 47 82 48 76 49 75 50 31 52 63 53 43 54 62 55 44 56
REMARK SMILES IDX 47 57 61 58 80 59 45 60 46 61 60 63 81 64 48 65 32 66 33 67
REMARK SMILES IDX 41 68 34 69 35 70 39 71 42 72 36 73 37 74 40 75 38 76 64 77
REMARK SMILES IDX 65 78 73 79 66 80 67 81 71 82 74 83 68 84 69 85 72 86 70 87
REMARK SMILES IDX 49 88 50 89 58 90 51 91 52 92 56 93 59 94 53 95 54 96 57 97
REMARK SMILES IDX 55 98
REMARK H PARENT 16 6 20 32 79 51 47 62
REMARK Flexibility Score: inf
ROOT
ATOM      1  C   UNL A   1      38.044  19.747  24.956  1.00  0.00     0.042 C 
ENDROOT
BRANCH   1   2
ATOM      2  C   UNL A   1      36.796  20.558  25.275  1.00  0.00     0.118 C 
BRANCH   2   3
ATOM      3  N   UNL A   1      35.583  19.838  24.921  1.00  0.00    -0.352 N 
ATOM      4  C   UNL A   1      34.266  20.115  24.783  1.00  0.00     0.251 C 
ATOM      5  O   UNL A   1      33.560  19.148  24.480  1.00  0.00    -0.270 OA
ATOM      6  H   UNL A   1      35.770  18.891  24.730  1.00  0.00     0.163 HD
BRANCH   4   7
ATOM      7  C   UNL A   1      33.643  21.456  24.963  1.00  0.00     0.067 C 
ATOM      8  C   UNL A   1      32.122  26.257  24.408  1.00  0.00     0.060 A 
ATOM      9  C   UNL A   1      31.738  25.173  25.219  1.00  0.00     0.074 A 
ATOM     10  C   UNL A   1      33.093  25.991  23.411  1.00  0.00     0.065 A 
ATOM     11  C   UNL A   1      32.319  23.913  25.080  1.00  0.00     0.130 A 
ATOM     12  C   UNL A   1      33.632  24.705  23.237  1.00  0.00     0.034 A 
ATOM     13  Cl  UNL A   1      33.769  27.227  22.400  1.00  0.00    -0.082 Cl
ATOM     14  C   UNL A   1      33.254  23.664  24.080  1.00  0.00     0.019 A 
ATOM     15  O   UNL A   1      31.916  22.943  25.955  1.00  0.00    -0.475 OA
ATOM     16  C   UNL A   1      33.807  22.322  23.944  1.00  0.00     0.025 C 
ATOM     17  C   UNL A   1      32.896  21.891  26.193  1.00  0.00     0.314 C 
BRANCH   8  18
ATOM     18  N   UNL A   1      31.547  27.523  24.643  1.00  0.00    -0.365 N 
BRANCH  18  19
ATOM     19  C   UNL A   1      32.086  28.306  25.776  1.00  0.00     0.076 C 
ATOM     20  C   UNL A   1      31.431  27.952  27.110  1.00  0.00     0.030 C 
ATOM     21  C   UNL A   1      33.607  28.244  25.884  1.00  0.00     0.030 C 
ENDBRANCH  18  19
BRANCH  18  22
ATOM     22  C   UNL A   1      30.576  28.001  23.631  1.00  0.00     0.076 C 
ATOM     23  C   UNL A   1      29.271  27.210  23.640  1.00  0.00     0.030 C 
ATOM     24  C   UNL A   1      30.313  29.503  23.695  1.00  0.00     0.030 C 
ENDBRANCH  18  22
ENDBRANCH   8  18
BRANCH  17  25
ATOM     25  C   UNL A   1      33.838  22.300  27.344  1.00  0.00     0.429 C 
ATOM     26  F   UNL A   1      34.528  21.223  27.795  1.00  0.00    -0.167 F 
ATOM     27  F   UNL A   1      34.763  23.211  26.956  1.00  0.00    -0.167 F 
ATOM     28  F   UNL A   1      33.184  22.835  28.399  1.00  0.00    -0.167 F 
ENDBRANCH  17  25
ENDBRANCH   4   7
ENDBRANCH   2   3
ENDBRANCH   1   2
BRANCH   1  29
ATOM     29  C   UNL A   1      39.248  20.191  25.780  1.00  0.00     0.118 C 
BRANCH  29  30
ATOM     30  N   UNL A   1      40.254  19.137  25.896  1.00  0.00    -0.352 N 
ATOM     31  C   UNL A   1      41.615  19.216  26.061  1.00  0.00     0.251 C 
ATOM     32  H   UNL A   1      39.897  18.221  25.848  1.00  0.00     0.163 HD
ATOM     33  O   UNL A   1      42.312  18.218  25.903  1.00  0.00    -0.269 OA
BRANCH  31  34
ATOM     34  C   UNL A   1      42.246  20.507  26.406  1.00  0.00     0.039 A 
ATOM     35  C   UNL A   1      42.284  20.938  27.731  1.00  0.00     0.014 A 
ATOM     36  C   UNL A   1      42.800  21.297  25.397  1.00  0.00     0.014 A 
ATOM     37  C   UNL A   1      42.679  22.236  28.019  1.00  0.00     0.010 A 
ATOM     38  C   UNL A   1      43.304  22.565  25.705  1.00  0.00     0.010 A 
ATOM     39  C   UNL A   1      43.191  23.067  27.010  1.00  0.00    -0.014 A 
BRANCH  39  40
ATOM     40  C   UNL A   1      43.585  24.458  27.356  1.00  0.00     0.031 A 
ATOM     41  C   UNL A   1      44.978  24.953  27.074  1.00  0.00     0.074 A 
ATOM     42  C   UNL A   1      42.652  25.302  27.837  1.00  0.00     0.049 A 
ATOM     43  N   UNL A   1      45.488  26.143  27.278  1.00  0.00    -0.248 NA
ATOM     44  C   UNL A   1      45.927  23.992  26.489  1.00  0.00     0.031 C 
ATOM     45  C   UNL A   1      41.262  24.942  28.126  1.00  0.00     0.029 A 
ATOM     46  N   UNL A   1      42.714  26.641  28.127  1.00  0.00    -0.354 N 
ATOM     47  C   UNL A   1      46.813  26.066  26.869  1.00  0.00     0.074 A 
ATOM     48  C   UNL A   1      47.042  24.707  26.429  1.00  0.00     0.031 C 
ATOM     49  C   UNL A   1      40.585  26.045  28.473  1.00  0.00     0.029 A 
ATOM     50  C   UNL A   1      41.507  27.175  28.508  1.00  0.00     0.049 A 
ATOM     51  H   UNL A   1      43.543  27.169  28.068  1.00  0.00     0.167 HD
ATOM     52  C   UNL A   1      47.748  27.045  26.850  1.00  0.00     0.037 A 
ATOM     53  C   UNL A   1      41.180  28.433  28.858  1.00  0.00     0.037 A 
ATOM     54  C   UNL A   1      47.507  28.404  27.259  1.00  0.00     0.049 A 
ATOM     55  C   UNL A   1      42.248  29.487  28.871  1.00  0.00     0.074 A 
ATOM     56  C   UNL A   1      48.390  29.469  27.274  1.00  0.00     0.029 A 
ATOM     57  N   UNL A   1      46.289  28.887  27.716  1.00  0.00    -0.354 N 
ATOM     58  N   UNL A   1      43.504  29.392  28.507  1.00  0.00    -0.248 NA
ATOM     59  C   UNL A   1      41.860  30.815  29.361  1.00  0.00     0.031 C 
ATOM     60  C   UNL A   1      47.717  30.589  27.773  1.00  0.00     0.029 A 
ATOM     61  C   UNL A   1      46.403  30.232  28.029  1.00  0.00     0.049 A 
ATOM     62  H   UNL A   1      45.467  28.354  27.803  1.00  0.00     0.167 HD
ATOM     63  C   UNL A   1      44.056  30.646  28.720  1.00  0.00     0.074 A 
ATOM     64  C   UNL A   1      42.992  31.492  29.221  1.00  0.00     0.031 C 
ATOM     65  C   UNL A   1      45.333  31.056  28.528  1.00  0.00     0.037 A 
BRANCH  52  66
ATOM     66  C   UNL A   1      49.126  26.689  26.376  1.00  0.00     0.064 A 
ATOM     67  C   UNL A   1      49.512  26.866  25.039  1.00  0.00     0.173 A 
ATOM     68  C   UNL A   1      50.094  26.231  27.283  1.00  0.00     0.173 A 
ATOM     69  F   UNL A   1      48.620  27.289  24.130  1.00  0.00    -0.203 F 
ATOM     70  C   UNL A   1      50.812  26.586  24.626  1.00  0.00     0.198 A 
ATOM     71  C   UNL A   1      51.400  25.975  26.871  1.00  0.00     0.198 A 
ATOM     72  F   UNL A   1      49.779  26.048  28.574  1.00  0.00    -0.203 F 
ATOM     73  F   UNL A   1      51.150  26.734  23.337  1.00  0.00    -0.200 F 
ATOM     74  C   UNL A   1      51.756  26.150  25.542  1.00  0.00     0.200 A 
ATOM     75  F   UNL A   1      52.314  25.564  27.760  1.00  0.00    -0.200 F 
ATOM     76  F   UNL A   1      53.010  25.895  25.145  1.00  0.00    -0.200 F 
ENDBRANCH  52  66
BRANCH  53  77
ATOM     77  C   UNL A   1      39.775  28.752  29.222  1.00  0.00     0.064 A 
ATOM     78  C   UNL A   1      38.872  29.216  28.258  1.00  0.00     0.173 A 
ATOM     79  C   UNL A   1      39.301  28.568  30.529  1.00  0.00     0.173 A 
ATOM     80  F   UNL A   1      39.283  29.427  26.999  1.00  0.00    -0.203 F 
ATOM     81  C   UNL A   1      37.545  29.486  28.588  1.00  0.00     0.198 A 
ATOM     82  C   UNL A   1      37.968  28.811  30.851  1.00  0.00     0.198 A 
ATOM     83  F   UNL A   1      40.127  28.124  31.488  1.00  0.00    -0.203 F 
ATOM     84  F   UNL A   1      36.705  29.954  27.654  1.00  0.00    -0.200 F 
ATOM     85  C   UNL A   1      37.092  29.272  29.882  1.00  0.00     0.200 A 
ATOM     86  F   UNL A   1      37.531  28.587  32.098  1.00  0.00    -0.200 F 
ATOM     87  F   UNL A   1      35.811  29.515  30.195  1.00  0.00    -0.200 F 
ENDBRANCH  53  77
BRANCH  65  88
ATOM     88  C   UNL A   1      45.652  32.483  28.854  1.00  0.00     0.064 A 
ATOM     89  C   UNL A   1      45.501  33.500  27.900  1.00  0.00     0.173 A 
ATOM     90  C   UNL A   1      46.053  32.846  30.148  1.00  0.00     0.173 A 
ATOM     91  F   UNL A   1      45.134  33.198  26.645  1.00  0.00    -0.203 F 
ATOM     92  C   UNL A   1      45.755  34.828  28.227  1.00  0.00     0.198 A 
ATOM     93  C   UNL A   1      46.282  34.178  30.477  1.00  0.00     0.198 A 
ATOM     94  F   UNL A   1      46.205  31.910  31.096  1.00  0.00    -0.203 F 
ATOM     95  F   UNL A   1      45.637  35.781  27.290  1.00  0.00    -0.200 F 
ATOM     96  C   UNL A   1      46.136  35.168  29.516  1.00  0.00     0.200 A 
ATOM     97  F   UNL A   1      46.638  34.507  31.727  1.00  0.00    -0.200 F 
ATOM     98  F   UNL A   1      46.368  36.449  29.832  1.00  0.00    -0.200 F 
ENDBRANCH  65  88
ENDBRANCH  39  40
ENDBRANCH  31  34
ENDBRANCH  29  30
ENDBRANCH   1  29
TORSDOF 14
ENDMDL
MODEL 3
REMARK VINA RESULT:     -13.3      5.374     10.934
REMARK SMILES CC(C)N(c1cc2c(cc1Cl)C=C(C(=O)NCCCNC(=O)c1ccc(-c3c4nc(c(-c5c(F)c(F)c(F)c(F)c5F)c5ccc([nH]5)c(-c5c(F)c(F)c(F)c(F)c5F)c5nc(c(-c6c(F)c(F)c(F)c(F)c6F)c6ccc3[nH]6)C=C5)C=C4)cc1)[C@@H](C(F)(F)F)O2)C(C)C
REMARK SMILES IDX 18 1 17 2 16 3 14 4 15 5 13 7 5 8 6 9 10 10 7 11 9 12 11 13
REMARK SMILES IDX 8 14 91 15 12 16 86 17 4 18 2 19 1 20 3 21 92 22 93 23 94 24
REMARK SMILES IDX 87 25 88 26 89 27 90 28 19 29 20 30 21 31 22 33 23 34 24 35
REMARK SMILES IDX 85 36 25 37 84 38 26 39 27 40 28 41 78 42 29 43 83 44 77 45
REMARK SMILES IDX 79 46 30 47 82 48 76 49 75 50 31 52 63 53 43 54 62 55 44 56
REMARK SMILES IDX 47 57 61 58 80 59 45 60 46 61 60 63 81 64 48 65 32 66 33 67
REMARK SMILES IDX 41 68 34 69 35 70 39 71 42 72 36 73 37 74 40 75 38 76 64 77
REMARK SMILES IDX 65 78 73 79 66 80 67 81 71 82 74 83 68 84 69 85 72 86 70 87
REMARK SMILES IDX 49 88 50 89 58 90 51 91 52 92 56 93 59 94 53 95 54 96 57 97
REMARK SMILES IDX 55 98
REMARK H PARENT 16 6 20 32 79 51 47 62
REMARK Flexibility Score: inf
ROOT
ATOM      1  C   UNL A   1      38.093  19.730  24.956  1.00  0.00     0.042 C 
ENDROOT
BRANCH   1   2
ATOM      2  C   UNL A   1      36.863  20.599  25.175  1.00  0.00     0.118 C 
BRANCH   2   3
ATOM      3  N   UNL A   1      35.634  19.872  24.897  1.00  0.00    -0.352 N 
ATOM      4  C   UNL A   1      34.313  20.148  24.803  1.00  0.00     0.251 C 
ATOM      5  O   UNL A   1      33.594  19.174  24.563  1.00  0.00    -0.270 OA
ATOM      6  H   UNL A   1      35.812  18.918  24.731  1.00  0.00     0.163 HD
BRANCH   4   7
ATOM      7  C   UNL A   1      33.701  21.497  24.962  1.00  0.00     0.067 C 
ATOM      8  C   UNL A   1      32.239  26.309  24.344  1.00  0.00     0.060 A 
ATOM      9  C   UNL A   1      31.831  25.235  25.157  1.00  0.00     0.074 A 
ATOM     10  C   UNL A   1      33.223  26.024  23.366  1.00  0.00     0.065 A 
ATOM     11  C   UNL A   1      32.401  23.968  25.037  1.00  0.00     0.130 A 
ATOM     12  C   UNL A   1      33.752  24.732  23.211  1.00  0.00     0.034 A 
ATOM     13  Cl  UNL A   1      33.929  27.246  22.356  1.00  0.00    -0.082 Cl
ATOM     14  C   UNL A   1      33.349  23.702  24.056  1.00  0.00     0.019 A 
ATOM     15  O   UNL A   1      31.973  23.009  25.913  1.00  0.00    -0.475 OA
ATOM     16  C   UNL A   1      33.891  22.354  23.939  1.00  0.00     0.025 C 
ATOM     17  C   UNL A   1      32.939  21.949  26.176  1.00  0.00     0.314 C 
BRANCH   8  18
ATOM     18  N   UNL A   1      31.673  27.582  24.559  1.00  0.00    -0.365 N 
BRANCH  18  19
ATOM     19  C   UNL A   1      30.572  27.990  23.659  1.00  0.00     0.076 C 
ATOM     20  C   UNL A   1      29.324  27.123  23.813  1.00  0.00     0.030 C 
ATOM     21  C   UNL A   1      30.221  29.471  23.767  1.00  0.00     0.030 C 
ENDBRANCH  18  19
BRANCH  18  22
ATOM     22  C   UNL A   1      32.132  28.309  25.765  1.00  0.00     0.076 C 
ATOM     23  C   UNL A   1      31.354  27.925  27.021  1.00  0.00     0.030 C 
ATOM     24  C   UNL A   1      33.638  28.222  25.998  1.00  0.00     0.030 C 
ENDBRANCH  18  22
ENDBRANCH   8  18
BRANCH  17  25
ATOM     25  C   UNL A   1      33.866  22.358  27.339  1.00  0.00     0.429 C 
ATOM     26  F   UNL A   1      33.139  22.871  28.363  1.00  0.00    -0.167 F 
ATOM     27  F   UNL A   1      34.551  21.306  27.847  1.00  0.00    -0.167 F 
ATOM     28  F   UNL A   1      34.782  23.286  26.986  1.00  0.00    -0.167 F 
ENDBRANCH  17  25
ENDBRANCH   4   7
ENDBRANCH   2   3
ENDBRANCH   1   2
BRANCH   1  29
ATOM     29  C   UNL A   1      39.272  20.169  25.816  1.00  0.00     0.118 C 
BRANCH  29  30
ATOM     30  N   UNL A   1      40.285  19.123  25.938  1.00  0.00    -0.352 N 
ATOM     31  C   UNL A   1      41.647  19.213  26.098  1.00  0.00     0.251 C 
ATOM     32  H   UNL A   1      39.934  18.204  25.898  1.00  0.00     0.163 HD
ATOM     33  O   UNL A   1      42.350  18.218  25.945  1.00  0.00    -0.269 OA
BRANCH  31  34
ATOM     34  C   UNL A   1      42.270  20.510  26.431  1.00  0.00     0.039 A 
ATOM     35  C   UNL A   1      42.362  20.925  27.758  1.00  0.00     0.014 A 
ATOM     36  C   UNL A   1      42.763  21.323  25.407  1.00  0.00     0.014 A 
ATOM     37  C   UNL A   1      42.748  22.226  28.045  1.00  0.00     0.010 A 
ATOM     38  C   UNL A   1      43.258  22.596  25.710  1.00  0.00     0.010 A 
ATOM     39  C   UNL A   1      43.198  23.079  27.025  1.00  0.00    -0.014 A 
BRANCH  39  40
ATOM     40  C   UNL A   1      43.582  24.473  27.371  1.00  0.00     0.031 A 
ATOM     41  C   UNL A   1      44.965  24.985  27.065  1.00  0.00     0.074 A 
ATOM     42  C   UNL A   1      42.649  25.304  27.875  1.00  0.00     0.049 A 
ATOM     43  N   UNL A   1      45.465  26.179  27.266  1.00  0.00    -0.248 NA
ATOM     44  C   UNL A   1      45.912  24.038  26.456  1.00  0.00     0.031 C 
ATOM     45  C   UNL A   1      41.270  24.926  28.189  1.00  0.00     0.029 A 
ATOM     46  N   UNL A   1      42.702  26.641  28.172  1.00  0.00    -0.354 N 
ATOM     47  C   UNL A   1      46.783  26.119  26.830  1.00  0.00     0.074 A 
ATOM     48  C   UNL A   1      47.017  24.766  26.378  1.00  0.00     0.031 C 
ATOM     49  C   UNL A   1      40.587  26.019  28.556  1.00  0.00     0.029 A 
ATOM     50  C   UNL A   1      41.497  27.159  28.579  1.00  0.00     0.049 A 
ATOM     51  H   UNL A   1      43.524  27.179  28.099  1.00  0.00     0.167 HD
ATOM     52  C   UNL A   1      47.706  27.109  26.799  1.00  0.00     0.037 A 
ATOM     53  C   UNL A   1      41.163  28.412  28.942  1.00  0.00     0.037 A 
ATOM     54  C   UNL A   1      47.458  28.462  27.221  1.00  0.00     0.049 A 
ATOM     55  C   UNL A   1      42.220  29.477  28.941  1.00  0.00     0.074 A 
ATOM     56  C   UNL A   1      48.329  29.538  27.224  1.00  0.00     0.029 A 
ATOM     57  N   UNL A   1      46.244  28.929  27.703  1.00  0.00    -0.354 N 
ATOM     58  N   UNL A   1      43.469  29.399  28.552  1.00  0.00    -0.248 NA
ATOM     59  C   UNL A   1      41.826  30.799  29.446  1.00  0.00     0.031 C 
ATOM     60  C   UNL A   1      47.653  30.647  27.742  1.00  0.00     0.029 A 
ATOM     61  C   UNL A   1      46.348  30.274  28.022  1.00  0.00     0.049 A 
ATOM     62  H   UNL A   1      45.429  28.387  27.804  1.00  0.00     0.167 HD
ATOM     63  C   UNL A   1      44.012  30.658  28.761  1.00  0.00     0.074 A 
ATOM     64  C   UNL A   1      42.948  31.489  29.288  1.00  0.00     0.031 C 
ATOM     65  C   UNL A   1      45.279  31.083  28.546  1.00  0.00     0.037 A 
BRANCH  52  66
ATOM     66  C   UNL A   1      49.078  26.771  26.295  1.00  0.00     0.064 A 
ATOM     67  C   UNL A   1      50.040  26.176  27.125  1.00  0.00     0.173 A 
ATOM     68  C   UNL A   1      49.414  26.983  24.949  1.00  0.00     0.173 A 
ATOM     69  F   UNL A   1      49.773  25.964  28.422  1.00  0.00    -0.203 F 
ATOM     70  C   UNL A   1      51.290  25.816  26.628  1.00  0.00     0.198 A 
ATOM     71  C   UNL A   1      50.656  26.599  24.450  1.00  0.00     0.198 A 
ATOM     72  F   UNL A   1      48.529  27.546  24.112  1.00  0.00    -0.203 F 
ATOM     73  F   UNL A   1      52.204  25.275  27.446  1.00  0.00    -0.200 F 
ATOM     74  C   UNL A   1      51.594  26.019  25.290  1.00  0.00     0.200 A 
ATOM     75  F   UNL A   1      50.944  26.787  23.155  1.00  0.00    -0.200 F 
ATOM     76  F   UNL A   1      52.792  25.659  24.812  1.00  0.00    -0.200 F 
ENDBRANCH  52  66
BRANCH  53  77
ATOM     77  C   UNL A   1      39.762  28.713  29.336  1.00  0.00     0.064 A 
ATOM     78  C   UNL A   1      38.838  29.182  28.395  1.00  0.00     0.173 A 
ATOM     79  C   UNL A   1      39.313  28.507  30.649  1.00  0.00     0.173 A 
ATOM     80  F   UNL A   1      39.225  29.415  27.132  1.00  0.00    -0.203 F 
ATOM     81  C   UNL A   1      37.515  29.436  28.752  1.00  0.00     0.198 A 
ATOM     82  C   UNL A   1      37.984  28.733  30.998  1.00  0.00     0.198 A 
ATOM     83  F   UNL A   1      40.160  28.056  31.586  1.00  0.00    -0.203 F 
ATOM     84  F   UNL A   1      36.655  29.909  27.840  1.00  0.00    -0.200 F 
ATOM     85  C   UNL A   1      37.087  29.200  30.050  1.00  0.00     0.200 A 
ATOM     86  F   UNL A   1      37.571  28.487  32.248  1.00  0.00    -0.200 F 
ATOM     87  F   UNL A   1      35.810  29.427  30.389  1.00  0.00    -0.200 F 
ENDBRANCH  53  77
BRANCH  65  88
ATOM     88  C   UNL A   1      45.589  32.512  28.874  1.00  0.00     0.064 A 
ATOM     89  C   UNL A   1      46.101  32.878  30.127  1.00  0.00     0.173 A 
ATOM     90  C   UNL A   1      45.431  33.515  27.906  1.00  0.00     0.173 A 
ATOM     91  F   UNL A   1      46.255  31.954  31.088  1.00  0.00    -0.203 F 
ATOM     92  C   UNL A   1      46.430  34.200  30.405  1.00  0.00     0.198 A 
ATOM     93  C   UNL A   1      45.785  34.833  28.181  1.00  0.00     0.198 A 
ATOM     94  F   UNL A   1      44.951  33.213  26.692  1.00  0.00    -0.203 F 
ATOM     95  F   UNL A   1      46.887  34.534  31.621  1.00  0.00    -0.200 F 
ATOM     96  C   UNL A   1      46.280  35.175  29.430  1.00  0.00     0.200 A 
ATOM     97  F   UNL A   1      45.651  35.772  27.233  1.00  0.00    -0.200 F 
ATOM     98  F   UNL A   1      46.610  36.446  29.695  1.00  0.00    -0.200 F 
ENDBRANCH  65  88
ENDBRANCH  39  40
ENDBRANCH  31  34
ENDBRANCH  29  30
ENDBRANCH   1  29
TORSDOF 14
ENDMDL
