MODEL 1
REMARK VINA RESULT:     -10.4      0.000      0.000
REMARK SMILES C[C@H]([NH2+]Cc1cc(C(=O)NCCCNC(=O)c2ccc(-c3c4nc(c(-c5c(F)c(F)c(F)c(F)c5F)c5ccc([nH]5)c(-c5c(F)c(F)c(F)c(F)c5F)c5nc(c(-c6c(F)c(F)c(F)c(F)c6F)c6ccc3[nH]6)C=C5)C=C4)cc2)cs1)c1ccsc1
REMARK SMILES IDX 11 1 10 2 8 3 9 4 7 6 5 7 6 8 81 9 80 10 4 11 3 12 2 15 1 16
REMARK SMILES IDX 82 17 83 18 86 19 84 20 85 21 12 22 13 23 14 24 15 25 16 27
REMARK SMILES IDX 17 28 18 29 79 30 19 31 78 32 20 33 21 34 22 35 72 36 23 37
REMARK SMILES IDX 77 38 71 39 73 40 24 41 76 42 70 43 69 44 25 46 57 47 37 48
REMARK SMILES IDX 56 49 38 50 41 51 55 52 74 53 39 54 40 55 54 57 75 58 42 59
REMARK SMILES IDX 26 60 27 61 35 62 28 63 29 64 33 65 36 66 30 67 31 68 34 69
REMARK SMILES IDX 32 70 58 71 59 72 67 73 60 74 61 75 65 76 68 77 62 78 63 79
REMARK SMILES IDX 66 80 64 81 43 82 44 83 52 84 45 85 46 86 50 87 53 88 47 89
REMARK SMILES IDX 48 90 51 91 49 92
REMARK H PARENT 10 5 3 13 3 14 14 26 73 45 41 56
REMARK Flexibility Score: inf
ROOT
ATOM      1  C   UNL A   1      42.025  20.294  27.884  1.00  0.00     0.118 C 
ENDROOT
BRANCH   1   2
ATOM      2  N   UNL A   1      41.938  19.064  27.121  1.00  0.00    -0.352 N 
ATOM      3  C   UNL A   1      42.752  18.536  26.152  1.00  0.00     0.252 C 
ATOM      4  O   UNL A   1      42.480  17.404  25.750  1.00  0.00    -0.269 OA
ATOM      5  H   UNL A   1      41.154  18.509  27.338  1.00  0.00     0.163 HD
BRANCH   3   6
ATOM      6  C   UNL A   1      43.924  19.262  25.657  1.00  0.00     0.051 A 
ATOM      7  C   UNL A   1      45.383  20.996  24.999  1.00  0.00     0.059 A 
ATOM      8  C   UNL A   1      44.089  20.649  25.340  1.00  0.00     0.035 A 
ATOM      9  S   UNL A   1      46.383  19.614  24.906  1.00  0.00    -0.142 S 
ATOM     10  C   UNL A   1      45.106  18.588  25.387  1.00  0.00     0.079 A 
BRANCH   7  11
ATOM     11  C   UNL A   1      45.956  22.367  24.769  1.00  0.00     0.308 C 
BRANCH  11  12
ATOM     12  N   UNL A   1      46.101  23.084  26.035  1.00  0.00    -0.336 N 
ATOM     13  H   UNL A   1      46.494  22.444  26.726  1.00  0.00     0.347 HD
ATOM     14  H   UNL A   1      46.711  23.883  25.860  1.00  0.00     0.347 HD
BRANCH  12  15
ATOM     15  C   UNL A   1      44.836  23.608  26.551  1.00  0.00     0.211 C 
ATOM     16  C   UNL A   1      44.608  23.304  28.035  1.00  0.00     0.081 C 
BRANCH  15  17
ATOM     17  C   UNL A   1      44.840  25.091  26.244  1.00  0.00     0.020 A 
ATOM     18  C   UNL A   1      45.865  25.995  26.695  1.00  0.00     0.021 A 
ATOM     19  C   UNL A   1      43.881  25.783  25.521  1.00  0.00     0.074 A 
ATOM     20  C   UNL A   1      45.654  27.295  26.292  1.00  0.00     0.065 A 
ATOM     21  S   UNL A   1      44.223  27.453  25.376  1.00  0.00    -0.152 S 
ENDBRANCH  15  17
ENDBRANCH  12  15
ENDBRANCH  11  12
ENDBRANCH   7  11
ENDBRANCH   3   6
ENDBRANCH   1   2
BRANCH   1  22
ATOM     22  C   UNL A   1      40.823  21.200  27.625  1.00  0.00     0.042 C 
BRANCH  22  23
ATOM     23  C   UNL A   1      40.881  21.906  26.272  1.00  0.00     0.118 C 
BRANCH  23  24
ATOM     24  N   UNL A   1      39.553  22.204  25.755  1.00  0.00    -0.352 N 
ATOM     25  C   UNL A   1      38.722  23.266  26.001  1.00  0.00     0.251 C 
ATOM     26  H   UNL A   1      39.194  21.535  25.128  1.00  0.00     0.163 HD
ATOM     27  O   UNL A   1      37.553  23.214  25.626  1.00  0.00    -0.269 OA
BRANCH  25  28
ATOM     28  C   UNL A   1      39.207  24.468  26.712  1.00  0.00     0.039 A 
ATOM     29  C   UNL A   1      38.862  24.631  28.059  1.00  0.00     0.014 A 
ATOM     30  C   UNL A   1      39.932  25.465  26.054  1.00  0.00     0.014 A 
ATOM     31  C   UNL A   1      39.277  25.769  28.752  1.00  0.00     0.010 A 
ATOM     32  C   UNL A   1      40.403  26.569  26.765  1.00  0.00     0.010 A 
ATOM     33  C   UNL A   1      40.069  26.738  28.117  1.00  0.00    -0.014 A 
BRANCH  33  34
ATOM     34  C   UNL A   1      40.538  27.942  28.847  1.00  0.00     0.031 A 
ATOM     35  C   UNL A   1      41.959  28.030  29.331  1.00  0.00     0.074 A 
ATOM     36  C   UNL A   1      39.669  28.936  29.115  1.00  0.00     0.049 A 
ATOM     37  N   UNL A   1      42.538  28.967  30.038  1.00  0.00    -0.248 NA
ATOM     38  C   UNL A   1      42.840  26.899  28.998  1.00  0.00     0.031 C 
ATOM     39  C   UNL A   1      38.255  28.948  28.736  1.00  0.00     0.029 A 
ATOM     40  N   UNL A   1      39.845  30.124  29.780  1.00  0.00    -0.354 N 
ATOM     41  C   UNL A   1      43.842  28.536  30.242  1.00  0.00     0.074 A 
ATOM     42  C   UNL A   1      43.955  27.228  29.632  1.00  0.00     0.031 C 
ATOM     43  C   UNL A   1      37.696  30.092  29.160  1.00  0.00     0.029 A 
ATOM     44  C   UNL A   1      38.702  30.880  29.867  1.00  0.00     0.049 A 
ATOM     45  H   UNL A   1      40.709  30.408  30.157  1.00  0.00     0.167 HD
ATOM     46  C   UNL A   1      44.861  29.182  30.860  1.00  0.00     0.037 A 
ATOM     47  C   UNL A   1      38.489  32.070  30.457  1.00  0.00     0.037 A 
ATOM     48  C   UNL A   1      44.749  30.491  31.448  1.00  0.00     0.049 A 
ATOM     49  C   UNL A   1      39.638  32.769  31.133  1.00  0.00     0.074 A 
ATOM     50  C   UNL A   1      45.729  31.247  32.068  1.00  0.00     0.029 A 
ATOM     51  N   UNL A   1      43.583  31.240  31.488  1.00  0.00    -0.354 N 
ATOM     52  N   UNL A   1      40.881  32.376  31.272  1.00  0.00    -0.248 NA
ATOM     53  C   UNL A   1      39.357  34.085  31.725  1.00  0.00     0.031 C 
ATOM     54  C   UNL A   1      45.147  32.439  32.513  1.00  0.00     0.029 A 
ATOM     55  C   UNL A   1      43.816  32.446  32.129  1.00  0.00     0.049 A 
ATOM     56  H   UNL A   1      42.716  30.957  31.116  1.00  0.00     0.167 HD
ATOM     57  C   UNL A   1      41.535  33.403  31.937  1.00  0.00     0.074 A 
ATOM     58  C   UNL A   1      40.554  34.446  32.160  1.00  0.00     0.031 C 
ATOM     59  C   UNL A   1      42.831  33.478  32.329  1.00  0.00     0.037 A 
BRANCH  46  60
ATOM     60  C   UNL A   1      46.189  28.483  30.921  1.00  0.00     0.064 A 
ATOM     61  C   UNL A   1      47.127  28.601  29.884  1.00  0.00     0.173 A 
ATOM     62  C   UNL A   1      46.542  27.713  32.040  1.00  0.00     0.173 A 
ATOM     63  F   UNL A   1      46.834  29.316  28.787  1.00  0.00    -0.203 F 
ATOM     64  C   UNL A   1      48.357  27.951  29.951  1.00  0.00     0.198 A 
ATOM     65  C   UNL A   1      47.785  27.090  32.117  1.00  0.00     0.198 A 
ATOM     66  F   UNL A   1      45.686  27.572  33.062  1.00  0.00    -0.203 F 
ATOM     67  F   UNL A   1      49.215  28.038  28.926  1.00  0.00    -0.200 F 
ATOM     68  C   UNL A   1      48.687  27.201  31.070  1.00  0.00     0.200 A 
ATOM     69  F   UNL A   1      48.109  26.376  33.205  1.00  0.00    -0.200 F 
ATOM     70  F   UNL A   1      49.873  26.582  31.136  1.00  0.00    -0.200 F 
ENDBRANCH  46  60
BRANCH  47  71
ATOM     71  C   UNL A   1      37.140  32.691  30.414  1.00  0.00     0.064 A 
ATOM     72  C   UNL A   1      36.201  32.445  31.425  1.00  0.00     0.173 A 
ATOM     73  C   UNL A   1      36.757  33.532  29.358  1.00  0.00     0.173 A 
ATOM     74  F   UNL A   1      36.513  31.633  32.445  1.00  0.00    -0.203 F 
ATOM     75  C   UNL A   1      34.923  32.996  31.370  1.00  0.00     0.198 A 
ATOM     76  C   UNL A   1      35.488  34.105  29.319  1.00  0.00     0.198 A 
ATOM     77  F   UNL A   1      37.621  33.803  28.369  1.00  0.00    -0.203 F 
ATOM     78  F   UNL A   1      34.028  32.703  32.324  1.00  0.00    -0.200 F 
ATOM     79  C   UNL A   1      34.568  33.829  30.320  1.00  0.00     0.200 A 
ATOM     80  F   UNL A   1      35.154  34.921  28.310  1.00  0.00    -0.200 F 
ATOM     81  F   UNL A   1      33.338  34.359  30.268  1.00  0.00    -0.200 F 
ENDBRANCH  47  71
BRANCH  59  82
ATOM     82  C   UNL A   1      43.271  34.746  33.000  1.00  0.00     0.064 A 
ATOM     83  C   UNL A   1      43.660  35.874  32.263  1.00  0.00     0.173 A 
ATOM     84  C   UNL A   1      43.279  34.840  34.399  1.00  0.00     0.173 A 
ATOM     85  F   UNL A   1      43.685  35.829  30.921  1.00  0.00    -0.203 F 
ATOM     86  C   UNL A   1      44.068  37.040  32.903  1.00  0.00     0.198 A 
ATOM     87  C   UNL A   1      43.658  36.018  35.036  1.00  0.00     0.198 A 
ATOM     88  F   UNL A   1      42.909  33.792  35.150  1.00  0.00    -0.203 F 
ATOM     89  F   UNL A   1      44.486  38.089  32.179  1.00  0.00    -0.200 F 
ATOM     90  C   UNL A   1      44.061  37.114  34.288  1.00  0.00     0.200 A 
ATOM     91  F   UNL A   1      43.639  36.091  36.374  1.00  0.00    -0.200 F 
ATOM     92  F   UNL A   1      44.451  38.239  34.903  1.00  0.00    -0.200 F 
ENDBRANCH  59  82
ENDBRANCH  33  34
ENDBRANCH  25  28
ENDBRANCH  23  24
ENDBRANCH  22  23
ENDBRANCH   1  22
TORSDOF 14
ENDMDL
MODEL 2
REMARK VINA RESULT:     -10.4      4.218      7.427
REMARK SMILES C[C@H]([NH2+]Cc1cc(C(=O)NCCCNC(=O)c2ccc(-c3c4nc(c(-c5c(F)c(F)c(F)c(F)c5F)c5ccc([nH]5)c(-c5c(F)c(F)c(F)c(F)c5F)c5nc(c(-c6c(F)c(F)c(F)c(F)c6F)c6ccc3[nH]6)C=C5)C=C4)cc2)cs1)c1ccsc1
REMARK SMILES IDX 11 1 10 2 8 3 9 4 7 6 5 7 6 8 81 9 80 10 4 11 3 12 2 15 1 16
REMARK SMILES IDX 82 17 83 18 86 19 84 20 85 21 12 22 13 23 14 24 15 25 16 27
REMARK SMILES IDX 17 28 18 29 79 30 19 31 78 32 20 33 21 34 22 35 72 36 23 37
REMARK SMILES IDX 77 38 71 39 73 40 24 41 76 42 70 43 69 44 25 46 57 47 37 48
REMARK SMILES IDX 56 49 38 50 41 51 55 52 74 53 39 54 40 55 54 57 75 58 42 59
REMARK SMILES IDX 26 60 27 61 35 62 28 63 29 64 33 65 36 66 30 67 31 68 34 69
REMARK SMILES IDX 32 70 58 71 59 72 67 73 60 74 61 75 65 76 68 77 62 78 63 79
REMARK SMILES IDX 66 80 64 81 43 82 44 83 52 84 45 85 46 86 50 87 53 88 47 89
REMARK SMILES IDX 48 90 51 91 49 92
REMARK H PARENT 10 5 3 13 3 14 14 26 73 45 41 56
REMARK Flexibility Score: inf
ROOT
ATOM      1  C   UNL A   1      41.439  19.539  27.581  1.00  0.00     0.118 C 
ENDROOT
BRANCH   1   2
ATOM      2  N   UNL A   1      41.860  20.816  28.122  1.00  0.00    -0.352 N 
ATOM      3  C   UNL A   1      41.334  22.076  27.994  1.00  0.00     0.252 C 
ATOM      4  O   UNL A   1      41.853  22.969  28.664  1.00  0.00    -0.269 OA
ATOM      5  H   UNL A   1      42.670  20.771  28.682  1.00  0.00     0.163 HD
BRANCH   3   6
ATOM      6  C   UNL A   1      40.173  22.337  27.140  1.00  0.00     0.051 A 
ATOM      7  C   UNL A   1      38.395  22.057  25.613  1.00  0.00     0.059 A 
ATOM      8  C   UNL A   1      39.550  21.515  26.146  1.00  0.00     0.035 A 
ATOM      9  S   UNL A   1      38.139  23.643  26.196  1.00  0.00    -0.142 S 
ATOM     10  C   UNL A   1      39.519  23.559  27.197  1.00  0.00     0.079 A 
BRANCH   7  11
ATOM     11  C   UNL A   1      37.402  21.418  24.683  1.00  0.00     0.308 C 
BRANCH  11  12
ATOM     12  N   UNL A   1      36.427  20.628  25.434  1.00  0.00    -0.336 N 
ATOM     13  H   UNL A   1      36.527  19.650  25.163  1.00  0.00     0.347 HD
ATOM     14  H   UNL A   1      36.620  20.774  26.425  1.00  0.00     0.347 HD
BRANCH  12  15
ATOM     15  C   UNL A   1      35.043  21.040  25.195  1.00  0.00     0.211 C 
ATOM     16  C   UNL A   1      34.914  22.230  24.240  1.00  0.00     0.081 C 
BRANCH  15  17
ATOM     17  C   UNL A   1      34.317  19.804  24.703  1.00  0.00     0.020 A 
ATOM     18  C   UNL A   1      34.925  18.502  24.625  1.00  0.00     0.021 A 
ATOM     19  C   UNL A   1      33.008  19.745  24.253  1.00  0.00     0.074 A 
ATOM     20  C   UNL A   1      34.070  17.535  24.147  1.00  0.00     0.065 A 
ATOM     21  S   UNL A   1      32.530  18.172  23.779  1.00  0.00    -0.152 S 
ENDBRANCH  15  17
ENDBRANCH  12  15
ENDBRANCH  11  12
ENDBRANCH   7  11
ENDBRANCH   3   6
ENDBRANCH   1   2
BRANCH   1  22
ATOM     22  C   UNL A   1      42.576  18.845  26.834  1.00  0.00     0.042 C 
BRANCH  22  23
ATOM     23  C   UNL A   1      42.627  19.201  25.350  1.00  0.00     0.118 C 
BRANCH  23  24
ATOM     24  N   UNL A   1      43.884  18.797  24.735  1.00  0.00    -0.352 N 
ATOM     25  C   UNL A   1      44.976  19.542  24.374  1.00  0.00     0.251 C 
ATOM     26  H   UNL A   1      43.961  17.833  24.546  1.00  0.00     0.163 HD
ATOM     27  O   UNL A   1      45.846  19.033  23.671  1.00  0.00    -0.269 OA
BRANCH  25  28
ATOM     28  C   UNL A   1      45.123  20.947  24.814  1.00  0.00     0.039 A 
ATOM     29  C   UNL A   1      44.886  21.964  23.883  1.00  0.00     0.014 A 
ATOM     30  C   UNL A   1      45.556  21.269  26.102  1.00  0.00     0.014 A 
ATOM     31  C   UNL A   1      45.045  23.300  24.255  1.00  0.00     0.010 A 
ATOM     32  C   UNL A   1      45.650  22.605  26.493  1.00  0.00     0.010 A 
ATOM     33  C   UNL A   1      45.408  23.632  25.570  1.00  0.00    -0.014 A 
BRANCH  33  34
ATOM     34  C   UNL A   1      45.558  25.049  25.987  1.00  0.00     0.031 A 
ATOM     35  C   UNL A   1      46.903  25.719  25.922  1.00  0.00     0.074 A 
ATOM     36  C   UNL A   1      44.493  25.717  26.470  1.00  0.00     0.049 A 
ATOM     37  N   UNL A   1      47.248  26.925  26.298  1.00  0.00    -0.248 NA
ATOM     38  C   UNL A   1      48.014  24.917  25.384  1.00  0.00     0.031 C 
ATOM     39  C   UNL A   1      43.147  25.162  26.623  1.00  0.00     0.029 A 
ATOM     40  N   UNL A   1      44.376  27.004  26.931  1.00  0.00    -0.354 N 
ATOM     41  C   UNL A   1      48.613  27.021  26.054  1.00  0.00     0.074 A 
ATOM     42  C   UNL A   1      49.043  25.735  25.550  1.00  0.00     0.031 C 
ATOM     43  C   UNL A   1      42.337  26.106  27.127  1.00  0.00     0.029 A 
ATOM     44  C   UNL A   1      43.112  27.320  27.363  1.00  0.00     0.049 A 
ATOM     45  H   UNL A   1      45.127  27.640  26.951  1.00  0.00     0.167 HD
ATOM     46  C   UNL A   1      49.427  28.092  26.213  1.00  0.00     0.037 A 
ATOM     47  C   UNL A   1      42.634  28.461  27.894  1.00  0.00     0.037 A 
ATOM     48  C   UNL A   1      48.990  29.375  26.698  1.00  0.00     0.049 A 
ATOM     49  C   UNL A   1      43.559  29.637  28.057  1.00  0.00     0.074 A 
ATOM     50  C   UNL A   1      49.728  30.534  26.864  1.00  0.00     0.029 A 
ATOM     51  N   UNL A   1      47.694  29.668  27.094  1.00  0.00    -0.354 N 
ATOM     52  N   UNL A   1      44.835  29.734  27.771  1.00  0.00    -0.248 NA
ATOM     53  C   UNL A   1      42.973  30.869  28.605  1.00  0.00     0.031 C 
ATOM     54  C   UNL A   1      48.887  31.518  27.393  1.00  0.00     0.029 A 
ATOM     55  C   UNL A   1      47.613  30.987  27.512  1.00  0.00     0.049 A 
ATOM     56  H   UNL A   1      46.942  29.033  27.080  1.00  0.00     0.167 HD
ATOM     57  C   UNL A   1      45.197  31.038  28.075  1.00  0.00     0.074 A 
ATOM     58  C   UNL A   1      44.001  31.702  28.552  1.00  0.00     0.031 C 
ATOM     59  C   UNL A   1      46.411  31.634  27.970  1.00  0.00     0.037 A 
BRANCH  46  60
ATOM     60  C   UNL A   1      50.874  27.922  25.850  1.00  0.00     0.064 A 
ATOM     61  C   UNL A   1      51.313  28.030  24.521  1.00  0.00     0.173 A 
ATOM     62  C   UNL A   1      51.838  27.679  26.840  1.00  0.00     0.173 A 
ATOM     63  F   UNL A   1      50.431  28.249  23.535  1.00  0.00    -0.203 F 
ATOM     64  C   UNL A   1      52.657  27.872  24.193  1.00  0.00     0.198 A 
ATOM     65  C   UNL A   1      53.186  27.553  26.513  1.00  0.00     0.198 A 
ATOM     66  F   UNL A   1      51.475  27.572  28.127  1.00  0.00    -0.203 F 
ATOM     67  F   UNL A   1      53.044  27.930  22.912  1.00  0.00    -0.200 F 
ATOM     68  C   UNL A   1      53.593  27.641  25.191  1.00  0.00     0.200 A 
ATOM     69  F   UNL A   1      54.092  27.342  27.478  1.00  0.00    -0.200 F 
ATOM     70  F   UNL A   1      54.888  27.496  24.875  1.00  0.00    -0.200 F 
ENDBRANCH  46  60
BRANCH  47  71
ATOM     71  C   UNL A   1      41.205  28.556  28.289  1.00  0.00     0.064 A 
ATOM     72  C   UNL A   1      40.233  28.987  27.376  1.00  0.00     0.173 A 
ATOM     73  C   UNL A   1      40.782  28.231  29.587  1.00  0.00     0.173 A 
ATOM     74  F   UNL A   1      40.590  29.328  26.129  1.00  0.00    -0.203 F 
ATOM     75  C   UNL A   1      38.898  29.113  27.752  1.00  0.00     0.198 A 
ATOM     76  C   UNL A   1      39.442  28.330  29.953  1.00  0.00     0.198 A 
ATOM     77  F   UNL A   1      41.673  27.808  30.496  1.00  0.00    -0.203 F 
ATOM     78  F   UNL A   1      37.998  29.576  26.873  1.00  0.00    -0.200 F 
ATOM     79  C   UNL A   1      38.501  28.780  29.038  1.00  0.00     0.200 A 
ATOM     80  F   UNL A   1      39.062  27.994  31.193  1.00  0.00    -0.200 F 
ATOM     81  F   UNL A   1      37.217  28.901  29.399  1.00  0.00    -0.200 F 
ENDBRANCH  47  71
BRANCH  59  82
ATOM     82  C   UNL A   1      46.494  33.087  28.337  1.00  0.00     0.064 A 
ATOM     83  C   UNL A   1      46.806  33.503  29.639  1.00  0.00     0.173 A 
ATOM     84  C   UNL A   1      46.284  34.076  27.364  1.00  0.00     0.173 A 
ATOM     85  F   UNL A   1      47.001  32.595  30.609  1.00  0.00    -0.203 F 
ATOM     86  C   UNL A   1      46.876  34.855  29.961  1.00  0.00     0.198 A 
ATOM     87  C   UNL A   1      46.385  35.427  27.682  1.00  0.00     0.198 A 
ATOM     88  F   UNL A   1      45.989  33.731  26.102  1.00  0.00    -0.203 F 
ATOM     89  F   UNL A   1      47.125  35.229  31.224  1.00  0.00    -0.200 F 
ATOM     90  C   UNL A   1      46.672  35.815  28.981  1.00  0.00     0.200 A 
ATOM     91  F   UNL A   1      46.199  36.353  26.732  1.00  0.00    -0.200 F 
ATOM     92  F   UNL A   1      46.743  37.117  29.292  1.00  0.00    -0.200 F 
ENDBRANCH  59  82
ENDBRANCH  33  34
ENDBRANCH  25  28
ENDBRANCH  23  24
ENDBRANCH  22  23
ENDBRANCH   1  22
TORSDOF 14
ENDMDL
MODEL 3
REMARK VINA RESULT:     -10.3      4.054     11.566
REMARK SMILES C[C@H]([NH2+]Cc1cc(C(=O)NCCCNC(=O)c2ccc(-c3c4nc(c(-c5c(F)c(F)c(F)c(F)c5F)c5ccc([nH]5)c(-c5c(F)c(F)c(F)c(F)c5F)c5nc(c(-c6c(F)c(F)c(F)c(F)c6F)c6ccc3[nH]6)C=C5)C=C4)cc2)cs1)c1ccsc1
REMARK SMILES IDX 11 1 10 2 8 3 9 4 7 6 5 7 6 8 81 9 80 10 4 11 3 12 2 15 1 16
REMARK SMILES IDX 82 17 83 18 86 19 84 20 85 21 12 22 13 23 14 24 15 25 16 27
REMARK SMILES IDX 17 28 18 29 79 30 19 31 78 32 20 33 21 34 22 35 72 36 23 37
REMARK SMILES IDX 77 38 71 39 73 40 24 41 76 42 70 43 69 44 25 46 57 47 37 48
REMARK SMILES IDX 56 49 38 50 41 51 55 52 74 53 39 54 40 55 54 57 75 58 42 59
REMARK SMILES IDX 26 60 27 61 35 62 28 63 29 64 33 65 36 66 30 67 31 68 34 69
REMARK SMILES IDX 32 70 58 71 59 72 67 73 60 74 61 75 65 76 68 77 62 78 63 79
REMARK SMILES IDX 66 80 64 81 43 82 44 83 52 84 45 85 46 86 50 87 53 88 47 89
REMARK SMILES IDX 48 90 51 91 49 92
REMARK H PARENT 10 5 3 13 3 14 14 26 73 45 41 56
REMARK Flexibility Score: inf
ROOT
ATOM      1  C   UNL A   1      35.261  34.777  28.411  1.00  0.00     0.118 C 
ENDROOT
BRANCH   1   2
ATOM      2  N   UNL A   1      33.933  35.349  28.299  1.00  0.00    -0.352 N 
ATOM      3  C   UNL A   1      33.091  35.885  29.240  1.00  0.00     0.252 C 
ATOM      4  O   UNL A   1      32.050  36.398  28.831  1.00  0.00    -0.269 OA
ATOM      5  H   UNL A   1      33.570  35.353  27.383  1.00  0.00     0.163 HD
BRANCH   3   6
ATOM      6  C   UNL A   1      33.441  35.895  30.663  1.00  0.00     0.051 A 
ATOM      7  C   UNL A   1      34.228  35.243  32.790  1.00  0.00     0.059 A 
ATOM      8  C   UNL A   1      33.886  34.833  31.515  1.00  0.00     0.035 A 
ATOM      9  S   UNL A   1      33.863  36.896  33.019  1.00  0.00    -0.142 S 
ATOM     10  C   UNL A   1      33.325  37.059  31.407  1.00  0.00     0.079 A 
BRANCH   7  11
ATOM     11  C   UNL A   1      34.881  34.449  33.887  1.00  0.00     0.308 C 
BRANCH  11  12
ATOM     12  N   UNL A   1      35.948  33.607  33.349  1.00  0.00    -0.336 N 
ATOM     13  H   UNL A   1      35.588  32.659  33.240  1.00  0.00     0.347 HD
ATOM     14  H   UNL A   1      36.233  34.015  32.458  1.00  0.00     0.347 HD
BRANCH  12  15
ATOM     15  C   UNL A   1      37.135  33.560  34.204  1.00  0.00     0.211 C 
ATOM     16  C   UNL A   1      36.835  33.833  35.682  1.00  0.00     0.081 C 
BRANCH  15  17
ATOM     17  C   UNL A   1      37.768  32.204  33.969  1.00  0.00     0.020 A 
ATOM     18  C   UNL A   1      39.092  31.855  34.412  1.00  0.00     0.021 A 
ATOM     19  C   UNL A   1      37.194  31.135  33.299  1.00  0.00     0.074 A 
ATOM     20  C   UNL A   1      39.450  30.568  34.083  1.00  0.00     0.065 A 
ATOM     21  S   UNL A   1      38.210  29.760  33.231  1.00  0.00    -0.152 S 
ENDBRANCH  15  17
ENDBRANCH  12  15
ENDBRANCH  11  12
ENDBRANCH   7  11
ENDBRANCH   3   6
ENDBRANCH   1   2
BRANCH   1  22
ATOM     22  C   UNL A   1      35.275  33.309  27.991  1.00  0.00     0.042 C 
BRANCH  22  23
ATOM     23  C   UNL A   1      34.551  32.394  28.975  1.00  0.00     0.118 C 
BRANCH  23  24
ATOM     24  N   UNL A   1      33.970  31.233  28.315  1.00  0.00    -0.352 N 
ATOM     25  C   UNL A   1      34.564  30.101  27.821  1.00  0.00     0.251 C 
ATOM     26  H   UNL A   1      32.992  31.268  28.204  1.00  0.00     0.163 HD
ATOM     27  O   UNL A   1      33.913  29.342  27.108  1.00  0.00    -0.269 OA
BRANCH  25  28
ATOM     28  C   UNL A   1      35.975  29.782  28.131  1.00  0.00     0.039 A 
ATOM     29  C   UNL A   1      36.280  29.273  29.398  1.00  0.00     0.014 A 
ATOM     30  C   UNL A   1      37.002  30.043  27.220  1.00  0.00     0.014 A 
ATOM     31  C   UNL A   1      37.605  28.989  29.735  1.00  0.00     0.010 A 
ATOM     32  C   UNL A   1      38.316  29.696  27.532  1.00  0.00     0.010 A 
ATOM     33  C   UNL A   1      38.632  29.179  28.797  1.00  0.00    -0.014 A 
BRANCH  33  34
ATOM     34  C   UNL A   1      40.042  28.861  29.132  1.00  0.00     0.031 A 
ATOM     35  C   UNL A   1      40.873  29.838  29.918  1.00  0.00     0.074 A 
ATOM     36  C   UNL A   1      40.589  27.713  28.688  1.00  0.00     0.049 A 
ATOM     37  N   UNL A   1      42.137  29.770  30.254  1.00  0.00    -0.248 NA
ATOM     38  C   UNL A   1      40.200  31.069  30.362  1.00  0.00     0.031 C 
ATOM     39  C   UNL A   1      39.898  26.705  27.881  1.00  0.00     0.029 A 
ATOM     40  N   UNL A   1      41.854  27.204  28.843  1.00  0.00    -0.354 N 
ATOM     41  C   UNL A   1      42.410  30.948  30.937  1.00  0.00     0.074 A 
ATOM     42  C   UNL A   1      41.198  31.738  30.920  1.00  0.00     0.031 C 
ATOM     43  C   UNL A   1      40.741  25.694  27.625  1.00  0.00     0.029 A 
ATOM     44  C   UNL A   1      42.039  25.994  28.220  1.00  0.00     0.049 A 
ATOM     45  H   UNL A   1      42.560  27.662  29.352  1.00  0.00     0.167 HD
ATOM     46  C   UNL A   1      43.561  31.326  31.546  1.00  0.00     0.037 A 
ATOM     47  C   UNL A   1      43.136  25.219  28.135  1.00  0.00     0.037 A 
ATOM     48  C   UNL A   1      44.759  30.528  31.577  1.00  0.00     0.049 A 
ATOM     49  C   UNL A   1      44.400  25.660  28.823  1.00  0.00     0.074 A 
ATOM     50  C   UNL A   1      45.966  30.805  32.195  1.00  0.00     0.029 A 
ATOM     51  N   UNL A   1      44.899  29.293  30.964  1.00  0.00    -0.354 N 
ATOM     52  N   UNL A   1      44.631  26.751  29.513  1.00  0.00    -0.248 NA
ATOM     53  C   UNL A   1      45.554  24.754  28.731  1.00  0.00     0.031 C 
ATOM     54  C   UNL A   1      46.848  29.753  31.925  1.00  0.00     0.029 A 
ATOM     55  C   UNL A   1      46.175  28.798  31.180  1.00  0.00     0.049 A 
ATOM     56  H   UNL A   1      44.196  28.834  30.449  1.00  0.00     0.167 HD
ATOM     57  C   UNL A   1      45.941  26.650  29.960  1.00  0.00     0.074 A 
ATOM     58  C   UNL A   1      46.450  25.383  29.478  1.00  0.00     0.031 C 
ATOM     59  C   UNL A   1      46.659  27.528  30.704  1.00  0.00     0.037 A 
BRANCH  46  60
ATOM     60  C   UNL A   1      43.573  32.660  32.236  1.00  0.00     0.064 A 
ATOM     61  C   UNL A   1      43.185  32.793  33.578  1.00  0.00     0.173 A 
ATOM     62  C   UNL A   1      44.007  33.811  31.561  1.00  0.00     0.173 A 
ATOM     63  F   UNL A   1      42.751  31.726  34.264  1.00  0.00    -0.203 F 
ATOM     64  C   UNL A   1      43.202  34.034  34.210  1.00  0.00     0.198 A 
ATOM     65  C   UNL A   1      44.053  35.045  32.206  1.00  0.00     0.198 A 
ATOM     66  F   UNL A   1      44.395  33.739  30.280  1.00  0.00    -0.203 F 
ATOM     67  F   UNL A   1      42.779  34.145  35.476  1.00  0.00    -0.200 F 
ATOM     68  C   UNL A   1      43.642  35.158  33.525  1.00  0.00     0.200 A 
ATOM     69  F   UNL A   1      44.490  36.128  31.548  1.00  0.00    -0.200 F 
ATOM     70  F   UNL A   1      43.664  36.350  34.137  1.00  0.00    -0.200 F 
ENDBRANCH  46  60
BRANCH  47  71
ATOM     71  C   UNL A   1      43.083  23.934  27.392  1.00  0.00     0.064 A 
ATOM     72  C   UNL A   1      43.463  23.865  26.045  1.00  0.00     0.173 A 
ATOM     73  C   UNL A   1      42.641  22.752  28.007  1.00  0.00     0.173 A 
ATOM     74  F   UNL A   1      43.874  24.971  25.408  1.00  0.00    -0.203 F 
ATOM     75  C   UNL A   1      43.380  22.670  25.334  1.00  0.00     0.198 A 
ATOM     76  C   UNL A   1      42.586  21.552  27.303  1.00  0.00     0.198 A 
ATOM     77  F   UNL A   1      42.272  22.765  29.296  1.00  0.00    -0.203 F 
ATOM     78  F   UNL A   1      43.702  22.643  24.033  1.00  0.00    -0.200 F 
ATOM     79  C   UNL A   1      42.947  21.513  25.963  1.00  0.00     0.200 A 
ATOM     80  F   UNL A   1      42.179  20.434  27.919  1.00  0.00    -0.200 F 
ATOM     81  F   UNL A   1      42.867  20.364  25.279  1.00  0.00    -0.200 F 
ENDBRANCH  47  71
BRANCH  59  82
ATOM     82  C   UNL A   1      48.057  27.127  31.076  1.00  0.00     0.064 A 
ATOM     83  C   UNL A   1      48.321  26.323  32.194  1.00  0.00     0.173 A 
ATOM     84  C   UNL A   1      49.143  27.533  30.287  1.00  0.00     0.173 A 
ATOM     85  F   UNL A   1      47.316  25.922  32.990  1.00  0.00    -0.203 F 
ATOM     86  C   UNL A   1      49.624  25.964  32.525  1.00  0.00     0.198 A 
ATOM     87  C   UNL A   1      50.442  27.147  30.603  1.00  0.00     0.198 A 
ATOM     88  F   UNL A   1      48.944  28.297  29.203  1.00  0.00    -0.203 F 
ATOM     89  F   UNL A   1      49.857  25.237  33.628  1.00  0.00    -0.200 F 
ATOM     90  C   UNL A   1      50.682  26.370  31.726  1.00  0.00     0.200 A 
ATOM     91  F   UNL A   1      51.462  27.530  29.824  1.00  0.00    -0.200 F 
ATOM     92  F   UNL A   1      51.936  26.020  32.045  1.00  0.00    -0.200 F 
ENDBRANCH  59  82
ENDBRANCH  33  34
ENDBRANCH  25  28
ENDBRANCH  23  24
ENDBRANCH  22  23
ENDBRANCH   1  22
TORSDOF 14
ENDMDL
