MODEL 1
REMARK VINA RESULT:     -13.9      0.000      0.000
REMARK SMILES O=C(NCCCNC(=O)c1ccc(N2C(=O)/C(=C/C3=c4ccccc4=NC3)SC2=S)cc1O)c1ccc(-c2c3nc(c(-c4c(F)c(F)c(F)c(F)c4F)c4ccc([nH]4)c(-c4c(F)c(F)c(F)c(F)c4F)c4nc(c(-c5c(F)c(F)c(F)c(F)c5F)c5ccc2[nH]5)C=C4)C=C3)cc1
REMARK SMILES IDX 5 1 4 2 3 3 1 4 2 5 34 7 35 8 96 9 36 10 95 11 37 12 38 13
REMARK SMILES IDX 39 14 89 15 40 16 94 17 88 18 90 19 41 20 93 21 87 22 86 23
REMARK SMILES IDX 42 25 74 26 54 27 73 28 55 29 58 30 72 31 91 32 56 33 57 34
REMARK SMILES IDX 71 36 92 37 59 38 43 39 44 40 52 41 45 42 46 43 50 44 53 45
REMARK SMILES IDX 47 46 48 47 51 48 49 49 75 50 76 51 84 52 77 53 78 54 82 55
REMARK SMILES IDX 85 56 79 57 80 58 83 59 81 60 60 61 61 62 69 63 62 64 63 65
REMARK SMILES IDX 67 66 70 67 64 68 65 69 68 70 66 71 6 72 7 73 8 74 9 76
REMARK SMILES IDX 10 77 11 78 32 79 12 80 31 81 13 82 33 83 14 85 15 86 29 87
REMARK SMILES IDX 16 88 17 89 28 90 30 91 18 92 19 93 20 94 27 95 21 96 25 97
REMARK SMILES IDX 26 98 22 99 24 100 23 101
REMARK H PARENT 3 6 90 24 58 35 7 75 33 84
REMARK Flexibility Score: inf
ROOT
ATOM      1  C   UNL A   1      31.233  32.032  26.832  1.00  0.00     0.042 C 
ENDROOT
BRANCH   1   2
ATOM      2  C   UNL A   1      32.561  32.755  26.963  1.00  0.00     0.118 C 
BRANCH   2   3
ATOM      3  N   UNL A   1      32.420  34.084  27.544  1.00  0.00    -0.352 N 
ATOM      4  O   UNL A   1      32.632  35.727  29.063  1.00  0.00    -0.269 OA
ATOM      5  C   UNL A   1      33.048  34.660  28.618  1.00  0.00     0.251 C 
ATOM      6  H   UNL A   1      31.766  34.664  27.090  1.00  0.00     0.163 HD
BRANCH   5   7
ATOM      7  C   UNL A   1      34.212  34.006  29.255  1.00  0.00     0.039 A 
ATOM      8  C   UNL A   1      35.498  34.444  28.924  1.00  0.00     0.014 A 
ATOM      9  C   UNL A   1      34.053  32.934  30.134  1.00  0.00     0.014 A 
ATOM     10  C   UNL A   1      36.611  33.828  29.496  1.00  0.00     0.010 A 
ATOM     11  C   UNL A   1      35.152  32.403  30.797  1.00  0.00     0.010 A 
ATOM     12  C   UNL A   1      36.448  32.813  30.453  1.00  0.00    -0.014 A 
BRANCH  12  13
ATOM     13  C   UNL A   1      37.613  32.099  31.034  1.00  0.00     0.031 A 
ATOM     14  C   UNL A   1      38.091  32.465  32.416  1.00  0.00     0.074 A 
ATOM     15  C   UNL A   1      38.254  31.153  30.321  1.00  0.00     0.049 A 
ATOM     16  N   UNL A   1      39.127  32.016  33.078  1.00  0.00    -0.248 NA
ATOM     17  C   UNL A   1      37.325  33.495  33.139  1.00  0.00     0.031 C 
ATOM     18  C   UNL A   1      37.907  30.735  28.962  1.00  0.00     0.029 A 
ATOM     19  N   UNL A   1      39.335  30.369  30.643  1.00  0.00    -0.354 N 
ATOM     20  C   UNL A   1      39.141  32.720  34.276  1.00  0.00     0.074 A 
ATOM     21  C   UNL A   1      38.058  33.672  34.227  1.00  0.00     0.031 C 
ATOM     22  C   UNL A   1      38.734  29.748  28.581  1.00  0.00     0.029 A 
ATOM     23  C   UNL A   1      39.697  29.493  29.649  1.00  0.00     0.049 A 
ATOM     24  H   UNL A   1      39.805  30.428  31.506  1.00  0.00     0.167 HD
ATOM     25  C   UNL A   1      39.961  32.558  35.339  1.00  0.00     0.037 A 
ATOM     26  C   UNL A   1      40.696  28.590  29.605  1.00  0.00     0.037 A 
ATOM     27  C   UNL A   1      40.999  31.568  35.409  1.00  0.00     0.049 A 
ATOM     28  C   UNL A   1      41.602  28.439  30.799  1.00  0.00     0.074 A 
ATOM     29  C   UNL A   1      41.840  31.281  36.470  1.00  0.00     0.029 A 
ATOM     30  N   UNL A   1      41.332  30.698  34.383  1.00  0.00    -0.354 N 
ATOM     31  N   UNL A   1      41.565  29.069  31.948  1.00  0.00    -0.248 NA
ATOM     32  C   UNL A   1      42.685  27.451  30.693  1.00  0.00     0.031 C 
ATOM     33  C   UNL A   1      42.715  30.270  36.068  1.00  0.00     0.029 A 
ATOM     34  C   UNL A   1      42.383  29.889  34.777  1.00  0.00     0.049 A 
ATOM     35  H   UNL A   1      40.885  30.661  33.505  1.00  0.00     0.167 HD
ATOM     36  C   UNL A   1      42.598  28.539  32.708  1.00  0.00     0.074 A 
ATOM     37  C   UNL A   1      43.234  27.521  31.899  1.00  0.00     0.031 C 
ATOM     38  C   UNL A   1      42.989  28.869  33.963  1.00  0.00     0.037 A 
BRANCH  25  39
ATOM     39  C   UNL A   1      39.757  33.441  36.535  1.00  0.00     0.064 A 
ATOM     40  C   UNL A   1      40.366  34.701  36.628  1.00  0.00     0.173 A 
ATOM     41  C   UNL A   1      38.864  33.065  37.550  1.00  0.00     0.173 A 
ATOM     42  F   UNL A   1      41.238  35.100  35.690  1.00  0.00    -0.203 F 
ATOM     43  C   UNL A   1      40.093  35.550  37.696  1.00  0.00     0.198 A 
ATOM     44  C   UNL A   1      38.569  33.930  38.601  1.00  0.00     0.198 A 
ATOM     45  F   UNL A   1      38.251  31.873  37.506  1.00  0.00    -0.203 F 
ATOM     46  F   UNL A   1      40.706  36.739  37.777  1.00  0.00    -0.200 F 
ATOM     47  C   UNL A   1      39.185  35.170  38.673  1.00  0.00     0.200 A 
ATOM     48  F   UNL A   1      37.679  33.568  39.535  1.00  0.00    -0.200 F 
ATOM     49  F   UNL A   1      38.900  36.003  39.685  1.00  0.00    -0.200 F 
ENDBRANCH  25  39
BRANCH  26  50
ATOM     50  C   UNL A   1      40.880  27.743  28.395  1.00  0.00     0.064 A 
ATOM     51  C   UNL A   1      41.672  28.181  27.323  1.00  0.00     0.173 A 
ATOM     52  C   UNL A   1      40.273  26.484  28.283  1.00  0.00     0.173 A 
ATOM     53  F   UNL A   1      42.259  29.386  27.372  1.00  0.00    -0.203 F 
ATOM     54  C   UNL A   1      41.832  27.400  26.179  1.00  0.00     0.198 A 
ATOM     55  C   UNL A   1      40.460  25.691  27.152  1.00  0.00     0.198 A 
ATOM     56  F   UNL A   1      39.508  26.015  29.279  1.00  0.00    -0.203 F 
ATOM     57  F   UNL A   1      42.556  27.864  25.152  1.00  0.00    -0.200 F 
ATOM     58  C   UNL A   1      41.233  26.153  26.097  1.00  0.00     0.200 A 
ATOM     59  F   UNL A   1      39.892  24.479  27.084  1.00  0.00    -0.200 F 
ATOM     60  F   UNL A   1      41.393  25.401  25.001  1.00  0.00    -0.200 F 
ENDBRANCH  26  50
BRANCH  38  61
ATOM     61  C   UNL A   1      44.143  28.118  34.561  1.00  0.00     0.064 A 
ATOM     62  C   UNL A   1      45.447  28.628  34.517  1.00  0.00     0.173 A 
ATOM     63  C   UNL A   1      43.920  26.935  35.285  1.00  0.00     0.173 A 
ATOM     64  F   UNL A   1      45.710  29.750  33.831  1.00  0.00    -0.203 F 
ATOM     65  C   UNL A   1      46.490  27.978  35.170  1.00  0.00     0.198 A 
ATOM     66  C   UNL A   1      44.959  26.305  35.963  1.00  0.00     0.198 A 
ATOM     67  F   UNL A   1      42.687  26.415  35.367  1.00  0.00    -0.203 F 
ATOM     68  F   UNL A   1      47.735  28.470  35.094  1.00  0.00    -0.200 F 
ATOM     69  C   UNL A   1      46.244  26.826  35.903  1.00  0.00     0.200 A 
ATOM     70  F   UNL A   1      44.715  25.206  36.688  1.00  0.00    -0.200 F 
ATOM     71  F   UNL A   1      47.244  26.218  36.556  1.00  0.00    -0.200 F 
ENDBRANCH  38  61
ENDBRANCH  12  13
ENDBRANCH   5   7
ENDBRANCH   2   3
ENDBRANCH   1   2
BRANCH   1  72
ATOM     72  C   UNL A   1      31.230  30.966  25.751  1.00  0.00     0.118 C 
BRANCH  72  73
ATOM     73  N   UNL A   1      30.253  31.241  24.711  1.00  0.00    -0.352 N 
ATOM     74  C   UNL A   1      29.885  30.452  23.651  1.00  0.00     0.255 C 
ATOM     75  H   UNL A   1      29.794  32.110  24.776  1.00  0.00     0.163 HD
ATOM     76  O   UNL A   1      29.138  30.888  22.781  1.00  0.00    -0.269 OA
BRANCH  74  77
ATOM     77  C   UNL A   1      30.456  29.099  23.519  1.00  0.00     0.081 A 
ATOM     78  C   UNL A   1      31.845  28.974  23.592  1.00  0.00     0.020 A 
ATOM     79  C   UNL A   1      29.662  27.962  23.348  1.00  0.00     0.130 A 
ATOM     80  C   UNL A   1      32.431  27.707  23.544  1.00  0.00     0.028 A 
ATOM     81  C   UNL A   1      30.247  26.699  23.317  1.00  0.00     0.073 A 
ATOM     82  C   UNL A   1      31.641  26.555  23.398  1.00  0.00     0.054 A 
BRANCH  79  83
ATOM     83  O   UNL A   1      28.302  28.075  23.244  1.00  0.00    -0.507 OA
ATOM     84  H   UNL A   1      27.910  28.287  22.420  1.00  0.00     0.293 HD
ENDBRANCH  79  83
BRANCH  82  85
ATOM     85  N   UNL A   1      32.248  25.262  23.341  1.00  0.00    -0.261 N 
ATOM     86  C   UNL A   1      32.487  24.560  24.524  1.00  0.00     0.270 C 
ATOM     87  C   UNL A   1      32.646  24.636  22.164  1.00  0.00     0.152 C 
ATOM     88  O   UNL A   1      32.190  24.886  25.663  1.00  0.00    -0.268 OA
ATOM     89  C   UNL A   1      33.155  23.263  24.221  1.00  0.00     0.081 C 
ATOM     90  S   UNL A   1      33.290  23.042  22.528  1.00  0.00    -0.054 SA
ATOM     91  S   UNL A   1      32.685  25.208  20.591  1.00  0.00    -0.051 S 
ATOM     92  C   UNL A   1      33.556  22.423  25.184  1.00  0.00     0.027 C 
BRANCH  92  93
ATOM     93  C   UNL A   1      34.294  21.198  24.991  1.00  0.00    -0.016 C 
ATOM     94  C   UNL A   1      33.809  20.016  24.619  1.00  0.00     0.005 A 
ATOM     95  C   UNL A   1      35.771  21.100  25.262  1.00  0.00     0.179 C 
ATOM     96  C   UNL A   1      32.525  19.506  24.255  1.00  0.00     0.011 A 
ATOM     97  C   UNL A   1      35.005  19.155  24.641  1.00  0.00     0.065 A 
ATOM     98  N   UNL A   1      36.133  19.686  25.000  1.00  0.00    -0.280 NA
ATOM     99  C   UNL A   1      32.420  18.210  23.915  1.00  0.00     0.001 A 
ATOM    100  C   UNL A   1      34.809  17.743  24.252  1.00  0.00     0.028 A 
ATOM    101  C   UNL A   1      33.576  17.329  23.913  1.00  0.00     0.002 A 
ENDBRANCH  92  93
ENDBRANCH  82  85
ENDBRANCH  74  77
ENDBRANCH  72  73
ENDBRANCH   1  72
TORSDOF 13
ENDMDL
MODEL 2
REMARK VINA RESULT:     -13.8      0.721      7.157
REMARK SMILES O=C(NCCCNC(=O)c1ccc(N2C(=O)/C(=C/C3=c4ccccc4=NC3)SC2=S)cc1O)c1ccc(-c2c3nc(c(-c4c(F)c(F)c(F)c(F)c4F)c4ccc([nH]4)c(-c4c(F)c(F)c(F)c(F)c4F)c4nc(c(-c5c(F)c(F)c(F)c(F)c5F)c5ccc2[nH]5)C=C4)C=C3)cc1
REMARK SMILES IDX 5 1 4 2 3 3 1 4 2 5 34 7 35 8 96 9 36 10 95 11 37 12 38 13
REMARK SMILES IDX 39 14 89 15 40 16 94 17 88 18 90 19 41 20 93 21 87 22 86 23
REMARK SMILES IDX 42 25 74 26 54 27 73 28 55 29 58 30 72 31 91 32 56 33 57 34
REMARK SMILES IDX 71 36 92 37 59 38 43 39 44 40 52 41 45 42 46 43 50 44 53 45
REMARK SMILES IDX 47 46 48 47 51 48 49 49 75 50 76 51 84 52 77 53 78 54 82 55
REMARK SMILES IDX 85 56 79 57 80 58 83 59 81 60 60 61 61 62 69 63 62 64 63 65
REMARK SMILES IDX 67 66 70 67 64 68 65 69 68 70 66 71 6 72 7 73 8 74 9 76
REMARK SMILES IDX 10 77 11 78 32 79 12 80 31 81 13 82 33 83 14 85 15 86 29 87
REMARK SMILES IDX 16 88 17 89 28 90 30 91 18 92 19 93 20 94 27 95 21 96 25 97
REMARK SMILES IDX 26 98 22 99 24 100 23 101
REMARK H PARENT 3 6 90 24 58 35 7 75 33 84
REMARK Flexibility Score: inf
ROOT
ATOM      1  C   UNL A   1      31.364  31.987  26.905  1.00  0.00     0.042 C 
ENDROOT
BRANCH   1   2
ATOM      2  C   UNL A   1      32.690  32.689  27.133  1.00  0.00     0.118 C 
BRANCH   2   3
ATOM      3  N   UNL A   1      32.524  34.076  27.550  1.00  0.00    -0.352 N 
ATOM      4  O   UNL A   1      32.663  35.882  28.879  1.00  0.00    -0.269 OA
ATOM      5  C   UNL A   1      33.097  34.772  28.583  1.00  0.00     0.251 C 
ATOM      6  H   UNL A   1      31.899  34.599  26.998  1.00  0.00     0.163 HD
BRANCH   5   7
ATOM      7  C   UNL A   1      34.222  34.197  29.352  1.00  0.00     0.039 A 
ATOM      8  C   UNL A   1      35.526  34.380  28.881  1.00  0.00     0.014 A 
ATOM      9  C   UNL A   1      34.004  33.437  30.502  1.00  0.00     0.014 A 
ATOM     10  C   UNL A   1      36.601  33.829  29.579  1.00  0.00     0.010 A 
ATOM     11  C   UNL A   1      35.078  32.993  31.263  1.00  0.00     0.010 A 
ATOM     12  C   UNL A   1      36.388  33.145  30.787  1.00  0.00    -0.014 A 
BRANCH  12  13
ATOM     13  C   UNL A   1      37.505  32.497  31.520  1.00  0.00     0.031 A 
ATOM     14  C   UNL A   1      38.232  31.338  30.886  1.00  0.00     0.074 A 
ATOM     15  C   UNL A   1      37.847  32.922  32.751  1.00  0.00     0.049 A 
ATOM     16  N   UNL A   1      39.185  30.589  31.381  1.00  0.00    -0.248 NA
ATOM     17  C   UNL A   1      37.813  30.946  29.528  1.00  0.00     0.031 C 
ATOM     18  C   UNL A   1      37.197  34.011  33.483  1.00  0.00     0.029 A 
ATOM     19  N   UNL A   1      38.829  32.488  33.606  1.00  0.00    -0.354 N 
ATOM     20  C   UNL A   1      39.459  29.637  30.407  1.00  0.00     0.074 A 
ATOM     21  C   UNL A   1      38.532  29.854  29.322  1.00  0.00     0.031 C 
ATOM     22  C   UNL A   1      37.820  34.183  34.659  1.00  0.00     0.029 A 
ATOM     23  C   UNL A   1      38.884  33.191  34.786  1.00  0.00     0.049 A 
ATOM     24  H   UNL A   1      39.439  31.744  33.395  1.00  0.00     0.167 HD
ATOM     25  C   UNL A   1      40.425  28.692  30.401  1.00  0.00     0.037 A 
ATOM     26  C   UNL A   1      39.698  33.045  35.850  1.00  0.00     0.037 A 
ATOM     27  C   UNL A   1      41.386  28.519  31.455  1.00  0.00     0.049 A 
ATOM     28  C   UNL A   1      40.759  31.975  35.821  1.00  0.00     0.074 A 
ATOM     29  C   UNL A   1      42.446  27.632  31.511  1.00  0.00     0.029 A 
ATOM     30  N   UNL A   1      41.409  29.252  32.630  1.00  0.00    -0.354 N 
ATOM     31  N   UNL A   1      41.046  31.122  34.868  1.00  0.00    -0.248 NA
ATOM     32  C   UNL A   1      41.611  31.849  37.013  1.00  0.00     0.031 C 
ATOM     33  C   UNL A   1      43.082  27.794  32.743  1.00  0.00     0.029 A 
ATOM     34  C   UNL A   1      42.452  28.820  33.431  1.00  0.00     0.049 A 
ATOM     35  H   UNL A   1      40.778  29.973  32.860  1.00  0.00     0.167 HD
ATOM     36  C   UNL A   1      42.122  30.378  35.332  1.00  0.00     0.074 A 
ATOM     37  C   UNL A   1      42.451  30.891  36.644  1.00  0.00     0.031 C 
ATOM     38  C   UNL A   1      42.776  29.357  34.726  1.00  0.00     0.037 A 
BRANCH  25  39
ATOM     39  C   UNL A   1      40.527  27.787  29.208  1.00  0.00     0.064 A 
ATOM     40  C   UNL A   1      39.716  26.649  29.080  1.00  0.00     0.173 A 
ATOM     41  C   UNL A   1      41.372  28.117  28.138  1.00  0.00     0.173 A 
ATOM     42  F   UNL A   1      38.902  26.284  30.082  1.00  0.00    -0.203 F 
ATOM     43  C   UNL A   1      39.751  25.872  27.927  1.00  0.00     0.198 A 
ATOM     44  C   UNL A   1      41.382  27.354  26.972  1.00  0.00     0.198 A 
ATOM     45  F   UNL A   1      42.164  29.197  28.208  1.00  0.00    -0.203 F 
ATOM     46  F   UNL A   1      38.986  24.776  27.837  1.00  0.00    -0.200 F 
ATOM     47  C   UNL A   1      40.573  26.233  26.869  1.00  0.00     0.200 A 
ATOM     48  F   UNL A   1      42.164  27.713  25.945  1.00  0.00    -0.200 F 
ATOM     49  F   UNL A   1      40.582  25.500  25.746  1.00  0.00    -0.200 F 
ENDBRANCH  25  39
BRANCH  26  50
ATOM     50  C   UNL A   1      39.558  33.949  37.023  1.00  0.00     0.064 A 
ATOM     51  C   UNL A   1      38.773  33.581  38.125  1.00  0.00     0.173 A 
ATOM     52  C   UNL A   1      40.201  35.195  37.070  1.00  0.00     0.173 A 
ATOM     53  F   UNL A   1      38.121  32.409  38.123  1.00  0.00    -0.203 F 
ATOM     54  C   UNL A   1      38.622  34.432  39.219  1.00  0.00     0.198 A 
ATOM     55  C   UNL A   1      40.074  36.031  38.177  1.00  0.00     0.198 A 
ATOM     56  F   UNL A   1      40.966  35.595  36.044  1.00  0.00    -0.203 F 
ATOM     57  F   UNL A   1      37.828  34.075  40.238  1.00  0.00    -0.200 F 
ATOM     58  C   UNL A   1      39.278  35.653  39.248  1.00  0.00     0.200 A 
ATOM     59  F   UNL A   1      40.724  37.203  38.208  1.00  0.00    -0.200 F 
ATOM     60  F   UNL A   1      39.138  36.467  40.302  1.00  0.00    -0.200 F 
ENDBRANCH  26  50
BRANCH  38  61
ATOM     61  C   UNL A   1      43.929  28.730  35.454  1.00  0.00     0.064 A 
ATOM     62  C   UNL A   1      45.234  29.219  35.312  1.00  0.00     0.173 A 
ATOM     63  C   UNL A   1      43.705  27.706  36.388  1.00  0.00     0.173 A 
ATOM     64  F   UNL A   1      45.498  30.191  34.426  1.00  0.00    -0.203 F 
ATOM     65  C   UNL A   1      46.277  28.702  36.075  1.00  0.00     0.198 A 
ATOM     66  C   UNL A   1      44.744  27.214  37.172  1.00  0.00     0.198 A 
ATOM     67  F   UNL A   1      42.470  27.214  36.570  1.00  0.00    -0.203 F 
ATOM     68  F   UNL A   1      47.523  29.167  35.905  1.00  0.00    -0.200 F 
ATOM     69  C   UNL A   1      46.030  27.710  37.013  1.00  0.00     0.200 A 
ATOM     70  F   UNL A   1      44.498  26.271  38.092  1.00  0.00    -0.200 F 
ATOM     71  F   UNL A   1      47.030  27.234  37.767  1.00  0.00    -0.200 F 
ENDBRANCH  38  61
ENDBRANCH  12  13
ENDBRANCH   5   7
ENDBRANCH   2   3
ENDBRANCH   1   2
BRANCH   1  72
ATOM     72  C   UNL A   1      31.396  30.994  25.757  1.00  0.00     0.118 C 
BRANCH  72  73
ATOM     73  N   UNL A   1      30.343  31.243  24.787  1.00  0.00    -0.352 N 
ATOM     74  C   UNL A   1      29.901  30.430  23.775  1.00  0.00     0.255 C 
ATOM     75  H   UNL A   1      29.886  32.112  24.866  1.00  0.00     0.163 HD
ATOM     76  O   UNL A   1      29.089  30.844  22.952  1.00  0.00    -0.269 OA
BRANCH  74  77
ATOM     77  C   UNL A   1      30.467  29.075  23.630  1.00  0.00     0.081 A 
ATOM     78  C   UNL A   1      31.858  28.951  23.649  1.00  0.00     0.020 A 
ATOM     79  C   UNL A   1      29.667  27.937  23.500  1.00  0.00     0.130 A 
ATOM     80  C   UNL A   1      32.442  27.683  23.588  1.00  0.00     0.028 A 
ATOM     81  C   UNL A   1      30.252  26.674  23.456  1.00  0.00     0.073 A 
ATOM     82  C   UNL A   1      31.648  26.531  23.482  1.00  0.00     0.054 A 
BRANCH  79  83
ATOM     83  O   UNL A   1      28.304  28.048  23.449  1.00  0.00    -0.507 OA
ATOM     84  H   UNL A   1      27.851  28.552  24.096  1.00  0.00     0.293 HD
ENDBRANCH  79  83
BRANCH  82  85
ATOM     85  N   UNL A   1      32.253  25.237  23.412  1.00  0.00    -0.261 N 
ATOM     86  C   UNL A   1      32.499  24.526  24.588  1.00  0.00     0.270 C 
ATOM     87  C   UNL A   1      32.642  24.620  22.228  1.00  0.00     0.152 C 
ATOM     88  O   UNL A   1      32.210  24.844  25.731  1.00  0.00    -0.268 OA
ATOM     89  C   UNL A   1      33.163  23.231  24.270  1.00  0.00     0.081 C 
ATOM     90  S   UNL A   1      33.286  23.022  22.575  1.00  0.00    -0.054 SA
ATOM     91  S   UNL A   1      32.671  25.204  20.658  1.00  0.00    -0.051 S 
ATOM     92  C   UNL A   1      33.569  22.383  25.225  1.00  0.00     0.027 C 
BRANCH  92  93
ATOM     93  C   UNL A   1      34.304  21.158  25.017  1.00  0.00    -0.016 C 
ATOM     94  C   UNL A   1      33.815  19.980  24.642  1.00  0.00     0.005 A 
ATOM     95  C   UNL A   1      35.783  21.057  25.275  1.00  0.00     0.179 C 
ATOM     96  C   UNL A   1      32.528  19.473  24.285  1.00  0.00     0.011 A 
ATOM     97  C   UNL A   1      35.011  19.117  24.648  1.00  0.00     0.065 A 
ATOM     98  N   UNL A   1      36.142  19.645  25.001  1.00  0.00    -0.280 NA
ATOM     99  C   UNL A   1      32.418  18.179  23.937  1.00  0.00     0.001 A 
ATOM    100  C   UNL A   1      34.810  17.708  24.251  1.00  0.00     0.028 A 
ATOM    101  C   UNL A   1      33.574  17.297  23.920  1.00  0.00     0.002 A 
ENDBRANCH  92  93
ENDBRANCH  82  85
ENDBRANCH  74  77
ENDBRANCH  72  73
ENDBRANCH   1  72
TORSDOF 13
ENDMDL
MODEL 3
REMARK VINA RESULT:     -13.8      5.095     10.201
REMARK SMILES O=C(NCCCNC(=O)c1ccc(N2C(=O)/C(=C/C3=c4ccccc4=NC3)SC2=S)cc1O)c1ccc(-c2c3nc(c(-c4c(F)c(F)c(F)c(F)c4F)c4ccc([nH]4)c(-c4c(F)c(F)c(F)c(F)c4F)c4nc(c(-c5c(F)c(F)c(F)c(F)c5F)c5ccc2[nH]5)C=C4)C=C3)cc1
REMARK SMILES IDX 5 1 4 2 3 3 1 4 2 5 34 7 35 8 96 9 36 10 95 11 37 12 38 13
REMARK SMILES IDX 39 14 89 15 40 16 94 17 88 18 90 19 41 20 93 21 87 22 86 23
REMARK SMILES IDX 42 25 74 26 54 27 73 28 55 29 58 30 72 31 91 32 56 33 57 34
REMARK SMILES IDX 71 36 92 37 59 38 43 39 44 40 52 41 45 42 46 43 50 44 53 45
REMARK SMILES IDX 47 46 48 47 51 48 49 49 75 50 76 51 84 52 77 53 78 54 82 55
REMARK SMILES IDX 85 56 79 57 80 58 83 59 81 60 60 61 61 62 69 63 62 64 63 65
REMARK SMILES IDX 67 66 70 67 64 68 65 69 68 70 66 71 6 72 7 73 8 74 9 76
REMARK SMILES IDX 10 77 11 78 32 79 12 80 31 81 13 82 33 83 14 85 15 86 29 87
REMARK SMILES IDX 16 88 17 89 28 90 30 91 18 92 19 93 20 94 27 95 21 96 25 97
REMARK SMILES IDX 26 98 22 99 24 100 23 101
REMARK H PARENT 3 6 90 24 58 35 7 75 33 84
REMARK Flexibility Score: inf
ROOT
ATOM      1  C   UNL A   1      38.201  19.669  24.720  1.00  0.00     0.042 C 
ENDROOT
BRANCH   1   2
ATOM      2  C   UNL A   1      39.193  20.077  25.794  1.00  0.00     0.118 C 
BRANCH   2   3
ATOM      3  N   UNL A   1      40.279  19.116  25.946  1.00  0.00    -0.352 N 
ATOM      4  O   UNL A   1      42.391  18.353  26.012  1.00  0.00    -0.269 OA
ATOM      5  C   UNL A   1      41.626  19.310  26.105  1.00  0.00     0.251 C 
ATOM      6  H   UNL A   1      39.997  18.173  25.934  1.00  0.00     0.163 HD
BRANCH   5   7
ATOM      7  C   UNL A   1      42.171  20.659  26.374  1.00  0.00     0.039 A 
ATOM      8  C   UNL A   1      42.310  21.079  27.700  1.00  0.00     0.014 A 
ATOM      9  C   UNL A   1      42.498  21.532  25.335  1.00  0.00     0.014 A 
ATOM     10  C   UNL A   1      42.802  22.356  27.977  1.00  0.00     0.010 A 
ATOM     11  C   UNL A   1      43.103  22.752  25.610  1.00  0.00     0.010 A 
ATOM     12  C   UNL A   1      43.220  23.197  26.934  1.00  0.00    -0.014 A 
BRANCH  12  13
ATOM     13  C   UNL A   1      43.691  24.581  27.194  1.00  0.00     0.031 A 
ATOM     14  C   UNL A   1      42.723  25.604  27.732  1.00  0.00     0.074 A 
ATOM     15  C   UNL A   1      44.965  24.927  26.926  1.00  0.00     0.049 A 
ATOM     16  N   UNL A   1      42.909  26.879  27.962  1.00  0.00    -0.248 NA
ATOM     17  C   UNL A   1      41.352  25.143  28.019  1.00  0.00     0.031 C 
ATOM     18  C   UNL A   1      45.986  24.036  26.373  1.00  0.00     0.029 A 
ATOM     19  N   UNL A   1      45.619  26.124  27.084  1.00  0.00    -0.354 N 
ATOM     20  C   UNL A   1      41.684  27.366  28.399  1.00  0.00     0.074 A 
ATOM     21  C   UNL A   1      40.742  26.273  28.339  1.00  0.00     0.031 C 
ATOM     22  C   UNL A   1      47.145  24.706  26.271  1.00  0.00     0.029 A 
ATOM     23  C   UNL A   1      46.941  26.084  26.710  1.00  0.00     0.049 A 
ATOM     24  H   UNL A   1      45.183  26.934  27.433  1.00  0.00     0.167 HD
ATOM     25  C   UNL A   1      41.380  28.604  28.848  1.00  0.00     0.037 A 
ATOM     26  C   UNL A   1      47.878  27.052  26.716  1.00  0.00     0.037 A 
ATOM     27  C   UNL A   1      42.334  29.672  28.965  1.00  0.00     0.049 A 
ATOM     28  C   UNL A   1      47.509  28.426  27.212  1.00  0.00     0.074 A 
ATOM     29  C   UNL A   1      42.139  30.944  29.472  1.00  0.00     0.029 A 
ATOM     30  N   UNL A   1      43.663  29.590  28.579  1.00  0.00    -0.354 N 
ATOM     31  N   UNL A   1      46.362  28.855  27.680  1.00  0.00    -0.248 NA
ATOM     32  C   UNL A   1      48.564  29.450  27.185  1.00  0.00     0.031 C 
ATOM     33  C   UNL A   1      43.337  31.649  29.348  1.00  0.00     0.029 A 
ATOM     34  C   UNL A   1      44.293  30.799  28.814  1.00  0.00     0.049 A 
ATOM     35  H   UNL A   1      44.092  28.791  28.196  1.00  0.00     0.167 HD
ATOM     36  C   UNL A   1      46.562  30.185  28.023  1.00  0.00     0.074 A 
ATOM     37  C   UNL A   1      47.947  30.489  27.730  1.00  0.00     0.031 C 
ATOM     38  C   UNL A   1      45.677  31.076  28.533  1.00  0.00     0.037 A 
BRANCH  25  39
ATOM     39  C   UNL A   1      39.971  28.876  29.286  1.00  0.00     0.064 A 
ATOM     40  C   UNL A   1      38.992  29.308  28.379  1.00  0.00     0.173 A 
ATOM     41  C   UNL A   1      39.573  28.606  30.604  1.00  0.00     0.173 A 
ATOM     42  F   UNL A   1      39.326  29.593  27.111  1.00  0.00    -0.203 F 
ATOM     43  C   UNL A   1      37.668  29.464  28.776  1.00  0.00     0.198 A 
ATOM     44  C   UNL A   1      38.241  28.733  30.990  1.00  0.00     0.198 A 
ATOM     45  F   UNL A   1      40.469  28.186  31.510  1.00  0.00    -0.203 F 
ATOM     46  F   UNL A   1      36.755  29.901  27.898  1.00  0.00    -0.200 F 
ATOM     47  C   UNL A   1      37.291  29.163  30.076  1.00  0.00     0.200 A 
ATOM     48  F   UNL A   1      37.875  28.427  32.242  1.00  0.00    -0.200 F 
ATOM     49  F   UNL A   1      36.009  29.285  30.448  1.00  0.00    -0.200 F 
ENDBRANCH  25  39
BRANCH  26  50
ATOM     50  C   UNL A   1      49.261  26.751  26.259  1.00  0.00     0.064 A 
ATOM     51  C   UNL A   1      49.641  26.965  24.926  1.00  0.00     0.173 A 
ATOM     52  C   UNL A   1      50.230  26.246  27.138  1.00  0.00     0.173 A 
ATOM     53  F   UNL A   1      48.747  27.428  24.040  1.00  0.00    -0.203 F 
ATOM     54  C   UNL A   1      50.931  26.667  24.487  1.00  0.00     0.198 A 
ATOM     55  C   UNL A   1      51.528  25.978  26.705  1.00  0.00     0.198 A 
ATOM     56  F   UNL A   1      49.922  26.026  28.424  1.00  0.00    -0.203 F 
ATOM     57  F   UNL A   1      51.252  26.837  23.198  1.00  0.00    -0.200 F 
ATOM     58  C   UNL A   1      51.875  26.181  25.378  1.00  0.00     0.200 A 
ATOM     59  F   UNL A   1      52.442  25.524  27.574  1.00  0.00    -0.200 F 
ATOM     60  F   UNL A   1      53.115  25.901  24.957  1.00  0.00    -0.200 F 
ENDBRANCH  26  50
BRANCH  38  61
ATOM     61  C   UNL A   1      46.168  32.463  28.831  1.00  0.00     0.064 A 
ATOM     62  C   UNL A   1      46.059  33.493  27.888  1.00  0.00     0.173 A 
ATOM     63  C   UNL A   1      46.643  32.787  30.111  1.00  0.00     0.173 A 
ATOM     64  F   UNL A   1      45.617  33.231  26.648  1.00  0.00    -0.203 F 
ATOM     65  C   UNL A   1      46.414  34.799  28.213  1.00  0.00     0.198 A 
ATOM     66  C   UNL A   1      46.968  34.099  30.443  1.00  0.00     0.198 A 
ATOM     67  F   UNL A   1      46.754  31.837  31.052  1.00  0.00    -0.203 F 
ATOM     68  F   UNL A   1      46.326  35.766  27.289  1.00  0.00    -0.200 F 
ATOM     69  C   UNL A   1      46.856  35.103  29.493  1.00  0.00     0.200 A 
ATOM     70  F   UNL A   1      47.373  34.393  31.686  1.00  0.00    -0.200 F 
ATOM     71  F   UNL A   1      47.169  36.366  29.813  1.00  0.00    -0.200 F 
ENDBRANCH  38  61
ENDBRANCH  12  13
ENDBRANCH   5   7
ENDBRANCH   2   3
ENDBRANCH   1   2
BRANCH   1  72
ATOM     72  C   UNL A   1      36.796  20.189  24.968  1.00  0.00     0.118 C 
BRANCH  72  73
ATOM     73  N   UNL A   1      35.798  19.137  24.878  1.00  0.00    -0.352 N 
ATOM     74  C   UNL A   1      34.431  19.247  24.908  1.00  0.00     0.255 C 
ATOM     75  H   UNL A   1      36.150  18.221  24.784  1.00  0.00     0.163 HD
ATOM     76  O   UNL A   1      33.726  18.244  24.957  1.00  0.00    -0.269 OA
BRANCH  74  77
ATOM     77  C   UNL A   1      33.811  20.584  24.961  1.00  0.00     0.081 A 
ATOM     78  C   UNL A   1      33.058  20.992  23.857  1.00  0.00     0.020 A 
ATOM     79  C   UNL A   1      33.935  21.426  26.069  1.00  0.00     0.130 A 
ATOM     80  C   UNL A   1      32.392  22.220  23.887  1.00  0.00     0.028 A 
ATOM     81  C   UNL A   1      33.256  22.642  26.103  1.00  0.00     0.073 A 
ATOM     82  C   UNL A   1      32.489  23.063  25.006  1.00  0.00     0.054 A 
BRANCH  79  83
ATOM     83  O   UNL A   1      34.695  21.051  27.144  1.00  0.00    -0.507 OA
ATOM     84  H   UNL A   1      34.297  20.945  27.985  1.00  0.00     0.293 HD
ENDBRANCH  79  83
BRANCH  82  85
ATOM     85  N   UNL A   1      31.810  24.321  25.026  1.00  0.00    -0.261 N 
ATOM     86  C   UNL A   1      32.345  25.405  24.328  1.00  0.00     0.270 C 
ATOM     87  C   UNL A   1      30.630  24.561  25.723  1.00  0.00     0.152 C 
ATOM     88  O   UNL A   1      33.340  25.423  23.619  1.00  0.00    -0.268 OA
ATOM     89  C   UNL A   1      31.491  26.609  24.523  1.00  0.00     0.081 C 
ATOM     90  S   UNL A   1      30.099  26.212  25.439  1.00  0.00    -0.054 SA
ATOM     91  S   UNL A   1      29.785  23.589  26.793  1.00  0.00    -0.051 S 
ATOM     92  C   UNL A   1      31.814  27.805  24.015  1.00  0.00     0.027 C 
BRANCH  92  93
ATOM     93  C   UNL A   1      31.103  29.043  24.232  1.00  0.00    -0.016 C 
ATOM     94  C   UNL A   1      30.038  29.486  23.570  1.00  0.00     0.005 A 
ATOM     95  C   UNL A   1      31.549  30.055  25.252  1.00  0.00     0.179 C 
ATOM     96  C   UNL A   1      29.208  28.991  22.519  1.00  0.00     0.011 A 
ATOM     97  C   UNL A   1      29.796  30.800  24.193  1.00  0.00     0.065 A 
ATOM     98  N   UNL A   1      30.603  31.190  25.131  1.00  0.00    -0.280 NA
ATOM     99  C   UNL A   1      28.176  29.745  22.103  1.00  0.00     0.001 A 
ATOM    100  C   UNL A   1      28.641  31.568  23.683  1.00  0.00     0.028 A 
ATOM    101  C   UNL A   1      27.896  31.042  22.697  1.00  0.00     0.002 A 
ENDBRANCH  92  93
ENDBRANCH  82  85
ENDBRANCH  74  77
ENDBRANCH  72  73
ENDBRANCH   1  72
TORSDOF 13
ENDMDL
