MODEL 1
REMARK VINA RESULT:     -13.9      0.000      0.000
REMARK SMILES O=C(NCCCNC(=O)[C@]12C[NH2+]C[C@H]1CN(C(=O)c1ccccc1-n1cncn1)C2)c1ccc(-c2c3nc(c(-c4c(F)c(F)c(F)c(F)c4F)c4ccc([nH]4)c(-c4c(F)c(F)c(F)c(F)c4F)c4nc(c(-c5c(F)c(F)c(F)c(F)c5F)c5ccc2[nH]5)C=C4)C=C3)cc1
REMARK SMILES IDX 5 1 4 2 3 3 1 4 2 5 31 7 32 8 93 9 33 10 92 11 34 12 35 13
REMARK SMILES IDX 36 14 86 15 37 16 91 17 85 18 87 19 38 20 90 21 84 22 83 23
REMARK SMILES IDX 39 25 71 26 51 27 70 28 52 29 55 30 69 31 88 32 53 33 54 34
REMARK SMILES IDX 68 36 89 37 56 38 40 39 41 40 49 41 42 42 43 43 47 44 50 45
REMARK SMILES IDX 44 46 45 47 48 48 46 49 72 50 73 51 81 52 74 53 75 54 79 55
REMARK SMILES IDX 82 56 76 57 77 58 80 59 78 60 57 61 58 62 66 63 59 64 60 65
REMARK SMILES IDX 64 66 67 67 61 68 62 69 65 70 63 71 6 72 7 73 8 74 9 76
REMARK SMILES IDX 10 77 11 78 14 79 30 80 12 81 13 82 15 83 16 84 17 87 18 88
REMARK SMILES IDX 19 89 20 90 24 91 21 92 23 93 22 94 25 95 26 96 29 97 27 98
REMARK SMILES IDX 28 99
REMARK H PARENT 3 6 87 24 55 35 7 75 12 85 12 86
REMARK Flexibility Score: inf
ROOT
ATOM      1  C   UNL A   1      33.365  28.603  27.273  1.00  0.00     0.042 C 
ENDROOT
BRANCH   1   2
ATOM      2  C   UNL A   1      34.776  29.051  26.880  1.00  0.00     0.118 C 
BRANCH   2   3
ATOM      3  N   UNL A   1      35.397  30.087  27.686  1.00  0.00    -0.352 N 
ATOM      4  O   UNL A   1      36.920  31.619  28.206  1.00  0.00    -0.269 OA
ATOM      5  C   UNL A   1      36.703  30.438  27.917  1.00  0.00     0.251 C 
ATOM      6  H   UNL A   1      34.749  30.652  28.165  1.00  0.00     0.163 HD
BRANCH   5   7
ATOM      7  C   UNL A   1      37.831  29.474  27.989  1.00  0.00     0.039 A 
ATOM      8  C   UNL A   1      37.974  28.485  28.960  1.00  0.00     0.014 A 
ATOM      9  C   UNL A   1      38.891  29.688  27.087  1.00  0.00     0.014 A 
ATOM     10  C   UNL A   1      39.194  27.841  29.142  1.00  0.00     0.010 A 
ATOM     11  C   UNL A   1      40.105  29.023  27.239  1.00  0.00     0.010 A 
ATOM     12  C   UNL A   1      40.267  28.132  28.300  1.00  0.00    -0.014 A 
BRANCH  12  13
ATOM     13  C   UNL A   1      41.486  27.336  28.441  1.00  0.00     0.031 A 
ATOM     14  C   UNL A   1      42.184  27.475  29.760  1.00  0.00     0.074 A 
ATOM     15  C   UNL A   1      41.845  26.382  27.560  1.00  0.00     0.049 A 
ATOM     16  N   UNL A   1      43.450  27.603  30.014  1.00  0.00    -0.248 NA
ATOM     17  C   UNL A   1      41.329  27.513  30.961  1.00  0.00     0.031 C 
ATOM     18  C   UNL A   1      41.097  25.910  26.393  1.00  0.00     0.029 A 
ATOM     19  N   UNL A   1      42.911  25.531  27.611  1.00  0.00    -0.354 N 
ATOM     20  C   UNL A   1      43.563  27.591  31.405  1.00  0.00     0.074 A 
ATOM     21  C   UNL A   1      42.227  27.626  31.935  1.00  0.00     0.031 C 
ATOM     22  C   UNL A   1      41.607  24.726  25.990  1.00  0.00     0.029 A 
ATOM     23  C   UNL A   1      42.771  24.414  26.803  1.00  0.00     0.049 A 
ATOM     24  H   UNL A   1      43.705  25.695  28.170  1.00  0.00     0.167 HD
ATOM     25  C   UNL A   1      44.739  27.378  32.054  1.00  0.00     0.037 A 
ATOM     26  C   UNL A   1      43.489  23.267  26.874  1.00  0.00     0.037 A 
ATOM     27  C   UNL A   1      45.877  27.709  31.247  1.00  0.00     0.049 A 
ATOM     28  C   UNL A   1      44.724  23.538  27.647  1.00  0.00     0.074 A 
ATOM     29  C   UNL A   1      46.336  28.866  30.648  1.00  0.00     0.029 A 
ATOM     30  N   UNL A   1      46.635  26.701  30.711  1.00  0.00    -0.354 N 
ATOM     31  N   UNL A   1      45.714  24.276  27.231  1.00  0.00    -0.248 NA
ATOM     32  C   UNL A   1      44.697  23.278  29.079  1.00  0.00     0.031 C 
ATOM     33  C   UNL A   1      46.973  28.436  29.447  1.00  0.00     0.029 A 
ATOM     34  C   UNL A   1      46.862  27.047  29.405  1.00  0.00     0.049 A 
ATOM     35  H   UNL A   1      46.952  25.891  31.172  1.00  0.00     0.167 HD
ATOM     36  C   UNL A   1      46.198  24.895  28.373  1.00  0.00     0.074 A 
ATOM     37  C   UNL A   1      45.606  24.165  29.487  1.00  0.00     0.031 C 
ATOM     38  C   UNL A   1      46.815  26.111  28.309  1.00  0.00     0.037 A 
BRANCH  25  39
ATOM     39  C   UNL A   1      44.849  26.593  33.336  1.00  0.00     0.064 A 
ATOM     40  C   UNL A   1      44.431  25.248  33.375  1.00  0.00     0.173 A 
ATOM     41  C   UNL A   1      45.078  27.198  34.592  1.00  0.00     0.173 A 
ATOM     42  F   UNL A   1      44.157  24.586  32.242  1.00  0.00    -0.203 F 
ATOM     43  C   UNL A   1      44.200  24.584  34.582  1.00  0.00     0.198 A 
ATOM     44  C   UNL A   1      44.899  26.515  35.793  1.00  0.00     0.198 A 
ATOM     45  F   UNL A   1      45.378  28.498  34.707  1.00  0.00    -0.203 F 
ATOM     46  F   UNL A   1      43.690  23.344  34.572  1.00  0.00    -0.200 F 
ATOM     47  C   UNL A   1      44.431  25.218  35.790  1.00  0.00     0.200 A 
ATOM     48  F   UNL A   1      45.111  27.152  36.952  1.00  0.00    -0.200 F 
ATOM     49  F   UNL A   1      44.154  24.601  36.946  1.00  0.00    -0.200 F 
ENDBRANCH  25  39
BRANCH  26  50
ATOM     50  C   UNL A   1      43.014  21.891  26.594  1.00  0.00     0.064 A 
ATOM     51  C   UNL A   1      43.632  21.089  25.623  1.00  0.00     0.173 A 
ATOM     52  C   UNL A   1      42.097  21.247  27.448  1.00  0.00     0.173 A 
ATOM     53  F   UNL A   1      44.564  21.610  24.810  1.00  0.00    -0.203 F 
ATOM     54  C   UNL A   1      43.348  19.723  25.514  1.00  0.00     0.198 A 
ATOM     55  C   UNL A   1      41.802  19.890  27.329  1.00  0.00     0.198 A 
ATOM     56  F   UNL A   1      41.536  21.902  28.474  1.00  0.00    -0.203 F 
ATOM     57  F   UNL A   1      43.997  18.975  24.610  1.00  0.00    -0.200 F 
ATOM     58  C   UNL A   1      42.435  19.125  26.369  1.00  0.00     0.200 A 
ATOM     59  F   UNL A   1      40.947  19.319  28.189  1.00  0.00    -0.200 F 
ATOM     60  F   UNL A   1      42.197  17.808  26.295  1.00  0.00    -0.200 F 
ENDBRANCH  26  50
BRANCH  38  61
ATOM     61  C   UNL A   1      47.183  26.638  26.955  1.00  0.00     0.064 A 
ATOM     62  C   UNL A   1      48.433  26.404  26.355  1.00  0.00     0.173 A 
ATOM     63  C   UNL A   1      46.197  27.257  26.177  1.00  0.00     0.173 A 
ATOM     64  F   UNL A   1      49.384  25.714  26.997  1.00  0.00    -0.203 F 
ATOM     65  C   UNL A   1      48.696  26.818  25.052  1.00  0.00     0.198 A 
ATOM     66  C   UNL A   1      46.452  27.638  24.863  1.00  0.00     0.198 A 
ATOM     67  F   UNL A   1      44.965  27.443  26.676  1.00  0.00    -0.203 F 
ATOM     68  F   UNL A   1      49.899  26.588  24.505  1.00  0.00    -0.200 F 
ATOM     69  C   UNL A   1      47.703  27.429  24.304  1.00  0.00     0.200 A 
ATOM     70  F   UNL A   1      45.472  28.177  24.123  1.00  0.00    -0.200 F 
ATOM     71  F   UNL A   1      47.941  27.785  23.034  1.00  0.00    -0.200 F 
ENDBRANCH  38  61
ENDBRANCH  12  13
ENDBRANCH   5   7
ENDBRANCH   2   3
ENDBRANCH   1   2
BRANCH   1  72
ATOM     72  C   UNL A   1      32.889  27.296  26.676  1.00  0.00     0.117 C 
BRANCH  72  73
ATOM     73  N   UNL A   1      31.522  27.306  26.205  1.00  0.00    -0.355 N 
ATOM     74  C   UNL A   1      31.123  26.870  24.961  1.00  0.00     0.234 C 
ATOM     75  H   UNL A   1      30.829  27.648  26.814  1.00  0.00     0.163 HD
ATOM     76  O   UNL A   1      30.003  26.360  24.880  1.00  0.00    -0.274 OA
BRANCH  74  77
ATOM     77  C   UNL A   1      32.140  27.006  23.795  1.00  0.00     0.125 C 
ATOM     78  C   UNL A   1      31.641  28.527  23.619  1.00  0.00     0.280 C 
ATOM     79  C   UNL A   1      32.785  27.178  22.382  1.00  0.00     0.087 C 
ATOM     80  C   UNL A   1      31.586  25.582  23.268  1.00  0.00     0.143 C 
ATOM     81  N   UNL A   1      32.765  29.349  23.112  1.00  0.00    -0.345 N 
ATOM     82  C   UNL A   1      33.596  28.443  22.347  1.00  0.00     0.267 C 
ATOM     83  C   UNL A   1      33.606  25.942  22.112  1.00  0.00     0.130 C 
ATOM     84  N   UNL A   1      32.781  24.926  22.699  1.00  0.00    -0.337 N 
ATOM     85  H   UNL A   1      33.293  29.747  23.889  1.00  0.00     0.346 HD
ATOM     86  H   UNL A   1      32.436  30.130  22.544  1.00  0.00     0.346 HD
BRANCH  84  87
ATOM     87  C   UNL A   1      33.310  23.651  22.825  1.00  0.00     0.256 C 
ATOM     88  O   UNL A   1      33.032  22.753  22.032  1.00  0.00    -0.269 OA
BRANCH  87  89
ATOM     89  C   UNL A   1      34.303  23.328  23.874  1.00  0.00     0.065 A 
ATOM     90  C   UNL A   1      35.628  23.217  23.426  1.00  0.00     0.016 A 
ATOM     91  C   UNL A   1      34.032  23.172  25.239  1.00  0.00     0.079 A 
ATOM     92  C   UNL A   1      36.662  23.010  24.333  1.00  0.00     0.001 A 
ATOM     93  C   UNL A   1      35.094  23.072  26.156  1.00  0.00     0.029 A 
ATOM     94  C   UNL A   1      36.406  22.981  25.699  1.00  0.00     0.002 A 
BRANCH  91  95
ATOM     95  N   UNL A   1      32.717  23.056  25.730  1.00  0.00    -0.220 N 
ATOM     96  C   UNL A   1      31.768  22.102  25.453  1.00  0.00     0.225 A 
ATOM     97  N   UNL A   1      32.207  23.955  26.603  1.00  0.00    -0.155 NA
ATOM     98  N   UNL A   1      30.626  22.421  26.018  1.00  0.00    -0.223 NA
ATOM     99  C   UNL A   1      30.937  23.561  26.694  1.00  0.00     0.246 A 
ENDBRANCH  91  95
ENDBRANCH  87  89
ENDBRANCH  84  87
ENDBRANCH  74  77
ENDBRANCH  72  73
ENDBRANCH   1  72
TORSDOF 13
ENDMDL
MODEL 2
REMARK VINA RESULT:     -13.8      5.736     10.632
REMARK SMILES O=C(NCCCNC(=O)[C@]12C[NH2+]C[C@H]1CN(C(=O)c1ccccc1-n1cncn1)C2)c1ccc(-c2c3nc(c(-c4c(F)c(F)c(F)c(F)c4F)c4ccc([nH]4)c(-c4c(F)c(F)c(F)c(F)c4F)c4nc(c(-c5c(F)c(F)c(F)c(F)c5F)c5ccc2[nH]5)C=C4)C=C3)cc1
REMARK SMILES IDX 5 1 4 2 3 3 1 4 2 5 31 7 32 8 93 9 33 10 92 11 34 12 35 13
REMARK SMILES IDX 36 14 86 15 37 16 91 17 85 18 87 19 38 20 90 21 84 22 83 23
REMARK SMILES IDX 39 25 71 26 51 27 70 28 52 29 55 30 69 31 88 32 53 33 54 34
REMARK SMILES IDX 68 36 89 37 56 38 40 39 41 40 49 41 42 42 43 43 47 44 50 45
REMARK SMILES IDX 44 46 45 47 48 48 46 49 72 50 73 51 81 52 74 53 75 54 79 55
REMARK SMILES IDX 82 56 76 57 77 58 80 59 78 60 57 61 58 62 66 63 59 64 60 65
REMARK SMILES IDX 64 66 67 67 61 68 62 69 65 70 63 71 6 72 7 73 8 74 9 76
REMARK SMILES IDX 10 77 11 78 14 79 30 80 12 81 13 82 15 83 16 84 17 87 18 88
REMARK SMILES IDX 19 89 20 90 24 91 21 92 23 93 22 94 25 95 26 96 29 97 27 98
REMARK SMILES IDX 28 99
REMARK H PARENT 3 6 87 24 55 35 7 75 12 85 12 86
REMARK Flexibility Score: inf
ROOT
ATOM      1  C   UNL A   1      36.999  23.283  25.089  1.00  0.00     0.042 C 
ENDROOT
BRANCH   1   2
ATOM      2  C   UNL A   1      37.435  23.926  26.408  1.00  0.00     0.118 C 
BRANCH   2   3
ATOM      3  N   UNL A   1      38.835  23.812  26.777  1.00  0.00    -0.352 N 
ATOM      4  O   UNL A   1      40.577  23.770  28.156  1.00  0.00    -0.269 OA
ATOM      5  C   UNL A   1      39.599  24.405  27.749  1.00  0.00     0.251 C 
ATOM      6  H   UNL A   1      39.338  23.179  26.215  1.00  0.00     0.163 HD
BRANCH   5   7
ATOM      7  C   UNL A   1      39.417  25.801  28.225  1.00  0.00     0.039 A 
ATOM      8  C   UNL A   1      39.702  26.942  27.478  1.00  0.00     0.014 A 
ATOM      9  C   UNL A   1      39.067  25.956  29.580  1.00  0.00     0.014 A 
ATOM     10  C   UNL A   1      39.803  28.186  28.093  1.00  0.00     0.010 A 
ATOM     11  C   UNL A   1      39.131  27.203  30.197  1.00  0.00     0.010 A 
ATOM     12  C   UNL A   1      39.546  28.310  29.458  1.00  0.00    -0.014 A 
BRANCH  12  13
ATOM     13  C   UNL A   1      39.532  29.654  30.034  1.00  0.00     0.031 A 
ATOM     14  C   UNL A   1      40.818  30.413  29.904  1.00  0.00     0.074 A 
ATOM     15  C   UNL A   1      38.404  30.262  30.451  1.00  0.00     0.049 A 
ATOM     16  N   UNL A   1      41.438  31.142  30.779  1.00  0.00    -0.248 NA
ATOM     17  C   UNL A   1      41.525  30.301  28.614  1.00  0.00     0.031 C 
ATOM     18  C   UNL A   1      37.028  29.772  30.345  1.00  0.00     0.029 A 
ATOM     19  N   UNL A   1      38.247  31.526  30.940  1.00  0.00    -0.354 N 
ATOM     20  C   UNL A   1      42.530  31.697  30.109  1.00  0.00     0.074 A 
ATOM     21  C   UNL A   1      42.586  31.076  28.814  1.00  0.00     0.031 C 
ATOM     22  C   UNL A   1      36.176  30.802  30.537  1.00  0.00     0.029 A 
ATOM     23  C   UNL A   1      36.942  31.990  30.878  1.00  0.00     0.049 A 
ATOM     24  H   UNL A   1      38.991  32.061  31.302  1.00  0.00     0.167 HD
ATOM     25  C   UNL A   1      43.230  32.762  30.583  1.00  0.00     0.037 A 
ATOM     26  C   UNL A   1      36.533  33.276  30.986  1.00  0.00     0.037 A 
ATOM     27  C   UNL A   1      43.118  32.902  32.005  1.00  0.00     0.049 A 
ATOM     28  C   UNL A   1      37.625  34.062  31.608  1.00  0.00     0.074 A 
ATOM     29  C   UNL A   1      43.455  32.110  33.086  1.00  0.00     0.029 A 
ATOM     30  N   UNL A   1      42.335  33.901  32.521  1.00  0.00    -0.354 N 
ATOM     31  N   UNL A   1      38.007  33.951  32.848  1.00  0.00    -0.248 NA
ATOM     32  C   UNL A   1      38.566  34.732  30.721  1.00  0.00     0.031 C 
ATOM     33  C   UNL A   1      42.462  32.383  34.072  1.00  0.00     0.029 A 
ATOM     34  C   UNL A   1      41.596  33.327  33.523  1.00  0.00     0.049 A 
ATOM     35  H   UNL A   1      42.308  34.840  32.230  1.00  0.00     0.167 HD
ATOM     36  C   UNL A   1      39.376  34.170  32.818  1.00  0.00     0.074 A 
ATOM     37  C   UNL A   1      39.644  34.747  31.507  1.00  0.00     0.031 C 
ATOM     38  C   UNL A   1      40.201  33.611  33.750  1.00  0.00     0.037 A 
BRANCH  25  39
ATOM     39  C   UNL A   1      43.791  33.847  29.698  1.00  0.00     0.064 A 
ATOM     40  C   UNL A   1      42.924  34.626  28.909  1.00  0.00     0.173 A 
ATOM     41  C   UNL A   1      45.165  33.950  29.384  1.00  0.00     0.173 A 
ATOM     42  F   UNL A   1      41.598  34.581  29.101  1.00  0.00    -0.203 F 
ATOM     43  C   UNL A   1      43.395  35.401  27.844  1.00  0.00     0.198 A 
ATOM     44  C   UNL A   1      45.635  34.766  28.357  1.00  0.00     0.198 A 
ATOM     45  F   UNL A   1      46.087  33.188  29.985  1.00  0.00    -0.203 F 
ATOM     46  F   UNL A   1      42.523  36.032  27.046  1.00  0.00    -0.200 F 
ATOM     47  C   UNL A   1      44.749  35.468  27.567  1.00  0.00     0.200 A 
ATOM     48  F   UNL A   1      46.948  34.803  28.093  1.00  0.00    -0.200 F 
ATOM     49  F   UNL A   1      45.194  36.163  26.513  1.00  0.00    -0.200 F 
ENDBRANCH  25  39
BRANCH  26  50
ATOM     50  C   UNL A   1      35.390  33.917  30.292  1.00  0.00     0.064 A 
ATOM     51  C   UNL A   1      34.328  34.489  31.008  1.00  0.00     0.173 A 
ATOM     52  C   UNL A   1      35.439  34.197  28.912  1.00  0.00     0.173 A 
ATOM     53  F   UNL A   1      34.243  34.323  32.337  1.00  0.00    -0.203 F 
ATOM     54  C   UNL A   1      33.371  35.294  30.379  1.00  0.00     0.198 A 
ATOM     55  C   UNL A   1      34.477  34.986  28.283  1.00  0.00     0.198 A 
ATOM     56  F   UNL A   1      36.471  33.786  28.162  1.00  0.00    -0.203 F 
ATOM     57  F   UNL A   1      32.401  35.869  31.104  1.00  0.00    -0.200 F 
ATOM     58  C   UNL A   1      33.449  35.543  29.018  1.00  0.00     0.200 A 
ATOM     59  F   UNL A   1      34.588  35.249  26.974  1.00  0.00    -0.200 F 
ATOM     60  F   UNL A   1      32.560  36.352  28.424  1.00  0.00    -0.200 F 
ENDBRANCH  26  50
BRANCH  38  61
ATOM     61  C   UNL A   1      39.568  32.970  34.950  1.00  0.00     0.064 A 
ATOM     62  C   UNL A   1      39.258  33.679  36.123  1.00  0.00     0.173 A 
ATOM     63  C   UNL A   1      39.120  31.648  34.853  1.00  0.00     0.173 A 
ATOM     64  F   UNL A   1      39.553  34.979  36.238  1.00  0.00    -0.203 F 
ATOM     65  C   UNL A   1      38.573  33.072  37.173  1.00  0.00     0.198 A 
ATOM     66  C   UNL A   1      38.403  31.054  35.889  1.00  0.00     0.198 A 
ATOM     67  F   UNL A   1      39.327  30.947  33.727  1.00  0.00    -0.203 F 
ATOM     68  F   UNL A   1      38.294  33.767  38.284  1.00  0.00    -0.200 F 
ATOM     69  C   UNL A   1      38.140  31.761  37.052  1.00  0.00     0.200 A 
ATOM     70  F   UNL A   1      37.936  29.806  35.747  1.00  0.00    -0.200 F 
ATOM     71  F   UNL A   1      37.439  31.191  38.041  1.00  0.00    -0.200 F 
ENDBRANCH  38  61
ENDBRANCH  12  13
ENDBRANCH   5   7
ENDBRANCH   2   3
ENDBRANCH   1   2
BRANCH   1  72
ATOM     72  C   UNL A   1      35.776  23.880  24.427  1.00  0.00     0.117 C 
BRANCH  72  73
ATOM     73  N   UNL A   1      35.004  22.952  23.630  1.00  0.00    -0.355 N 
ATOM     74  C   UNL A   1      33.679  22.649  23.852  1.00  0.00     0.234 C 
ATOM     75  H   UNL A   1      35.455  22.508  22.877  1.00  0.00     0.163 HD
ATOM     76  O   UNL A   1      32.992  22.384  22.863  1.00  0.00    -0.274 OA
BRANCH  74  77
ATOM     77  C   UNL A   1      33.163  22.726  25.315  1.00  0.00     0.125 C 
ATOM     78  C   UNL A   1      33.717  21.229  25.525  1.00  0.00     0.280 C 
ATOM     79  C   UNL A   1      32.362  22.488  26.636  1.00  0.00     0.087 C 
ATOM     80  C   UNL A   1      31.796  23.333  24.704  1.00  0.00     0.143 C 
ATOM     81  N   UNL A   1      34.125  21.059  26.940  1.00  0.00    -0.345 N 
ATOM     82  C   UNL A   1      33.285  21.960  27.699  1.00  0.00     0.267 C 
ATOM     83  C   UNL A   1      31.719  23.801  27.011  1.00  0.00     0.130 C 
ATOM     84  N   UNL A   1      31.356  24.311  25.720  1.00  0.00    -0.337 N 
ATOM     85  H   UNL A   1      35.108  21.302  27.058  1.00  0.00     0.346 HD
ATOM     86  H   UNL A   1      34.017  20.092  27.250  1.00  0.00     0.346 HD
BRANCH  84  87
ATOM     87  C   UNL A   1      30.909  25.620  25.641  1.00  0.00     0.256 C 
ATOM     88  O   UNL A   1      29.710  25.894  25.597  1.00  0.00    -0.269 OA
BRANCH  87  89
ATOM     89  C   UNL A   1      31.850  26.763  25.691  1.00  0.00     0.065 A 
ATOM     90  C   UNL A   1      31.901  27.439  26.920  1.00  0.00     0.016 A 
ATOM     91  C   UNL A   1      32.693  27.175  24.653  1.00  0.00     0.079 A 
ATOM     92  C   UNL A   1      32.815  28.468  27.117  1.00  0.00     0.001 A 
ATOM     93  C   UNL A   1      33.685  28.142  24.898  1.00  0.00     0.029 A 
ATOM     94  C   UNL A   1      33.736  28.793  26.128  1.00  0.00     0.002 A 
BRANCH  91  95
ATOM     95  N   UNL A   1      32.549  26.692  23.337  1.00  0.00    -0.220 N 
ATOM     96  C   UNL A   1      31.475  26.795  22.487  1.00  0.00     0.225 A 
ATOM     97  N   UNL A   1      33.544  26.013  22.721  1.00  0.00    -0.155 NA
ATOM     98  N   UNL A   1      31.693  26.102  21.394  1.00  0.00    -0.223 NA
ATOM     99  C   UNL A   1      32.957  25.633  21.586  1.00  0.00     0.246 A 
ENDBRANCH  91  95
ENDBRANCH  87  89
ENDBRANCH  84  87
ENDBRANCH  74  77
ENDBRANCH  72  73
ENDBRANCH   1  72
TORSDOF 13
ENDMDL
MODEL 3
REMARK VINA RESULT:     -13.8      3.794      8.778
REMARK SMILES O=C(NCCCNC(=O)[C@]12C[NH2+]C[C@H]1CN(C(=O)c1ccccc1-n1cncn1)C2)c1ccc(-c2c3nc(c(-c4c(F)c(F)c(F)c(F)c4F)c4ccc([nH]4)c(-c4c(F)c(F)c(F)c(F)c4F)c4nc(c(-c5c(F)c(F)c(F)c(F)c5F)c5ccc2[nH]5)C=C4)C=C3)cc1
REMARK SMILES IDX 5 1 4 2 3 3 1 4 2 5 31 7 32 8 93 9 33 10 92 11 34 12 35 13
REMARK SMILES IDX 36 14 86 15 37 16 91 17 85 18 87 19 38 20 90 21 84 22 83 23
REMARK SMILES IDX 39 25 71 26 51 27 70 28 52 29 55 30 69 31 88 32 53 33 54 34
REMARK SMILES IDX 68 36 89 37 56 38 40 39 41 40 49 41 42 42 43 43 47 44 50 45
REMARK SMILES IDX 44 46 45 47 48 48 46 49 72 50 73 51 81 52 74 53 75 54 79 55
REMARK SMILES IDX 82 56 76 57 77 58 80 59 78 60 57 61 58 62 66 63 59 64 60 65
REMARK SMILES IDX 64 66 67 67 61 68 62 69 65 70 63 71 6 72 7 73 8 74 9 76
REMARK SMILES IDX 10 77 11 78 14 79 30 80 12 81 13 82 15 83 16 84 17 87 18 88
REMARK SMILES IDX 19 89 20 90 24 91 21 92 23 93 22 94 25 95 26 96 29 97 27 98
REMARK SMILES IDX 28 99
REMARK H PARENT 3 6 87 24 55 35 7 75 12 85 12 86
REMARK Flexibility Score: inf
ROOT
ATOM      1  C   UNL A   1      36.656  22.901  23.694  1.00  0.00     0.042 C 
ENDROOT
BRANCH   1   2
ATOM      2  C   UNL A   1      37.113  22.377  25.059  1.00  0.00     0.118 C 
BRANCH   2   3
ATOM      3  N   UNL A   1      38.465  21.857  25.157  1.00  0.00    -0.352 N 
ATOM      4  O   UNL A   1      40.262  21.048  26.183  1.00  0.00    -0.269 OA
ATOM      5  C   UNL A   1      39.446  21.972  26.108  1.00  0.00     0.251 C 
ATOM      6  H   UNL A   1      38.732  21.311  24.383  1.00  0.00     0.163 HD
BRANCH   5   7
ATOM      7  C   UNL A   1      39.676  23.186  26.935  1.00  0.00     0.039 A 
ATOM      8  C   UNL A   1      38.924  24.356  26.860  1.00  0.00     0.014 A 
ATOM      9  C   UNL A   1      40.831  23.179  27.742  1.00  0.00     0.014 A 
ATOM     10  C   UNL A   1      39.391  25.536  27.430  1.00  0.00     0.010 A 
ATOM     11  C   UNL A   1      41.287  24.348  28.346  1.00  0.00     0.010 A 
ATOM     12  C   UNL A   1      40.587  25.538  28.148  1.00  0.00    -0.014 A 
BRANCH  12  13
ATOM     13  C   UNL A   1      40.969  26.766  28.842  1.00  0.00     0.031 A 
ATOM     14  C   UNL A   1      42.251  27.387  28.372  1.00  0.00     0.074 A 
ATOM     15  C   UNL A   1      40.143  27.424  29.679  1.00  0.00     0.049 A 
ATOM     16  N   UNL A   1      43.223  27.895  29.063  1.00  0.00    -0.248 NA
ATOM     17  C   UNL A   1      42.484  27.402  26.916  1.00  0.00     0.031 C 
ATOM     18  C   UNL A   1      38.746  27.114  29.988  1.00  0.00     0.029 A 
ATOM     19  N   UNL A   1      40.351  28.605  30.330  1.00  0.00    -0.354 N 
ATOM     20  C   UNL A   1      44.119  28.422  28.131  1.00  0.00     0.074 A 
ATOM     21  C   UNL A   1      43.663  28.011  26.832  1.00  0.00     0.031 C 
ATOM     22  C   UNL A   1      38.173  28.191  30.570  1.00  0.00     0.029 A 
ATOM     23  C   UNL A   1      39.185  29.215  30.764  1.00  0.00     0.049 A 
ATOM     24  H   UNL A   1      41.247  28.988  30.479  1.00  0.00     0.167 HD
ATOM     25  C   UNL A   1      45.093  29.313  28.458  1.00  0.00     0.037 A 
ATOM     26  C   UNL A   1      39.041  30.506  31.147  1.00  0.00     0.037 A 
ATOM     27  C   UNL A   1      45.462  29.238  29.841  1.00  0.00     0.049 A 
ATOM     28  C   UNL A   1      40.383  31.057  31.448  1.00  0.00     0.074 A 
ATOM     29  C   UNL A   1      45.995  28.253  30.650  1.00  0.00     0.029 A 
ATOM     30  N   UNL A   1      45.052  30.225  30.699  1.00  0.00    -0.354 N 
ATOM     31  N   UNL A   1      41.117  30.708  32.467  1.00  0.00    -0.248 NA
ATOM     32  C   UNL A   1      41.087  31.748  30.378  1.00  0.00     0.031 C 
ATOM     33  C   UNL A   1      45.423  28.477  31.937  1.00  0.00     0.029 A 
ATOM     34  C   UNL A   1      44.588  29.587  31.821  1.00  0.00     0.049 A 
ATOM     35  H   UNL A   1      45.083  31.196  30.542  1.00  0.00     0.167 HD
ATOM     36  C   UNL A   1      42.422  30.775  32.003  1.00  0.00     0.074 A 
ATOM     37  C   UNL A   1      42.348  31.518  30.752  1.00  0.00     0.031 C 
ATOM     38  C   UNL A   1      43.401  29.986  32.534  1.00  0.00     0.037 A 
BRANCH  25  39
ATOM     39  C   UNL A   1      45.508  30.454  27.564  1.00  0.00     0.064 A 
ATOM     40  C   UNL A   1      46.874  30.695  27.321  1.00  0.00     0.173 A 
ATOM     41  C   UNL A   1      44.625  31.487  27.175  1.00  0.00     0.173 A 
ATOM     42  F   UNL A   1      47.800  29.794  27.678  1.00  0.00    -0.203 F 
ATOM     43  C   UNL A   1      47.324  31.906  26.788  1.00  0.00     0.198 A 
ATOM     44  C   UNL A   1      45.074  32.671  26.593  1.00  0.00     0.198 A 
ATOM     45  F   UNL A   1      43.314  31.435  27.440  1.00  0.00    -0.203 F 
ATOM     46  F   UNL A   1      48.640  32.139  26.685  1.00  0.00    -0.200 F 
ATOM     47  C   UNL A   1      46.425  32.894  26.427  1.00  0.00     0.200 A 
ATOM     48  F   UNL A   1      44.189  33.622  26.267  1.00  0.00    -0.200 F 
ATOM     49  F   UNL A   1      46.859  34.076  25.971  1.00  0.00    -0.200 F 
ENDBRANCH  25  39
BRANCH  26  50
ATOM     50  C   UNL A   1      37.854  31.373  30.954  1.00  0.00     0.064 A 
ATOM     51  C   UNL A   1      37.448  31.782  29.675  1.00  0.00     0.173 A 
ATOM     52  C   UNL A   1      36.949  31.618  32.007  1.00  0.00     0.173 A 
ATOM     53  F   UNL A   1      38.223  31.531  28.609  1.00  0.00    -0.203 F 
ATOM     54  C   UNL A   1      36.210  32.400  29.463  1.00  0.00     0.198 A 
ATOM     55  C   UNL A   1      35.723  32.247  31.797  1.00  0.00     0.198 A 
ATOM     56  F   UNL A   1      37.198  31.170  33.246  1.00  0.00    -0.203 F 
ATOM     57  F   UNL A   1      35.831  32.728  28.220  1.00  0.00    -0.200 F 
ATOM     58  C   UNL A   1      35.349  32.629  30.524  1.00  0.00     0.200 A 
ATOM     59  F   UNL A   1      34.885  32.425  32.828  1.00  0.00    -0.200 F 
ATOM     60  F   UNL A   1      34.143  33.177  30.315  1.00  0.00    -0.200 F 
ENDBRANCH  26  50
BRANCH  38  61
ATOM     61  C   UNL A   1      43.089  29.239  33.797  1.00  0.00     0.064 A 
ATOM     62  C   UNL A   1      42.429  27.998  33.810  1.00  0.00     0.173 A 
ATOM     63  C   UNL A   1      43.611  29.709  35.008  1.00  0.00     0.173 A 
ATOM     64  F   UNL A   1      42.007  27.433  32.672  1.00  0.00    -0.203 F 
ATOM     65  C   UNL A   1      42.255  27.286  34.994  1.00  0.00     0.198 A 
ATOM     66  C   UNL A   1      43.468  28.978  36.184  1.00  0.00     0.198 A 
ATOM     67  F   UNL A   1      44.311  30.853  35.041  1.00  0.00    -0.203 F 
ATOM     68  F   UNL A   1      41.616  26.108  34.981  1.00  0.00    -0.200 F 
ATOM     69  C   UNL A   1      42.781  27.773  36.180  1.00  0.00     0.200 A 
ATOM     70  F   UNL A   1      44.026  29.423  37.319  1.00  0.00    -0.200 F 
ATOM     71  F   UNL A   1      42.656  27.066  37.311  1.00  0.00    -0.200 F 
ENDBRANCH  38  61
ENDBRANCH  12  13
ENDBRANCH   5   7
ENDBRANCH   2   3
ENDBRANCH   1   2
BRANCH   1  72
ATOM     72  C   UNL A   1      35.257  23.473  23.633  1.00  0.00     0.117 C 
BRANCH  72  73
ATOM     73  N   UNL A   1      34.260  22.583  23.080  1.00  0.00    -0.355 N 
ATOM     74  C   UNL A   1      32.990  22.424  23.587  1.00  0.00     0.234 C 
ATOM     75  H   UNL A   1      34.506  22.055  22.286  1.00  0.00     0.163 HD
ATOM     76  O   UNL A   1      32.093  22.173  22.780  1.00  0.00    -0.274 OA
BRANCH  74  77
ATOM     77  C   UNL A   1      32.798  22.632  25.114  1.00  0.00     0.125 C 
ATOM     78  C   UNL A   1      33.350  21.135  25.327  1.00  0.00     0.280 C 
ATOM     79  C   UNL A   1      32.291  22.528  26.589  1.00  0.00     0.087 C 
ATOM     80  C   UNL A   1      31.347  23.245  24.755  1.00  0.00     0.143 C 
ATOM     81  N   UNL A   1      34.045  21.057  26.634  1.00  0.00    -0.345 N 
ATOM     82  C   UNL A   1      33.406  22.046  27.474  1.00  0.00     0.267 C 
ATOM     83  C   UNL A   1      31.772  23.890  26.980  1.00  0.00     0.130 C 
ATOM     84  N   UNL A   1      31.155  24.315  25.756  1.00  0.00    -0.337 N 
ATOM     85  H   UNL A   1      35.037  21.269  26.522  1.00  0.00     0.346 HD
ATOM     86  H   UNL A   1      33.984  20.122  27.038  1.00  0.00     0.346 HD
BRANCH  84  87
ATOM     87  C   UNL A   1      30.731  25.631  25.665  1.00  0.00     0.256 C 
ATOM     88  O   UNL A   1      29.538  25.926  25.621  1.00  0.00    -0.269 OA
BRANCH  87  89
ATOM     89  C   UNL A   1      31.693  26.756  25.700  1.00  0.00     0.065 A 
ATOM     90  C   UNL A   1      31.808  27.403  26.940  1.00  0.00     0.016 A 
ATOM     91  C   UNL A   1      32.499  27.179  24.636  1.00  0.00     0.079 A 
ATOM     92  C   UNL A   1      32.746  28.413  27.121  1.00  0.00     0.001 A 
ATOM     93  C   UNL A   1      33.516  28.124  24.861  1.00  0.00     0.029 A 
ATOM     94  C   UNL A   1      33.630  28.745  26.102  1.00  0.00     0.002 A 
BRANCH  91  95
ATOM     95  N   UNL A   1      32.291  26.728  23.317  1.00  0.00    -0.220 N 
ATOM     96  C   UNL A   1      31.311  27.085  22.423  1.00  0.00     0.225 A 
ATOM     97  N   UNL A   1      33.109  25.814  22.746  1.00  0.00    -0.155 NA
ATOM     98  N   UNL A   1      31.393  26.344  21.342  1.00  0.00    -0.223 NA
ATOM     99  C   UNL A   1      32.490  25.577  21.589  1.00  0.00     0.246 A 
ENDBRANCH  91  95
ENDBRANCH  87  89
ENDBRANCH  84  87
ENDBRANCH  74  77
ENDBRANCH  72  73
ENDBRANCH   1  72
TORSDOF 13
ENDMDL
