MODEL 1
REMARK VINA RESULT:     -11.4      0.000      0.000
REMARK SMILES C=CC[NH2+][C@H](C(=O)NCCCNC(=O)c1ccc(-c2c3nc(c(-c4c(F)c(F)c(F)c(F)c4F)c4ccc([nH]4)c(-c4c(F)c(F)c(F)c(F)c4F)c4nc(c(-c5c(F)c(F)c(F)c(F)c5F)c5ccc2[nH]5)C=C4)C=C3)cc1)c1cnn(C)c1C
REMARK SMILES IDX 9 1 8 2 6 3 7 4 5 6 4 7 3 10 2 11 1 12 78 13 79 14 83 15
REMARK SMILES IDX 80 16 81 17 84 18 82 19 10 20 11 21 12 22 13 23 14 25 15 26
REMARK SMILES IDX 16 27 77 28 17 29 76 30 18 31 19 32 20 33 70 34 21 35 75 36
REMARK SMILES IDX 69 37 71 38 22 39 74 40 68 41 67 42 23 44 55 45 35 46 54 47
REMARK SMILES IDX 36 48 39 49 53 50 72 51 37 52 38 53 52 55 73 56 40 57 24 58
REMARK SMILES IDX 25 59 33 60 26 61 27 62 31 63 34 64 28 65 29 66 32 67 30 68
REMARK SMILES IDX 56 69 57 70 65 71 58 72 59 73 63 74 66 75 60 76 61 77 64 78
REMARK SMILES IDX 62 79 41 80 42 81 50 82 43 83 44 84 48 85 51 86 45 87 46 88
REMARK SMILES IDX 49 89 47 90
REMARK H PARENT 8 5 4 8 4 9 12 24 71 43 39 54
REMARK Flexibility Score: inf
ROOT
ATOM      1  C   UNL A   1      36.789  21.379  24.825  1.00  0.00     0.118 C 
ENDROOT
BRANCH   1   2
ATOM      2  N   UNL A   1      36.065  21.792  26.012  1.00  0.00    -0.351 N 
ATOM      3  C   UNL A   1      34.807  21.407  26.408  1.00  0.00     0.283 C 
ATOM      4  O   UNL A   1      34.475  21.700  27.558  1.00  0.00    -0.268 OA
ATOM      5  H   UNL A   1      36.532  22.424  26.604  1.00  0.00     0.163 HD
BRANCH   3   6
ATOM      6  C   UNL A   1      33.895  20.666  25.402  1.00  0.00     0.307 C 
BRANCH   6   7
ATOM      7  N   UNL A   1      33.130  19.532  25.960  1.00  0.00    -0.329 N 
ATOM      8  H   UNL A   1      33.678  19.133  26.722  1.00  0.00     0.347 HD
ATOM      9  H   UNL A   1      32.232  19.925  26.243  1.00  0.00     0.347 HD
BRANCH   7  10
ATOM     10  C   UNL A   1      32.802  18.449  25.038  1.00  0.00     0.289 C 
BRANCH  10  11
ATOM     11  C   UNL A   1      34.064  18.092  24.308  1.00  0.00     0.025 C 
ATOM     12  C   UNL A   1      34.174  17.102  23.410  1.00  0.00     0.010 C 
ENDBRANCH  10  11
ENDBRANCH   7  10
ENDBRANCH   6   7
BRANCH   6  13
ATOM     13  C   UNL A   1      33.045  21.603  24.586  1.00  0.00     0.060 A 
ATOM     14  C   UNL A   1      33.319  21.905  23.225  1.00  0.00     0.145 A 
ATOM     15  C   UNL A   1      31.916  22.369  24.867  1.00  0.00     0.045 A 
ATOM     16  N   UNL A   1      32.468  22.777  22.697  1.00  0.00    -0.181 NA
ATOM     17  N   UNL A   1      31.657  23.087  23.722  1.00  0.00    -0.272 N 
ATOM     18  C   UNL A   1      31.100  22.508  26.099  1.00  0.00     0.067 C 
ATOM     19  C   UNL A   1      30.658  24.107  23.499  1.00  0.00     0.174 C 
ENDBRANCH   6  13
ENDBRANCH   3   6
ENDBRANCH   1   2
BRANCH   1  20
ATOM     20  C   UNL A   1      37.714  20.200  25.057  1.00  0.00     0.042 C 
BRANCH  20  21
ATOM     21  C   UNL A   1      39.013  20.535  25.777  1.00  0.00     0.118 C 
BRANCH  21  22
ATOM     22  N   UNL A   1      39.969  19.437  25.849  1.00  0.00    -0.352 N 
ATOM     23  C   UNL A   1      41.325  19.461  26.097  1.00  0.00     0.251 C 
ATOM     24  H   UNL A   1      39.589  18.542  25.697  1.00  0.00     0.163 HD
ATOM     25  O   UNL A   1      41.983  18.432  26.040  1.00  0.00    -0.269 OA
BRANCH  23  26
ATOM     26  C   UNL A   1      41.993  20.753  26.378  1.00  0.00     0.039 A 
ATOM     27  C   UNL A   1      42.378  21.566  25.310  1.00  0.00     0.014 A 
ATOM     28  C   UNL A   1      42.177  21.189  27.691  1.00  0.00     0.014 A 
ATOM     29  C   UNL A   1      42.831  22.864  25.559  1.00  0.00     0.010 A 
ATOM     30  C   UNL A   1      42.514  22.515  27.931  1.00  0.00     0.010 A 
ATOM     31  C   UNL A   1      42.838  23.372  26.868  1.00  0.00    -0.014 A 
BRANCH  31  32
ATOM     32  C   UNL A   1      43.176  24.790  27.161  1.00  0.00     0.031 A 
ATOM     33  C   UNL A   1      44.566  25.299  26.893  1.00  0.00     0.074 A 
ATOM     34  C   UNL A   1      42.271  25.589  27.759  1.00  0.00     0.049 A 
ATOM     35  N   UNL A   1      45.102  26.453  27.202  1.00  0.00    -0.248 NA
ATOM     36  C   UNL A   1      45.491  24.367  26.229  1.00  0.00     0.031 C 
ATOM     37  C   UNL A   1      40.908  25.205  28.127  1.00  0.00     0.029 A 
ATOM     38  N   UNL A   1      42.368  26.896  28.169  1.00  0.00    -0.354 N 
ATOM     39  C   UNL A   1      46.430  26.368  26.803  1.00  0.00     0.074 A 
ATOM     40  C   UNL A   1      46.634  25.032  26.289  1.00  0.00     0.031 C 
ATOM     41  C   UNL A   1      40.282  26.262  28.668  1.00  0.00     0.029 A 
ATOM     42  C   UNL A   1      41.211  27.385  28.728  1.00  0.00     0.049 A 
ATOM     43  H   UNL A   1      43.187  27.431  28.075  1.00  0.00     0.167 HD
ATOM     44  C   UNL A   1      47.387  27.326  26.832  1.00  0.00     0.037 A 
ATOM     45  C   UNL A   1      40.933  28.604  29.227  1.00  0.00     0.037 A 
ATOM     46  C   UNL A   1      47.169  28.671  27.294  1.00  0.00     0.049 A 
ATOM     47  C   UNL A   1      42.004  29.660  29.229  1.00  0.00     0.074 A 
ATOM     48  C   UNL A   1      48.052  29.736  27.305  1.00  0.00     0.029 A 
ATOM     49  N   UNL A   1      45.973  29.137  27.821  1.00  0.00    -0.354 N 
ATOM     50  N   UNL A   1      43.240  29.585  28.802  1.00  0.00    -0.248 NA
ATOM     51  C   UNL A   1      41.637  30.972  29.782  1.00  0.00     0.031 C 
ATOM     52  C   UNL A   1      47.399  30.840  27.864  1.00  0.00     0.029 A 
ATOM     53  C   UNL A   1      46.097  30.472  28.166  1.00  0.00     0.049 A 
ATOM     54  H   UNL A   1      45.157  28.598  27.932  1.00  0.00     0.167 HD
ATOM     55  C   UNL A   1      43.790  30.843  29.003  1.00  0.00     0.074 A 
ATOM     56  C   UNL A   1      42.749  31.666  29.585  1.00  0.00     0.031 C 
ATOM     57  C   UNL A   1      45.044  31.278  28.729  1.00  0.00     0.037 A 
BRANCH  44  58
ATOM     58  C   UNL A   1      48.751  26.946  26.335  1.00  0.00     0.064 A 
ATOM     59  C   UNL A   1      49.117  27.115  24.990  1.00  0.00     0.173 A 
ATOM     60  C   UNL A   1      49.702  26.396  27.208  1.00  0.00     0.173 A 
ATOM     61  F   UNL A   1      48.239  27.622  24.111  1.00  0.00    -0.203 F 
ATOM     62  C   UNL A   1      50.365  26.706  24.529  1.00  0.00     0.198 A 
ATOM     63  C   UNL A   1      50.962  26.020  26.749  1.00  0.00     0.198 A 
ATOM     64  F   UNL A   1      49.408  26.217  28.504  1.00  0.00    -0.203 F 
ATOM     65  F   UNL A   1      50.663  26.812  23.226  1.00  0.00    -0.200 F 
ATOM     66  C   UNL A   1      51.287  26.163  25.409  1.00  0.00     0.200 A 
ATOM     67  F   UNL A   1      51.858  25.505  27.603  1.00  0.00    -0.200 F 
ATOM     68  F   UNL A   1      52.487  25.763  24.962  1.00  0.00    -0.200 F 
ENDBRANCH  44  58
BRANCH  45  69
ATOM     69  C   UNL A   1      39.563  28.910  29.715  1.00  0.00     0.064 A 
ATOM     70  C   UNL A   1      39.207  28.639  31.044  1.00  0.00     0.173 A 
ATOM     71  C   UNL A   1      38.593  29.480  28.882  1.00  0.00     0.173 A 
ATOM     72  F   UNL A   1      40.099  28.075  31.874  1.00  0.00    -0.203 F 
ATOM     73  C   UNL A   1      37.927  28.916  31.518  1.00  0.00     0.198 A 
ATOM     74  C   UNL A   1      37.318  29.777  29.363  1.00  0.00     0.198 A 
ATOM     75  F   UNL A   1      38.885  29.763  27.604  1.00  0.00    -0.203 F 
ATOM     76  F   UNL A   1      37.604  28.615  32.783  1.00  0.00    -0.200 F 
ATOM     77  C   UNL A   1      36.985  29.489  30.678  1.00  0.00     0.200 A 
ATOM     78  F   UNL A   1      36.413  30.343  28.553  1.00  0.00    -0.200 F 
ATOM     79  F   UNL A   1      35.755  29.760  31.136  1.00  0.00    -0.200 F 
ENDBRANCH  45  69
BRANCH  57  80
ATOM     80  C   UNL A   1      45.348  32.719  29.013  1.00  0.00     0.064 A 
ATOM     81  C   UNL A   1      45.897  33.127  30.237  1.00  0.00     0.173 A 
ATOM     82  C   UNL A   1      45.120  33.696  28.033  1.00  0.00     0.173 A 
ATOM     83  F   UNL A   1      46.116  32.232  31.211  1.00  0.00    -0.203 F 
ATOM     84  C   UNL A   1      46.191  34.467  30.475  1.00  0.00     0.198 A 
ATOM     85  C   UNL A   1      45.440  35.030  28.265  1.00  0.00     0.198 A 
ATOM     86  F   UNL A   1      44.599  33.353  26.845  1.00  0.00    -0.203 F 
ATOM     87  F   UNL A   1      46.678  34.843  31.665  1.00  0.00    -0.200 F 
ATOM     88  C   UNL A   1      45.969  35.416  29.487  1.00  0.00     0.200 A 
ATOM     89  F   UNL A   1      45.234  35.944  27.306  1.00  0.00    -0.200 F 
ATOM     90  F   UNL A   1      46.259  36.703  29.716  1.00  0.00    -0.200 F 
ENDBRANCH  57  80
ENDBRANCH  31  32
ENDBRANCH  23  26
ENDBRANCH  21  22
ENDBRANCH  20  21
ENDBRANCH   1  20
TORSDOF 14
ENDMDL
MODEL 2
REMARK VINA RESULT:     -11.3      5.382     10.825
REMARK SMILES C=CC[NH2+][C@H](C(=O)NCCCNC(=O)c1ccc(-c2c3nc(c(-c4c(F)c(F)c(F)c(F)c4F)c4ccc([nH]4)c(-c4c(F)c(F)c(F)c(F)c4F)c4nc(c(-c5c(F)c(F)c(F)c(F)c5F)c5ccc2[nH]5)C=C4)C=C3)cc1)c1cnn(C)c1C
REMARK SMILES IDX 9 1 8 2 6 3 7 4 5 6 4 7 3 10 2 11 1 12 78 13 79 14 83 15
REMARK SMILES IDX 80 16 81 17 84 18 82 19 10 20 11 21 12 22 13 23 14 25 15 26
REMARK SMILES IDX 16 27 77 28 17 29 76 30 18 31 19 32 20 33 70 34 21 35 75 36
REMARK SMILES IDX 69 37 71 38 22 39 74 40 68 41 67 42 23 44 55 45 35 46 54 47
REMARK SMILES IDX 36 48 39 49 53 50 72 51 37 52 38 53 52 55 73 56 40 57 24 58
REMARK SMILES IDX 25 59 33 60 26 61 27 62 31 63 34 64 28 65 29 66 32 67 30 68
REMARK SMILES IDX 56 69 57 70 65 71 58 72 59 73 63 74 66 75 60 76 61 77 64 78
REMARK SMILES IDX 62 79 41 80 42 81 50 82 43 83 44 84 48 85 51 86 45 87 46 88
REMARK SMILES IDX 49 89 47 90
REMARK H PARENT 8 5 4 8 4 9 12 24 71 43 39 54
REMARK Flexibility Score: inf
ROOT
ATOM      1  C   UNL A   1      31.576  29.830  25.397  1.00  0.00     0.118 C 
ENDROOT
BRANCH   1   2
ATOM      2  N   UNL A   1      32.795  29.723  24.618  1.00  0.00    -0.351 N 
ATOM      3  C   UNL A   1      33.033  28.917  23.532  1.00  0.00     0.283 C 
ATOM      4  O   UNL A   1      34.056  29.148  22.885  1.00  0.00    -0.268 OA
ATOM      5  H   UNL A   1      33.541  30.298  24.903  1.00  0.00     0.163 HD
BRANCH   3   6
ATOM      6  C   UNL A   1      32.036  27.779  23.206  1.00  0.00     0.307 C 
BRANCH   6   7
ATOM      7  N   UNL A   1      30.972  28.129  22.242  1.00  0.00    -0.329 N 
ATOM      8  H   UNL A   1      31.172  29.063  21.885  1.00  0.00     0.347 HD
ATOM      9  H   UNL A   1      30.992  27.391  21.538  1.00  0.00     0.347 HD
BRANCH   7  10
ATOM     10  C   UNL A   1      29.605  28.135  22.754  1.00  0.00     0.289 C 
BRANCH  10  11
ATOM     11  C   UNL A   1      29.006  29.465  22.400  1.00  0.00     0.025 C 
ATOM     12  C   UNL A   1      27.795  29.886  22.791  1.00  0.00     0.010 C 
ENDBRANCH  10  11
ENDBRANCH   7  10
ENDBRANCH   6   7
BRANCH   6  13
ATOM     13  C   UNL A   1      32.722  26.480  22.878  1.00  0.00     0.060 A 
ATOM     14  C   UNL A   1      32.678  25.890  21.586  1.00  0.00     0.145 A 
ATOM     15  C   UNL A   1      33.476  25.576  23.622  1.00  0.00     0.045 A 
ATOM     16  N   UNL A   1      33.321  24.730  21.514  1.00  0.00    -0.181 NA
ATOM     17  N   UNL A   1      33.754  24.531  22.771  1.00  0.00    -0.272 N 
ATOM     18  C   UNL A   1      33.918  25.591  25.039  1.00  0.00     0.067 C 
ATOM     19  C   UNL A   1      34.421  23.282  23.058  1.00  0.00     0.174 C 
ENDBRANCH   6  13
ENDBRANCH   3   6
ENDBRANCH   1   2
BRANCH   1  20
ATOM     20  C   UNL A   1      31.402  31.177  26.072  1.00  0.00     0.042 C 
BRANCH  20  21
ATOM     21  C   UNL A   1      32.444  31.503  27.133  1.00  0.00     0.118 C 
BRANCH  21  22
ATOM     22  N   UNL A   1      32.677  32.927  27.339  1.00  0.00    -0.352 N 
ATOM     23  C   UNL A   1      33.777  33.576  27.860  1.00  0.00     0.251 C 
ATOM     24  H   UNL A   1      31.937  33.515  27.065  1.00  0.00     0.163 HD
ATOM     25  O   UNL A   1      33.758  34.787  28.028  1.00  0.00    -0.269 OA
BRANCH  23  26
ATOM     26  C   UNL A   1      34.964  32.789  28.267  1.00  0.00     0.039 A 
ATOM     27  C   UNL A   1      36.202  33.429  28.362  1.00  0.00     0.014 A 
ATOM     28  C   UNL A   1      34.842  31.445  28.618  1.00  0.00     0.014 A 
ATOM     29  C   UNL A   1      37.287  32.751  28.926  1.00  0.00     0.010 A 
ATOM     30  C   UNL A   1      35.884  30.814  29.285  1.00  0.00     0.010 A 
ATOM     31  C   UNL A   1      37.117  31.461  29.454  1.00  0.00    -0.014 A 
BRANCH  31  32
ATOM     32  C   UNL A   1      38.205  30.762  30.188  1.00  0.00     0.031 A 
ATOM     33  C   UNL A   1      38.451  31.076  31.639  1.00  0.00     0.074 A 
ATOM     34  C   UNL A   1      39.034  29.927  29.532  1.00  0.00     0.049 A 
ATOM     35  N   UNL A   1      39.426  30.685  32.420  1.00  0.00    -0.248 NA
ATOM     36  C   UNL A   1      37.495  31.989  32.285  1.00  0.00     0.031 C 
ATOM     37  C   UNL A   1      38.944  29.581  28.113  1.00  0.00     0.029 A 
ATOM     38  N   UNL A   1      40.124  29.220  29.975  1.00  0.00    -0.354 N 
ATOM     39  C   UNL A   1      39.218  31.332  33.632  1.00  0.00     0.074 A 
ATOM     40  C   UNL A   1      38.065  32.188  33.463  1.00  0.00     0.031 C 
ATOM     41  C   UNL A   1      39.909  28.697  27.812  1.00  0.00     0.029 A 
ATOM     42  C   UNL A   1      40.713  28.447  29.003  1.00  0.00     0.049 A 
ATOM     43  H   UNL A   1      40.454  29.263  30.901  1.00  0.00     0.167 HD
ATOM     44  C   UNL A   1      39.907  31.203  34.791  1.00  0.00     0.037 A 
ATOM     45  C   UNL A   1      41.779  27.627  29.069  1.00  0.00     0.037 A 
ATOM     46  C   UNL A   1      41.022  30.312  34.973  1.00  0.00     0.049 A 
ATOM     47  C   UNL A   1      42.515  27.482  30.372  1.00  0.00     0.074 A 
ATOM     48  C   UNL A   1      41.747  30.057  36.123  1.00  0.00     0.029 A 
ATOM     49  N   UNL A   1      41.566  29.520  33.972  1.00  0.00    -0.354 N 
ATOM     50  N   UNL A   1      42.279  28.059  31.525  1.00  0.00    -0.248 NA
ATOM     51  C   UNL A   1      43.666  26.567  30.382  1.00  0.00     0.031 C 
ATOM     52  C   UNL A   1      42.749  29.132  35.812  1.00  0.00     0.029 A 
ATOM     53  C   UNL A   1      42.623  28.781  34.476  1.00  0.00     0.049 A 
ATOM     54  H   UNL A   1      41.249  29.488  33.041  1.00  0.00     0.167 HD
ATOM     55  C   UNL A   1      43.228  27.556  32.405  1.00  0.00     0.074 A 
ATOM     56  C   UNL A   1      44.040  26.621  31.653  1.00  0.00     0.031 C 
ATOM     57  C   UNL A   1      43.409  27.843  33.716  1.00  0.00     0.037 A 
BRANCH  44  58
ATOM     58  C   UNL A   1      39.456  32.041  35.951  1.00  0.00     0.064 A 
ATOM     59  C   UNL A   1      40.028  33.295  36.219  1.00  0.00     0.173 A 
ATOM     60  C   UNL A   1      38.447  31.584  36.813  1.00  0.00     0.173 A 
ATOM     61  F   UNL A   1      41.006  33.771  35.434  1.00  0.00    -0.203 F 
ATOM     62  C   UNL A   1      39.641  34.038  37.331  1.00  0.00     0.198 A 
ATOM     63  C   UNL A   1      38.039  32.346  37.906  1.00  0.00     0.198 A 
ATOM     64  F   UNL A   1      37.863  30.395  36.602  1.00  0.00    -0.203 F 
ATOM     65  F   UNL A   1      40.252  35.199  37.604  1.00  0.00    -0.200 F 
ATOM     66  C   UNL A   1      38.645  33.564  38.170  1.00  0.00     0.200 A 
ATOM     67  F   UNL A   1      37.068  31.892  38.711  1.00  0.00    -0.200 F 
ATOM     68  F   UNL A   1      38.277  34.278  39.244  1.00  0.00    -0.200 F 
ENDBRANCH  44  58
BRANCH  45  69
ATOM     69  C   UNL A   1      42.179  26.835  27.878  1.00  0.00     0.064 A 
ATOM     70  C   UNL A   1      43.088  27.362  26.949  1.00  0.00     0.173 A 
ATOM     71  C   UNL A   1      41.679  25.547  27.645  1.00  0.00     0.173 A 
ATOM     72  F   UNL A   1      43.578  28.600  27.121  1.00  0.00    -0.203 F 
ATOM     73  C   UNL A   1      43.472  26.636  25.824  1.00  0.00     0.198 A 
ATOM     74  C   UNL A   1      42.081  24.813  26.530  1.00  0.00     0.198 A 
ATOM     75  F   UNL A   1      40.812  24.996  28.506  1.00  0.00    -0.203 F 
ATOM     76  F   UNL A   1      44.315  27.178  24.935  1.00  0.00    -0.200 F 
ATOM     77  C   UNL A   1      42.972  25.359  25.618  1.00  0.00     0.200 A 
ATOM     78  F   UNL A   1      41.606  23.574  26.340  1.00  0.00    -0.200 F 
ATOM     79  F   UNL A   1      43.345  24.658  24.539  1.00  0.00    -0.200 F 
ENDBRANCH  45  69
BRANCH  57  80
ATOM     80  C   UNL A   1      44.499  27.105  34.436  1.00  0.00     0.064 A 
ATOM     81  C   UNL A   1      44.272  25.858  35.034  1.00  0.00     0.173 A 
ATOM     82  C   UNL A   1      45.795  27.638  34.491  1.00  0.00     0.173 A 
ATOM     83  F   UNL A   1      43.044  25.318  35.023  1.00  0.00    -0.203 F 
ATOM     84  C   UNL A   1      45.301  25.179  35.680  1.00  0.00     0.198 A 
ATOM     85  C   UNL A   1      46.828  26.944  35.114  1.00  0.00     0.198 A 
ATOM     86  F   UNL A   1      46.063  28.827  33.928  1.00  0.00    -0.203 F 
ATOM     87  F   UNL A   1      45.054  24.008  36.282  1.00  0.00    -0.200 F 
ATOM     88  C   UNL A   1      46.579  25.719  35.714  1.00  0.00     0.200 A 
ATOM     89  F   UNL A   1      48.064  27.462  35.137  1.00  0.00    -0.200 F 
ATOM     90  F   UNL A   1      47.569  25.060  36.330  1.00  0.00    -0.200 F 
ENDBRANCH  57  80
ENDBRANCH  31  32
ENDBRANCH  23  26
ENDBRANCH  21  22
ENDBRANCH  20  21
ENDBRANCH   1  20
TORSDOF 14
ENDMDL
MODEL 3
REMARK VINA RESULT:     -11.3      5.866     11.224
REMARK SMILES C=CC[NH2+][C@H](C(=O)NCCCNC(=O)c1ccc(-c2c3nc(c(-c4c(F)c(F)c(F)c(F)c4F)c4ccc([nH]4)c(-c4c(F)c(F)c(F)c(F)c4F)c4nc(c(-c5c(F)c(F)c(F)c(F)c5F)c5ccc2[nH]5)C=C4)C=C3)cc1)c1cnn(C)c1C
REMARK SMILES IDX 9 1 8 2 6 3 7 4 5 6 4 7 3 10 2 11 1 12 78 13 79 14 83 15
REMARK SMILES IDX 80 16 81 17 84 18 82 19 10 20 11 21 12 22 13 23 14 25 15 26
REMARK SMILES IDX 16 27 77 28 17 29 76 30 18 31 19 32 20 33 70 34 21 35 75 36
REMARK SMILES IDX 69 37 71 38 22 39 74 40 68 41 67 42 23 44 55 45 35 46 54 47
REMARK SMILES IDX 36 48 39 49 53 50 72 51 37 52 38 53 52 55 73 56 40 57 24 58
REMARK SMILES IDX 25 59 33 60 26 61 27 62 31 63 34 64 28 65 29 66 32 67 30 68
REMARK SMILES IDX 56 69 57 70 65 71 58 72 59 73 63 74 66 75 60 76 61 77 64 78
REMARK SMILES IDX 62 79 41 80 42 81 50 82 43 83 44 84 48 85 51 86 45 87 46 88
REMARK SMILES IDX 49 89 47 90
REMARK H PARENT 8 5 4 8 4 9 12 24 71 43 39 54
REMARK Flexibility Score: inf
ROOT
ATOM      1  C   UNL A   1      31.763  30.549  26.633  1.00  0.00     0.118 C 
ENDROOT
BRANCH   1   2
ATOM      2  N   UNL A   1      33.042  30.104  27.153  1.00  0.00    -0.351 N 
ATOM      3  C   UNL A   1      33.934  29.239  26.568  1.00  0.00     0.283 C 
ATOM      4  O   UNL A   1      35.055  29.173  27.075  1.00  0.00    -0.268 OA
ATOM      5  H   UNL A   1      33.300  30.466  28.030  1.00  0.00     0.163 HD
BRANCH   3   6
ATOM      6  C   UNL A   1      33.480  28.399  25.350  1.00  0.00     0.307 C 
BRANCH   6   7
ATOM      7  N   UNL A   1      34.286  28.578  24.124  1.00  0.00    -0.329 N 
ATOM      8  H   UNL A   1      34.942  29.340  24.294  1.00  0.00     0.347 HD
ATOM      9  H   UNL A   1      34.721  27.672  23.953  1.00  0.00     0.347 HD
BRANCH   7  10
ATOM     10  C   UNL A   1      33.553  28.890  22.901  1.00  0.00     0.289 C 
BRANCH  10  11
ATOM     11  C   UNL A   1      33.794  27.761  21.941  1.00  0.00     0.025 C 
ATOM     12  C   UNL A   1      33.401  26.494  22.137  1.00  0.00     0.010 C 
ENDBRANCH  10  11
ENDBRANCH   7  10
ENDBRANCH   6   7
BRANCH   6  13
ATOM     13  C   UNL A   1      33.247  26.952  25.693  1.00  0.00     0.060 A 
ATOM     14  C   UNL A   1      34.289  25.986  25.706  1.00  0.00     0.145 A 
ATOM     15  C   UNL A   1      32.116  26.213  26.030  1.00  0.00     0.045 A 
ATOM     16  N   UNL A   1      33.869  24.762  26.004  1.00  0.00    -0.181 NA
ATOM     17  N   UNL A   1      32.541  24.909  26.146  1.00  0.00    -0.272 N 
ATOM     18  C   UNL A   1      30.697  26.610  26.214  1.00  0.00     0.067 C 
ATOM     19  C   UNL A   1      31.757  23.719  26.383  1.00  0.00     0.174 C 
ENDBRANCH   6  13
ENDBRANCH   3   6
ENDBRANCH   1   2
BRANCH   1  20
ATOM     20  C   UNL A   1      31.536  32.042  26.774  1.00  0.00     0.042 C 
BRANCH  20  21
ATOM     21  C   UNL A   1      32.706  32.816  27.364  1.00  0.00     0.118 C 
BRANCH  21  22
ATOM     22  N   UNL A   1      32.406  34.199  27.713  1.00  0.00    -0.352 N 
ATOM     23  C   UNL A   1      33.007  35.028  28.637  1.00  0.00     0.251 C 
ATOM     24  H   UNL A   1      31.660  34.603  27.214  1.00  0.00     0.163 HD
ATOM     25  O   UNL A   1      32.561  36.147  28.846  1.00  0.00    -0.269 OA
BRANCH  23  26
ATOM     26  C   UNL A   1      34.166  34.534  29.416  1.00  0.00     0.039 A 
ATOM     27  C   UNL A   1      33.942  33.914  30.647  1.00  0.00     0.014 A 
ATOM     28  C   UNL A   1      35.460  34.623  28.902  1.00  0.00     0.014 A 
ATOM     29  C   UNL A   1      35.000  33.275  31.300  1.00  0.00     0.010 A 
ATOM     30  C   UNL A   1      36.482  33.888  29.490  1.00  0.00     0.010 A 
ATOM     31  C   UNL A   1      36.264  33.200  30.693  1.00  0.00    -0.014 A 
BRANCH  31  32
ATOM     32  C   UNL A   1      37.375  32.409  31.285  1.00  0.00     0.031 A 
ATOM     33  C   UNL A   1      37.877  32.740  32.664  1.00  0.00     0.074 A 
ATOM     34  C   UNL A   1      38.000  31.468  30.550  1.00  0.00     0.049 A 
ATOM     35  N   UNL A   1      38.917  32.268  33.305  1.00  0.00    -0.248 NA
ATOM     36  C   UNL A   1      37.135  33.772  33.404  1.00  0.00     0.031 C 
ATOM     37  C   UNL A   1      37.652  31.090  29.180  1.00  0.00     0.029 A 
ATOM     38  N   UNL A   1      39.067  30.660  30.855  1.00  0.00    -0.354 N 
ATOM     39  C   UNL A   1      38.972  32.973  34.501  1.00  0.00     0.074 A 
ATOM     40  C   UNL A   1      37.901  33.944  34.470  1.00  0.00     0.031 C 
ATOM     41  C   UNL A   1      38.460  30.096  28.778  1.00  0.00     0.029 A 
ATOM     42  C   UNL A   1      39.412  29.797  29.843  1.00  0.00     0.049 A 
ATOM     43  H   UNL A   1      39.541  30.695  31.716  1.00  0.00     0.167 HD
ATOM     44  C   UNL A   1      39.817  32.805  35.546  1.00  0.00     0.037 A 
ATOM     45  C   UNL A   1      40.384  28.867  29.784  1.00  0.00     0.037 A 
ATOM     46  C   UNL A   1      40.848  31.804  35.597  1.00  0.00     0.049 A 
ATOM     47  C   UNL A   1      41.297  28.683  30.964  1.00  0.00     0.074 A 
ATOM     48  C   UNL A   1      41.715  31.507  36.634  1.00  0.00     0.029 A 
ATOM     49  N   UNL A   1      41.143  30.925  34.564  1.00  0.00    -0.354 N 
ATOM     50  N   UNL A   1      41.307  29.318  32.110  1.00  0.00    -0.248 NA
ATOM     51  C   UNL A   1      42.334  27.648  30.842  1.00  0.00     0.031 C 
ATOM     52  C   UNL A   1      42.554  30.467  36.218  1.00  0.00     0.029 A 
ATOM     53  C   UNL A   1      42.184  30.091  34.936  1.00  0.00     0.049 A 
ATOM     54  H   UNL A   1      40.681  30.899  33.696  1.00  0.00     0.167 HD
ATOM     55  C   UNL A   1      42.325  28.743  32.857  1.00  0.00     0.074 A 
ATOM     56  C   UNL A   1      42.908  27.701  32.036  1.00  0.00     0.031 C 
ATOM     57  C   UNL A   1      42.739  29.049  34.111  1.00  0.00     0.037 A 
BRANCH  44  58
ATOM     58  C   UNL A   1      39.643  33.724  36.720  1.00  0.00     0.064 A 
ATOM     59  C   UNL A   1      38.839  33.373  37.815  1.00  0.00     0.173 A 
ATOM     60  C   UNL A   1      40.280  34.974  36.749  1.00  0.00     0.173 A 
ATOM     61  F   UNL A   1      38.197  32.195  37.830  1.00  0.00    -0.203 F 
ATOM     62  C   UNL A   1      38.640  34.256  38.872  1.00  0.00     0.198 A 
ATOM     63  C   UNL A   1      40.104  35.842  37.825  1.00  0.00     0.198 A 
ATOM     64  F   UNL A   1      41.064  35.359  35.731  1.00  0.00    -0.203 F 
ATOM     65  F   UNL A   1      37.810  33.926  39.872  1.00  0.00    -0.200 F 
ATOM     66  C   UNL A   1      39.276  35.488  38.877  1.00  0.00     0.200 A 
ATOM     67  F   UNL A   1      40.729  37.028  37.834  1.00  0.00    -0.200 F 
ATOM     68  F   UNL A   1      39.079  36.341  39.894  1.00  0.00    -0.200 F 
ENDBRANCH  44  58
BRANCH  45  69
ATOM     69  C   UNL A   1      40.508  27.999  28.585  1.00  0.00     0.064 A 
ATOM     70  C   UNL A   1      39.852  26.760  28.536  1.00  0.00     0.173 A 
ATOM     71  C   UNL A   1      41.265  28.382  27.470  1.00  0.00     0.173 A 
ATOM     72  F   UNL A   1      39.132  26.343  29.588  1.00  0.00    -0.203 F 
ATOM     73  C   UNL A   1      39.961  25.931  27.422  1.00  0.00     0.198 A 
ATOM     74  C   UNL A   1      41.355  27.560  26.347  1.00  0.00     0.198 A 
ATOM     75  F   UNL A   1      41.907  29.559  27.465  1.00  0.00    -0.203 F 
ATOM     76  F   UNL A   1      39.352  24.737  27.417  1.00  0.00    -0.200 F 
ATOM     77  C   UNL A   1      40.708  26.334  26.326  1.00  0.00     0.200 A 
ATOM     78  F   UNL A   1      42.067  27.959  25.284  1.00  0.00    -0.200 F 
ATOM     79  F   UNL A   1      40.807  25.539  25.253  1.00  0.00    -0.200 F 
ENDBRANCH  45  69
BRANCH  57  80
ATOM     80  C   UNL A   1      43.847  28.219  34.689  1.00  0.00     0.064 A 
ATOM     81  C   UNL A   1      43.589  27.019  35.367  1.00  0.00     0.173 A 
ATOM     82  C   UNL A   1      45.183  28.612  34.527  1.00  0.00     0.173 A 
ATOM     83  F   UNL A   1      42.326  26.612  35.562  1.00  0.00    -0.203 F 
ATOM     84  C   UNL A   1      44.631  26.252  35.880  1.00  0.00     0.198 A 
ATOM     85  C   UNL A   1      46.223  27.830  35.017  1.00  0.00     0.198 A 
ATOM     86  F   UNL A   1      45.480  29.751  33.882  1.00  0.00    -0.203 F 
ATOM     87  F   UNL A   1      44.363  25.130  36.560  1.00  0.00    -0.200 F 
ATOM     88  C   UNL A   1      45.947  26.654  35.699  1.00  0.00     0.200 A 
ATOM     89  F   UNL A   1      47.495  28.214  34.834  1.00  0.00    -0.200 F 
ATOM     90  F   UNL A   1      46.949  25.910  36.187  1.00  0.00    -0.200 F 
ENDBRANCH  57  80
ENDBRANCH  31  32
ENDBRANCH  23  26
ENDBRANCH  21  22
ENDBRANCH  20  21
ENDBRANCH   1  20
TORSDOF 14
ENDMDL
