MODEL 1
REMARK VINA RESULT:     -12.9      0.000      0.000
REMARK SMILES Cc1nnc(-c2ccccc2-c2cc(NCC(=O)NCCCNC(=O)c3ccc(-c4c5nc(c(-c6c(F)c(F)c(F)c(F)c6F)c6ccc([nH]6)c(-c6c(F)c(F)c(F)c(F)c6F)c6nc(c(-c7c(F)c(F)c(F)c(F)c7F)c7ccc4[nH]7)C=C6)C=C5)cc3)nc3[nH]ccc23)o1
REMARK SMILES IDX 20 1 19 2 17 3 18 4 16 6 15 7 14 9 12 10 13 11 94 12 90 13
REMARK SMILES IDX 93 14 89 15 91 16 92 17 11 19 6 20 7 21 8 22 10 23 9 24 5 25
REMARK SMILES IDX 1 26 2 27 3 28 95 29 4 30 21 31 22 32 23 33 24 34 25 36
REMARK SMILES IDX 26 37 27 38 88 39 28 40 87 41 29 42 30 43 31 44 81 45 32 46
REMARK SMILES IDX 86 47 80 48 82 49 33 50 85 51 79 52 78 53 34 55 66 56 46 57
REMARK SMILES IDX 65 58 47 59 50 60 64 61 83 62 48 63 49 64 63 66 84 67 51 68
REMARK SMILES IDX 35 69 36 70 44 71 37 72 38 73 42 74 45 75 39 76 40 77 43 78
REMARK SMILES IDX 41 79 67 80 68 81 76 82 69 83 70 84 74 85 77 86 71 87 72 88
REMARK SMILES IDX 75 89 73 90 52 91 53 92 61 93 54 94 55 95 59 96 62 97 56 98
REMARK SMILES IDX 57 99 60 100 58 101
REMARK H PARENT 19 5 15 8 91 18 23 35 82 54 50 65
REMARK Flexibility Score: inf
ROOT
ATOM      1  C   UNL A   1      34.184  34.145  27.988  1.00  0.00     0.117 C 
ENDROOT
BRANCH   1   2
ATOM      2  N   UNL A   1      35.040  33.001  28.246  1.00  0.00    -0.355 N 
ATOM      3  C   UNL A   1      34.741  31.671  28.119  1.00  0.00     0.239 C 
ATOM      4  O   UNL A   1      35.585  30.844  28.475  1.00  0.00    -0.273 OA
ATOM      5  H   UNL A   1      35.954  33.208  28.550  1.00  0.00     0.163 HD
BRANCH   3   6
ATOM      6  C   UNL A   1      33.385  31.241  27.552  1.00  0.00     0.214 C 
BRANCH   6   7
ATOM      7  N   UNL A   1      33.264  29.788  27.574  1.00  0.00    -0.361 N 
ATOM      8  H   UNL A   1      33.016  29.336  28.412  1.00  0.00     0.162 HD
BRANCH   7   9
ATOM      9  C   UNL A   1      33.495  29.037  26.434  1.00  0.00     0.129 A 
ATOM     10  C   UNL A   1      33.748  26.811  25.457  1.00  0.00    -0.003 A 
ATOM     11  C   UNL A   1      33.635  27.654  26.578  1.00  0.00     0.056 A 
ATOM     12  C   UNL A   1      33.710  27.439  24.196  1.00  0.00     0.027 A 
ATOM     13  C   UNL A   1      33.579  28.821  24.182  1.00  0.00     0.140 A 
ATOM     14  C   UNL A   1      33.764  27.029  22.831  1.00  0.00     0.030 A 
ATOM     15  N   UNL A   1      33.467  29.645  25.235  1.00  0.00    -0.213 NA
ATOM     16  N   UNL A   1      33.570  29.239  22.880  1.00  0.00    -0.346 N 
ATOM     17  C   UNL A   1      33.681  28.159  22.045  1.00  0.00     0.085 A 
ATOM     18  H   UNL A   1      33.496  30.176  22.588  1.00  0.00     0.167 HD
BRANCH  10  19
ATOM     19  C   UNL A   1      33.911  25.353  25.564  1.00  0.00    -0.005 A 
ATOM     20  C   UNL A   1      32.827  24.464  25.739  1.00  0.00     0.047 A 
ATOM     21  C   UNL A   1      33.063  23.081  25.851  1.00  0.00     0.014 A 
ATOM     22  C   UNL A   1      34.358  22.569  25.788  1.00  0.00     0.001 A 
ATOM     23  C   UNL A   1      35.211  24.808  25.514  1.00  0.00     0.009 A 
ATOM     24  C   UNL A   1      35.433  23.434  25.621  1.00  0.00     0.001 A 
BRANCH  20  25
ATOM     25  C   UNL A   1      31.451  24.921  25.796  1.00  0.00     0.248 A 
ATOM     26  C   UNL A   1      28.812  26.427  24.019  1.00  0.00     0.113 C 
ATOM     27  C   UNL A   1      29.687  25.816  25.032  1.00  0.00     0.213 A 
ATOM     28  N   UNL A   1      29.437  25.518  26.289  1.00  0.00    -0.113 NA
ATOM     29  O   UNL A   1      30.955  25.480  24.646  1.00  0.00    -0.421 OA
ATOM     30  N   UNL A   1      30.580  24.924  26.783  1.00  0.00    -0.108 NA
ENDBRANCH  20  25
ENDBRANCH  10  19
ENDBRANCH   7   9
ENDBRANCH   6   7
ENDBRANCH   3   6
ENDBRANCH   1   2
BRANCH   1  31
ATOM     31  C   UNL A   1      33.274  34.470  29.171  1.00  0.00     0.042 C 
BRANCH  31  32
ATOM     32  C   UNL A   1      33.238  35.951  29.546  1.00  0.00     0.118 C 
BRANCH  32  33
ATOM     33  N   UNL A   1      32.492  36.212  30.766  1.00  0.00    -0.352 N 
ATOM     34  C   UNL A   1      32.688  35.771  32.049  1.00  0.00     0.251 C 
ATOM     35  H   UNL A   1      31.714  36.805  30.651  1.00  0.00     0.163 HD
ATOM     36  O   UNL A   1      31.820  36.009  32.890  1.00  0.00    -0.269 OA
BRANCH  34  37
ATOM     37  C   UNL A   1      33.903  35.024  32.462  1.00  0.00     0.039 A 
ATOM     38  C   UNL A   1      35.143  35.651  32.288  1.00  0.00     0.014 A 
ATOM     39  C   UNL A   1      33.864  33.702  32.914  1.00  0.00     0.014 A 
ATOM     40  C   UNL A   1      36.328  34.973  32.589  1.00  0.00     0.010 A 
ATOM     41  C   UNL A   1      35.046  33.041  33.268  1.00  0.00     0.010 A 
ATOM     42  C   UNL A   1      36.291  33.666  33.096  1.00  0.00    -0.014 A 
BRANCH  42  43
ATOM     43  C   UNL A   1      37.554  32.958  33.433  1.00  0.00     0.031 A 
ATOM     44  C   UNL A   1      38.271  33.230  34.727  1.00  0.00     0.074 A 
ATOM     45  C   UNL A   1      38.066  32.063  32.565  1.00  0.00     0.049 A 
ATOM     46  N   UNL A   1      39.367  32.687  35.197  1.00  0.00    -0.248 NA
ATOM     47  C   UNL A   1      37.692  34.261  35.600  1.00  0.00     0.031 C 
ATOM     48  C   UNL A   1      37.498  31.737  31.257  1.00  0.00     0.029 A 
ATOM     49  N   UNL A   1      39.176  31.259  32.657  1.00  0.00    -0.354 N 
ATOM     50  C   UNL A   1      39.615  33.317  36.409  1.00  0.00     0.074 A 
ATOM     51  C   UNL A   1      38.576  34.309  36.587  1.00  0.00     0.031 C 
ATOM     52  C   UNL A   1      38.243  30.780  30.682  1.00  0.00     0.029 A 
ATOM     53  C   UNL A   1      39.352  30.439  31.571  1.00  0.00     0.049 A 
ATOM     54  H   UNL A   1      39.787  31.271  33.430  1.00  0.00     0.167 HD
ATOM     55  C   UNL A   1      40.607  33.080  37.301  1.00  0.00     0.037 A 
ATOM     56  C   UNL A   1      40.293  29.509  31.324  1.00  0.00     0.037 A 
ATOM     57  C   UNL A   1      41.625  32.073  37.147  1.00  0.00     0.049 A 
ATOM     58  C   UNL A   1      41.359  29.235  32.349  1.00  0.00     0.074 A 
ATOM     59  C   UNL A   1      42.640  31.728  38.024  1.00  0.00     0.029 A 
ATOM     60  N   UNL A   1      41.754  31.244  36.044  1.00  0.00    -0.354 N 
ATOM     61  N   UNL A   1      41.548  29.801  33.515  1.00  0.00    -0.248 NA
ATOM     62  C   UNL A   1      42.334  28.184  32.024  1.00  0.00     0.031 C 
ATOM     63  C   UNL A   1      43.400  30.708  37.439  1.00  0.00     0.029 A 
ATOM     64  C   UNL A   1      42.838  30.396  36.212  1.00  0.00     0.049 A 
ATOM     65  H   UNL A   1      41.163  31.256  35.257  1.00  0.00     0.167 HD
ATOM     66  C   UNL A   1      42.648  29.164  34.072  1.00  0.00     0.074 A 
ATOM     67  C   UNL A   1      43.076  28.158  33.123  1.00  0.00     0.031 C 
ATOM     68  C   UNL A   1      43.252  29.397  35.263  1.00  0.00     0.037 A 
BRANCH  55  69
ATOM     69  C   UNL A   1      40.640  33.927  38.539  1.00  0.00     0.064 A 
ATOM     70  C   UNL A   1      39.928  33.565  39.692  1.00  0.00     0.173 A 
ATOM     71  C   UNL A   1      41.426  35.088  38.586  1.00  0.00     0.173 A 
ATOM     72  F   UNL A   1      39.155  32.469  39.692  1.00  0.00    -0.203 F 
ATOM     73  C   UNL A   1      39.984  34.349  40.842  1.00  0.00     0.198 A 
ATOM     74  C   UNL A   1      41.498  35.856  39.745  1.00  0.00     0.198 A 
ATOM     75  F   UNL A   1      42.131  35.472  37.512  1.00  0.00    -0.203 F 
ATOM     76  F   UNL A   1      39.267  34.005  41.920  1.00  0.00    -0.200 F 
ATOM     77  C   UNL A   1      40.773  35.490  40.870  1.00  0.00     0.200 A 
ATOM     78  F   UNL A   1      42.268  36.953  39.774  1.00  0.00    -0.200 F 
ATOM     79  F   UNL A   1      40.830  36.239  41.979  1.00  0.00    -0.200 F 
ENDBRANCH  55  69
BRANCH  56  80
ATOM     80  C   UNL A   1      40.243  28.733  30.060  1.00  0.00     0.064 A 
ATOM     81  C   UNL A   1      39.576  27.502  30.000  1.00  0.00     0.173 A 
ATOM     82  C   UNL A   1      40.856  29.205  28.891  1.00  0.00     0.173 A 
ATOM     83  F   UNL A   1      38.996  27.001  31.101  1.00  0.00    -0.203 F 
ATOM     84  C   UNL A   1      39.535  26.764  28.821  1.00  0.00     0.198 A 
ATOM     85  C   UNL A   1      40.797  28.475  27.706  1.00  0.00     0.198 A 
ATOM     86  F   UNL A   1      41.508  30.377  28.900  1.00  0.00    -0.203 F 
ATOM     87  F   UNL A   1      38.924  25.572  28.799  1.00  0.00    -0.200 F 
ATOM     88  C   UNL A   1      40.142  27.253  27.673  1.00  0.00     0.200 A 
ATOM     89  F   UNL A   1      41.377  28.955  26.597  1.00  0.00    -0.200 F 
ATOM     90  F   UNL A   1      40.101  26.544  26.537  1.00  0.00    -0.200 F 
ENDBRANCH  56  80
BRANCH  68  91
ATOM     91  C   UNL A   1      44.426  28.533  35.613  1.00  0.00     0.064 A 
ATOM     92  C   UNL A   1      45.732  28.888  35.243  1.00  0.00     0.173 A 
ATOM     93  C   UNL A   1      44.247  27.349  36.343  1.00  0.00     0.173 A 
ATOM     94  F   UNL A   1      45.951  30.004  34.531  1.00  0.00    -0.203 F 
ATOM     95  C   UNL A   1      46.813  28.076  35.570  1.00  0.00     0.198 A 
ATOM     96  C   UNL A   1      45.334  26.549  36.688  1.00  0.00     0.198 A 
ATOM     97  F   UNL A   1      43.018  26.968  36.724  1.00  0.00    -0.203 F 
ATOM     98  F   UNL A   1      48.047  28.411  35.168  1.00  0.00    -0.200 F 
ATOM     99  C   UNL A   1      46.614  26.909  36.294  1.00  0.00     0.200 A 
ATOM    100  F   UNL A   1      45.141  25.427  37.393  1.00  0.00    -0.200 F 
ATOM    101  F   UNL A   1      47.656  26.126  36.606  1.00  0.00    -0.200 F 
ENDBRANCH  68  91
ENDBRANCH  42  43
ENDBRANCH  34  37
ENDBRANCH  32  33
ENDBRANCH  31  32
ENDBRANCH   1  31
TORSDOF 14
ENDMDL
MODEL 2
REMARK VINA RESULT:     -12.8      3.822      8.948
REMARK SMILES Cc1nnc(-c2ccccc2-c2cc(NCC(=O)NCCCNC(=O)c3ccc(-c4c5nc(c(-c6c(F)c(F)c(F)c(F)c6F)c6ccc([nH]6)c(-c6c(F)c(F)c(F)c(F)c6F)c6nc(c(-c7c(F)c(F)c(F)c(F)c7F)c7ccc4[nH]7)C=C6)C=C5)cc3)nc3[nH]ccc23)o1
REMARK SMILES IDX 20 1 19 2 17 3 18 4 16 6 15 7 14 9 12 10 13 11 94 12 90 13
REMARK SMILES IDX 93 14 89 15 91 16 92 17 11 19 6 20 7 21 8 22 10 23 9 24 5 25
REMARK SMILES IDX 1 26 2 27 3 28 95 29 4 30 21 31 22 32 23 33 24 34 25 36
REMARK SMILES IDX 26 37 27 38 88 39 28 40 87 41 29 42 30 43 31 44 81 45 32 46
REMARK SMILES IDX 86 47 80 48 82 49 33 50 85 51 79 52 78 53 34 55 66 56 46 57
REMARK SMILES IDX 65 58 47 59 50 60 64 61 83 62 48 63 49 64 63 66 84 67 51 68
REMARK SMILES IDX 35 69 36 70 44 71 37 72 38 73 42 74 45 75 39 76 40 77 43 78
REMARK SMILES IDX 41 79 67 80 68 81 76 82 69 83 70 84 74 85 77 86 71 87 72 88
REMARK SMILES IDX 75 89 73 90 52 91 53 92 61 93 54 94 55 95 59 96 62 97 56 98
REMARK SMILES IDX 57 99 60 100 58 101
REMARK H PARENT 19 5 15 8 91 18 23 35 82 54 50 65
REMARK Flexibility Score: inf
ROOT
ATOM      1  C   UNL A   1      34.624  34.314  30.377  1.00  0.00     0.117 C 
ENDROOT
BRANCH   1   2
ATOM      2  N   UNL A   1      33.338  34.842  30.797  1.00  0.00    -0.355 N 
ATOM      3  C   UNL A   1      32.979  35.321  32.027  1.00  0.00     0.239 C 
ATOM      4  O   UNL A   1      31.802  35.646  32.209  1.00  0.00    -0.273 OA
ATOM      5  H   UNL A   1      32.634  34.857  30.108  1.00  0.00     0.163 HD
BRANCH   3   6
ATOM      6  C   UNL A   1      34.024  35.442  33.139  1.00  0.00     0.214 C 
BRANCH   6   7
ATOM      7  N   UNL A   1      34.160  34.175  33.848  1.00  0.00    -0.361 N 
ATOM      8  H   UNL A   1      33.360  33.744  34.226  1.00  0.00     0.162 HD
BRANCH   7   9
ATOM      9  C   UNL A   1      35.397  33.572  33.999  1.00  0.00     0.129 A 
ATOM     10  C   UNL A   1      37.529  33.527  35.193  1.00  0.00    -0.003 A 
ATOM     11  C   UNL A   1      36.302  34.148  34.894  1.00  0.00     0.056 A 
ATOM     12  C   UNL A   1      37.784  32.302  34.545  1.00  0.00     0.027 A 
ATOM     13  C   UNL A   1      36.813  31.837  33.668  1.00  0.00     0.140 A 
ATOM     14  C   UNL A   1      38.828  31.331  34.537  1.00  0.00     0.030 A 
ATOM     15  N   UNL A   1      35.637  32.409  33.369  1.00  0.00    -0.213 NA
ATOM     16  N   UNL A   1      37.244  30.652  33.139  1.00  0.00    -0.346 N 
ATOM     17  C   UNL A   1      38.470  30.329  33.659  1.00  0.00     0.085 A 
ATOM     18  H   UNL A   1      36.748  30.113  32.481  1.00  0.00     0.167 HD
BRANCH  10  19
ATOM     19  C   UNL A   1      38.516  34.106  36.118  1.00  0.00    -0.005 A 
ATOM     20  C   UNL A   1      38.656  33.689  37.460  1.00  0.00     0.047 A 
ATOM     21  C   UNL A   1      39.612  34.303  38.292  1.00  0.00     0.014 A 
ATOM     22  C   UNL A   1      40.432  35.321  37.807  1.00  0.00     0.001 A 
ATOM     23  C   UNL A   1      39.352  35.145  35.658  1.00  0.00     0.009 A 
ATOM     24  C   UNL A   1      40.301  35.743  36.490  1.00  0.00     0.001 A 
BRANCH  20  25
ATOM     25  C   UNL A   1      37.850  32.626  38.030  1.00  0.00     0.248 A 
ATOM     26  C   UNL A   1      35.400  31.795  40.417  1.00  0.00     0.113 C 
ATOM     27  C   UNL A   1      36.426  31.793  39.362  1.00  0.00     0.213 A 
ATOM     28  N   UNL A   1      36.891  30.793  38.644  1.00  0.00    -0.113 NA
ATOM     29  O   UNL A   1      36.999  32.992  39.041  1.00  0.00    -0.421 OA
ATOM     30  N   UNL A   1      37.807  31.336  37.768  1.00  0.00    -0.108 NA
ENDBRANCH  20  25
ENDBRANCH  10  19
ENDBRANCH   7   9
ENDBRANCH   6   7
ENDBRANCH   3   6
ENDBRANCH   1   2
BRANCH   1  31
ATOM     31  C   UNL A   1      34.536  32.858  29.921  1.00  0.00     0.042 C 
BRANCH  31  32
ATOM     32  C   UNL A   1      34.451  32.680  28.406  1.00  0.00     0.118 C 
BRANCH  32  33
ATOM     33  N   UNL A   1      33.878  31.403  28.014  1.00  0.00    -0.352 N 
ATOM     34  C   UNL A   1      34.454  30.168  27.866  1.00  0.00     0.251 C 
ATOM     35  H   UNL A   1      32.912  31.429  27.823  1.00  0.00     0.163 HD
ATOM     36  O   UNL A   1      33.783  29.263  27.368  1.00  0.00    -0.269 OA
BRANCH  34  37
ATOM     37  C   UNL A   1      35.849  29.881  28.283  1.00  0.00     0.039 A 
ATOM     38  C   UNL A   1      36.861  30.045  27.329  1.00  0.00     0.014 A 
ATOM     39  C   UNL A   1      36.175  29.364  29.541  1.00  0.00     0.014 A 
ATOM     40  C   UNL A   1      38.186  29.721  27.637  1.00  0.00     0.010 A 
ATOM     41  C   UNL A   1      37.508  29.092  29.870  1.00  0.00     0.010 A 
ATOM     42  C   UNL A   1      38.525  29.255  28.916  1.00  0.00    -0.014 A 
BRANCH  42  43
ATOM     43  C   UNL A   1      39.939  28.932  29.244  1.00  0.00     0.031 A 
ATOM     44  C   UNL A   1      40.754  29.837  30.127  1.00  0.00     0.074 A 
ATOM     45  C   UNL A   1      40.499  27.815  28.740  1.00  0.00     0.049 A 
ATOM     46  N   UNL A   1      41.990  29.699  30.539  1.00  0.00    -0.248 NA
ATOM     47  C   UNL A   1      40.101  31.069  30.593  1.00  0.00     0.031 C 
ATOM     48  C   UNL A   1      39.837  26.874  27.837  1.00  0.00     0.029 A 
ATOM     49  N   UNL A   1      41.750  27.279  28.923  1.00  0.00    -0.354 N 
ATOM     50  C   UNL A   1      42.267  30.828  31.298  1.00  0.00     0.074 A 
ATOM     51  C   UNL A   1      41.082  31.660  31.261  1.00  0.00     0.031 C 
ATOM     52  C   UNL A   1      40.676  25.860  27.569  1.00  0.00     0.029 A 
ATOM     53  C   UNL A   1      41.940  26.089  28.265  1.00  0.00     0.049 A 
ATOM     54  H   UNL A   1      42.445  27.708  29.474  1.00  0.00     0.167 HD
ATOM     55  C   UNL A   1      43.397  31.136  31.979  1.00  0.00     0.037 A 
ATOM     56  C   UNL A   1      43.007  25.270  28.236  1.00  0.00     0.037 A 
ATOM     57  C   UNL A   1      44.567  30.299  32.047  1.00  0.00     0.049 A 
ATOM     58  C   UNL A   1      44.234  25.614  29.034  1.00  0.00     0.074 A 
ATOM     59  C   UNL A   1      45.740  30.508  32.755  1.00  0.00     0.029 A 
ATOM     60  N   UNL A   1      44.711  29.089  31.389  1.00  0.00    -0.354 N 
ATOM     61  N   UNL A   1      44.461  26.658  29.791  1.00  0.00    -0.248 NA
ATOM     62  C   UNL A   1      45.349  24.657  28.978  1.00  0.00     0.031 C 
ATOM     63  C   UNL A   1      46.603  29.436  32.501  1.00  0.00     0.029 A 
ATOM     64  C   UNL A   1      45.956  28.544  31.662  1.00  0.00     0.049 A 
ATOM     65  H   UNL A   1      44.029  28.676  30.810  1.00  0.00     0.167 HD
ATOM     66  C   UNL A   1      45.732  26.476  30.319  1.00  0.00     0.074 A 
ATOM     67  C   UNL A   1      46.222  25.213  29.807  1.00  0.00     0.031 C 
ATOM     68  C   UNL A   1      46.431  27.286  31.150  1.00  0.00     0.037 A 
BRANCH  55  69
ATOM     69  C   UNL A   1      43.425  32.442  32.716  1.00  0.00     0.064 A 
ATOM     70  C   UNL A   1      43.739  33.644  32.065  1.00  0.00     0.173 A 
ATOM     71  C   UNL A   1      43.090  32.498  34.078  1.00  0.00     0.173 A 
ATOM     72  F   UNL A   1      44.075  33.640  30.766  1.00  0.00    -0.203 F 
ATOM     73  C   UNL A   1      43.741  34.853  32.756  1.00  0.00     0.198 A 
ATOM     74  C   UNL A   1      43.070  33.712  34.759  1.00  0.00     0.198 A 
ATOM     75  F   UNL A   1      42.775  31.378  34.744  1.00  0.00    -0.203 F 
ATOM     76  F   UNL A   1      44.081  35.984  32.123  1.00  0.00    -0.200 F 
ATOM     77  C   UNL A   1      43.401  34.887  34.101  1.00  0.00     0.200 A 
ATOM     78  F   UNL A   1      42.732  33.745  36.056  1.00  0.00    -0.200 F 
ATOM     79  F   UNL A   1      43.397  36.052  34.763  1.00  0.00    -0.200 F 
ENDBRANCH  55  69
BRANCH  56  80
ATOM     80  C   UNL A   1      42.945  24.012  27.450  1.00  0.00     0.064 A 
ATOM     81  C   UNL A   1      43.275  24.001  26.089  1.00  0.00     0.173 A 
ATOM     82  C   UNL A   1      42.557  22.802  28.042  1.00  0.00     0.173 A 
ATOM     83  F   UNL A   1      43.629  25.141  25.476  1.00  0.00    -0.203 F 
ATOM     84  C   UNL A   1      43.207  22.828  25.343  1.00  0.00     0.198 A 
ATOM     85  C   UNL A   1      42.510  21.624  27.299  1.00  0.00     0.198 A 
ATOM     86  F   UNL A   1      42.230  22.764  29.341  1.00  0.00    -0.203 F 
ATOM     87  F   UNL A   1      43.491  22.850  24.034  1.00  0.00    -0.200 F 
ATOM     88  C   UNL A   1      42.830  21.639  25.950  1.00  0.00     0.200 A 
ATOM     89  F   UNL A   1      42.153  20.476  27.891  1.00  0.00    -0.200 F 
ATOM     90  F   UNL A   1      42.766  20.509  25.233  1.00  0.00    -0.200 F 
ENDBRANCH  56  80
BRANCH  68  91
ATOM     91  C   UNL A   1      47.791  26.820  31.573  1.00  0.00     0.064 A 
ATOM     92  C   UNL A   1      47.967  25.999  32.698  1.00  0.00     0.173 A 
ATOM     93  C   UNL A   1      48.929  27.181  30.838  1.00  0.00     0.173 A 
ATOM     94  F   UNL A   1      46.910  25.641  33.443  1.00  0.00    -0.203 F 
ATOM     95  C   UNL A   1      49.236  25.577  33.084  1.00  0.00     0.198 A 
ATOM     96  C   UNL A   1      50.196  26.739  31.214  1.00  0.00     0.198 A 
ATOM     97  F   UNL A   1      48.814  27.961  29.753  1.00  0.00    -0.203 F 
ATOM     98  F   UNL A   1      49.385  24.831  34.187  1.00  0.00    -0.200 F 
ATOM     99  C   UNL A   1      50.348  25.945  32.340  1.00  0.00     0.200 A 
ATOM    100  F   UNL A   1      51.268  27.089  30.492  1.00  0.00    -0.200 F 
ATOM    101  F   UNL A   1      51.569  25.540  32.716  1.00  0.00    -0.200 F 
ENDBRANCH  68  91
ENDBRANCH  42  43
ENDBRANCH  34  37
ENDBRANCH  32  33
ENDBRANCH  31  32
ENDBRANCH   1  31
TORSDOF 14
ENDMDL
MODEL 3
REMARK VINA RESULT:     -12.8      0.590      7.158
REMARK SMILES Cc1nnc(-c2ccccc2-c2cc(NCC(=O)NCCCNC(=O)c3ccc(-c4c5nc(c(-c6c(F)c(F)c(F)c(F)c6F)c6ccc([nH]6)c(-c6c(F)c(F)c(F)c(F)c6F)c6nc(c(-c7c(F)c(F)c(F)c(F)c7F)c7ccc4[nH]7)C=C6)C=C5)cc3)nc3[nH]ccc23)o1
REMARK SMILES IDX 20 1 19 2 17 3 18 4 16 6 15 7 14 9 12 10 13 11 94 12 90 13
REMARK SMILES IDX 93 14 89 15 91 16 92 17 11 19 6 20 7 21 8 22 10 23 9 24 5 25
REMARK SMILES IDX 1 26 2 27 3 28 95 29 4 30 21 31 22 32 23 33 24 34 25 36
REMARK SMILES IDX 26 37 27 38 88 39 28 40 87 41 29 42 30 43 31 44 81 45 32 46
REMARK SMILES IDX 86 47 80 48 82 49 33 50 85 51 79 52 78 53 34 55 66 56 46 57
REMARK SMILES IDX 65 58 47 59 50 60 64 61 83 62 48 63 49 64 63 66 84 67 51 68
REMARK SMILES IDX 35 69 36 70 44 71 37 72 38 73 42 74 45 75 39 76 40 77 43 78
REMARK SMILES IDX 41 79 67 80 68 81 76 82 69 83 70 84 74 85 77 86 71 87 72 88
REMARK SMILES IDX 75 89 73 90 52 91 53 92 61 93 54 94 55 95 59 96 62 97 56 98
REMARK SMILES IDX 57 99 60 100 58 101
REMARK H PARENT 19 5 15 8 91 18 23 35 82 54 50 65
REMARK Flexibility Score: inf
ROOT
ATOM      1  C   UNL A   1      34.405  34.130  27.936  1.00  0.00     0.117 C 
ENDROOT
BRANCH   1   2
ATOM      2  N   UNL A   1      35.184  32.965  28.318  1.00  0.00    -0.355 N 
ATOM      3  C   UNL A   1      34.822  31.647  28.260  1.00  0.00     0.239 C 
ATOM      4  O   UNL A   1      35.600  30.804  28.718  1.00  0.00    -0.273 OA
ATOM      5  H   UNL A   1      36.089  33.147  28.662  1.00  0.00     0.163 HD
BRANCH   3   6
ATOM      6  C   UNL A   1      33.480  31.246  27.641  1.00  0.00     0.214 C 
BRANCH   6   7
ATOM      7  N   UNL A   1      33.329  29.796  27.649  1.00  0.00    -0.361 N 
ATOM      8  H   UNL A   1      33.083  29.339  28.485  1.00  0.00     0.162 HD
BRANCH   7   9
ATOM      9  C   UNL A   1      33.530  29.053  26.498  1.00  0.00     0.129 A 
ATOM     10  C   UNL A   1      33.758  26.834  25.498  1.00  0.00    -0.003 A 
ATOM     11  C   UNL A   1      33.675  27.669  26.629  1.00  0.00     0.056 A 
ATOM     12  C   UNL A   1      33.686  27.471  24.244  1.00  0.00     0.027 A 
ATOM     13  C   UNL A   1      33.554  28.853  24.244  1.00  0.00     0.140 A 
ATOM     14  C   UNL A   1      33.704  27.071  22.875  1.00  0.00     0.030 A 
ATOM     15  N   UNL A   1      33.469  29.669  25.305  1.00  0.00    -0.213 NA
ATOM     16  N   UNL A   1      33.509  29.280  22.945  1.00  0.00    -0.346 N 
ATOM     17  C   UNL A   1      33.598  28.206  22.099  1.00  0.00     0.085 A 
ATOM     18  H   UNL A   1      33.427  30.219  22.662  1.00  0.00     0.167 HD
BRANCH  10  19
ATOM     19  C   UNL A   1      33.925  25.376  25.591  1.00  0.00    -0.005 A 
ATOM     20  C   UNL A   1      32.843  24.482  25.747  1.00  0.00     0.047 A 
ATOM     21  C   UNL A   1      33.082  23.098  25.845  1.00  0.00     0.014 A 
ATOM     22  C   UNL A   1      34.379  22.591  25.788  1.00  0.00     0.001 A 
ATOM     23  C   UNL A   1      35.227  24.836  25.546  1.00  0.00     0.009 A 
ATOM     24  C   UNL A   1      35.453  23.460  25.639  1.00  0.00     0.001 A 
BRANCH  20  25
ATOM     25  C   UNL A   1      31.465  24.933  25.797  1.00  0.00     0.248 A 
ATOM     26  C   UNL A   1      28.826  26.420  24.004  1.00  0.00     0.113 C 
ATOM     27  C   UNL A   1      29.700  25.818  25.024  1.00  0.00     0.213 A 
ATOM     28  N   UNL A   1      29.447  25.525  26.281  1.00  0.00    -0.113 NA
ATOM     29  O   UNL A   1      30.970  25.484  24.643  1.00  0.00    -0.421 OA
ATOM     30  N   UNL A   1      30.591  24.938  26.781  1.00  0.00    -0.108 NA
ENDBRANCH  20  25
ENDBRANCH  10  19
ENDBRANCH   7   9
ENDBRANCH   6   7
ENDBRANCH   3   6
ENDBRANCH   1   2
BRANCH   1  31
ATOM     31  C   UNL A   1      33.350  34.493  28.979  1.00  0.00     0.042 C 
BRANCH  31  32
ATOM     32  C   UNL A   1      33.362  35.962  29.399  1.00  0.00     0.118 C 
BRANCH  32  33
ATOM     33  N   UNL A   1      32.515  36.233  30.549  1.00  0.00    -0.352 N 
ATOM     34  C   UNL A   1      32.601  35.803  31.847  1.00  0.00     0.251 C 
ATOM     35  H   UNL A   1      31.750  36.826  30.364  1.00  0.00     0.163 HD
ATOM     36  O   UNL A   1      31.664  36.048  32.610  1.00  0.00    -0.269 OA
BRANCH  34  37
ATOM     37  C   UNL A   1      33.775  35.059  32.368  1.00  0.00     0.039 A 
ATOM     38  C   UNL A   1      35.033  35.666  32.255  1.00  0.00     0.014 A 
ATOM     39  C   UNL A   1      33.689  33.755  32.864  1.00  0.00     0.014 A 
ATOM     40  C   UNL A   1      36.186  34.987  32.659  1.00  0.00     0.010 A 
ATOM     41  C   UNL A   1      34.836  33.095  33.321  1.00  0.00     0.010 A 
ATOM     42  C   UNL A   1      36.098  33.700  33.210  1.00  0.00    -0.014 A 
BRANCH  42  43
ATOM     43  C   UNL A   1      37.326  32.991  33.656  1.00  0.00     0.031 A 
ATOM     44  C   UNL A   1      38.009  31.991  32.763  1.00  0.00     0.074 A 
ATOM     45  C   UNL A   1      37.833  33.245  34.879  1.00  0.00     0.049 A 
ATOM     46  N   UNL A   1      39.102  31.300  32.977  1.00  0.00    -0.248 NA
ATOM     47  C   UNL A   1      37.370  31.717  31.468  1.00  0.00     0.031 C 
ATOM     48  C   UNL A   1      37.247  34.157  35.861  1.00  0.00     0.029 A 
ATOM     49  N   UNL A   1      38.960  32.764  35.499  1.00  0.00    -0.354 N 
ATOM     50  C   UNL A   1      39.273  30.502  31.853  1.00  0.00     0.074 A 
ATOM     51  C   UNL A   1      38.153  30.767  30.975  1.00  0.00     0.031 C 
ATOM     52  C   UNL A   1      38.035  34.194  36.948  1.00  0.00     0.029 A 
ATOM     53  C   UNL A   1      39.169  33.296  36.747  1.00  0.00     0.049 A 
ATOM     54  H   UNL A   1      39.560  32.101  35.087  1.00  0.00     0.167 HD
ATOM     55  C   UNL A   1      40.280  29.641  31.571  1.00  0.00     0.037 A 
ATOM     56  C   UNL A   1      40.169  33.091  37.626  1.00  0.00     0.037 A 
ATOM     57  C   UNL A   1      41.414  29.397  32.424  1.00  0.00     0.049 A 
ATOM     58  C   UNL A   1      41.296  32.162  37.270  1.00  0.00     0.074 A 
ATOM     59  C   UNL A   1      42.509  28.579  32.195  1.00  0.00     0.029 A 
ATOM     60  N   UNL A   1      41.604  29.975  33.669  1.00  0.00    -0.354 N 
ATOM     61  N   UNL A   1      41.473  31.457  36.181  1.00  0.00    -0.248 NA
ATOM     62  C   UNL A   1      42.368  32.012  38.265  1.00  0.00     0.031 C 
ATOM     63  C   UNL A   1      43.346  28.641  33.315  1.00  0.00     0.029 A 
ATOM     64  C   UNL A   1      42.790  29.523  34.226  1.00  0.00     0.049 A 
ATOM     65  H   UNL A   1      40.986  30.612  34.096  1.00  0.00     0.167 HD
ATOM     66  C   UNL A   1      42.682  30.796  36.348  1.00  0.00     0.074 A 
ATOM     67  C   UNL A   1      43.204  31.196  37.638  1.00  0.00     0.031 C 
ATOM     68  C   UNL A   1      43.301  29.931  35.509  1.00  0.00     0.037 A 
BRANCH  55  69
ATOM     69  C   UNL A   1      40.206  28.895  30.272  1.00  0.00     0.064 A 
ATOM     70  C   UNL A   1      40.794  29.399  29.103  1.00  0.00     0.173 A 
ATOM     71  C   UNL A   1      39.579  27.641  30.206  1.00  0.00     0.173 A 
ATOM     72  F   UNL A   1      41.398  30.597  29.114  1.00  0.00    -0.203 F 
ATOM     73  C   UNL A   1      40.737  28.685  27.908  1.00  0.00     0.198 A 
ATOM     74  C   UNL A   1      39.544  26.921  29.016  1.00  0.00     0.198 A 
ATOM     75  F   UNL A   1      39.007  27.112  31.298  1.00  0.00    -0.203 F 
ATOM     76  F   UNL A   1      41.273  29.203  26.795  1.00  0.00    -0.200 F 
ATOM     77  C   UNL A   1      40.117  27.445  27.866  1.00  0.00     0.200 A 
ATOM     78  F   UNL A   1      38.953  25.718  28.979  1.00  0.00    -0.200 F 
ATOM     79  F   UNL A   1      40.068  26.757  26.717  1.00  0.00    -0.200 F 
ENDBRANCH  55  69
BRANCH  56  80
ATOM     80  C   UNL A   1      40.168  33.819  38.919  1.00  0.00     0.064 A 
ATOM     81  C   UNL A   1      39.425  33.345  40.008  1.00  0.00     0.173 A 
ATOM     82  C   UNL A   1      40.908  34.996  39.092  1.00  0.00     0.173 A 
ATOM     83  F   UNL A   1      38.683  32.234  39.879  1.00  0.00    -0.203 F 
ATOM     84  C   UNL A   1      39.411  34.029  41.220  1.00  0.00     0.198 A 
ATOM     85  C   UNL A   1      40.910  35.669  40.312  1.00  0.00     0.198 A 
ATOM     86  F   UNL A   1      41.634  35.490  38.078  1.00  0.00    -0.203 F 
ATOM     87  F   UNL A   1      38.662  33.576  42.235  1.00  0.00    -0.200 F 
ATOM     88  C   UNL A   1      40.158  35.188  41.373  1.00  0.00     0.200 A 
ATOM     89  F   UNL A   1      41.640  36.784  40.459  1.00  0.00    -0.200 F 
ATOM     90  F   UNL A   1      40.146  35.846  42.540  1.00  0.00    -0.200 F 
ENDBRANCH  56  80
BRANCH  68  91
ATOM     91  C   UNL A   1      44.621  29.377  35.951  1.00  0.00     0.064 A 
ATOM     92  C   UNL A   1      44.708  28.168  36.658  1.00  0.00     0.173 A 
ATOM     93  C   UNL A   1      45.814  30.049  35.649  1.00  0.00     0.173 A 
ATOM     94  F   UNL A   1      43.593  27.497  36.985  1.00  0.00    -0.203 F 
ATOM     95  C   UNL A   1      45.940  27.666  37.069  1.00  0.00     0.198 A 
ATOM     96  C   UNL A   1      47.047  29.534  36.041  1.00  0.00     0.198 A 
ATOM     97  F   UNL A   1      45.785  31.206  34.971  1.00  0.00    -0.203 F 
ATOM     98  F   UNL A   1      45.996  26.534  37.782  1.00  0.00    -0.200 F 
ATOM     99  C   UNL A   1      47.107  28.347  36.757  1.00  0.00     0.200 A 
ATOM    100  F   UNL A   1      48.175  30.188  35.734  1.00  0.00    -0.200 F 
ATOM    101  F   UNL A   1      48.293  27.864  37.155  1.00  0.00    -0.200 F 
ENDBRANCH  68  91
ENDBRANCH  42  43
ENDBRANCH  34  37
ENDBRANCH  32  33
ENDBRANCH  31  32
ENDBRANCH   1  31
TORSDOF 14
ENDMDL
