MODEL 1
REMARK VINA RESULT:     -13.1      0.000      0.000
REMARK SMILES O=C(NCCCNC(=O)[C@@H]1CC2(CC[NH2+]CC2)C[N@H+]1Cc1cccc2nonc12)c1ccc(-c2c3nc(c(-c4c(F)c(F)c(F)c(F)c4F)c4ccc([nH]4)c(-c4c(F)c(F)c(F)c(F)c4F)c4nc(c(-c5c(F)c(F)c(F)c(F)c5F)c5ccc2[nH]5)C=C4)C=C3)cc1
REMARK SMILES IDX 5 1 4 2 3 3 1 4 2 5 30 7 31 8 92 9 32 10 91 11 33 12 34 13
REMARK SMILES IDX 35 14 85 15 36 16 90 17 84 18 86 19 37 20 89 21 83 22 82 23
REMARK SMILES IDX 38 25 70 26 50 27 69 28 51 29 54 30 68 31 87 32 52 33 53 34
REMARK SMILES IDX 67 36 88 37 55 38 39 39 40 40 48 41 41 42 42 43 46 44 49 45
REMARK SMILES IDX 43 46 44 47 47 48 45 49 71 50 72 51 80 52 73 53 74 54 78 55
REMARK SMILES IDX 81 56 75 57 76 58 79 59 77 60 56 61 57 62 65 63 58 64 59 65
REMARK SMILES IDX 63 66 66 67 60 68 61 69 64 70 62 71 6 72 7 73 8 74 9 76
REMARK SMILES IDX 10 77 11 78 19 79 12 80 18 81 13 83 17 84 14 85 16 86 15 87
REMARK SMILES IDX 20 90 21 91 22 92 29 93 23 94 25 95 28 96 24 97 26 98 27 99
REMARK H PARENT 3 6 86 24 54 35 7 75 19 82 15 88 15 89
REMARK Flexibility Score: inf
ROOT
ATOM      1  C   UNL A   1      34.219  30.598  27.026  1.00  0.00     0.042 C 
ENDROOT
BRANCH   1   2
ATOM      2  C   UNL A   1      33.771  31.634  28.047  1.00  0.00     0.118 C 
BRANCH   2   3
ATOM      3  N   UNL A   1      34.653  32.793  27.996  1.00  0.00    -0.352 N 
ATOM      4  O   UNL A   1      36.216  34.212  28.718  1.00  0.00    -0.269 OA
ATOM      5  C   UNL A   1      35.844  33.037  28.618  1.00  0.00     0.251 C 
ATOM      6  H   UNL A   1      34.338  33.523  27.416  1.00  0.00     0.163 HD
BRANCH   5   7
ATOM      7  C   UNL A   1      36.707  31.956  29.142  1.00  0.00     0.039 A 
ATOM      8  C   UNL A   1      36.773  31.792  30.532  1.00  0.00     0.014 A 
ATOM      9  C   UNL A   1      37.551  31.205  28.316  1.00  0.00     0.014 A 
ATOM     10  C   UNL A   1      37.668  30.884  31.090  1.00  0.00     0.010 A 
ATOM     11  C   UNL A   1      38.419  30.267  28.869  1.00  0.00     0.010 A 
ATOM     12  C   UNL A   1      38.492  30.118  30.258  1.00  0.00    -0.014 A 
BRANCH  12  13
ATOM     13  C   UNL A   1      39.465  29.212  30.887  1.00  0.00     0.031 A 
ATOM     14  C   UNL A   1      39.511  27.823  30.343  1.00  0.00     0.074 A 
ATOM     15  C   UNL A   1      40.615  29.712  31.386  1.00  0.00     0.049 A 
ATOM     16  N   UNL A   1      40.150  27.509  29.252  1.00  0.00    -0.248 NA
ATOM     17  C   UNL A   1      38.659  26.752  30.859  1.00  0.00     0.031 C 
ATOM     18  C   UNL A   1      41.270  30.923  30.873  1.00  0.00     0.029 A 
ATOM     19  N   UNL A   1      41.539  29.155  32.236  1.00  0.00    -0.354 N 
ATOM     20  C   UNL A   1      39.737  26.243  28.890  1.00  0.00     0.074 A 
ATOM     21  C   UNL A   1      38.834  25.800  29.929  1.00  0.00     0.031 C 
ATOM     22  C   UNL A   1      42.554  30.921  31.278  1.00  0.00     0.029 A 
ATOM     23  C   UNL A   1      42.761  29.817  32.206  1.00  0.00     0.049 A 
ATOM     24  H   UNL A   1      41.356  28.372  32.805  1.00  0.00     0.167 HD
ATOM     25  C   UNL A   1      40.134  25.638  27.740  1.00  0.00     0.037 A 
ATOM     26  C   UNL A   1      43.966  29.255  32.480  1.00  0.00     0.037 A 
ATOM     27  C   UNL A   1      41.044  26.380  26.921  1.00  0.00     0.049 A 
ATOM     28  C   UNL A   1      44.159  28.380  31.270  1.00  0.00     0.074 A 
ATOM     29  C   UNL A   1      40.954  27.250  25.858  1.00  0.00     0.029 A 
ATOM     30  N   UNL A   1      42.381  26.336  27.235  1.00  0.00    -0.354 N 
ATOM     31  N   UNL A   1      44.581  28.789  30.101  1.00  0.00    -0.248 NA
ATOM     32  C   UNL A   1      43.521  27.062  31.257  1.00  0.00     0.031 C 
ATOM     33  C   UNL A   1      42.163  28.013  25.883  1.00  0.00     0.029 A 
ATOM     34  C   UNL A   1      42.886  27.590  26.997  1.00  0.00     0.049 A 
ATOM     35  H   UNL A   1      42.882  25.556  27.566  1.00  0.00     0.167 HD
ATOM     36  C   UNL A   1      44.005  27.914  29.177  1.00  0.00     0.074 A 
ATOM     37  C   UNL A   1      43.414  26.846  29.953  1.00  0.00     0.031 C 
ATOM     38  C   UNL A   1      43.861  28.218  27.856  1.00  0.00     0.037 A 
BRANCH  25  39
ATOM     39  C   UNL A   1      39.766  24.269  27.344  1.00  0.00     0.064 A 
ATOM     40  C   UNL A   1      40.659  23.225  27.627  1.00  0.00     0.173 A 
ATOM     41  C   UNL A   1      38.668  24.002  26.522  1.00  0.00     0.173 A 
ATOM     42  F   UNL A   1      41.732  23.456  28.401  1.00  0.00    -0.203 F 
ATOM     43  C   UNL A   1      40.478  21.962  27.078  1.00  0.00     0.198 A 
ATOM     44  C   UNL A   1      38.488  22.733  25.975  1.00  0.00     0.198 A 
ATOM     45  F   UNL A   1      37.802  24.979  26.211  1.00  0.00    -0.203 F 
ATOM     46  F   UNL A   1      41.368  20.993  27.332  1.00  0.00    -0.200 F 
ATOM     47  C   UNL A   1      39.398  21.719  26.243  1.00  0.00     0.200 A 
ATOM     48  F   UNL A   1      37.448  22.496  25.163  1.00  0.00    -0.200 F 
ATOM     49  F   UNL A   1      39.243  20.509  25.687  1.00  0.00    -0.200 F 
ENDBRANCH  25  39
BRANCH  26  50
ATOM     50  C   UNL A   1      44.114  28.816  33.902  1.00  0.00     0.064 A 
ATOM     51  C   UNL A   1      45.189  29.357  34.646  1.00  0.00     0.173 A 
ATOM     52  C   UNL A   1      43.281  27.925  34.588  1.00  0.00     0.173 A 
ATOM     53  F   UNL A   1      46.104  30.133  34.043  1.00  0.00    -0.203 F 
ATOM     54  C   UNL A   1      45.338  29.125  36.013  1.00  0.00     0.198 A 
ATOM     55  C   UNL A   1      43.416  27.710  35.963  1.00  0.00     0.198 A 
ATOM     56  F   UNL A   1      42.312  27.254  33.954  1.00  0.00    -0.203 F 
ATOM     57  F   UNL A   1      46.347  29.697  36.684  1.00  0.00    -0.200 F 
ATOM     58  C   UNL A   1      44.429  28.324  36.678  1.00  0.00     0.200 A 
ATOM     59  F   UNL A   1      42.538  26.919  36.598  1.00  0.00    -0.200 F 
ATOM     60  F   UNL A   1      44.533  28.139  38.001  1.00  0.00    -0.200 F 
ENDBRANCH  26  50
BRANCH  38  61
ATOM     61  C   UNL A   1      44.552  29.459  27.411  1.00  0.00     0.064 A 
ATOM     62  C   UNL A   1      43.876  30.685  27.431  1.00  0.00     0.173 A 
ATOM     63  C   UNL A   1      45.889  29.443  26.986  1.00  0.00     0.173 A 
ATOM     64  F   UNL A   1      42.598  30.747  27.838  1.00  0.00    -0.203 F 
ATOM     65  C   UNL A   1      44.523  31.859  27.058  1.00  0.00     0.198 A 
ATOM     66  C   UNL A   1      46.538  30.622  26.635  1.00  0.00     0.198 A 
ATOM     67  F   UNL A   1      46.579  28.293  26.933  1.00  0.00    -0.203 F 
ATOM     68  F   UNL A   1      43.864  33.026  27.091  1.00  0.00    -0.200 F 
ATOM     69  C   UNL A   1      45.855  31.828  26.672  1.00  0.00     0.200 A 
ATOM     70  F   UNL A   1      47.830  30.593  26.280  1.00  0.00    -0.200 F 
ATOM     71  F   UNL A   1      46.486  32.966  26.346  1.00  0.00    -0.200 F 
ENDBRANCH  38  61
ENDBRANCH  12  13
ENDBRANCH   5   7
ENDBRANCH   2   3
ENDBRANCH   1   2
BRANCH   1  72
ATOM     72  C   UNL A   1      34.076  29.151  27.491  1.00  0.00     0.118 C 
BRANCH  72  73
ATOM     73  N   UNL A   1      32.723  28.640  27.495  1.00  0.00    -0.351 N 
ATOM     74  C   UNL A   1      31.890  28.299  26.474  1.00  0.00     0.278 C 
ATOM     75  H   UNL A   1      32.338  28.517  28.392  1.00  0.00     0.163 HD
ATOM     76  O   UNL A   1      31.028  27.455  26.753  1.00  0.00    -0.268 OA
BRANCH  74  77
ATOM     77  C   UNL A   1      31.904  28.911  25.058  1.00  0.00     0.275 C 
ATOM     78  C   UNL A   1      30.643  29.595  24.517  1.00  0.00     0.089 C 
ATOM     79  N   UNL A   1      32.280  27.940  23.995  1.00  0.00    -0.320 N 
ATOM     80  C   UNL A   1      30.464  29.053  23.074  1.00  0.00     0.036 C 
ATOM     81  C   UNL A   1      31.899  28.610  22.744  1.00  0.00     0.270 C 
ATOM     82  H   UNL A   1      31.798  27.049  24.110  1.00  0.00     0.349 HD
ATOM     83  C   UNL A   1      29.904  30.101  22.101  1.00  0.00     0.074 C 
ATOM     84  C   UNL A   1      29.517  27.836  22.993  1.00  0.00     0.074 C 
ATOM     85  C   UNL A   1      28.428  30.410  22.391  1.00  0.00     0.261 C 
ATOM     86  C   UNL A   1      28.068  28.199  23.304  1.00  0.00     0.261 C 
ATOM     87  N   UNL A   1      27.580  29.214  22.375  1.00  0.00    -0.346 N 
ATOM     88  H   UNL A   1      27.574  28.825  21.432  1.00  0.00     0.346 HD
ATOM     89  H   UNL A   1      26.640  29.486  22.662  1.00  0.00     0.346 HD
BRANCH  79  90
ATOM     90  C   UNL A   1      33.691  27.531  24.039  1.00  0.00     0.302 C 
BRANCH  90  91
ATOM     91  C   UNL A   1      33.785  26.030  23.991  1.00  0.00     0.038 A 
ATOM     92  C   UNL A   1      34.168  25.287  25.141  1.00  0.00     0.012 A 
ATOM     93  C   UNL A   1      33.614  25.227  22.841  1.00  0.00     0.144 A 
ATOM     94  C   UNL A   1      34.435  23.893  25.137  1.00  0.00     0.003 A 
ATOM     95  C   UNL A   1      33.903  23.796  22.836  1.00  0.00     0.135 A 
ATOM     96  N   UNL A   1      33.200  25.567  21.614  1.00  0.00    -0.049 NA
ATOM     97  C   UNL A   1      34.337  23.104  23.981  1.00  0.00     0.034 A 
ATOM     98  N   UNL A   1      33.698  23.327  21.599  1.00  0.00    -0.050 NA
ATOM     99  O   UNL A   1      33.278  24.415  20.851  1.00  0.00    -0.243 OA
ENDBRANCH  90  91
ENDBRANCH  79  90
ENDBRANCH  74  77
ENDBRANCH  72  73
ENDBRANCH   1  72
TORSDOF 12
ENDMDL
MODEL 2
REMARK VINA RESULT:     -12.8      3.123      8.071
REMARK SMILES O=C(NCCCNC(=O)[C@@H]1CC2(CC[NH2+]CC2)C[N@H+]1Cc1cccc2nonc12)c1ccc(-c2c3nc(c(-c4c(F)c(F)c(F)c(F)c4F)c4ccc([nH]4)c(-c4c(F)c(F)c(F)c(F)c4F)c4nc(c(-c5c(F)c(F)c(F)c(F)c5F)c5ccc2[nH]5)C=C4)C=C3)cc1
REMARK SMILES IDX 5 1 4 2 3 3 1 4 2 5 30 7 31 8 92 9 32 10 91 11 33 12 34 13
REMARK SMILES IDX 35 14 85 15 36 16 90 17 84 18 86 19 37 20 89 21 83 22 82 23
REMARK SMILES IDX 38 25 70 26 50 27 69 28 51 29 54 30 68 31 87 32 52 33 53 34
REMARK SMILES IDX 67 36 88 37 55 38 39 39 40 40 48 41 41 42 42 43 46 44 49 45
REMARK SMILES IDX 43 46 44 47 47 48 45 49 71 50 72 51 80 52 73 53 74 54 78 55
REMARK SMILES IDX 81 56 75 57 76 58 79 59 77 60 56 61 57 62 65 63 58 64 59 65
REMARK SMILES IDX 63 66 66 67 60 68 61 69 64 70 62 71 6 72 7 73 8 74 9 76
REMARK SMILES IDX 10 77 11 78 19 79 12 80 18 81 13 83 17 84 14 85 16 86 15 87
REMARK SMILES IDX 20 90 21 91 22 92 29 93 23 94 25 95 28 96 24 97 26 98 27 99
REMARK H PARENT 3 6 86 24 54 35 7 75 19 82 15 88 15 89
REMARK Flexibility Score: inf
ROOT
ATOM      1  C   UNL A   1      38.141  22.915  26.485  1.00  0.00     0.042 C 
ENDROOT
BRANCH   1   2
ATOM      2  C   UNL A   1      39.353  22.272  25.827  1.00  0.00     0.118 C 
BRANCH   2   3
ATOM      3  N   UNL A   1      40.139  21.560  26.827  1.00  0.00    -0.352 N 
ATOM      4  O   UNL A   1      41.967  20.989  27.972  1.00  0.00    -0.269 OA
ATOM      5  C   UNL A   1      41.306  21.895  27.451  1.00  0.00     0.251 C 
ATOM      6  H   UNL A   1      39.766  20.690  27.098  1.00  0.00     0.163 HD
BRANCH   5   7
ATOM      7  C   UNL A   1      41.784  23.291  27.554  1.00  0.00     0.039 A 
ATOM      8  C   UNL A   1      41.076  24.161  28.394  1.00  0.00     0.014 A 
ATOM      9  C   UNL A   1      42.810  23.793  26.747  1.00  0.00     0.014 A 
ATOM     10  C   UNL A   1      41.393  25.515  28.430  1.00  0.00     0.010 A 
ATOM     11  C   UNL A   1      43.157  25.140  26.810  1.00  0.00     0.010 A 
ATOM     12  C   UNL A   1      42.437  26.007  27.638  1.00  0.00    -0.014 A 
BRANCH  12  13
ATOM     13  C   UNL A   1      42.703  27.454  27.660  1.00  0.00     0.031 A 
ATOM     14  C   UNL A   1      41.507  28.340  27.547  1.00  0.00     0.074 A 
ATOM     15  C   UNL A   1      43.752  27.928  28.364  1.00  0.00     0.049 A 
ATOM     16  N   UNL A   1      40.734  28.619  28.558  1.00  0.00    -0.248 NA
ATOM     17  C   UNL A   1      40.976  28.778  26.257  1.00  0.00     0.031 C 
ATOM     18  C   UNL A   1      44.300  27.268  29.557  1.00  0.00     0.029 A 
ATOM     19  N   UNL A   1      44.368  29.155  28.336  1.00  0.00    -0.354 N 
ATOM     20  C   UNL A   1      39.589  29.194  28.046  1.00  0.00     0.074 A 
ATOM     21  C   UNL A   1      39.793  29.300  26.618  1.00  0.00     0.031 C 
ATOM     22  C   UNL A   1      45.032  28.164  30.245  1.00  0.00     0.029 A 
ATOM     23  C   UNL A   1      45.144  29.390  29.465  1.00  0.00     0.049 A 
ATOM     24  H   UNL A   1      44.270  29.799  27.597  1.00  0.00     0.167 HD
ATOM     25  C   UNL A   1      38.521  29.525  28.818  1.00  0.00     0.037 A 
ATOM     26  C   UNL A   1      45.427  30.612  29.984  1.00  0.00     0.037 A 
ATOM     27  C   UNL A   1      38.655  29.271  30.220  1.00  0.00     0.049 A 
ATOM     28  C   UNL A   1      44.088  31.001  30.552  1.00  0.00     0.074 A 
ATOM     29  C   UNL A   1      38.347  28.247  31.087  1.00  0.00     0.029 A 
ATOM     30  N   UNL A   1      39.314  30.202  30.987  1.00  0.00    -0.354 N 
ATOM     31  N   UNL A   1      43.605  30.592  31.697  1.00  0.00    -0.248 NA
ATOM     32  C   UNL A   1      43.095  31.588  29.650  1.00  0.00     0.031 C 
ATOM     33  C   UNL A   1      39.218  28.416  32.207  1.00  0.00     0.029 A 
ATOM     34  C   UNL A   1      40.039  29.505  31.921  1.00  0.00     0.049 A 
ATOM     35  H   UNL A   1      39.273  31.181  30.887  1.00  0.00     0.167 HD
ATOM     36  C   UNL A   1      42.218  30.609  31.536  1.00  0.00     0.074 A 
ATOM     37  C   UNL A   1      41.969  31.281  30.280  1.00  0.00     0.031 C 
ATOM     38  C   UNL A   1      41.369  29.891  32.326  1.00  0.00     0.037 A 
BRANCH  25  39
ATOM     39  C   UNL A   1      37.306  30.193  28.324  1.00  0.00     0.064 A 
ATOM     40  C   UNL A   1      37.182  31.579  28.502  1.00  0.00     0.173 A 
ATOM     41  C   UNL A   1      36.193  29.477  27.875  1.00  0.00     0.173 A 
ATOM     42  F   UNL A   1      38.230  32.291  28.948  1.00  0.00    -0.203 F 
ATOM     43  C   UNL A   1      35.974  32.224  28.271  1.00  0.00     0.198 A 
ATOM     44  C   UNL A   1      34.983  30.128  27.641  1.00  0.00     0.198 A 
ATOM     45  F   UNL A   1      36.265  28.148  27.711  1.00  0.00    -0.203 F 
ATOM     46  F   UNL A   1      35.871  33.542  28.487  1.00  0.00    -0.200 F 
ATOM     47  C   UNL A   1      34.871  31.496  27.851  1.00  0.00     0.200 A 
ATOM     48  F   UNL A   1      33.913  29.426  27.241  1.00  0.00    -0.200 F 
ATOM     49  F   UNL A   1      33.697  32.113  27.660  1.00  0.00    -0.200 F 
ENDBRANCH  25  39
BRANCH  26  50
ATOM     50  C   UNL A   1      46.272  31.463  29.090  1.00  0.00     0.064 A 
ATOM     51  C   UNL A   1      47.629  31.644  29.449  1.00  0.00     0.173 A 
ATOM     52  C   UNL A   1      45.860  32.096  27.912  1.00  0.00     0.173 A 
ATOM     53  F   UNL A   1      48.087  31.167  30.618  1.00  0.00    -0.203 F 
ATOM     54  C   UNL A   1      48.536  32.299  28.618  1.00  0.00     0.198 A 
ATOM     55  C   UNL A   1      46.773  32.734  27.067  1.00  0.00     0.198 A 
ATOM     56  F   UNL A   1      44.574  32.103  27.542  1.00  0.00    -0.203 F 
ATOM     57  F   UNL A   1      49.822  32.406  28.980  1.00  0.00    -0.200 F 
ATOM     58  C   UNL A   1      48.112  32.818  27.409  1.00  0.00     0.200 A 
ATOM     59  F   UNL A   1      46.351  33.248  25.903  1.00  0.00    -0.200 F 
ATOM     60  F   UNL A   1      48.987  33.402  26.580  1.00  0.00    -0.200 F 
ENDBRANCH  26  50
BRANCH  38  61
ATOM     61  C   UNL A   1      41.997  29.252  33.515  1.00  0.00     0.064 A 
ATOM     62  C   UNL A   1      42.038  29.932  34.738  1.00  0.00     0.173 A 
ATOM     63  C   UNL A   1      42.540  27.960  33.453  1.00  0.00     0.173 A 
ATOM     64  F   UNL A   1      41.524  31.167  34.844  1.00  0.00    -0.203 F 
ATOM     65  C   UNL A   1      42.585  29.330  35.867  1.00  0.00     0.198 A 
ATOM     66  C   UNL A   1      43.065  27.354  34.590  1.00  0.00     0.198 A 
ATOM     67  F   UNL A   1      42.541  27.269  32.302  1.00  0.00    -0.203 F 
ATOM     68  F   UNL A   1      42.609  29.991  37.033  1.00  0.00    -0.200 F 
ATOM     69  C   UNL A   1      43.087  28.038  35.795  1.00  0.00     0.200 A 
ATOM     70  F   UNL A   1      43.533  26.099  34.522  1.00  0.00    -0.200 F 
ATOM     71  F   UNL A   1      43.582  27.448  36.892  1.00  0.00    -0.200 F 
ENDBRANCH  38  61
ENDBRANCH  12  13
ENDBRANCH   5   7
ENDBRANCH   2   3
ENDBRANCH   1   2
BRANCH   1  72
ATOM     72  C   UNL A   1      37.389  23.901  25.594  1.00  0.00     0.118 C 
BRANCH  72  73
ATOM     73  N   UNL A   1      36.876  23.344  24.362  1.00  0.00    -0.351 N 
ATOM     74  C   UNL A   1      35.779  22.578  24.111  1.00  0.00     0.278 C 
ATOM     75  H   UNL A   1      37.416  23.554  23.566  1.00  0.00     0.163 HD
ATOM     76  O   UNL A   1      35.323  22.667  22.963  1.00  0.00    -0.268 OA
BRANCH  74  77
ATOM     77  C   UNL A   1      35.120  21.597  25.101  1.00  0.00     0.275 C 
ATOM     78  C   UNL A   1      34.749  20.185  24.633  1.00  0.00     0.089 C 
ATOM     79  N   UNL A   1      33.870  22.121  25.714  1.00  0.00    -0.320 N 
ATOM     80  C   UNL A   1      33.309  19.939  25.158  1.00  0.00     0.036 C 
ATOM     81  C   UNL A   1      33.243  20.940  26.323  1.00  0.00     0.270 C 
ATOM     82  H   UNL A   1      33.262  22.556  25.019  1.00  0.00     0.349 HD
ATOM     83  C   UNL A   1      33.061  18.484  25.580  1.00  0.00     0.074 C 
ATOM     84  C   UNL A   1      32.217  20.282  24.121  1.00  0.00     0.074 C 
ATOM     85  C   UNL A   1      33.002  17.545  24.367  1.00  0.00     0.261 C 
ATOM     86  C   UNL A   1      32.215  19.327  22.933  1.00  0.00     0.261 C 
ATOM     87  N   UNL A   1      32.001  17.952  23.377  1.00  0.00    -0.346 N 
ATOM     88  H   UNL A   1      31.073  17.879  23.795  1.00  0.00     0.346 HD
ATOM     89  H   UNL A   1      32.084  17.337  22.568  1.00  0.00     0.346 HD
BRANCH  79  90
ATOM     90  C   UNL A   1      34.091  23.225  26.658  1.00  0.00     0.302 C 
BRANCH  90  91
ATOM     91  C   UNL A   1      33.294  24.427  26.230  1.00  0.00     0.038 A 
ATOM     92  C   UNL A   1      33.933  25.553  25.643  1.00  0.00     0.012 A 
ATOM     93  C   UNL A   1      31.909  24.617  26.436  1.00  0.00     0.144 A 
ATOM     94  C   UNL A   1      33.281  26.782  25.360  1.00  0.00     0.003 A 
ATOM     95  C   UNL A   1      31.244  25.887  26.158  1.00  0.00     0.135 A 
ATOM     96  N   UNL A   1      30.987  23.764  26.899  1.00  0.00    -0.049 NA
ATOM     97  C   UNL A   1      31.922  27.001  25.630  1.00  0.00     0.034 A 
ATOM     98  N   UNL A   1      29.956  25.775  26.503  1.00  0.00    -0.050 NA
ATOM     99  O   UNL A   1      29.804  24.478  26.965  1.00  0.00    -0.243 OA
ENDBRANCH  90  91
ENDBRANCH  79  90
ENDBRANCH  74  77
ENDBRANCH  72  73
ENDBRANCH   1  72
TORSDOF 12
ENDMDL
MODEL 3
REMARK VINA RESULT:     -12.5      2.495      7.770
REMARK SMILES O=C(NCCCNC(=O)[C@@H]1CC2(CC[NH2+]CC2)C[N@H+]1Cc1cccc2nonc12)c1ccc(-c2c3nc(c(-c4c(F)c(F)c(F)c(F)c4F)c4ccc([nH]4)c(-c4c(F)c(F)c(F)c(F)c4F)c4nc(c(-c5c(F)c(F)c(F)c(F)c5F)c5ccc2[nH]5)C=C4)C=C3)cc1
REMARK SMILES IDX 5 1 4 2 3 3 1 4 2 5 30 7 31 8 92 9 32 10 91 11 33 12 34 13
REMARK SMILES IDX 35 14 85 15 36 16 90 17 84 18 86 19 37 20 89 21 83 22 82 23
REMARK SMILES IDX 38 25 70 26 50 27 69 28 51 29 54 30 68 31 87 32 52 33 53 34
REMARK SMILES IDX 67 36 88 37 55 38 39 39 40 40 48 41 41 42 42 43 46 44 49 45
REMARK SMILES IDX 43 46 44 47 47 48 45 49 71 50 72 51 80 52 73 53 74 54 78 55
REMARK SMILES IDX 81 56 75 57 76 58 79 59 77 60 56 61 57 62 65 63 58 64 59 65
REMARK SMILES IDX 63 66 66 67 60 68 61 69 64 70 62 71 6 72 7 73 8 74 9 76
REMARK SMILES IDX 10 77 11 78 19 79 12 80 18 81 13 83 17 84 14 85 16 86 15 87
REMARK SMILES IDX 20 90 21 91 22 92 29 93 23 94 25 95 28 96 24 97 26 98 27 99
REMARK H PARENT 3 6 86 24 54 35 7 75 19 82 15 88 15 89
REMARK Flexibility Score: inf
ROOT
ATOM      1  C   UNL A   1      34.828  30.166  27.592  1.00  0.00     0.042 C 
ENDROOT
BRANCH   1   2
ATOM      2  C   UNL A   1      35.742  31.099  28.373  1.00  0.00     0.118 C 
BRANCH   2   3
ATOM      3  N   UNL A   1      35.935  30.586  29.723  1.00  0.00    -0.352 N 
ATOM      4  O   UNL A   1      36.582  29.139  31.294  1.00  0.00    -0.269 OA
ATOM      5  C   UNL A   1      36.841  29.693  30.219  1.00  0.00     0.251 C 
ATOM      6  H   UNL A   1      35.307  30.944  30.391  1.00  0.00     0.163 HD
BRANCH   5   7
ATOM      7  C   UNL A   1      38.120  29.393  29.540  1.00  0.00     0.039 A 
ATOM      8  C   UNL A   1      38.105  28.435  28.517  1.00  0.00     0.014 A 
ATOM      9  C   UNL A   1      39.341  29.921  29.973  1.00  0.00     0.014 A 
ATOM     10  C   UNL A   1      39.295  28.012  27.934  1.00  0.00     0.010 A 
ATOM     11  C   UNL A   1      40.530  29.531  29.363  1.00  0.00     0.010 A 
ATOM     12  C   UNL A   1      40.511  28.562  28.355  1.00  0.00    -0.014 A 
BRANCH  12  13
ATOM     13  C   UNL A   1      41.752  28.047  27.755  1.00  0.00     0.031 A 
ATOM     14  C   UNL A   1      42.810  29.061  27.473  1.00  0.00     0.074 A 
ATOM     15  C   UNL A   1      42.164  26.797  28.047  1.00  0.00     0.049 A 
ATOM     16  N   UNL A   1      43.619  29.515  28.388  1.00  0.00    -0.248 NA
ATOM     17  C   UNL A   1      42.877  29.793  26.209  1.00  0.00     0.031 C 
ATOM     18  C   UNL A   1      41.860  26.110  29.310  1.00  0.00     0.029 A 
ATOM     19  N   UNL A   1      43.102  25.998  27.438  1.00  0.00    -0.354 N 
ATOM     20  C   UNL A   1      44.243  30.628  27.863  1.00  0.00     0.074 A 
ATOM     21  C   UNL A   1      43.775  30.748  26.500  1.00  0.00     0.031 C 
ATOM     22  C   UNL A   1      42.727  25.091  29.464  1.00  0.00     0.029 A 
ATOM     23  C   UNL A   1      43.521  24.950  28.251  1.00  0.00     0.049 A 
ATOM     24  H   UNL A   1      43.440  26.150  26.526  1.00  0.00     0.167 HD
ATOM     25  C   UNL A   1      45.086  31.411  28.585  1.00  0.00     0.037 A 
ATOM     26  C   UNL A   1      44.733  24.343  28.187  1.00  0.00     0.037 A 
ATOM     27  C   UNL A   1      45.326  31.000  29.934  1.00  0.00     0.049 A 
ATOM     28  C   UNL A   1      45.625  25.422  28.742  1.00  0.00     0.074 A 
ATOM     29  C   UNL A   1      44.794  31.273  31.174  1.00  0.00     0.029 A 
ATOM     30  N   UNL A   1      46.271  30.027  30.157  1.00  0.00    -0.354 N 
ATOM     31  N   UNL A   1      45.790  25.689  30.012  1.00  0.00    -0.248 NA
ATOM     32  C   UNL A   1      46.081  26.480  27.837  1.00  0.00     0.031 C 
ATOM     33  C   UNL A   1      45.127  30.148  31.991  1.00  0.00     0.029 A 
ATOM     34  C   UNL A   1      45.796  29.238  31.175  1.00  0.00     0.049 A 
ATOM     35  H   UNL A   1      47.125  29.917  29.679  1.00  0.00     0.167 HD
ATOM     36  C   UNL A   1      46.098  27.050  30.064  1.00  0.00     0.074 A 
ATOM     37  C   UNL A   1      46.316  27.463  28.695  1.00  0.00     0.031 C 
ATOM     38  C   UNL A   1      45.950  27.803  31.191  1.00  0.00     0.037 A 
BRANCH  25  39
ATOM     39  C   UNL A   1      45.818  32.571  28.048  1.00  0.00     0.064 A 
ATOM     40  C   UNL A   1      45.170  33.814  28.010  1.00  0.00     0.173 A 
ATOM     41  C   UNL A   1      47.044  32.438  27.391  1.00  0.00     0.173 A 
ATOM     42  F   UNL A   1      43.981  33.967  28.618  1.00  0.00    -0.203 F 
ATOM     43  C   UNL A   1      45.714  34.882  27.309  1.00  0.00     0.198 A 
ATOM     44  C   UNL A   1      47.589  33.513  26.692  1.00  0.00     0.198 A 
ATOM     45  F   UNL A   1      47.686  31.260  27.388  1.00  0.00    -0.203 F 
ATOM     46  F   UNL A   1      45.056  36.047  27.254  1.00  0.00    -0.200 F 
ATOM     47  C   UNL A   1      46.920  34.728  26.641  1.00  0.00     0.200 A 
ATOM     48  F   UNL A   1      48.752  33.365  26.040  1.00  0.00    -0.200 F 
ATOM     49  F   UNL A   1      47.429  35.749  25.937  1.00  0.00    -0.200 F 
ENDBRANCH  25  39
BRANCH  26  50
ATOM     50  C   UNL A   1      44.964  23.594  26.914  1.00  0.00     0.064 A 
ATOM     51  C   UNL A   1      44.072  22.541  26.602  1.00  0.00     0.173 A 
ATOM     52  C   UNL A   1      45.976  23.838  25.978  1.00  0.00     0.173 A 
ATOM     53  F   UNL A   1      43.139  22.161  27.491  1.00  0.00    -0.203 F 
ATOM     54  C   UNL A   1      44.111  21.871  25.380  1.00  0.00     0.198 A 
ATOM     55  C   UNL A   1      46.002  23.183  24.743  1.00  0.00     0.198 A 
ATOM     56  F   UNL A   1      46.951  24.721  26.225  1.00  0.00    -0.203 F 
ATOM     57  F   UNL A   1      43.216  20.911  25.113  1.00  0.00    -0.200 F 
ATOM     58  C   UNL A   1      45.060  22.216  24.436  1.00  0.00     0.200 A 
ATOM     59  F   UNL A   1      46.934  23.513  23.838  1.00  0.00    -0.200 F 
ATOM     60  F   UNL A   1      45.071  21.616  23.239  1.00  0.00    -0.200 F 
ENDBRANCH  26  50
BRANCH  38  61
ATOM     61  C   UNL A   1      45.643  27.038  32.429  1.00  0.00     0.064 A 
ATOM     62  C   UNL A   1      46.681  26.593  33.256  1.00  0.00     0.173 A 
ATOM     63  C   UNL A   1      44.322  26.760  32.813  1.00  0.00     0.173 A 
ATOM     64  F   UNL A   1      47.960  26.843  32.932  1.00  0.00    -0.203 F 
ATOM     65  C   UNL A   1      46.406  25.912  34.439  1.00  0.00     0.198 A 
ATOM     66  C   UNL A   1      44.051  26.100  34.006  1.00  0.00     0.198 A 
ATOM     67  F   UNL A   1      43.289  27.150  32.049  1.00  0.00    -0.203 F 
ATOM     68  F   UNL A   1      47.412  25.502  35.224  1.00  0.00    -0.200 F 
ATOM     69  C   UNL A   1      45.093  25.677  34.818  1.00  0.00     0.200 A 
ATOM     70  F   UNL A   1      42.782  25.888  34.380  1.00  0.00    -0.200 F 
ATOM     71  F   UNL A   1      44.830  25.051  35.975  1.00  0.00    -0.200 F 
ENDBRANCH  38  61
ENDBRANCH  12  13
ENDBRANCH   5   7
ENDBRANCH   2   3
ENDBRANCH   1   2
BRANCH   1  72
ATOM     72  C   UNL A   1      33.421  30.712  27.358  1.00  0.00     0.118 C 
BRANCH  72  73
ATOM     73  N   UNL A   1      32.374  29.714  27.331  1.00  0.00    -0.351 N 
ATOM     74  C   UNL A   1      31.853  28.988  26.304  1.00  0.00     0.278 C 
ATOM     75  H   UNL A   1      31.968  29.529  28.207  1.00  0.00     0.163 HD
ATOM     76  O   UNL A   1      31.353  27.902  26.625  1.00  0.00    -0.268 OA
BRANCH  74  77
ATOM     77  C   UNL A   1      31.790  29.431  24.828  1.00  0.00     0.275 C 
ATOM     78  C   UNL A   1      30.483  30.002  24.265  1.00  0.00     0.089 C 
ATOM     79  N   UNL A   1      32.167  28.359  23.869  1.00  0.00    -0.320 N 
ATOM     80  C   UNL A   1      30.275  29.290  22.901  1.00  0.00     0.036 C 
ATOM     81  C   UNL A   1      31.713  28.864  22.566  1.00  0.00     0.270 C 
ATOM     82  H   UNL A   1      31.726  27.470  24.104  1.00  0.00     0.349 HD
ATOM     83  C   UNL A   1      29.637  30.197  21.839  1.00  0.00     0.074 C 
ATOM     84  C   UNL A   1      29.376  28.038  23.000  1.00  0.00     0.074 C 
ATOM     85  C   UNL A   1      28.161  30.483  22.152  1.00  0.00     0.261 C 
ATOM     86  C   UNL A   1      27.926  28.381  23.325  1.00  0.00     0.261 C 
ATOM     87  N   UNL A   1      27.363  29.263  22.307  1.00  0.00    -0.346 N 
ATOM     88  H   UNL A   1      27.339  28.768  21.415  1.00  0.00     0.346 HD
ATOM     89  H   UNL A   1      26.424  29.532  22.599  1.00  0.00     0.346 HD
BRANCH  79  90
ATOM     90  C   UNL A   1      33.594  28.010  23.902  1.00  0.00     0.302 C 
BRANCH  90  91
ATOM     91  C   UNL A   1      33.748  26.523  24.084  1.00  0.00     0.038 A 
ATOM     92  C   UNL A   1      34.125  25.979  25.341  1.00  0.00     0.012 A 
ATOM     93  C   UNL A   1      33.643  25.551  23.064  1.00  0.00     0.144 A 
ATOM     94  C   UNL A   1      34.446  24.613  25.555  1.00  0.00     0.003 A 
ATOM     95  C   UNL A   1      33.988  24.149  23.283  1.00  0.00     0.135 A 
ATOM     96  N   UNL A   1      33.254  25.684  21.790  1.00  0.00    -0.049 NA
ATOM     97  C   UNL A   1      34.414  23.655  24.529  1.00  0.00     0.034 A 
ATOM     98  N   UNL A   1      33.839  23.491  22.127  1.00  0.00    -0.050 NA
ATOM     99  O   UNL A   1      33.400  24.435  21.213  1.00  0.00    -0.243 OA
ENDBRANCH  90  91
ENDBRANCH  79  90
ENDBRANCH  74  77
ENDBRANCH  72  73
ENDBRANCH   1  72
TORSDOF 12
ENDMDL
