MODEL 1
REMARK VINA RESULT:     -13.0      0.000      0.000
REMARK SMILES N#C/C(=C/c1ccc(-c2cccc(C(=O)NCCCNC(=O)c3ccc(-c4c5nc(c(-c6c(F)c(F)c(F)c(F)c6F)c6ccc([nH]6)c(-c6c(F)c(F)c(F)c(F)c6F)c6nc(c(-c7c(F)c(F)c(F)c(F)c7F)c7ccc4[nH]7)C=C6)C=C5)cc3)c2)o1)c1ccc(F)cc1
REMARK SMILES IDX 17 1 16 2 14 3 15 4 13 6 9 7 10 8 86 9 11 10 12 11 8 12 5 13
REMARK SMILES IDX 6 14 87 15 7 16 4 17 3 18 2 19 1 20 88 21 89 22 94 23 90 24
REMARK SMILES IDX 93 25 91 26 92 27 18 28 19 29 20 30 21 31 22 33 23 34 24 35
REMARK SMILES IDX 85 36 25 37 84 38 26 39 27 40 28 41 78 42 29 43 83 44 77 45
REMARK SMILES IDX 79 46 30 47 82 48 76 49 75 50 31 52 63 53 43 54 62 55 44 56
REMARK SMILES IDX 47 57 61 58 80 59 45 60 46 61 60 63 81 64 48 65 32 66 33 67
REMARK SMILES IDX 41 68 34 69 35 70 39 71 42 72 36 73 37 74 40 75 38 76 64 77
REMARK SMILES IDX 65 78 73 79 66 80 67 81 71 82 74 83 68 84 69 85 72 86 70 87
REMARK SMILES IDX 49 88 50 89 58 90 51 91 52 92 56 93 59 94 53 95 54 96 57 97
REMARK SMILES IDX 55 98
REMARK H PARENT 16 5 20 32 79 51 47 62
REMARK Flexibility Score: inf
ROOT
ATOM      1  C   UNL A   1      36.587  20.269  24.996  1.00  0.00     0.118 C 
ENDROOT
BRANCH   1   2
ATOM      2  N   UNL A   1      35.387  19.444  24.876  1.00  0.00    -0.352 N 
ATOM      3  C   UNL A   1      34.033  19.669  25.023  1.00  0.00     0.251 C 
ATOM      4  O   UNL A   1      33.277  18.712  24.853  1.00  0.00    -0.269 OA
ATOM      5  H   UNL A   1      35.591  18.512  24.635  1.00  0.00     0.163 HD
BRANCH   3   6
ATOM      6  C   UNL A   1      33.451  20.974  25.442  1.00  0.00     0.040 A 
ATOM      7  C   UNL A   1      32.627  23.183  24.860  1.00  0.00     0.018 A 
ATOM      8  C   UNL A   1      32.761  23.589  26.187  1.00  0.00     0.012 A 
ATOM      9  C   UNL A   1      32.829  21.833  24.549  1.00  0.00     0.025 A 
ATOM     10  C   UNL A   1      33.169  22.668  27.157  1.00  0.00     0.002 A 
ATOM     11  C   UNL A   1      33.561  21.380  26.776  1.00  0.00     0.014 A 
BRANCH   7  12
ATOM     12  C   UNL A   1      32.442  24.101  23.744  1.00  0.00     0.134 A 
ATOM     13  C   UNL A   1      31.695  26.000  22.858  1.00  0.00     0.128 A 
ATOM     14  C   UNL A   1      32.684  25.493  22.022  1.00  0.00     0.051 A 
ATOM     15  O   UNL A   1      31.581  25.145  23.934  1.00  0.00    -0.457 OA
ATOM     16  C   UNL A   1      33.111  24.262  22.552  1.00  0.00     0.051 A 
BRANCH  13  17
ATOM     17  C   UNL A   1      30.866  27.143  22.657  1.00  0.00     0.067 C 
ATOM     18  C   UNL A   1      30.872  28.162  23.538  1.00  0.00     0.063 C 
BRANCH  18  19
ATOM     19  C   UNL A   1      29.942  29.354  23.384  1.00  0.00     0.100 C 
ATOM     20  N   UNL A   1      29.170  30.343  23.255  1.00  0.00    -0.192 NA
ENDBRANCH  18  19
BRANCH  18  21
ATOM     21  C   UNL A   1      31.800  28.236  24.706  1.00  0.00    -0.007 A 
ATOM     22  C   UNL A   1      31.361  27.893  26.001  1.00  0.00     0.012 A 
ATOM     23  C   UNL A   1      33.121  28.684  24.542  1.00  0.00     0.012 A 
ATOM     24  C   UNL A   1      32.191  28.072  27.109  1.00  0.00     0.040 A 
ATOM     25  C   UNL A   1      33.958  28.840  25.652  1.00  0.00     0.040 A 
ATOM     26  C   UNL A   1      33.480  28.552  26.924  1.00  0.00     0.123 A 
ATOM     27  F   UNL A   1      34.272  28.743  27.987  1.00  0.00    -0.207 F 
ENDBRANCH  18  21
ENDBRANCH  13  17
ENDBRANCH   7  12
ENDBRANCH   3   6
ENDBRANCH   1   2
BRANCH   1  28
ATOM     28  C   UNL A   1      37.895  19.497  24.911  1.00  0.00     0.042 C 
BRANCH  28  29
ATOM     29  C   UNL A   1      39.030  20.093  25.727  1.00  0.00     0.118 C 
BRANCH  29  30
ATOM     30  N   UNL A   1      40.150  19.173  25.894  1.00  0.00    -0.352 N 
ATOM     31  C   UNL A   1      41.493  19.386  26.090  1.00  0.00     0.251 C 
ATOM     32  H   UNL A   1      39.896  18.223  25.859  1.00  0.00     0.163 HD
ATOM     33  O   UNL A   1      42.266  18.438  25.978  1.00  0.00    -0.269 OA
BRANCH  31  34
ATOM     34  C   UNL A   1      42.031  20.725  26.422  1.00  0.00     0.039 A 
ATOM     35  C   UNL A   1      42.313  21.615  25.379  1.00  0.00     0.014 A 
ATOM     36  C   UNL A   1      42.327  21.093  27.736  1.00  0.00     0.014 A 
ATOM     37  C   UNL A   1      42.826  22.885  25.660  1.00  0.00     0.010 A 
ATOM     38  C   UNL A   1      42.740  22.390  28.024  1.00  0.00     0.010 A 
ATOM     39  C   UNL A   1      43.008  23.296  26.990  1.00  0.00    -0.014 A 
BRANCH  39  40
ATOM     40  C   UNL A   1      43.489  24.662  27.318  1.00  0.00     0.031 A 
ATOM     41  C   UNL A   1      42.536  25.694  27.859  1.00  0.00     0.074 A 
ATOM     42  C   UNL A   1      44.768  24.997  27.061  1.00  0.00     0.049 A 
ATOM     43  N   UNL A   1      42.750  26.956  28.137  1.00  0.00    -0.248 NA
ATOM     44  C   UNL A   1      41.149  25.260  28.086  1.00  0.00     0.031 C 
ATOM     45  C   UNL A   1      45.773  24.107  26.477  1.00  0.00     0.029 A 
ATOM     46  N   UNL A   1      45.440  26.179  27.246  1.00  0.00    -0.354 N 
ATOM     47  C   UNL A   1      41.523  27.468  28.544  1.00  0.00     0.074 A 
ATOM     48  C   UNL A   1      40.559  26.396  28.425  1.00  0.00     0.031 C 
ATOM     49  C   UNL A   1      46.939  24.764  26.376  1.00  0.00     0.029 A 
ATOM     50  C   UNL A   1      46.756  26.130  26.855  1.00  0.00     0.049 A 
ATOM     51  H   UNL A   1      45.019  26.985  27.622  1.00  0.00     0.167 HD
ATOM     52  C   UNL A   1      41.233  28.710  29.000  1.00  0.00     0.037 A 
ATOM     53  C   UNL A   1      47.708  27.082  26.878  1.00  0.00     0.037 A 
ATOM     54  C   UNL A   1      42.204  29.761  29.153  1.00  0.00     0.049 A 
ATOM     55  C   UNL A   1      47.368  28.444  27.418  1.00  0.00     0.074 A 
ATOM     56  C   UNL A   1      42.029  31.030  29.677  1.00  0.00     0.029 A 
ATOM     57  N   UNL A   1      43.537  29.663  28.781  1.00  0.00    -0.354 N 
ATOM     58  N   UNL A   1      46.223  28.892  27.872  1.00  0.00    -0.248 NA
ATOM     59  C   UNL A   1      48.458  29.429  27.459  1.00  0.00     0.031 C 
ATOM     60  C   UNL A   1      43.247  31.714  29.583  1.00  0.00     0.029 A 
ATOM     61  C   UNL A   1      44.192  30.855  29.046  1.00  0.00     0.049 A 
ATOM     62  H   UNL A   1      43.956  28.864  28.386  1.00  0.00     0.167 HD
ATOM     63  C   UNL A   1      46.457  30.200  28.272  1.00  0.00     0.074 A 
ATOM     64  C   UNL A   1      47.860  30.466  28.027  1.00  0.00     0.031 C 
ATOM     65  C   UNL A   1      45.589  31.102  28.794  1.00  0.00     0.037 A 
BRANCH  52  66
ATOM     66  C   UNL A   1      39.806  28.995  29.374  1.00  0.00     0.064 A 
ATOM     67  C   UNL A   1      38.877  29.462  28.431  1.00  0.00     0.173 A 
ATOM     68  C   UNL A   1      39.355  28.775  30.684  1.00  0.00     0.173 A 
ATOM     69  F   UNL A   1      39.259  29.701  27.167  1.00  0.00    -0.203 F 
ATOM     70  C   UNL A   1      37.559  29.731  28.794  1.00  0.00     0.198 A 
ATOM     71  C   UNL A   1      38.029  29.015  31.036  1.00  0.00     0.198 A 
ATOM     72  F   UNL A   1      40.200  28.324  31.624  1.00  0.00    -0.203 F 
ATOM     73  F   UNL A   1      36.705  30.230  27.890  1.00  0.00    -0.200 F 
ATOM     74  C   UNL A   1      37.135  29.501  30.094  1.00  0.00     0.200 A 
ATOM     75  F   UNL A   1      37.617  28.781  32.290  1.00  0.00    -0.200 F 
ATOM     76  F   UNL A   1      35.866  29.757  30.441  1.00  0.00    -0.200 F 
ENDBRANCH  52  66
BRANCH  53  77
ATOM     77  C   UNL A   1      49.082  26.765  26.410  1.00  0.00     0.064 A 
ATOM     78  C   UNL A   1      49.450  26.972  25.074  1.00  0.00     0.173 A 
ATOM     79  C   UNL A   1      50.054  26.262  27.286  1.00  0.00     0.173 A 
ATOM     80  F   UNL A   1      48.549  27.435  24.195  1.00  0.00    -0.203 F 
ATOM     81  C   UNL A   1      50.736  26.671  24.627  1.00  0.00     0.198 A 
ATOM     82  C   UNL A   1      51.347  25.987  26.844  1.00  0.00     0.198 A 
ATOM     83  F   UNL A   1      49.754  26.055  28.577  1.00  0.00    -0.203 F 
ATOM     84  F   UNL A   1      51.048  26.840  23.335  1.00  0.00    -0.200 F 
ATOM     85  C   UNL A   1      51.684  26.185  25.514  1.00  0.00     0.200 A 
ATOM     86  F   UNL A   1      52.265  25.533  27.707  1.00  0.00    -0.200 F 
ATOM     87  F   UNL A   1      52.922  25.902  25.085  1.00  0.00    -0.200 F 
ENDBRANCH  53  77
BRANCH  65  88
ATOM     88  C   UNL A   1      46.140  32.449  29.157  1.00  0.00     0.064 A 
ATOM     89  C   UNL A   1      46.684  32.705  30.425  1.00  0.00     0.173 A 
ATOM     90  C   UNL A   1      46.146  33.491  28.217  1.00  0.00     0.173 A 
ATOM     91  F   UNL A   1      46.687  31.746  31.363  1.00  0.00    -0.203 F 
ATOM     92  C   UNL A   1      47.184  33.962  30.748  1.00  0.00     0.198 A 
ATOM     93  C   UNL A   1      46.676  34.738  28.534  1.00  0.00     0.198 A 
ATOM     94  F   UNL A   1      45.645  33.296  26.989  1.00  0.00    -0.203 F 
ATOM     95  F   UNL A   1      47.650  34.199  31.983  1.00  0.00    -0.200 F 
ATOM     96  C   UNL A   1      47.186  34.976  29.801  1.00  0.00     0.200 A 
ATOM     97  F   UNL A   1      46.688  35.713  27.614  1.00  0.00    -0.200 F 
ATOM     98  F   UNL A   1      47.671  36.185  30.114  1.00  0.00    -0.200 F 
ENDBRANCH  65  88
ENDBRANCH  39  40
ENDBRANCH  31  34
ENDBRANCH  29  30
ENDBRANCH  28  29
ENDBRANCH   1  28
TORSDOF 14
ENDMDL
MODEL 2
REMARK VINA RESULT:     -13.0      0.143      1.967
REMARK SMILES N#C/C(=C/c1ccc(-c2cccc(C(=O)NCCCNC(=O)c3ccc(-c4c5nc(c(-c6c(F)c(F)c(F)c(F)c6F)c6ccc([nH]6)c(-c6c(F)c(F)c(F)c(F)c6F)c6nc(c(-c7c(F)c(F)c(F)c(F)c7F)c7ccc4[nH]7)C=C6)C=C5)cc3)c2)o1)c1ccc(F)cc1
REMARK SMILES IDX 17 1 16 2 14 3 15 4 13 6 9 7 10 8 86 9 11 10 12 11 8 12 5 13
REMARK SMILES IDX 6 14 87 15 7 16 4 17 3 18 2 19 1 20 88 21 89 22 94 23 90 24
REMARK SMILES IDX 93 25 91 26 92 27 18 28 19 29 20 30 21 31 22 33 23 34 24 35
REMARK SMILES IDX 85 36 25 37 84 38 26 39 27 40 28 41 78 42 29 43 83 44 77 45
REMARK SMILES IDX 79 46 30 47 82 48 76 49 75 50 31 52 63 53 43 54 62 55 44 56
REMARK SMILES IDX 47 57 61 58 80 59 45 60 46 61 60 63 81 64 48 65 32 66 33 67
REMARK SMILES IDX 41 68 34 69 35 70 39 71 42 72 36 73 37 74 40 75 38 76 64 77
REMARK SMILES IDX 65 78 73 79 66 80 67 81 71 82 74 83 68 84 69 85 72 86 70 87
REMARK SMILES IDX 49 88 50 89 58 90 51 91 52 92 56 93 59 94 53 95 54 96 57 97
REMARK SMILES IDX 55 98
REMARK H PARENT 16 5 20 32 79 51 47 62
REMARK Flexibility Score: inf
ROOT
ATOM      1  C   UNL A   1      36.553  20.320  24.986  1.00  0.00     0.118 C 
ENDROOT
BRANCH   1   2
ATOM      2  N   UNL A   1      35.319  19.541  24.900  1.00  0.00    -0.352 N 
ATOM      3  C   UNL A   1      33.980  19.817  25.085  1.00  0.00     0.251 C 
ATOM      4  O   UNL A   1      33.184  18.889  24.936  1.00  0.00    -0.269 OA
ATOM      5  H   UNL A   1      35.481  18.602  24.651  1.00  0.00     0.163 HD
BRANCH   3   6
ATOM      6  C   UNL A   1      33.459  21.141  25.522  1.00  0.00     0.040 A 
ATOM      7  C   UNL A   1      32.740  23.395  24.972  1.00  0.00     0.018 A 
ATOM      8  C   UNL A   1      32.893  23.775  26.305  1.00  0.00     0.012 A 
ATOM      9  C   UNL A   1      32.879  22.041  24.642  1.00  0.00     0.025 A 
ATOM     10  C   UNL A   1      33.258  22.823  27.261  1.00  0.00     0.002 A 
ATOM     11  C   UNL A   1      33.589  21.523  26.862  1.00  0.00     0.014 A 
BRANCH   7  12
ATOM     12  C   UNL A   1      32.599  24.336  23.869  1.00  0.00     0.134 A 
ATOM     13  C   UNL A   1      31.798  26.203  22.963  1.00  0.00     0.128 A 
ATOM     14  C   UNL A   1      32.905  25.804  22.221  1.00  0.00     0.051 A 
ATOM     15  O   UNL A   1      31.643  25.304  23.997  1.00  0.00    -0.457 OA
ATOM     16  C   UNL A   1      33.372  24.590  22.758  1.00  0.00     0.051 A 
BRANCH  13  17
ATOM     17  C   UNL A   1      30.907  27.287  22.709  1.00  0.00     0.067 C 
ATOM     18  C   UNL A   1      30.838  28.335  23.552  1.00  0.00     0.063 C 
BRANCH  18  19
ATOM     19  C   UNL A   1      29.841  29.463  23.340  1.00  0.00     0.100 C 
ATOM     20  N   UNL A   1      29.014  30.399  23.164  1.00  0.00    -0.192 NA
ENDBRANCH  18  19
BRANCH  18  21
ATOM     21  C   UNL A   1      31.740  28.506  24.730  1.00  0.00    -0.007 A 
ATOM     22  C   UNL A   1      33.057  28.982  24.568  1.00  0.00     0.012 A 
ATOM     23  C   UNL A   1      31.305  28.161  26.020  1.00  0.00     0.012 A 
ATOM     24  C   UNL A   1      33.938  29.032  25.649  1.00  0.00     0.040 A 
ATOM     25  C   UNL A   1      32.183  28.235  27.106  1.00  0.00     0.040 A 
ATOM     26  C   UNL A   1      33.494  28.650  26.908  1.00  0.00     0.123 A 
ATOM     27  F   UNL A   1      34.342  28.678  27.943  1.00  0.00    -0.207 F 
ENDBRANCH  18  21
ENDBRANCH  13  17
ENDBRANCH   7  12
ENDBRANCH   3   6
ENDBRANCH   1   2
BRANCH   1  28
ATOM     28  C   UNL A   1      37.827  19.489  24.965  1.00  0.00     0.042 C 
BRANCH  28  29
ATOM     29  C   UNL A   1      38.992  20.108  25.720  1.00  0.00     0.118 C 
BRANCH  29  30
ATOM     30  N   UNL A   1      40.111  19.186  25.886  1.00  0.00    -0.352 N 
ATOM     31  C   UNL A   1      41.455  19.396  26.081  1.00  0.00     0.251 C 
ATOM     32  H   UNL A   1      39.856  18.236  25.853  1.00  0.00     0.163 HD
ATOM     33  O   UNL A   1      42.226  18.447  25.969  1.00  0.00    -0.269 OA
BRANCH  31  34
ATOM     34  C   UNL A   1      41.995  20.735  26.411  1.00  0.00     0.039 A 
ATOM     35  C   UNL A   1      42.275  21.624  25.366  1.00  0.00     0.014 A 
ATOM     36  C   UNL A   1      42.296  21.103  27.723  1.00  0.00     0.014 A 
ATOM     37  C   UNL A   1      42.790  22.894  25.646  1.00  0.00     0.010 A 
ATOM     38  C   UNL A   1      42.711  22.400  28.010  1.00  0.00     0.010 A 
ATOM     39  C   UNL A   1      42.977  23.306  26.974  1.00  0.00    -0.014 A 
BRANCH  39  40
ATOM     40  C   UNL A   1      43.461  24.671  27.301  1.00  0.00     0.031 A 
ATOM     41  C   UNL A   1      42.507  25.710  27.828  1.00  0.00     0.074 A 
ATOM     42  C   UNL A   1      44.744  24.999  27.054  1.00  0.00     0.049 A 
ATOM     43  N   UNL A   1      42.723  26.972  28.101  1.00  0.00    -0.248 NA
ATOM     44  C   UNL A   1      41.116  25.283  28.043  1.00  0.00     0.031 C 
ATOM     45  C   UNL A   1      45.750  24.102  26.485  1.00  0.00     0.029 A 
ATOM     46  N   UNL A   1      45.419  26.179  27.240  1.00  0.00    -0.354 N 
ATOM     47  C   UNL A   1      41.495  27.491  28.494  1.00  0.00     0.074 A 
ATOM     48  C   UNL A   1      40.528  26.423  28.371  1.00  0.00     0.031 C 
ATOM     49  C   UNL A   1      46.920  24.754  26.392  1.00  0.00     0.029 A 
ATOM     50  C   UNL A   1      46.738  26.123  26.863  1.00  0.00     0.049 A 
ATOM     51  H   UNL A   1      44.997  26.989  27.608  1.00  0.00     0.167 HD
ATOM     52  C   UNL A   1      41.206  28.737  28.941  1.00  0.00     0.037 A 
ATOM     53  C   UNL A   1      47.694  27.070  26.890  1.00  0.00     0.037 A 
ATOM     54  C   UNL A   1      42.180  29.784  29.098  1.00  0.00     0.049 A 
ATOM     55  C   UNL A   1      47.355  28.436  27.421  1.00  0.00     0.074 A 
ATOM     56  C   UNL A   1      42.005  31.056  29.615  1.00  0.00     0.029 A 
ATOM     57  N   UNL A   1      43.516  29.678  28.740  1.00  0.00    -0.354 N 
ATOM     58  N   UNL A   1      46.207  28.892  27.861  1.00  0.00    -0.248 NA
ATOM     59  C   UNL A   1      48.448  29.417  27.468  1.00  0.00     0.031 C 
ATOM     60  C   UNL A   1      43.226  31.734  29.530  1.00  0.00     0.029 A 
ATOM     61  C   UNL A   1      44.173  30.870  29.005  1.00  0.00     0.049 A 
ATOM     62  H   UNL A   1      43.935  28.876  28.353  1.00  0.00     0.167 HD
ATOM     63  C   UNL A   1      46.443  30.201  28.257  1.00  0.00     0.074 A 
ATOM     64  C   UNL A   1      47.850  30.460  28.025  1.00  0.00     0.031 C 
ATOM     65  C   UNL A   1      45.574  31.109  28.766  1.00  0.00     0.037 A 
BRANCH  52  66
ATOM     66  C   UNL A   1      39.777  29.030  29.299  1.00  0.00     0.064 A 
ATOM     67  C   UNL A   1      39.297  28.869  30.608  1.00  0.00     0.173 A 
ATOM     68  C   UNL A   1      38.881  29.502  28.327  1.00  0.00     0.173 A 
ATOM     69  F   UNL A   1      40.108  28.409  31.573  1.00  0.00    -0.203 F 
ATOM     70  C   UNL A   1      37.966  29.136  30.924  1.00  0.00     0.198 A 
ATOM     71  C   UNL A   1      37.560  29.799  28.653  1.00  0.00     0.198 A 
ATOM     72  F   UNL A   1      39.288  29.680  27.062  1.00  0.00    -0.203 F 
ATOM     73  F   UNL A   1      37.518  28.921  32.168  1.00  0.00    -0.200 F 
ATOM     74  C   UNL A   1      37.101  29.607  29.947  1.00  0.00     0.200 A 
ATOM     75  F   UNL A   1      36.728  30.265  27.712  1.00  0.00    -0.200 F 
ATOM     76  F   UNL A   1      35.822  29.866  30.253  1.00  0.00    -0.200 F 
ENDBRANCH  52  66
BRANCH  53  77
ATOM     77  C   UNL A   1      49.071  26.746  26.438  1.00  0.00     0.064 A 
ATOM     78  C   UNL A   1      50.018  26.231  27.334  1.00  0.00     0.173 A 
ATOM     79  C   UNL A   1      49.465  26.932  25.105  1.00  0.00     0.173 A 
ATOM     80  F   UNL A   1      49.692  26.054  28.622  1.00  0.00    -0.203 F 
ATOM     81  C   UNL A   1      51.314  25.931  26.917  1.00  0.00     0.198 A 
ATOM     82  C   UNL A   1      50.753  26.605  24.684  1.00  0.00     0.198 A 
ATOM     83  F   UNL A   1      48.594  27.413  24.207  1.00  0.00    -0.203 F 
ATOM     84  F   UNL A   1      52.210  25.479  27.805  1.00  0.00    -0.200 F 
ATOM     85  C   UNL A   1      51.678  26.113  25.592  1.00  0.00     0.200 A 
ATOM     86  F   UNL A   1      51.097  26.766  23.399  1.00  0.00    -0.200 F 
ATOM     87  F   UNL A   1      52.922  25.817  25.191  1.00  0.00    -0.200 F 
ENDBRANCH  53  77
BRANCH  65  88
ATOM     88  C   UNL A   1      46.127  32.456  29.128  1.00  0.00     0.064 A 
ATOM     89  C   UNL A   1      46.136  33.518  28.211  1.00  0.00     0.173 A 
ATOM     90  C   UNL A   1      46.634  32.694  30.415  1.00  0.00     0.173 A 
ATOM     91  F   UNL A   1      45.677  33.335  26.963  1.00  0.00    -0.203 F 
ATOM     92  C   UNL A   1      46.660  34.759  28.559  1.00  0.00     0.198 A 
ATOM     93  C   UNL A   1      47.129  33.946  30.769  1.00  0.00     0.198 A 
ATOM     94  F   UNL A   1      46.641  31.714  31.330  1.00  0.00    -0.203 F 
ATOM     95  F   UNL A   1      46.707  35.743  27.651  1.00  0.00    -0.200 F 
ATOM     96  C   UNL A   1      47.150  34.974  29.839  1.00  0.00     0.200 A 
ATOM     97  F   UNL A   1      47.590  34.155  32.010  1.00  0.00    -0.200 F 
ATOM     98  F   UNL A   1      47.652  36.170  30.173  1.00  0.00    -0.200 F 
ENDBRANCH  65  88
ENDBRANCH  39  40
ENDBRANCH  31  34
ENDBRANCH  29  30
ENDBRANCH  28  29
ENDBRANCH   1  28
TORSDOF 14
ENDMDL
MODEL 3
REMARK VINA RESULT:     -12.9      5.092     10.825
REMARK SMILES N#C/C(=C/c1ccc(-c2cccc(C(=O)NCCCNC(=O)c3ccc(-c4c5nc(c(-c6c(F)c(F)c(F)c(F)c6F)c6ccc([nH]6)c(-c6c(F)c(F)c(F)c(F)c6F)c6nc(c(-c7c(F)c(F)c(F)c(F)c7F)c7ccc4[nH]7)C=C6)C=C5)cc3)c2)o1)c1ccc(F)cc1
REMARK SMILES IDX 17 1 16 2 14 3 15 4 13 6 9 7 10 8 86 9 11 10 12 11 8 12 5 13
REMARK SMILES IDX 6 14 87 15 7 16 4 17 3 18 2 19 1 20 88 21 89 22 94 23 90 24
REMARK SMILES IDX 93 25 91 26 92 27 18 28 19 29 20 30 21 31 22 33 23 34 24 35
REMARK SMILES IDX 85 36 25 37 84 38 26 39 27 40 28 41 78 42 29 43 83 44 77 45
REMARK SMILES IDX 79 46 30 47 82 48 76 49 75 50 31 52 63 53 43 54 62 55 44 56
REMARK SMILES IDX 47 57 61 58 80 59 45 60 46 61 60 63 81 64 48 65 32 66 33 67
REMARK SMILES IDX 41 68 34 69 35 70 39 71 42 72 36 73 37 74 40 75 38 76 64 77
REMARK SMILES IDX 65 78 73 79 66 80 67 81 71 82 74 83 68 84 69 85 72 86 70 87
REMARK SMILES IDX 49 88 50 89 58 90 51 91 52 92 56 93 59 94 53 95 54 96 57 97
REMARK SMILES IDX 55 98
REMARK H PARENT 16 5 20 32 79 51 47 62
REMARK Flexibility Score: inf
ROOT
ATOM      1  C   UNL A   1      31.056  31.099  25.504  1.00  0.00     0.118 C 
ENDROOT
BRANCH   1   2
ATOM      2  N   UNL A   1      32.272  30.328  25.254  1.00  0.00    -0.352 N 
ATOM      3  C   UNL A   1      32.540  29.023  24.896  1.00  0.00     0.251 C 
ATOM      4  O   UNL A   1      33.722  28.698  24.778  1.00  0.00    -0.269 OA
ATOM      5  H   UNL A   1      33.089  30.865  25.367  1.00  0.00     0.163 HD
BRANCH   3   6
ATOM      6  C   UNL A   1      31.492  27.981  24.717  1.00  0.00     0.040 A 
ATOM      7  C   UNL A   1      30.697  25.721  25.113  1.00  0.00     0.018 A 
ATOM      8  C   UNL A   1      29.783  25.852  24.068  1.00  0.00     0.012 A 
ATOM      9  C   UNL A   1      31.425  26.848  25.513  1.00  0.00     0.025 A 
ATOM     10  C   UNL A   1      29.670  27.072  23.394  1.00  0.00     0.002 A 
ATOM     11  C   UNL A   1      30.557  28.115  23.685  1.00  0.00     0.014 A 
BRANCH   7  12
ATOM     12  C   UNL A   1      31.062  24.446  25.718  1.00  0.00     0.134 A 
ATOM     13  C   UNL A   1      31.710  22.322  25.595  1.00  0.00     0.128 A 
ATOM     14  C   UNL A   1      31.992  22.786  26.876  1.00  0.00     0.051 A 
ATOM     15  O   UNL A   1      31.166  23.370  24.883  1.00  0.00    -0.457 OA
ATOM     16  C   UNL A   1      31.526  24.110  26.970  1.00  0.00     0.051 A 
BRANCH  13  17
ATOM     17  C   UNL A   1      31.860  21.001  25.080  1.00  0.00     0.067 C 
ATOM     18  C   UNL A   1      33.040  20.589  24.574  1.00  0.00     0.063 C 
BRANCH  18  19
ATOM     19  C   UNL A   1      33.201  19.212  23.950  1.00  0.00     0.100 C 
ATOM     20  N   UNL A   1      33.335  18.070  23.433  1.00  0.00    -0.192 NA
ENDBRANCH  18  19
BRANCH  18  21
ATOM     21  C   UNL A   1      34.285  21.413  24.610  1.00  0.00    -0.007 A 
ATOM     22  C   UNL A   1      35.306  21.137  25.542  1.00  0.00     0.012 A 
ATOM     23  C   UNL A   1      34.447  22.503  23.740  1.00  0.00     0.012 A 
ATOM     24  C   UNL A   1      36.416  21.975  25.656  1.00  0.00     0.040 A 
ATOM     25  C   UNL A   1      35.572  23.327  23.840  1.00  0.00     0.040 A 
ATOM     26  C   UNL A   1      36.535  23.067  24.808  1.00  0.00     0.123 A 
ATOM     27  F   UNL A   1      37.589  23.884  24.928  1.00  0.00    -0.207 F 
ENDBRANCH  18  21
ENDBRANCH  13  17
ENDBRANCH   7  12
ENDBRANCH   3   6
ENDBRANCH   1   2
BRANCH   1  28
ATOM     28  C   UNL A   1      31.111  31.984  26.740  1.00  0.00     0.042 C 
BRANCH  28  29
ATOM     29  C   UNL A   1      32.486  32.562  27.035  1.00  0.00     0.118 C 
BRANCH  29  30
ATOM     30  N   UNL A   1      32.432  33.954  27.470  1.00  0.00    -0.352 N 
ATOM     31  C   UNL A   1      33.105  34.637  28.454  1.00  0.00     0.251 C 
ATOM     32  H   UNL A   1      31.793  34.507  26.965  1.00  0.00     0.163 HD
ATOM     33  O   UNL A   1      32.716  35.759  28.769  1.00  0.00    -0.269 OA
BRANCH  31  34
ATOM     34  C   UNL A   1      34.277  34.054  29.147  1.00  0.00     0.039 A 
ATOM     35  C   UNL A   1      34.063  33.068  30.117  1.00  0.00     0.014 A 
ATOM     36  C   UNL A   1      35.574  34.509  28.906  1.00  0.00     0.014 A 
ATOM     37  C   UNL A   1      35.148  32.501  30.792  1.00  0.00     0.010 A 
ATOM     38  C   UNL A   1      36.661  33.875  29.502  1.00  0.00     0.010 A 
ATOM     39  C   UNL A   1      36.461  32.874  30.462  1.00  0.00    -0.014 A 
BRANCH  39  40
ATOM     40  C   UNL A   1      37.634  32.241  31.116  1.00  0.00     0.031 A 
ATOM     41  C   UNL A   1      38.412  31.167  30.406  1.00  0.00     0.074 A 
ATOM     42  C   UNL A   1      37.955  32.581  32.379  1.00  0.00     0.049 A 
ATOM     43  N   UNL A   1      39.418  30.447  30.838  1.00  0.00    -0.248 NA
ATOM     44  C   UNL A   1      37.982  30.830  29.040  1.00  0.00     0.031 C 
ATOM     45  C   UNL A   1      37.239  33.561  33.198  1.00  0.00     0.029 A 
ATOM     46  N   UNL A   1      38.958  32.133  33.201  1.00  0.00    -0.354 N 
ATOM     47  C   UNL A   1      39.719  29.562  29.810  1.00  0.00     0.074 A 
ATOM     48  C   UNL A   1      38.758  29.796  28.756  1.00  0.00     0.031 C 
ATOM     49  C   UNL A   1      37.840  33.660  34.394  1.00  0.00     0.029 A 
ATOM     50  C   UNL A   1      38.961  32.727  34.440  1.00  0.00     0.049 A 
ATOM     51  H   UNL A   1      39.612  31.449  32.929  1.00  0.00     0.167 HD
ATOM     52  C   UNL A   1      40.724  28.654  29.742  1.00  0.00     0.037 A 
ATOM     53  C   UNL A   1      39.776  32.538  35.494  1.00  0.00     0.037 A 
ATOM     54  C   UNL A   1      41.701  28.453  30.778  1.00  0.00     0.049 A 
ATOM     55  C   UNL A   1      40.902  31.548  35.381  1.00  0.00     0.074 A 
ATOM     56  C   UNL A   1      42.802  27.614  30.776  1.00  0.00     0.029 A 
ATOM     57  N   UNL A   1      41.695  29.100  32.005  1.00  0.00    -0.354 N 
ATOM     58  N   UNL A   1      41.224  30.772  34.375  1.00  0.00    -0.248 NA
ATOM     59  C   UNL A   1      41.785  31.416  36.549  1.00  0.00     0.031 C 
ATOM     60  C   UNL A   1      43.438  27.723  32.018  1.00  0.00     0.029 A 
ATOM     61  C   UNL A   1      42.761  28.666  32.776  1.00  0.00     0.049 A 
ATOM     62  H   UNL A   1      41.029  29.769  32.287  1.00  0.00     0.167 HD
ATOM     63  C   UNL A   1      42.356  30.076  34.777  1.00  0.00     0.074 A 
ATOM     64  C   UNL A   1      42.677  30.539  36.112  1.00  0.00     0.031 C 
ATOM     65  C   UNL A   1      43.065  29.137  34.103  1.00  0.00     0.037 A 
BRANCH  52  66
ATOM     66  C   UNL A   1      40.817  27.817  28.498  1.00  0.00     0.064 A 
ATOM     67  C   UNL A   1      40.140  26.592  28.381  1.00  0.00     0.173 A 
ATOM     68  C   UNL A   1      41.571  28.255  27.399  1.00  0.00     0.173 A 
ATOM     69  F   UNL A   1      39.415  26.121  29.407  1.00  0.00    -0.203 F 
ATOM     70  C   UNL A   1      40.244  25.822  27.225  1.00  0.00     0.198 A 
ATOM     71  C   UNL A   1      41.646  27.498  26.232  1.00  0.00     0.198 A 
ATOM     72  F   UNL A   1      42.233  29.421  27.453  1.00  0.00    -0.203 F 
ATOM     73  F   UNL A   1      39.634  24.630  27.160  1.00  0.00    -0.200 F 
ATOM     74  C   UNL A   1      40.991  26.278  26.150  1.00  0.00     0.200 A 
ATOM     75  F   UNL A   1      42.359  27.945  25.189  1.00  0.00    -0.200 F 
ATOM     76  F   UNL A   1      41.086  25.537  25.037  1.00  0.00    -0.200 F 
ENDBRANCH  52  66
BRANCH  53  77
ATOM     77  C   UNL A   1      39.578  33.334  36.733  1.00  0.00     0.064 A 
ATOM     78  C   UNL A   1      38.733  32.876  37.753  1.00  0.00     0.173 A 
ATOM     79  C   UNL A   1      40.235  34.558  36.928  1.00  0.00     0.173 A 
ATOM     80  F   UNL A   1      38.070  31.721  37.603  1.00  0.00    -0.203 F 
ATOM     81  C   UNL A   1      38.538  33.621  38.914  1.00  0.00     0.198 A 
ATOM     82  C   UNL A   1      40.060  35.288  38.101  1.00  0.00     0.198 A 
ATOM     83  F   UNL A   1      41.061  35.035  35.986  1.00  0.00    -0.203 F 
ATOM     84  F   UNL A   1      37.692  33.179  39.855  1.00  0.00    -0.200 F 
ATOM     85  C   UNL A   1      39.206  34.823  39.090  1.00  0.00     0.200 A 
ATOM     86  F   UNL A   1      40.720  36.441  38.275  1.00  0.00    -0.200 F 
ATOM     87  F   UNL A   1      39.023  35.536  40.210  1.00  0.00    -0.200 F 
ENDBRANCH  53  77
BRANCH  65  88
ATOM     88  C   UNL A   1      44.272  28.569  34.791  1.00  0.00     0.064 A 
ATOM     89  C   UNL A   1      44.191  27.411  35.580  1.00  0.00     0.173 A 
ATOM     90  C   UNL A   1      45.527  29.176  34.639  1.00  0.00     0.173 A 
ATOM     91  F   UNL A   1      43.010  26.804  35.767  1.00  0.00    -0.203 F 
ATOM     92  C   UNL A   1      45.318  26.901  36.217  1.00  0.00     0.198 A 
ATOM     93  C   UNL A   1      46.658  28.645  35.254  1.00  0.00     0.198 A 
ATOM     94  F   UNL A   1      45.658  30.281  33.890  1.00  0.00    -0.203 F 
ATOM     95  F   UNL A   1      45.208  25.826  37.009  1.00  0.00    -0.200 F 
ATOM     96  C   UNL A   1      46.551  27.514  36.049  1.00  0.00     0.200 A 
ATOM     97  F   UNL A   1      47.851  29.232  35.080  1.00  0.00    -0.200 F 
ATOM     98  F   UNL A   1      47.635  27.020  36.662  1.00  0.00    -0.200 F 
ENDBRANCH  65  88
ENDBRANCH  39  40
ENDBRANCH  31  34
ENDBRANCH  29  30
ENDBRANCH  28  29
ENDBRANCH   1  28
TORSDOF 14
ENDMDL
