MODEL 1
REMARK VINA RESULT:     -10.6      0.000      0.000
REMARK SMILES [NH3+][C@H](Cc1ccc(F)cc1)[C@H](O)C(=O)NCCCNC(=O)c1ccc(-c2c3nc(c(-c4c(F)c(F)c(F)c(F)c4F)c4ccc([nH]4)c(-c4c(F)c(F)c(F)c(F)c4F)c4nc(c(-c5c(F)c(F)c(F)c(F)c5F)c5ccc2[nH]5)C=C4)C=C3)cc1
REMARK SMILES IDX 16 1 15 2 13 3 14 4 11 6 2 7 1 8 3 12 4 13 5 14 10 15 6 16
REMARK SMILES IDX 9 17 7 18 8 19 12 20 17 22 18 23 19 24 20 25 21 27 22 28
REMARK SMILES IDX 23 29 84 30 24 31 83 32 25 33 26 34 27 35 77 36 28 37 82 38
REMARK SMILES IDX 76 39 78 40 29 41 81 42 75 43 74 44 30 46 62 47 42 48 61 49
REMARK SMILES IDX 43 50 46 51 60 52 79 53 44 54 45 55 59 57 80 58 47 59 31 60
REMARK SMILES IDX 32 61 40 62 33 63 34 64 38 65 41 66 35 67 36 68 39 69 37 70
REMARK SMILES IDX 63 71 64 72 72 73 65 74 66 75 70 76 73 77 67 78 68 79 71 80
REMARK SMILES IDX 69 81 48 82 49 83 57 84 50 85 51 86 55 87 58 88 52 89 53 90
REMARK SMILES IDX 56 91 54 92
REMARK H PARENT 15 5 1 9 1 10 1 11 12 21 19 26 78 45 46 56
REMARK Flexibility Score: inf
ROOT
ATOM      1  C   UNL A   1      33.949  35.021  29.017  1.00  0.00     0.117 C 
ENDROOT
BRANCH   1   2
ATOM      2  N   UNL A   1      32.961  35.146  30.051  1.00  0.00    -0.354 N 
ATOM      3  C   UNL A   1      33.164  35.268  31.397  1.00  0.00     0.255 C 
ATOM      4  O   UNL A   1      32.157  35.440  32.091  1.00  0.00    -0.272 OA
ATOM      5  H   UNL A   1      32.022  35.145  29.755  1.00  0.00     0.163 HD
BRANCH   3   6
ATOM      6  C   UNL A   1      34.574  35.071  32.038  1.00  0.00     0.262 C 
BRANCH   6   7
ATOM      7  C   UNL A   1      34.917  33.713  32.746  1.00  0.00     0.224 C 
BRANCH   7   8
ATOM      8  N   UNL A   1      34.755  33.807  34.214  1.00  0.00    -0.352 N 
ATOM      9  H   UNL A   1      33.876  34.278  34.430  1.00  0.00     0.344 HD
ATOM     10  H   UNL A   1      35.531  34.338  34.609  1.00  0.00     0.344 HD
ATOM     11  H   UNL A   1      34.745  32.869  34.615  1.00  0.00     0.344 HD
ENDBRANCH   7   8
BRANCH   7  12
ATOM     12  C   UNL A   1      36.238  32.936  32.420  1.00  0.00     0.103 C 
BRANCH  12  13
ATOM     13  C   UNL A   1      37.204  33.489  31.388  1.00  0.00    -0.042 A 
ATOM     14  C   UNL A   1      38.231  34.385  31.733  1.00  0.00     0.007 A 
ATOM     15  C   UNL A   1      37.119  33.070  30.053  1.00  0.00     0.007 A 
ATOM     16  C   UNL A   1      39.120  34.880  30.778  1.00  0.00     0.039 A 
ATOM     17  C   UNL A   1      38.027  33.541  29.099  1.00  0.00     0.039 A 
ATOM     18  C   UNL A   1      39.012  34.448  29.468  1.00  0.00     0.123 A 
ATOM     19  F   UNL A   1      39.875  34.904  28.550  1.00  0.00    -0.207 F 
ENDBRANCH  12  13
ENDBRANCH   7  12
ENDBRANCH   6   7
BRANCH   6  20
ATOM     20  O   UNL A   1      34.955  36.193  32.824  1.00  0.00    -0.378 OA
ATOM     21  H   UNL A   1      35.627  35.923  33.468  1.00  0.00     0.211 HD
ENDBRANCH   6  20
ENDBRANCH   3   6
ENDBRANCH   1   2
BRANCH   1  22
ATOM     22  C   UNL A   1      33.810  33.778  28.165  1.00  0.00     0.042 C 
BRANCH  22  23
ATOM     23  C   UNL A   1      34.359  32.536  28.834  1.00  0.00     0.118 C 
BRANCH  23  24
ATOM     24  N   UNL A   1      33.865  31.313  28.212  1.00  0.00    -0.352 N 
ATOM     25  C   UNL A   1      34.519  30.168  27.819  1.00  0.00     0.251 C 
ATOM     26  H   UNL A   1      32.895  31.305  28.044  1.00  0.00     0.163 HD
ATOM     27  O   UNL A   1      33.936  29.361  27.104  1.00  0.00    -0.269 OA
BRANCH  25  28
ATOM     28  C   UNL A   1      35.917  29.914  28.230  1.00  0.00     0.039 A 
ATOM     29  C   UNL A   1      36.173  29.406  29.508  1.00  0.00     0.014 A 
ATOM     30  C   UNL A   1      36.983  30.197  27.377  1.00  0.00     0.014 A 
ATOM     31  C   UNL A   1      37.485  29.116  29.890  1.00  0.00     0.010 A 
ATOM     32  C   UNL A   1      38.266  29.779  27.701  1.00  0.00     0.010 A 
ATOM     33  C   UNL A   1      38.538  29.256  28.971  1.00  0.00    -0.014 A 
BRANCH  33  34
ATOM     34  C   UNL A   1      39.934  28.888  29.316  1.00  0.00     0.031 A 
ATOM     35  C   UNL A   1      40.776  29.815  30.151  1.00  0.00     0.074 A 
ATOM     36  C   UNL A   1      40.470  27.760  28.811  1.00  0.00     0.049 A 
ATOM     37  N   UNL A   1      42.036  29.709  30.490  1.00  0.00    -0.248 NA
ATOM     38  C   UNL A   1      40.131  31.046  30.636  1.00  0.00     0.031 C 
ATOM     39  C   UNL A   1      39.778  26.818  27.932  1.00  0.00     0.029 A 
ATOM     40  N   UNL A   1      41.723  27.220  28.955  1.00  0.00    -0.354 N 
ATOM     41  C   UNL A   1      42.334  30.866  31.198  1.00  0.00     0.074 A 
ATOM     42  C   UNL A   1      41.149  31.691  31.184  1.00  0.00     0.031 C 
ATOM     43  C   UNL A   1      40.599  25.797  27.647  1.00  0.00     0.029 A 
ATOM     44  C   UNL A   1      41.893  26.036  28.283  1.00  0.00     0.049 A 
ATOM     45  H   UNL A   1      42.433  27.643  29.491  1.00  0.00     0.167 HD
ATOM     46  C   UNL A   1      43.485  31.195  31.830  1.00  0.00     0.037 A 
ATOM     47  C   UNL A   1      42.968  25.231  28.184  1.00  0.00     0.037 A 
ATOM     48  C   UNL A   1      44.644  30.345  31.878  1.00  0.00     0.049 A 
ATOM     49  C   UNL A   1      44.229  25.603  28.912  1.00  0.00     0.074 A 
ATOM     50  C   UNL A   1      45.825  30.540  32.571  1.00  0.00     0.029 A 
ATOM     51  N   UNL A   1      44.771  29.140  31.200  1.00  0.00    -0.354 N 
ATOM     52  N   UNL A   1      44.475  26.659  29.648  1.00  0.00    -0.248 NA
ATOM     53  C   UNL A   1      45.359  24.670  28.803  1.00  0.00     0.031 C 
ATOM     54  C   UNL A   1      46.690  29.487  32.262  1.00  0.00     0.029 A 
ATOM     55  C   UNL A   1      46.025  28.599  31.430  1.00  0.00     0.049 A 
ATOM     56  H   UNL A   1      44.072  28.731  30.640  1.00  0.00     0.167 HD
ATOM     57  C   UNL A   1      45.778  26.515  30.101  1.00  0.00     0.074 A 
ATOM     58  C   UNL A   1      46.267  25.259  29.570  1.00  0.00     0.031 C 
ATOM     59  C   UNL A   1      46.502  27.351  30.886  1.00  0.00     0.037 A 
BRANCH  46  60
ATOM     60  C   UNL A   1      43.549  32.525  32.526  1.00  0.00     0.064 A 
ATOM     61  C   UNL A   1      44.041  33.655  31.854  1.00  0.00     0.173 A 
ATOM     62  C   UNL A   1      43.167  32.679  33.868  1.00  0.00     0.173 A 
ATOM     63  F   UNL A   1      44.424  33.565  30.571  1.00  0.00    -0.203 F 
ATOM     64  C   UNL A   1      44.154  34.883  32.499  1.00  0.00     0.198 A 
ATOM     65  C   UNL A   1      43.247  33.918  34.500  1.00  0.00     0.198 A 
ATOM     66  F   UNL A   1      42.679  31.636  34.556  1.00  0.00    -0.203 F 
ATOM     67  F   UNL A   1      44.655  35.939  31.843  1.00  0.00    -0.200 F 
ATOM     68  C   UNL A   1      43.750  35.015  33.819  1.00  0.00     0.200 A 
ATOM     69  F   UNL A   1      42.826  34.051  35.765  1.00  0.00    -0.200 F 
ATOM     70  F   UNL A   1      43.839  36.204  34.433  1.00  0.00    -0.200 F 
ENDBRANCH  46  60
BRANCH  47  71
ATOM     71  C   UNL A   1      42.858  23.979  27.394  1.00  0.00     0.064 A 
ATOM     72  C   UNL A   1      42.480  22.768  27.996  1.00  0.00     0.173 A 
ATOM     73  C   UNL A   1      43.217  23.949  26.040  1.00  0.00     0.173 A 
ATOM     74  F   UNL A   1      42.139  22.742  29.293  1.00  0.00    -0.203 F 
ATOM     75  C   UNL A   1      42.499  21.572  27.282  1.00  0.00     0.198 A 
ATOM     76  C   UNL A   1      43.210  22.757  25.320  1.00  0.00     0.198 A 
ATOM     77  F   UNL A   1      43.570  25.084  25.417  1.00  0.00    -0.203 F 
ATOM     78  F   UNL A   1      42.185  20.423  27.895  1.00  0.00    -0.200 F 
ATOM     79  C   UNL A   1      42.864  21.568  25.944  1.00  0.00     0.200 A 
ATOM     80  F   UNL A   1      43.548  22.758  24.023  1.00  0.00    -0.200 F 
ATOM     81  F   UNL A   1      42.889  20.416  25.259  1.00  0.00    -0.200 F 
ENDBRANCH  47  71
BRANCH  59  82
ATOM     82  C   UNL A   1      47.904  26.943  31.234  1.00  0.00     0.064 A 
ATOM     83  C   UNL A   1      48.986  27.372  30.449  1.00  0.00     0.173 A 
ATOM     84  C   UNL A   1      48.168  26.054  32.286  1.00  0.00     0.173 A 
ATOM     85  F   UNL A   1      48.785  28.214  29.425  1.00  0.00    -0.203 F 
ATOM     86  C   UNL A   1      50.276  26.908  30.690  1.00  0.00     0.198 A 
ATOM     87  C   UNL A   1      49.466  25.618  32.545  1.00  0.00     0.198 A 
ATOM     88  F   UNL A   1      47.171  25.622  33.073  1.00  0.00    -0.203 F 
ATOM     89  F   UNL A   1      51.284  27.297  29.897  1.00  0.00    -0.200 F 
ATOM     90  C   UNL A   1      50.514  26.035  31.739  1.00  0.00     0.200 A 
ATOM     91  F   UNL A   1      49.700  24.792  33.574  1.00  0.00    -0.200 F 
ATOM     92  F   UNL A   1      51.758  25.594  31.975  1.00  0.00    -0.200 F 
ENDBRANCH  59  82
ENDBRANCH  33  34
ENDBRANCH  25  28
ENDBRANCH  23  24
ENDBRANCH  22  23
ENDBRANCH   1  22
TORSDOF 15
ENDMDL
MODEL 2
REMARK VINA RESULT:     -10.5      1.398      1.672
REMARK SMILES [NH3+][C@H](Cc1ccc(F)cc1)[C@H](O)C(=O)NCCCNC(=O)c1ccc(-c2c3nc(c(-c4c(F)c(F)c(F)c(F)c4F)c4ccc([nH]4)c(-c4c(F)c(F)c(F)c(F)c4F)c4nc(c(-c5c(F)c(F)c(F)c(F)c5F)c5ccc2[nH]5)C=C4)C=C3)cc1
REMARK SMILES IDX 16 1 15 2 13 3 14 4 11 6 2 7 1 8 3 12 4 13 5 14 10 15 6 16
REMARK SMILES IDX 9 17 7 18 8 19 12 20 17 22 18 23 19 24 20 25 21 27 22 28
REMARK SMILES IDX 23 29 84 30 24 31 83 32 25 33 26 34 27 35 77 36 28 37 82 38
REMARK SMILES IDX 76 39 78 40 29 41 81 42 75 43 74 44 30 46 62 47 42 48 61 49
REMARK SMILES IDX 43 50 46 51 60 52 79 53 44 54 45 55 59 57 80 58 47 59 31 60
REMARK SMILES IDX 32 61 40 62 33 63 34 64 38 65 41 66 35 67 36 68 39 69 37 70
REMARK SMILES IDX 63 71 64 72 72 73 65 74 66 75 70 76 73 77 67 78 68 79 71 80
REMARK SMILES IDX 69 81 48 82 49 83 57 84 50 85 51 86 55 87 58 88 52 89 53 90
REMARK SMILES IDX 56 91 54 92
REMARK H PARENT 15 5 1 9 1 10 1 11 12 21 19 26 78 45 46 56
REMARK Flexibility Score: inf
ROOT
ATOM      1  C   UNL A   1      33.817  35.210  29.067  1.00  0.00     0.117 C 
ENDROOT
BRANCH   1   2
ATOM      2  N   UNL A   1      32.903  35.812  29.997  1.00  0.00    -0.354 N 
ATOM      3  C   UNL A   1      33.097  36.053  31.328  1.00  0.00     0.255 C 
ATOM      4  O   UNL A   1      32.193  36.655  31.914  1.00  0.00    -0.272 OA
ATOM      5  H   UNL A   1      32.031  36.084  29.632  1.00  0.00     0.163 HD
BRANCH   3   6
ATOM      6  C   UNL A   1      34.333  35.486  32.096  1.00  0.00     0.262 C 
BRANCH   6   7
ATOM      7  C   UNL A   1      34.348  33.979  32.529  1.00  0.00     0.224 C 
BRANCH   7   8
ATOM      8  N   UNL A   1      34.403  33.833  34.001  1.00  0.00    -0.352 N 
ATOM      9  H   UNL A   1      34.639  32.870  34.239  1.00  0.00     0.344 HD
ATOM     10  H   UNL A   1      33.494  34.069  34.400  1.00  0.00     0.344 HD
ATOM     11  H   UNL A   1      35.114  34.460  34.378  1.00  0.00     0.344 HD
ENDBRANCH   7   8
BRANCH   7  12
ATOM     12  C   UNL A   1      35.333  32.952  31.871  1.00  0.00     0.103 C 
BRANCH  12  13
ATOM     13  C   UNL A   1      36.627  33.443  31.246  1.00  0.00    -0.042 A 
ATOM     14  C   UNL A   1      37.596  34.140  31.989  1.00  0.00     0.007 A 
ATOM     15  C   UNL A   1      36.907  33.160  29.903  1.00  0.00     0.007 A 
ATOM     16  C   UNL A   1      38.787  34.578  31.407  1.00  0.00     0.039 A 
ATOM     17  C   UNL A   1      38.113  33.571  29.324  1.00  0.00     0.039 A 
ATOM     18  C   UNL A   1      39.036  34.283  30.078  1.00  0.00     0.123 A 
ATOM     19  F   UNL A   1      40.186  34.683  29.519  1.00  0.00    -0.207 F 
ENDBRANCH  12  13
ENDBRANCH   7  12
ENDBRANCH   6   7
BRANCH   6  20
ATOM     20  O   UNL A   1      34.733  36.348  33.154  1.00  0.00    -0.378 OA
ATOM     21  H   UNL A   1      34.214  37.166  33.119  1.00  0.00     0.211 HD
ENDBRANCH   6  20
ENDBRANCH   3   6
ENDBRANCH   1   2
BRANCH   1  22
ATOM     22  C   UNL A   1      33.277  33.983  28.364  1.00  0.00     0.042 C 
BRANCH  22  23
ATOM     23  C   UNL A   1      34.348  32.961  28.050  1.00  0.00     0.118 C 
BRANCH  23  24
ATOM     24  N   UNL A   1      33.785  31.711  27.549  1.00  0.00    -0.352 N 
ATOM     25  C   UNL A   1      34.336  30.458  27.417  1.00  0.00     0.251 C 
ATOM     26  H   UNL A   1      32.848  31.777  27.253  1.00  0.00     0.163 HD
ATOM     27  O   UNL A   1      33.748  29.612  26.753  1.00  0.00    -0.269 OA
BRANCH  25  28
ATOM     28  C   UNL A   1      35.634  30.130  28.046  1.00  0.00     0.039 A 
ATOM     29  C   UNL A   1      35.659  29.688  29.374  1.00  0.00     0.014 A 
ATOM     30  C   UNL A   1      36.832  30.278  27.349  1.00  0.00     0.014 A 
ATOM     31  C   UNL A   1      36.873  29.328  29.963  1.00  0.00     0.010 A 
ATOM     32  C   UNL A   1      38.016  29.789  27.884  1.00  0.00     0.010 A 
ATOM     33  C   UNL A   1      38.057  29.331  29.206  1.00  0.00    -0.014 A 
BRANCH  33  34
ATOM     34  C   UNL A   1      39.352  28.885  29.777  1.00  0.00     0.031 A 
ATOM     35  C   UNL A   1      39.960  29.622  30.941  1.00  0.00     0.074 A 
ATOM     36  C   UNL A   1      40.022  27.870  29.197  1.00  0.00     0.049 A 
ATOM     37  N   UNL A   1      41.116  29.436  31.525  1.00  0.00    -0.248 NA
ATOM     38  C   UNL A   1      39.185  30.743  31.497  1.00  0.00     0.031 C 
ATOM     39  C   UNL A   1      39.571  27.125  28.021  1.00  0.00     0.029 A 
ATOM     40  N   UNL A   1      41.228  27.297  29.510  1.00  0.00    -0.354 N 
ATOM     41  C   UNL A   1      41.214  30.429  32.491  1.00  0.00     0.074 A 
ATOM     42  C   UNL A   1      40.037  31.257  32.372  1.00  0.00     0.031 C 
ATOM     43  C   UNL A   1      40.466  26.170  27.736  1.00  0.00     0.029 A 
ATOM     44  C   UNL A   1      41.579  26.263  28.678  1.00  0.00     0.049 A 
ATOM     45  H   UNL A   1      41.789  27.598  30.261  1.00  0.00     0.167 HD
ATOM     46  C   UNL A   1      42.186  30.615  33.414  1.00  0.00     0.037 A 
ATOM     47  C   UNL A   1      42.674  25.480  28.669  1.00  0.00     0.037 A 
ATOM     48  C   UNL A   1      43.332  29.758  33.555  1.00  0.00     0.049 A 
ATOM     49  C   UNL A   1      43.731  25.687  29.717  1.00  0.00     0.074 A 
ATOM     50  C   UNL A   1      44.323  29.800  34.518  1.00  0.00     0.029 A 
ATOM     51  N   UNL A   1      43.643  28.706  32.704  1.00  0.00    -0.354 N 
ATOM     52  N   UNL A   1      43.775  26.577  30.678  1.00  0.00    -0.248 NA
ATOM     53  C   UNL A   1      44.886  24.779  29.685  1.00  0.00     0.031 C 
ATOM     54  C   UNL A   1      45.268  28.815  34.213  1.00  0.00     0.029 A 
ATOM     55  C   UNL A   1      44.832  28.115  33.099  1.00  0.00     0.049 A 
ATOM     56  H   UNL A   1      43.099  28.422  31.934  1.00  0.00     0.167 HD
ATOM     57  C   UNL A   1      44.950  26.331  31.374  1.00  0.00     0.074 A 
ATOM     58  C   UNL A   1      45.583  25.196  30.734  1.00  0.00     0.031 C 
ATOM     59  C   UNL A   1      45.456  26.990  32.446  1.00  0.00     0.037 A 
BRANCH  46  60
ATOM     60  C   UNL A   1      42.053  31.784  34.349  1.00  0.00     0.064 A 
ATOM     61  C   UNL A   1      42.666  33.009  34.045  1.00  0.00     0.173 A 
ATOM     62  C   UNL A   1      41.359  31.686  35.565  1.00  0.00     0.173 A 
ATOM     63  F   UNL A   1      43.346  33.159  32.898  1.00  0.00    -0.203 F 
ATOM     64  C   UNL A   1      42.595  34.087  34.924  1.00  0.00     0.198 A 
ATOM     65  C   UNL A   1      41.259  32.777  36.425  1.00  0.00     0.198 A 
ATOM     66  F   UNL A   1      40.744  30.542  35.902  1.00  0.00    -0.203 F 
ATOM     67  F   UNL A   1      43.214  35.236  34.623  1.00  0.00    -0.200 F 
ATOM     68  C   UNL A   1      41.885  33.972  36.109  1.00  0.00     0.200 A 
ATOM     69  F   UNL A   1      40.545  32.673  37.555  1.00  0.00    -0.200 F 
ATOM     70  F   UNL A   1      41.799  35.017  36.944  1.00  0.00    -0.200 F 
ENDBRANCH  46  60
BRANCH  47  71
ATOM     71  C   UNL A   1      42.781  24.406  27.649  1.00  0.00     0.064 A 
ATOM     72  C   UNL A   1      42.397  23.087  27.936  1.00  0.00     0.173 A 
ATOM     73  C   UNL A   1      43.354  24.659  26.395  1.00  0.00     0.173 A 
ATOM     74  F   UNL A   1      41.854  22.791  29.126  1.00  0.00    -0.203 F 
ATOM     75  C   UNL A   1      42.613  22.058  27.022  1.00  0.00     0.198 A 
ATOM     76  C   UNL A   1      43.547  23.635  25.472  1.00  0.00     0.198 A 
ATOM     77  F   UNL A   1      43.722  25.907  26.069  1.00  0.00    -0.203 F 
ATOM     78  F   UNL A   1      42.286  20.800  27.343  1.00  0.00    -0.200 F 
ATOM     79  C   UNL A   1      43.189  22.333  25.790  1.00  0.00     0.200 A 
ATOM     80  F   UNL A   1      44.087  23.906  24.276  1.00  0.00    -0.200 F 
ATOM     81  F   UNL A   1      43.404  21.342  24.914  1.00  0.00    -0.200 F 
ENDBRANCH  47  71
BRANCH  59  82
ATOM     82  C   UNL A   1      46.758  26.505  33.013  1.00  0.00     0.064 A 
ATOM     83  C   UNL A   1      47.976  27.021  32.542  1.00  0.00     0.173 A 
ATOM     84  C   UNL A   1      46.806  25.464  33.952  1.00  0.00     0.173 A 
ATOM     85  F   UNL A   1      47.984  28.010  31.636  1.00  0.00    -0.203 F 
ATOM     86  C   UNL A   1      49.191  26.498  32.974  1.00  0.00     0.198 A 
ATOM     87  C   UNL A   1      48.025  24.967  34.406  1.00  0.00     0.198 A 
ATOM     88  F   UNL A   1      45.671  24.943  34.441  1.00  0.00    -0.203 F 
ATOM     89  F   UNL A   1      50.339  26.978  32.475  1.00  0.00    -0.200 F 
ATOM     90  C   UNL A   1      49.214  25.475  33.907  1.00  0.00     0.200 A 
ATOM     91  F   UNL A   1      48.047  23.992  35.327  1.00  0.00    -0.200 F 
ATOM     92  F   UNL A   1      50.386  24.977  34.328  1.00  0.00    -0.200 F 
ENDBRANCH  59  82
ENDBRANCH  33  34
ENDBRANCH  25  28
ENDBRANCH  23  24
ENDBRANCH  22  23
ENDBRANCH   1  22
TORSDOF 15
ENDMDL
MODEL 3
REMARK VINA RESULT:     -10.3      0.474      7.535
REMARK SMILES [NH3+][C@H](Cc1ccc(F)cc1)[C@H](O)C(=O)NCCCNC(=O)c1ccc(-c2c3nc(c(-c4c(F)c(F)c(F)c(F)c4F)c4ccc([nH]4)c(-c4c(F)c(F)c(F)c(F)c4F)c4nc(c(-c5c(F)c(F)c(F)c(F)c5F)c5ccc2[nH]5)C=C4)C=C3)cc1
REMARK SMILES IDX 16 1 15 2 13 3 14 4 11 6 2 7 1 8 3 12 4 13 5 14 10 15 6 16
REMARK SMILES IDX 9 17 7 18 8 19 12 20 17 22 18 23 19 24 20 25 21 27 22 28
REMARK SMILES IDX 23 29 84 30 24 31 83 32 25 33 26 34 27 35 77 36 28 37 82 38
REMARK SMILES IDX 76 39 78 40 29 41 81 42 75 43 74 44 30 46 62 47 42 48 61 49
REMARK SMILES IDX 43 50 46 51 60 52 79 53 44 54 45 55 59 57 80 58 47 59 31 60
REMARK SMILES IDX 32 61 40 62 33 63 34 64 38 65 41 66 35 67 36 68 39 69 37 70
REMARK SMILES IDX 63 71 64 72 72 73 65 74 66 75 70 76 73 77 67 78 68 79 71 80
REMARK SMILES IDX 69 81 48 82 49 83 57 84 50 85 51 86 55 87 58 88 52 89 53 90
REMARK SMILES IDX 56 91 54 92
REMARK H PARENT 15 5 1 9 1 10 1 11 12 21 19 26 78 45 46 56
REMARK Flexibility Score: inf
ROOT
ATOM      1  C   UNL A   1      33.749  34.864  28.882  1.00  0.00     0.117 C 
ENDROOT
BRANCH   1   2
ATOM      2  N   UNL A   1      32.824  35.169  29.938  1.00  0.00    -0.354 N 
ATOM      3  C   UNL A   1      33.091  35.333  31.267  1.00  0.00     0.255 C 
ATOM      4  O   UNL A   1      32.141  35.670  31.981  1.00  0.00    -0.272 OA
ATOM      5  H   UNL A   1      31.882  35.273  29.671  1.00  0.00     0.163 HD
BRANCH   3   6
ATOM      6  C   UNL A   1      34.487  34.989  31.876  1.00  0.00     0.262 C 
BRANCH   6   7
ATOM      7  C   UNL A   1      34.729  33.571  32.501  1.00  0.00     0.224 C 
BRANCH   7   8
ATOM      8  N   UNL A   1      34.514  33.577  33.966  1.00  0.00    -0.352 N 
ATOM      9  H   UNL A   1      34.025  34.431  34.235  1.00  0.00     0.344 HD
ATOM     10  H   UNL A   1      35.416  33.537  34.442  1.00  0.00     0.344 HD
ATOM     11  H   UNL A   1      33.953  32.767  34.231  1.00  0.00     0.344 HD
ENDBRANCH   7   8
BRANCH   7  12
ATOM     12  C   UNL A   1      36.017  32.742  32.171  1.00  0.00     0.103 C 
BRANCH  12  13
ATOM     13  C   UNL A   1      37.101  33.351  31.300  1.00  0.00    -0.042 A 
ATOM     14  C   UNL A   1      38.076  34.221  31.821  1.00  0.00     0.007 A 
ATOM     15  C   UNL A   1      37.184  33.010  29.943  1.00  0.00     0.007 A 
ATOM     16  C   UNL A   1      39.075  34.767  31.013  1.00  0.00     0.039 A 
ATOM     17  C   UNL A   1      38.202  33.531  29.137  1.00  0.00     0.039 A 
ATOM     18  C   UNL A   1      39.130  34.411  29.677  1.00  0.00     0.123 A 
ATOM     19  F   UNL A   1      40.100  34.915  28.901  1.00  0.00    -0.207 F 
ENDBRANCH  12  13
ENDBRANCH   7  12
ENDBRANCH   6   7
BRANCH   6  20
ATOM     20  O   UNL A   1      34.965  36.031  32.717  1.00  0.00    -0.378 OA
ATOM     21  H   UNL A   1      34.470  36.026  33.551  1.00  0.00     0.211 HD
ENDBRANCH   6  20
ENDBRANCH   3   6
ENDBRANCH   1   2
BRANCH   1  22
ATOM     22  C   UNL A   1      33.475  33.558  28.168  1.00  0.00     0.042 C 
BRANCH  22  23
ATOM     23  C   UNL A   1      34.395  32.439  28.605  1.00  0.00     0.118 C 
BRANCH  23  24
ATOM     24  N   UNL A   1      33.924  31.133  28.156  1.00  0.00    -0.352 N 
ATOM     25  C   UNL A   1      34.601  29.963  27.906  1.00  0.00     0.251 C 
ATOM     26  H   UNL A   1      32.952  31.081  28.007  1.00  0.00     0.163 HD
ATOM     27  O   UNL A   1      34.030  29.055  27.312  1.00  0.00    -0.269 OA
BRANCH  25  28
ATOM     28  C   UNL A   1      36.011  29.797  28.324  1.00  0.00     0.039 A 
ATOM     29  C   UNL A   1      36.293  29.356  29.621  1.00  0.00     0.014 A 
ATOM     30  C   UNL A   1      37.061  30.098  27.457  1.00  0.00     0.014 A 
ATOM     31  C   UNL A   1      37.618  29.149  30.011  1.00  0.00     0.010 A 
ATOM     32  C   UNL A   1      38.363  29.759  27.795  1.00  0.00     0.010 A 
ATOM     33  C   UNL A   1      38.662  29.304  29.085  1.00  0.00    -0.014 A 
BRANCH  33  34
ATOM     34  C   UNL A   1      40.075  29.022  29.442  1.00  0.00     0.031 A 
ATOM     35  C   UNL A   1      40.756  27.787  28.915  1.00  0.00     0.074 A 
ATOM     36  C   UNL A   1      40.718  29.831  30.306  1.00  0.00     0.049 A 
ATOM     37  N   UNL A   1      41.953  27.327  29.177  1.00  0.00    -0.248 NA
ATOM     38  C   UNL A   1      39.976  26.933  28.005  1.00  0.00     0.031 C 
ATOM     39  C   UNL A   1      40.141  31.016  30.940  1.00  0.00     0.029 A 
ATOM     40  N   UNL A   1      41.993  29.773  30.809  1.00  0.00    -0.354 N 
ATOM     41  C   UNL A   1      42.053  26.124  28.489  1.00  0.00     0.074 A 
ATOM     42  C   UNL A   1      40.778  25.889  27.855  1.00  0.00     0.031 C 
ATOM     43  C   UNL A   1      41.069  31.596  31.715  1.00  0.00     0.029 A 
ATOM     44  C   UNL A   1      42.292  30.798  31.671  1.00  0.00     0.049 A 
ATOM     45  H   UNL A   1      42.634  29.063  30.572  1.00  0.00     0.167 HD
ATOM     46  C   UNL A   1      43.124  25.305  28.374  1.00  0.00     0.037 A 
ATOM     47  C   UNL A   1      43.420  31.066  32.356  1.00  0.00     0.037 A 
ATOM     48  C   UNL A   1      44.405  25.572  28.972  1.00  0.00     0.049 A 
ATOM     49  C   UNL A   1      44.606  30.157  32.195  1.00  0.00     0.074 A 
ATOM     50  C   UNL A   1      45.582  24.858  28.836  1.00  0.00     0.029 A 
ATOM     51  N   UNL A   1      44.675  26.634  29.824  1.00  0.00    -0.354 N 
ATOM     52  N   UNL A   1      44.717  29.067  31.477  1.00  0.00    -0.248 NA
ATOM     53  C   UNL A   1      45.825  30.518  32.934  1.00  0.00     0.031 C 
ATOM     54  C   UNL A   1      46.546  25.450  29.657  1.00  0.00     0.029 A 
ATOM     55  C   UNL A   1      45.991  26.573  30.252  1.00  0.00     0.049 A 
ATOM     56  H   UNL A   1      44.027  27.328  30.085  1.00  0.00     0.167 HD
ATOM     57  C   UNL A   1      46.017  28.617  31.662  1.00  0.00     0.074 A 
ATOM     58  C   UNL A   1      46.662  29.563  32.550  1.00  0.00     0.031 C 
ATOM     59  C   UNL A   1      46.618  27.518  31.144  1.00  0.00     0.037 A 
BRANCH  46  60
ATOM     60  C   UNL A   1      42.964  24.048  27.567  1.00  0.00     0.064 A 
ATOM     61  C   UNL A   1      42.587  22.848  28.191  1.00  0.00     0.173 A 
ATOM     62  C   UNL A   1      43.223  24.013  26.188  1.00  0.00     0.173 A 
ATOM     63  F   UNL A   1      42.331  22.822  29.507  1.00  0.00    -0.203 F 
ATOM     64  C   UNL A   1      42.483  21.663  27.467  1.00  0.00     0.198 A 
ATOM     65  C   UNL A   1      43.082  22.833  25.460  1.00  0.00     0.198 A 
ATOM     66  F   UNL A   1      43.575  25.132  25.538  1.00  0.00    -0.203 F 
ATOM     67  F   UNL A   1      42.150  20.526  28.092  1.00  0.00    -0.200 F 
ATOM     68  C   UNL A   1      42.722  21.659  26.102  1.00  0.00     0.200 A 
ATOM     69  F   UNL A   1      43.283  22.838  24.135  1.00  0.00    -0.200 F 
ATOM     70  F   UNL A   1      42.600  20.521  25.402  1.00  0.00    -0.200 F 
ENDBRANCH  46  60
BRANCH  47  71
ATOM     71  C   UNL A   1      43.470  32.277  33.213  1.00  0.00     0.064 A 
ATOM     72  C   UNL A   1      43.028  32.248  34.544  1.00  0.00     0.173 A 
ATOM     73  C   UNL A   1      43.877  33.512  32.689  1.00  0.00     0.173 A 
ATOM     74  F   UNL A   1      42.617  31.093  35.089  1.00  0.00    -0.203 F 
ATOM     75  C   UNL A   1      42.959  33.411  35.307  1.00  0.00     0.198 A 
ATOM     76  C   UNL A   1      43.833  34.671  33.460  1.00  0.00     0.198 A 
ATOM     77  F   UNL A   1      44.323  33.587  31.426  1.00  0.00    -0.203 F 
ATOM     78  F   UNL A   1      42.483  33.363  36.558  1.00  0.00    -0.200 F 
ATOM     79  C   UNL A   1      43.361  34.623  34.764  1.00  0.00     0.200 A 
ATOM     80  F   UNL A   1      44.238  35.837  32.938  1.00  0.00    -0.200 F 
ATOM     81  F   UNL A   1      43.288  35.743  35.495  1.00  0.00    -0.200 F 
ENDBRANCH  47  71
BRANCH  59  82
ATOM     82  C   UNL A   1      48.052  27.268  31.508  1.00  0.00     0.064 A 
ATOM     83  C   UNL A   1      49.089  27.813  30.735  1.00  0.00     0.173 A 
ATOM     84  C   UNL A   1      48.401  26.414  32.565  1.00  0.00     0.173 A 
ATOM     85  F   UNL A   1      48.808  28.626  29.706  1.00  0.00    -0.203 F 
ATOM     86  C   UNL A   1      50.419  27.494  30.991  1.00  0.00     0.198 A 
ATOM     87  C   UNL A   1      49.735  26.125  32.840  1.00  0.00     0.198 A 
ATOM     88  F   UNL A   1      47.448  25.876  33.342  1.00  0.00    -0.203 F 
ATOM     89  F   UNL A   1      51.388  27.991  30.210  1.00  0.00    -0.200 F 
ATOM     90  C   UNL A   1      50.741  26.654  32.045  1.00  0.00     0.200 A 
ATOM     91  F   UNL A   1      50.047  25.331  33.874  1.00  0.00    -0.200 F 
ATOM     92  F   UNL A   1      52.023  26.354  32.296  1.00  0.00    -0.200 F 
ENDBRANCH  59  82
ENDBRANCH  33  34
ENDBRANCH  25  28
ENDBRANCH  23  24
ENDBRANCH  22  23
ENDBRANCH   1  22
TORSDOF 15
ENDMDL
