MODEL 1
REMARK VINA RESULT:     -13.2      0.000      0.000
REMARK SMILES O=C(NCCCNC(=O)[C@@H]1C=C[C@@H](NC(=O)c2ccc3ncccc3c2)C1)c1ccc(-c2c3nc(c(-c4c(F)c(F)c(F)c(F)c4F)c4ccc([nH]4)c(-c4c(F)c(F)c(F)c(F)c4F)c4nc(c(-c5c(F)c(F)c(F)c(F)c5F)c5ccc2[nH]5)C=C4)C=C3)cc1
REMARK SMILES IDX 5 1 4 2 3 3 1 4 2 5 28 7 29 8 90 9 30 10 89 11 31 12 32 13
REMARK SMILES IDX 33 14 83 15 34 16 88 17 82 18 84 19 35 20 87 21 81 22 80 23
REMARK SMILES IDX 36 25 68 26 48 27 67 28 49 29 52 30 66 31 85 32 50 33 51 34
REMARK SMILES IDX 65 36 86 37 53 38 37 39 38 40 46 41 39 42 40 43 44 44 47 45
REMARK SMILES IDX 41 46 42 47 45 48 43 49 69 50 70 51 78 52 71 53 72 54 76 55
REMARK SMILES IDX 79 56 73 57 74 58 77 59 75 60 54 61 55 62 63 63 56 64 57 65
REMARK SMILES IDX 61 66 64 67 58 68 59 69 62 70 60 71 6 72 7 73 8 74 9 76
REMARK SMILES IDX 10 77 11 78 27 79 12 80 13 81 14 82 15 83 16 85 17 86 18 87
REMARK SMILES IDX 26 88 19 89 25 90 20 91 24 92 21 93 23 94 22 95
REMARK H PARENT 3 6 84 24 52 35 7 75 14 84
REMARK Flexibility Score: inf
ROOT
ATOM      1  C   UNL A   1      38.153  19.897  24.778  1.00  0.00     0.042 C 
ENDROOT
BRANCH   1   2
ATOM      2  C   UNL A   1      39.071  20.092  25.981  1.00  0.00     0.118 C 
BRANCH   2   3
ATOM      3  N   UNL A   1      40.191  19.160  25.990  1.00  0.00    -0.352 N 
ATOM      4  O   UNL A   1      42.331  18.473  25.893  1.00  0.00    -0.269 OA
ATOM      5  C   UNL A   1      41.540  19.391  26.097  1.00  0.00     0.251 C 
ATOM      6  H   UNL A   1      39.940  18.211  25.905  1.00  0.00     0.163 HD
BRANCH   5   7
ATOM      7  C   UNL A   1      42.050  20.738  26.432  1.00  0.00     0.039 A 
ATOM      8  C   UNL A   1      42.307  21.104  27.755  1.00  0.00     0.014 A 
ATOM      9  C   UNL A   1      42.304  21.644  25.397  1.00  0.00     0.014 A 
ATOM     10  C   UNL A   1      42.657  22.416  28.055  1.00  0.00     0.010 A 
ATOM     11  C   UNL A   1      42.747  22.937  25.694  1.00  0.00     0.010 A 
ATOM     12  C   UNL A   1      42.884  23.347  27.028  1.00  0.00    -0.014 A 
BRANCH  12  13
ATOM     13  C   UNL A   1      43.290  24.734  27.377  1.00  0.00     0.031 A 
ATOM     14  C   UNL A   1      44.683  25.227  27.096  1.00  0.00     0.074 A 
ATOM     15  C   UNL A   1      42.380  25.564  27.924  1.00  0.00     0.049 A 
ATOM     16  N   UNL A   1      45.196  26.416  27.299  1.00  0.00    -0.248 NA
ATOM     17  C   UNL A   1      45.628  24.258  26.523  1.00  0.00     0.031 C 
ATOM     18  C   UNL A   1      41.000  25.199  28.252  1.00  0.00     0.029 A 
ATOM     19  N   UNL A   1      42.468  26.884  28.280  1.00  0.00    -0.354 N 
ATOM     20  C   UNL A   1      46.524  26.332  26.900  1.00  0.00     0.074 A 
ATOM     21  C   UNL A   1      46.748  24.967  26.474  1.00  0.00     0.031 C 
ATOM     22  C   UNL A   1      40.358  26.282  28.711  1.00  0.00     0.029 A 
ATOM     23  C   UNL A   1      41.293  27.400  28.767  1.00  0.00     0.049 A 
ATOM     24  H   UNL A   1      43.295  27.412  28.195  1.00  0.00     0.167 HD
ATOM     25  C   UNL A   1      47.466  27.306  26.883  1.00  0.00     0.037 A 
ATOM     26  C   UNL A   1      41.001  28.634  29.217  1.00  0.00     0.037 A 
ATOM     27  C   UNL A   1      47.233  28.668  27.294  1.00  0.00     0.049 A 
ATOM     28  C   UNL A   1      42.072  29.687  29.211  1.00  0.00     0.074 A 
ATOM     29  C   UNL A   1      48.109  29.739  27.271  1.00  0.00     0.029 A 
ATOM     30  N   UNL A   1      46.037  29.144  27.813  1.00  0.00    -0.354 N 
ATOM     31  N   UNL A   1      43.309  29.609  28.787  1.00  0.00    -0.248 NA
ATOM     32  C   UNL A   1      41.702  31.004  29.746  1.00  0.00     0.031 C 
ATOM     33  C   UNL A   1      47.463  30.848  27.829  1.00  0.00     0.029 A 
ATOM     34  C   UNL A   1      46.162  30.486  28.140  1.00  0.00     0.049 A 
ATOM     35  H   UNL A   1      45.219  28.608  27.932  1.00  0.00     0.167 HD
ATOM     36  C   UNL A   1      43.856  30.871  28.970  1.00  0.00     0.074 A 
ATOM     37  C   UNL A   1      42.810  31.699  29.536  1.00  0.00     0.031 C 
ATOM     38  C   UNL A   1      45.111  31.303  28.693  1.00  0.00     0.037 A 
BRANCH  25  39
ATOM     39  C   UNL A   1      48.851  26.928  26.432  1.00  0.00     0.064 A 
ATOM     40  C   UNL A   1      49.814  26.433  27.323  1.00  0.00     0.173 A 
ATOM     41  C   UNL A   1      49.209  27.041  25.079  1.00  0.00     0.173 A 
ATOM     42  F   UNL A   1      49.530  26.314  28.629  1.00  0.00    -0.203 F 
ATOM     43  C   UNL A   1      51.094  26.099  26.884  1.00  0.00     0.198 A 
ATOM     44  C   UNL A   1      50.478  26.675  24.638  1.00  0.00     0.198 A 
ATOM     45  F   UNL A   1      48.325  27.500  24.181  1.00  0.00    -0.203 F 
ATOM     46  F   UNL A   1      52.015  25.684  27.764  1.00  0.00    -0.200 F 
ATOM     47  C   UNL A   1      51.423  26.215  25.542  1.00  0.00     0.200 A 
ATOM     48  F   UNL A   1      50.788  26.773  23.338  1.00  0.00    -0.200 F 
ATOM     49  F   UNL A   1      52.653  25.892  25.121  1.00  0.00    -0.200 F 
ENDBRANCH  25  39
BRANCH  26  50
ATOM     50  C   UNL A   1      39.625  28.941  29.689  1.00  0.00     0.064 A 
ATOM     51  C   UNL A   1      39.255  28.709  31.020  1.00  0.00     0.173 A 
ATOM     52  C   UNL A   1      38.660  29.481  28.827  1.00  0.00     0.173 A 
ATOM     53  F   UNL A   1      40.137  28.177  31.879  1.00  0.00    -0.203 F 
ATOM     54  C   UNL A   1      37.966  28.991  31.467  1.00  0.00     0.198 A 
ATOM     55  C   UNL A   1      37.382  29.792  29.283  1.00  0.00     0.198 A 
ATOM     56  F   UNL A   1      38.967  29.727  27.544  1.00  0.00    -0.203 F 
ATOM     57  F   UNL A   1      37.626  28.721  32.735  1.00  0.00    -0.200 F 
ATOM     58  C   UNL A   1      37.034  29.539  30.600  1.00  0.00     0.200 A 
ATOM     59  F   UNL A   1      36.490  30.338  28.445  1.00  0.00    -0.200 F 
ATOM     60  F   UNL A   1      35.796  29.820  31.033  1.00  0.00    -0.200 F 
ENDBRANCH  26  50
BRANCH  38  61
ATOM     61  C   UNL A   1      45.407  32.755  28.943  1.00  0.00     0.064 A 
ATOM     62  C   UNL A   1      45.985  33.198  30.143  1.00  0.00     0.173 A 
ATOM     63  C   UNL A   1      45.123  33.713  27.958  1.00  0.00     0.173 A 
ATOM     64  F   UNL A   1      46.260  32.325  31.123  1.00  0.00    -0.203 F 
ATOM     65  C   UNL A   1      46.237  34.551  30.358  1.00  0.00     0.198 A 
ATOM     66  C   UNL A   1      45.409  35.060  28.164  1.00  0.00     0.198 A 
ATOM     67  F   UNL A   1      44.576  33.343  26.792  1.00  0.00    -0.203 F 
ATOM     68  F   UNL A   1      46.735  34.959  31.534  1.00  0.00    -0.200 F 
ATOM     69  C   UNL A   1      45.955  35.480  29.366  1.00  0.00     0.200 A 
ATOM     70  F   UNL A   1      45.149  35.953  27.199  1.00  0.00    -0.200 F 
ATOM     71  F   UNL A   1      46.202  36.781  29.574  1.00  0.00    -0.200 F 
ENDBRANCH  38  61
ENDBRANCH  12  13
ENDBRANCH   5   7
ENDBRANCH   2   3
ENDBRANCH   1   2
BRANCH   1  72
ATOM     72  C   UNL A   1      36.719  20.362  25.016  1.00  0.00     0.117 C 
BRANCH  72  73
ATOM     73  N   UNL A   1      36.477  21.656  24.405  1.00  0.00    -0.356 N 
ATOM     74  C   UNL A   1      35.303  22.192  23.959  1.00  0.00     0.227 C 
ATOM     75  H   UNL A   1      37.271  22.228  24.298  1.00  0.00     0.163 HD
ATOM     76  O   UNL A   1      35.355  23.251  23.332  1.00  0.00    -0.274 OA
BRANCH  74  77
ATOM     77  C   UNL A   1      33.985  21.477  24.274  1.00  0.00     0.103 C 
ATOM     78  C   UNL A   1      32.883  21.924  23.356  1.00  0.00    -0.016 C 
ATOM     79  C   UNL A   1      33.424  21.882  25.649  1.00  0.00     0.047 C 
ATOM     80  C   UNL A   1      32.060  22.790  23.954  1.00  0.00    -0.006 C 
ATOM     81  C   UNL A   1      32.475  23.053  25.366  1.00  0.00     0.106 C 
BRANCH  81  82
ATOM     82  N   UNL A   1      31.288  23.023  26.190  1.00  0.00    -0.346 N 
ATOM     83  C   UNL A   1      30.448  24.050  26.537  1.00  0.00     0.251 C 
ATOM     84  H   UNL A   1      31.049  22.139  26.554  1.00  0.00     0.164 HD
ATOM     85  O   UNL A   1      29.539  23.864  27.339  1.00  0.00    -0.269 OA
BRANCH  83  86
ATOM     86  C   UNL A   1      30.664  25.402  25.982  1.00  0.00     0.040 A 
ATOM     87  C   UNL A   1      31.581  26.287  26.548  1.00  0.00     0.016 A 
ATOM     88  C   UNL A   1      29.933  25.781  24.856  1.00  0.00     0.024 A 
ATOM     89  C   UNL A   1      31.694  27.584  26.037  1.00  0.00     0.030 A 
ATOM     90  C   UNL A   1      30.061  27.083  24.344  1.00  0.00     0.001 A 
ATOM     91  C   UNL A   1      30.937  28.008  24.953  1.00  0.00     0.070 A 
ATOM     92  C   UNL A   1      29.323  27.509  23.232  1.00  0.00     0.012 A 
ATOM     93  N   UNL A   1      31.063  29.274  24.520  1.00  0.00    -0.256 NA
ATOM     94  C   UNL A   1      29.451  28.817  22.782  1.00  0.00     0.021 A 
ATOM     95  C   UNL A   1      30.319  29.654  23.457  1.00  0.00     0.112 A 
ENDBRANCH  83  86
ENDBRANCH  81  82
ENDBRANCH  74  77
ENDBRANCH  72  73
ENDBRANCH   1  72
TORSDOF 12
ENDMDL
MODEL 2
REMARK VINA RESULT:     -13.1      5.130     10.975
REMARK SMILES O=C(NCCCNC(=O)[C@@H]1C=C[C@@H](NC(=O)c2ccc3ncccc3c2)C1)c1ccc(-c2c3nc(c(-c4c(F)c(F)c(F)c(F)c4F)c4ccc([nH]4)c(-c4c(F)c(F)c(F)c(F)c4F)c4nc(c(-c5c(F)c(F)c(F)c(F)c5F)c5ccc2[nH]5)C=C4)C=C3)cc1
REMARK SMILES IDX 5 1 4 2 3 3 1 4 2 5 28 7 29 8 90 9 30 10 89 11 31 12 32 13
REMARK SMILES IDX 33 14 83 15 34 16 88 17 82 18 84 19 35 20 87 21 81 22 80 23
REMARK SMILES IDX 36 25 68 26 48 27 67 28 49 29 52 30 66 31 85 32 50 33 51 34
REMARK SMILES IDX 65 36 86 37 53 38 37 39 38 40 46 41 39 42 40 43 44 44 47 45
REMARK SMILES IDX 41 46 42 47 45 48 43 49 69 50 70 51 78 52 71 53 72 54 76 55
REMARK SMILES IDX 79 56 73 57 74 58 77 59 75 60 54 61 55 62 63 63 56 64 57 65
REMARK SMILES IDX 61 66 64 67 58 68 59 69 62 70 60 71 6 72 7 73 8 74 9 76
REMARK SMILES IDX 10 77 11 78 27 79 12 80 13 81 14 82 15 83 16 85 17 86 18 87
REMARK SMILES IDX 26 88 19 89 25 90 20 91 24 92 21 93 23 94 22 95
REMARK H PARENT 3 6 84 24 52 35 7 75 14 84
REMARK Flexibility Score: inf
ROOT
ATOM      1  C   UNL A   1      31.324  32.139  26.851  1.00  0.00     0.042 C 
ENDROOT
BRANCH   1   2
ATOM      2  C   UNL A   1      32.641  32.873  27.086  1.00  0.00     0.118 C 
BRANCH   2   3
ATOM      3  N   UNL A   1      32.447  34.224  27.598  1.00  0.00    -0.352 N 
ATOM      4  O   UNL A   1      32.619  35.956  29.023  1.00  0.00    -0.269 OA
ATOM      5  C   UNL A   1      33.066  34.879  28.634  1.00  0.00     0.251 C 
ATOM      6  H   UNL A   1      31.762  34.751  27.126  1.00  0.00     0.163 HD
BRANCH   5   7
ATOM      7  C   UNL A   1      34.247  34.291  29.300  1.00  0.00     0.039 A 
ATOM      8  C   UNL A   1      35.542  34.613  28.889  1.00  0.00     0.014 A 
ATOM      9  C   UNL A   1      34.056  33.422  30.378  1.00  0.00     0.014 A 
ATOM     10  C   UNL A   1      36.630  33.946  29.441  1.00  0.00     0.010 A 
ATOM     11  C   UNL A   1      35.158  32.822  30.996  1.00  0.00     0.010 A 
ATOM     12  C   UNL A   1      36.452  33.045  30.504  1.00  0.00    -0.014 A 
BRANCH  12  13
ATOM     13  C   UNL A   1      37.636  32.372  31.097  1.00  0.00     0.031 A 
ATOM     14  C   UNL A   1      38.105  32.710  32.486  1.00  0.00     0.074 A 
ATOM     15  C   UNL A   1      38.274  31.422  30.384  1.00  0.00     0.049 A 
ATOM     16  N   UNL A   1      39.095  32.195  33.174  1.00  0.00    -0.248 NA
ATOM     17  C   UNL A   1      37.377  33.774  33.192  1.00  0.00     0.031 C 
ATOM     18  C   UNL A   1      37.920  31.013  29.024  1.00  0.00     0.029 A 
ATOM     19  N   UNL A   1      39.336  30.618  30.708  1.00  0.00    -0.354 N 
ATOM     20  C   UNL A   1      39.121  32.884  34.379  1.00  0.00     0.074 A 
ATOM     21  C   UNL A   1      38.069  33.876  34.318  1.00  0.00     0.031 C 
ATOM     22  C   UNL A   1      38.714  30.000  28.651  1.00  0.00     0.029 A 
ATOM     23  C   UNL A   1      39.670  29.729  29.718  1.00  0.00     0.049 A 
ATOM     24  H   UNL A   1      39.812  30.673  31.568  1.00  0.00     0.167 HD
ATOM     25  C   UNL A   1      39.940  32.698  35.443  1.00  0.00     0.037 A 
ATOM     26  C   UNL A   1      40.645  28.801  29.670  1.00  0.00     0.037 A 
ATOM     27  C   UNL A   1      40.975  31.697  35.504  1.00  0.00     0.049 A 
ATOM     28  C   UNL A   1      41.555  28.635  30.852  1.00  0.00     0.074 A 
ATOM     29  C   UNL A   1      41.828  31.399  36.554  1.00  0.00     0.029 A 
ATOM     30  N   UNL A   1      41.306  30.835  34.467  1.00  0.00    -0.354 N 
ATOM     31  N   UNL A   1      41.540  29.258  32.005  1.00  0.00    -0.248 NA
ATOM     32  C   UNL A   1      42.621  27.631  30.726  1.00  0.00     0.031 C 
ATOM     33  C   UNL A   1      42.712  30.398  36.132  1.00  0.00     0.029 A 
ATOM     34  C   UNL A   1      42.368  30.026  34.843  1.00  0.00     0.049 A 
ATOM     35  H   UNL A   1      40.853  30.803  33.593  1.00  0.00     0.167 HD
ATOM     36  C   UNL A   1      42.566  28.701  32.754  1.00  0.00     0.074 A 
ATOM     37  C   UNL A   1      43.179  27.682  31.927  1.00  0.00     0.031 C 
ATOM     38  C   UNL A   1      42.963  29.007  34.014  1.00  0.00     0.037 A 
BRANCH  25  39
ATOM     39  C   UNL A   1      39.772  33.618  36.621  1.00  0.00     0.064 A 
ATOM     40  C   UNL A   1      40.486  34.820  36.733  1.00  0.00     0.173 A 
ATOM     41  C   UNL A   1      38.862  33.302  37.642  1.00  0.00     0.173 A 
ATOM     42  F   UNL A   1      41.378  35.168  35.792  1.00  0.00    -0.203 F 
ATOM     43  C   UNL A   1      40.322  35.652  37.839  1.00  0.00     0.198 A 
ATOM     44  C   UNL A   1      38.676  34.152  38.729  1.00  0.00     0.198 A 
ATOM     45  F   UNL A   1      38.145  32.170  37.582  1.00  0.00    -0.203 F 
ATOM     46  F   UNL A   1      41.059  36.766  37.952  1.00  0.00    -0.200 F 
ATOM     47  C   UNL A   1      39.414  35.321  38.833  1.00  0.00     0.200 A 
ATOM     48  F   UNL A   1      37.786  33.836  39.680  1.00  0.00    -0.200 F 
ATOM     49  F   UNL A   1      39.256  36.122  39.894  1.00  0.00    -0.200 F 
ENDBRANCH  25  39
BRANCH  26  50
ATOM     50  C   UNL A   1      40.790  27.946  28.462  1.00  0.00     0.064 A 
ATOM     51  C   UNL A   1      41.579  28.359  27.381  1.00  0.00     0.173 A 
ATOM     52  C   UNL A   1      40.156  26.699  28.370  1.00  0.00     0.173 A 
ATOM     53  F   UNL A   1      42.191  29.552  27.414  1.00  0.00    -0.203 F 
ATOM     54  C   UNL A   1      41.716  27.563  26.246  1.00  0.00     0.198 A 
ATOM     55  C   UNL A   1      40.319  25.890  27.249  1.00  0.00     0.198 A 
ATOM     56  F   UNL A   1      39.394  26.255  29.382  1.00  0.00    -0.203 F 
ATOM     57  F   UNL A   1      42.443  28.000  25.209  1.00  0.00    -0.200 F 
ATOM     58  C   UNL A   1      41.092  26.326  26.184  1.00  0.00     0.200 A 
ATOM     59  F   UNL A   1      39.728  24.688  27.201  1.00  0.00    -0.200 F 
ATOM     60  F   UNL A   1      41.232  25.556  25.096  1.00  0.00    -0.200 F 
ENDBRANCH  26  50
BRANCH  38  61
ATOM     61  C   UNL A   1      44.079  28.188  34.599  1.00  0.00     0.064 A 
ATOM     62  C   UNL A   1      45.420  28.589  34.508  1.00  0.00     0.173 A 
ATOM     63  C   UNL A   1      43.797  26.992  35.277  1.00  0.00     0.173 A 
ATOM     64  F   UNL A   1      45.746  29.716  33.856  1.00  0.00    -0.203 F 
ATOM     65  C   UNL A   1      46.439  27.806  35.046  1.00  0.00     0.198 A 
ATOM     66  C   UNL A   1      44.814  26.230  35.843  1.00  0.00     0.198 A 
ATOM     67  F   UNL A   1      42.531  26.566  35.398  1.00  0.00    -0.203 F 
ATOM     68  F   UNL A   1      47.718  28.179  34.895  1.00  0.00    -0.200 F 
ATOM     69  C   UNL A   1      46.135  26.631  35.718  1.00  0.00     0.200 A 
ATOM     70  F   UNL A   1      44.517  25.104  36.505  1.00  0.00    -0.200 F 
ATOM     71  F   UNL A   1      47.117  25.882  36.238  1.00  0.00    -0.200 F 
ENDBRANCH  38  61
ENDBRANCH  12  13
ENDBRANCH   5   7
ENDBRANCH   2   3
ENDBRANCH   1   2
BRANCH   1  72
ATOM     72  C   UNL A   1      31.401  31.069  25.766  1.00  0.00     0.117 C 
BRANCH  72  73
ATOM     73  N   UNL A   1      31.719  29.770  26.328  1.00  0.00    -0.356 N 
ATOM     74  C   UNL A   1      31.446  28.526  25.834  1.00  0.00     0.227 C 
ATOM     75  H   UNL A   1      32.201  29.788  27.185  1.00  0.00     0.163 HD
ATOM     76  O   UNL A   1      31.675  27.556  26.558  1.00  0.00    -0.274 OA
BRANCH  74  77
ATOM     77  C   UNL A   1      30.894  28.390  24.411  1.00  0.00     0.103 C 
ATOM     78  C   UNL A   1      30.065  27.147  24.258  1.00  0.00    -0.016 C 
ATOM     79  C   UNL A   1      32.012  28.143  23.382  1.00  0.00     0.047 C 
ATOM     80  C   UNL A   1      30.737  26.176  23.633  1.00  0.00    -0.006 C 
ATOM     81  C   UNL A   1      32.116  26.617  23.260  1.00  0.00     0.106 C 
BRANCH  81  82
ATOM     82  N   UNL A   1      32.373  26.181  21.907  1.00  0.00    -0.346 N 
ATOM     83  C   UNL A   1      32.972  25.028  21.468  1.00  0.00     0.251 C 
ATOM     84  H   UNL A   1      32.074  26.798  21.200  1.00  0.00     0.164 HD
ATOM     85  O   UNL A   1      33.205  24.866  20.274  1.00  0.00    -0.269 OA
BRANCH  83  86
ATOM     86  C   UNL A   1      33.385  23.993  22.437  1.00  0.00     0.040 A 
ATOM     87  C   UNL A   1      34.502  24.160  23.255  1.00  0.00     0.016 A 
ATOM     88  C   UNL A   1      32.619  22.831  22.534  1.00  0.00     0.024 A 
ATOM     89  C   UNL A   1      34.901  23.120  24.101  1.00  0.00     0.030 A 
ATOM     90  C   UNL A   1      33.022  21.796  23.394  1.00  0.00     0.001 A 
ATOM     91  C   UNL A   1      34.191  21.930  24.175  1.00  0.00     0.070 A 
ATOM     92  C   UNL A   1      32.295  20.603  23.496  1.00  0.00     0.012 A 
ATOM     93  N   UNL A   1      34.633  20.951  24.983  1.00  0.00    -0.256 NA
ATOM     94  C   UNL A   1      32.750  19.590  24.330  1.00  0.00     0.021 A 
ATOM     95  C   UNL A   1      33.917  19.806  25.039  1.00  0.00     0.112 A 
ENDBRANCH  83  86
ENDBRANCH  81  82
ENDBRANCH  74  77
ENDBRANCH  72  73
ENDBRANCH   1  72
TORSDOF 12
ENDMDL
MODEL 3
REMARK VINA RESULT:     -13.1      0.971      2.068
REMARK SMILES O=C(NCCCNC(=O)[C@@H]1C=C[C@@H](NC(=O)c2ccc3ncccc3c2)C1)c1ccc(-c2c3nc(c(-c4c(F)c(F)c(F)c(F)c4F)c4ccc([nH]4)c(-c4c(F)c(F)c(F)c(F)c4F)c4nc(c(-c5c(F)c(F)c(F)c(F)c5F)c5ccc2[nH]5)C=C4)C=C3)cc1
REMARK SMILES IDX 5 1 4 2 3 3 1 4 2 5 28 7 29 8 90 9 30 10 89 11 31 12 32 13
REMARK SMILES IDX 33 14 83 15 34 16 88 17 82 18 84 19 35 20 87 21 81 22 80 23
REMARK SMILES IDX 36 25 68 26 48 27 67 28 49 29 52 30 66 31 85 32 50 33 51 34
REMARK SMILES IDX 65 36 86 37 53 38 37 39 38 40 46 41 39 42 40 43 44 44 47 45
REMARK SMILES IDX 41 46 42 47 45 48 43 49 69 50 70 51 78 52 71 53 72 54 76 55
REMARK SMILES IDX 79 56 73 57 74 58 77 59 75 60 54 61 55 62 63 63 56 64 57 65
REMARK SMILES IDX 61 66 64 67 58 68 59 69 62 70 60 71 6 72 7 73 8 74 9 76
REMARK SMILES IDX 10 77 11 78 27 79 12 80 13 81 14 82 15 83 16 85 17 86 18 87
REMARK SMILES IDX 26 88 19 89 25 90 20 91 24 92 21 93 23 94 22 95
REMARK H PARENT 3 6 84 24 52 35 7 75 14 84
REMARK Flexibility Score: inf
ROOT
ATOM      1  C   UNL A   1      38.442  19.594  24.698  1.00  0.00     0.042 C 
ENDROOT
BRANCH   1   2
ATOM      2  C   UNL A   1      39.381  19.860  25.872  1.00  0.00     0.118 C 
BRANCH   2   3
ATOM      3  N   UNL A   1      40.511  18.941  25.907  1.00  0.00    -0.352 N 
ATOM      4  O   UNL A   1      42.662  18.282  25.890  1.00  0.00    -0.269 OA
ATOM      5  C   UNL A   1      41.850  19.185  26.084  1.00  0.00     0.251 C 
ATOM      6  H   UNL A   1      40.277  17.992  25.783  1.00  0.00     0.163 HD
BRANCH   5   7
ATOM      7  C   UNL A   1      42.327  20.527  26.479  1.00  0.00     0.039 A 
ATOM      8  C   UNL A   1      42.352  20.917  27.820  1.00  0.00     0.014 A 
ATOM      9  C   UNL A   1      42.786  21.403  25.491  1.00  0.00     0.014 A 
ATOM     10  C   UNL A   1      42.677  22.228  28.154  1.00  0.00     0.010 A 
ATOM     11  C   UNL A   1      43.202  22.692  25.839  1.00  0.00     0.010 A 
ATOM     12  C   UNL A   1      43.109  23.130  27.168  1.00  0.00    -0.014 A 
BRANCH  12  13
ATOM     13  C   UNL A   1      43.481  24.514  27.559  1.00  0.00     0.031 A 
ATOM     14  C   UNL A   1      44.915  24.968  27.530  1.00  0.00     0.074 A 
ATOM     15  C   UNL A   1      42.509  25.379  27.911  1.00  0.00     0.049 A 
ATOM     16  N   UNL A   1      45.415  26.149  27.801  1.00  0.00    -0.248 NA
ATOM     17  C   UNL A   1      45.923  23.963  27.161  1.00  0.00     0.031 C 
ATOM     18  C   UNL A   1      41.083  25.055  27.985  1.00  0.00     0.029 A 
ATOM     19  N   UNL A   1      42.567  26.705  28.252  1.00  0.00    -0.354 N 
ATOM     20  C   UNL A   1      46.790  26.024  27.657  1.00  0.00     0.074 A 
ATOM     21  C   UNL A   1      47.051  24.644  27.306  1.00  0.00     0.031 C 
ATOM     22  C   UNL A   1      40.398  26.163  28.296  1.00  0.00     0.029 A 
ATOM     23  C   UNL A   1      41.336  27.260  28.503  1.00  0.00     0.049 A 
ATOM     24  H   UNL A   1      43.410  27.211  28.310  1.00  0.00     0.167 HD
ATOM     25  C   UNL A   1      47.746  26.975  27.795  1.00  0.00     0.037 A 
ATOM     26  C   UNL A   1      41.001  28.512  28.866  1.00  0.00     0.037 A 
ATOM     27  C   UNL A   1      47.479  28.351  28.129  1.00  0.00     0.049 A 
ATOM     28  C   UNL A   1      42.083  29.539  29.037  1.00  0.00     0.074 A 
ATOM     29  C   UNL A   1      48.374  29.401  28.247  1.00  0.00     0.029 A 
ATOM     30  N   UNL A   1      46.221  28.868  28.409  1.00  0.00    -0.354 N 
ATOM     31  N   UNL A   1      43.375  29.421  28.851  1.00  0.00    -0.248 NA
ATOM     32  C   UNL A   1      41.657  30.877  29.469  1.00  0.00     0.031 C 
ATOM     33  C   UNL A   1      47.667  30.538  28.654  1.00  0.00     0.029 A 
ATOM     34  C   UNL A   1      46.321  30.215  28.726  1.00  0.00     0.049 A 
ATOM     35  H   UNL A   1      45.381  28.354  28.384  1.00  0.00     0.167 HD
ATOM     36  C   UNL A   1      43.913  30.674  29.108  1.00  0.00     0.074 A 
ATOM     37  C   UNL A   1      42.804  31.540  29.454  1.00  0.00     0.031 C 
ATOM     38  C   UNL A   1      45.209  31.069  29.059  1.00  0.00     0.037 A 
BRANCH  25  39
ATOM     39  C   UNL A   1      49.180  26.553  27.615  1.00  0.00     0.064 A 
ATOM     40  C   UNL A   1      49.747  26.374  26.345  1.00  0.00     0.173 A 
ATOM     41  C   UNL A   1      50.003  26.352  28.734  1.00  0.00     0.173 A 
ATOM     42  F   UNL A   1      49.003  26.542  25.241  1.00  0.00    -0.203 F 
ATOM     43  C   UNL A   1      51.075  25.973  26.203  1.00  0.00     0.198 A 
ATOM     44  C   UNL A   1      51.338  25.984  28.587  1.00  0.00     0.198 A 
ATOM     45  F   UNL A   1      49.516  26.518  29.972  1.00  0.00    -0.203 F 
ATOM     46  F   UNL A   1      51.577  25.750  24.981  1.00  0.00    -0.200 F 
ATOM     47  C   UNL A   1      51.870  25.784  27.323  1.00  0.00     0.200 A 
ATOM     48  F   UNL A   1      52.108  25.817  29.671  1.00  0.00    -0.200 F 
ATOM     49  F   UNL A   1      53.146  25.400  27.184  1.00  0.00    -0.200 F 
ENDBRANCH  25  39
BRANCH  26  50
ATOM     50  C   UNL A   1      39.571  28.862  29.070  1.00  0.00     0.064 A 
ATOM     51  C   UNL A   1      38.974  28.739  30.331  1.00  0.00     0.173 A 
ATOM     52  C   UNL A   1      38.777  29.335  28.015  1.00  0.00     0.173 A 
ATOM     53  F   UNL A   1      39.687  28.273  31.367  1.00  0.00    -0.203 F 
ATOM     54  C   UNL A   1      37.634  29.063  30.527  1.00  0.00     0.198 A 
ATOM     55  C   UNL A   1      37.446  29.689  28.218  1.00  0.00     0.198 A 
ATOM     56  F   UNL A   1      39.304  29.476  26.789  1.00  0.00    -0.203 F 
ATOM     57  F   UNL A   1      37.077  28.898  31.734  1.00  0.00    -0.200 F 
ATOM     58  C   UNL A   1      36.873  29.544  29.472  1.00  0.00     0.200 A 
ATOM     59  F   UNL A   1      36.720  30.170  27.200  1.00  0.00    -0.200 F 
ATOM     60  F   UNL A   1      35.586  29.865  29.663  1.00  0.00    -0.200 F 
ENDBRANCH  26  50
BRANCH  38  61
ATOM     61  C   UNL A   1      45.494  32.520  29.331  1.00  0.00     0.064 A 
ATOM     62  C   UNL A   1      45.546  33.472  28.302  1.00  0.00     0.173 A 
ATOM     63  C   UNL A   1      45.699  32.963  30.647  1.00  0.00     0.173 A 
ATOM     64  F   UNL A   1      45.374  33.097  27.026  1.00  0.00    -0.203 F 
ATOM     65  C   UNL A   1      45.826  34.808  28.578  1.00  0.00     0.198 A 
ATOM     66  C   UNL A   1      45.944  34.306  30.922  1.00  0.00     0.198 A 
ATOM     67  F   UNL A   1      45.653  32.096  31.668  1.00  0.00    -0.203 F 
ATOM     68  F   UNL A   1      45.930  35.690  27.573  1.00  0.00    -0.200 F 
ATOM     69  C   UNL A   1      46.018  35.225  29.887  1.00  0.00     0.200 A 
ATOM     70  F   UNL A   1      46.114  34.708  32.188  1.00  0.00    -0.200 F 
ATOM     71  F   UNL A   1      46.284  36.512  30.151  1.00  0.00    -0.200 F 
ENDBRANCH  38  61
ENDBRANCH  12  13
ENDBRANCH   5   7
ENDBRANCH   2   3
ENDBRANCH   1   2
BRANCH   1  72
ATOM     72  C   UNL A   1      36.969  19.823  25.024  1.00  0.00     0.117 C 
BRANCH  72  73
ATOM     73  N   UNL A   1      36.559  21.173  24.689  1.00  0.00    -0.356 N 
ATOM     74  C   UNL A   1      35.355  21.785  24.895  1.00  0.00     0.227 C 
ATOM     75  H   UNL A   1      37.246  21.728  24.255  1.00  0.00     0.163 HD
ATOM     76  O   UNL A   1      35.179  22.894  24.389  1.00  0.00    -0.274 OA
BRANCH  74  77
ATOM     77  C   UNL A   1      34.296  21.085  25.752  1.00  0.00     0.103 C 
ATOM     78  C   UNL A   1      33.252  20.417  24.903  1.00  0.00    -0.016 C 
ATOM     79  C   UNL A   1      33.446  22.090  26.551  1.00  0.00     0.047 C 
ATOM     80  C   UNL A   1      32.123  21.130  24.852  1.00  0.00    -0.006 C 
ATOM     81  C   UNL A   1      32.229  22.381  25.664  1.00  0.00     0.106 C 
BRANCH  81  82
ATOM     82  N   UNL A   1      31.007  22.524  26.421  1.00  0.00    -0.346 N 
ATOM     83  C   UNL A   1      30.277  23.656  26.681  1.00  0.00     0.251 C 
ATOM     84  H   UNL A   1      30.647  21.691  26.805  1.00  0.00     0.164 HD
ATOM     85  O   UNL A   1      29.312  23.611  27.437  1.00  0.00    -0.269 OA
BRANCH  83  86
ATOM     86  C   UNL A   1      30.678  24.948  26.088  1.00  0.00     0.040 A 
ATOM     87  C   UNL A   1      29.901  25.580  25.117  1.00  0.00     0.016 A 
ATOM     88  C   UNL A   1      31.860  25.542  26.530  1.00  0.00     0.024 A 
ATOM     89  C   UNL A   1      30.361  26.762  24.528  1.00  0.00     0.030 A 
ATOM     90  C   UNL A   1      32.308  26.735  25.939  1.00  0.00     0.001 A 
ATOM     91  C   UNL A   1      31.561  27.345  24.907  1.00  0.00     0.070 A 
ATOM     92  C   UNL A   1      33.504  27.346  26.336  1.00  0.00     0.012 A 
ATOM     93  N   UNL A   1      31.971  28.465  24.288  1.00  0.00    -0.256 NA
ATOM     94  C   UNL A   1      33.930  28.504  25.698  1.00  0.00     0.021 A 
ATOM     95  C   UNL A   1      33.141  29.015  24.685  1.00  0.00     0.112 A 
ENDBRANCH  83  86
ENDBRANCH  81  82
ENDBRANCH  74  77
ENDBRANCH  72  73
ENDBRANCH   1  72
TORSDOF 12
ENDMDL
