MODEL 1
REMARK VINA RESULT:     -12.5      0.000      0.000
REMARK SMILES O=C(NCCCNC(=O)[C@@H]1CCC[N@@H+](Cc2ccc(F)cc2Cl)C1)c1ccc(-c2c3nc(c(-c4c(F)c(F)c(F)c(F)c4F)c4ccc([nH]4)c(-c4c(F)c(F)c(F)c(F)c4F)c4nc(c(-c5c(F)c(F)c(F)c(F)c5F)c5ccc2[nH]5)C=C4)C=C3)cc1
REMARK SMILES IDX 5 1 4 2 3 3 1 4 2 5 25 7 26 8 87 9 27 10 86 11 28 12 29 13
REMARK SMILES IDX 30 14 80 15 31 16 85 17 79 18 81 19 32 20 84 21 78 22 77 23
REMARK SMILES IDX 33 25 65 26 45 27 64 28 46 29 49 30 63 31 82 32 47 33 48 34
REMARK SMILES IDX 62 36 83 37 50 38 34 39 35 40 43 41 36 42 37 43 41 44 44 45
REMARK SMILES IDX 38 46 39 47 42 48 40 49 66 50 67 51 75 52 68 53 69 54 73 55
REMARK SMILES IDX 76 56 70 57 71 58 74 59 72 60 51 61 52 62 60 63 53 64 54 65
REMARK SMILES IDX 58 66 61 67 55 68 56 69 59 70 57 71 6 72 7 73 8 74 9 76
REMARK SMILES IDX 10 77 11 78 24 79 12 80 14 81 13 82 15 84 16 85 17 86 22 87
REMARK SMILES IDX 18 88 21 89 23 90 19 91 20 92
REMARK H PARENT 3 6 81 24 49 35 7 75 14 83
REMARK Flexibility Score: inf
ROOT
ATOM      1  C   UNL A   1      31.405  31.815  26.492  1.00  0.00     0.042 C 
ENDROOT
BRANCH   1   2
ATOM      2  C   UNL A   1      32.651  32.429  27.105  1.00  0.00     0.118 C 
BRANCH   2   3
ATOM      3  N   UNL A   1      32.438  33.803  27.529  1.00  0.00    -0.352 N 
ATOM      4  O   UNL A   1      32.613  35.590  28.892  1.00  0.00    -0.269 OA
ATOM      5  C   UNL A   1      33.066  34.514  28.525  1.00  0.00     0.251 C 
ATOM      6  H   UNL A   1      31.746  34.297  27.031  1.00  0.00     0.163 HD
BRANCH   5   7
ATOM      7  C   UNL A   1      34.284  33.964  29.161  1.00  0.00     0.039 A 
ATOM      8  C   UNL A   1      34.187  32.927  30.088  1.00  0.00     0.014 A 
ATOM      9  C   UNL A   1      35.537  34.477  28.814  1.00  0.00     0.014 A 
ATOM     10  C   UNL A   1      35.312  32.519  30.788  1.00  0.00     0.010 A 
ATOM     11  C   UNL A   1      36.689  33.972  29.428  1.00  0.00     0.010 A 
ATOM     12  C   UNL A   1      36.583  33.003  30.435  1.00  0.00    -0.014 A 
BRANCH  12  13
ATOM     13  C   UNL A   1      37.769  32.377  31.073  1.00  0.00     0.031 A 
ATOM     14  C   UNL A   1      38.210  32.747  32.459  1.00  0.00     0.074 A 
ATOM     15  C   UNL A   1      38.410  31.410  30.387  1.00  0.00     0.049 A 
ATOM     16  N   UNL A   1      39.184  32.238  33.172  1.00  0.00    -0.248 NA
ATOM     17  C   UNL A   1      37.477  33.827  33.134  1.00  0.00     0.031 C 
ATOM     18  C   UNL A   1      38.081  30.990  29.021  1.00  0.00     0.029 A 
ATOM     19  N   UNL A   1      39.440  30.580  30.745  1.00  0.00    -0.354 N 
ATOM     20  C   UNL A   1      39.184  32.935  34.373  1.00  0.00     0.074 A 
ATOM     21  C   UNL A   1      38.136  33.929  34.281  1.00  0.00     0.031 C 
ATOM     22  C   UNL A   1      38.843  29.943  28.684  1.00  0.00     0.029 A 
ATOM     23  C   UNL A   1      39.769  29.667  29.773  1.00  0.00     0.049 A 
ATOM     24  H   UNL A   1      39.900  30.633  31.614  1.00  0.00     0.167 HD
ATOM     25  C   UNL A   1      39.979  32.747  35.454  1.00  0.00     0.037 A 
ATOM     26  C   UNL A   1      40.726  28.723  29.749  1.00  0.00     0.037 A 
ATOM     27  C   UNL A   1      41.020  31.752  35.534  1.00  0.00     0.049 A 
ATOM     28  C   UNL A   1      41.603  28.559  30.955  1.00  0.00     0.074 A 
ATOM     29  C   UNL A   1      41.876  31.479  36.586  1.00  0.00     0.029 A 
ATOM     30  N   UNL A   1      41.349  30.866  34.516  1.00  0.00    -0.354 N 
ATOM     31  N   UNL A   1      41.571  29.207  32.094  1.00  0.00    -0.248 NA
ATOM     32  C   UNL A   1      42.649  27.533  30.873  1.00  0.00     0.031 C 
ATOM     33  C   UNL A   1      42.752  30.462  36.191  1.00  0.00     0.029 A 
ATOM     34  C   UNL A   1      42.406  30.060  34.911  1.00  0.00     0.049 A 
ATOM     35  H   UNL A   1      40.898  30.818  33.643  1.00  0.00     0.167 HD
ATOM     36  C   UNL A   1      42.585  28.662  32.868  1.00  0.00     0.074 A 
ATOM     37  C   UNL A   1      43.184  27.603  32.083  1.00  0.00     0.031 C 
ATOM     38  C   UNL A   1      42.994  29.016  34.112  1.00  0.00     0.037 A 
BRANCH  25  39
ATOM     39  C   UNL A   1      39.765  33.637  36.646  1.00  0.00     0.064 A 
ATOM     40  C   UNL A   1      40.378  34.895  36.744  1.00  0.00     0.173 A 
ATOM     41  C   UNL A   1      38.879  33.261  37.668  1.00  0.00     0.173 A 
ATOM     42  F   UNL A   1      41.242  35.300  35.800  1.00  0.00    -0.203 F 
ATOM     43  C   UNL A   1      40.126  35.736  37.826  1.00  0.00     0.198 A 
ATOM     44  C   UNL A   1      38.607  34.116  38.735  1.00  0.00     0.198 A 
ATOM     45  F   UNL A   1      38.260  32.072  37.624  1.00  0.00    -0.203 F 
ATOM     46  F   UNL A   1      40.749  36.918  37.914  1.00  0.00    -0.200 F 
ATOM     47  C   UNL A   1      39.233  35.350  38.814  1.00  0.00     0.200 A 
ATOM     48  F   UNL A   1      37.732  33.746  39.681  1.00  0.00    -0.200 F 
ATOM     49  F   UNL A   1      38.977  36.166  39.846  1.00  0.00    -0.200 F 
ENDBRANCH  25  39
BRANCH  26  50
ATOM     50  C   UNL A   1      40.918  27.888  28.533  1.00  0.00     0.064 A 
ATOM     51  C   UNL A   1      41.802  28.274  27.516  1.00  0.00     0.173 A 
ATOM     52  C   UNL A   1      40.211  26.689  28.361  1.00  0.00     0.173 A 
ATOM     53  F   UNL A   1      42.491  29.419  27.625  1.00  0.00    -0.203 F 
ATOM     54  C   UNL A   1      41.946  27.508  26.360  1.00  0.00     0.198 A 
ATOM     55  C   UNL A   1      40.385  25.904  27.225  1.00  0.00     0.198 A 
ATOM     56  F   UNL A   1      39.358  26.269  29.308  1.00  0.00    -0.203 F 
ATOM     57  F   UNL A   1      42.750  27.932  25.376  1.00  0.00    -0.200 F 
ATOM     58  C   UNL A   1      41.242  26.322  26.218  1.00  0.00     0.200 A 
ATOM     59  F   UNL A   1      39.720  24.748  27.103  1.00  0.00    -0.200 F 
ATOM     60  F   UNL A   1      41.383  25.586  25.108  1.00  0.00    -0.200 F 
ENDBRANCH  26  50
BRANCH  38  61
ATOM     61  C   UNL A   1      44.131  28.228  34.694  1.00  0.00     0.064 A 
ATOM     62  C   UNL A   1      43.913  27.049  35.424  1.00  0.00     0.173 A 
ATOM     63  C   UNL A   1      45.456  28.660  34.528  1.00  0.00     0.173 A 
ATOM     64  F   UNL A   1      42.663  26.602  35.626  1.00  0.00    -0.203 F 
ATOM     65  C   UNL A   1      44.973  26.358  36.003  1.00  0.00     0.198 A 
ATOM     66  C   UNL A   1      46.516  27.947  35.077  1.00  0.00     0.198 A 
ATOM     67  F   UNL A   1      45.721  29.777  33.833  1.00  0.00    -0.203 F 
ATOM     68  F   UNL A   1      44.733  25.276  36.756  1.00  0.00    -0.200 F 
ATOM     69  C   UNL A   1      46.274  26.805  35.826  1.00  0.00     0.200 A 
ATOM     70  F   UNL A   1      47.774  28.371  34.894  1.00  0.00    -0.200 F 
ATOM     71  F   UNL A   1      47.294  26.141  36.388  1.00  0.00    -0.200 F 
ENDBRANCH  38  61
ENDBRANCH  12  13
ENDBRANCH   5   7
ENDBRANCH   2   3
ENDBRANCH   1   2
BRANCH   1  72
ATOM     72  C   UNL A   1      31.637  30.417  25.928  1.00  0.00     0.117 C 
BRANCH  72  73
ATOM     73  N   UNL A   1      31.630  29.421  26.977  1.00  0.00    -0.356 N 
ATOM     74  C   UNL A   1      31.721  28.064  26.920  1.00  0.00     0.228 C 
ATOM     75  H   UNL A   1      31.546  29.786  27.888  1.00  0.00     0.163 HD
ATOM     76  O   UNL A   1      31.681  27.476  28.003  1.00  0.00    -0.275 OA
BRANCH  74  77
ATOM     77  C   UNL A   1      31.988  27.351  25.590  1.00  0.00     0.133 C 
ATOM     78  C   UNL A   1      30.783  27.041  24.699  1.00  0.00     0.025 C 
ATOM     79  C   UNL A   1      32.739  26.027  25.826  1.00  0.00     0.276 C 
ATOM     80  C   UNL A   1      29.884  26.002  25.352  1.00  0.00     0.062 C 
ATOM     81  N   UNL A   1      31.899  24.931  26.336  1.00  0.00    -0.330 N 
ATOM     82  C   UNL A   1      30.665  24.711  25.579  1.00  0.00     0.262 C 
ATOM     83  H   UNL A   1      31.585  25.260  27.249  1.00  0.00     0.348 HD
BRANCH  81  84
ATOM     84  C   UNL A   1      32.652  23.685  26.590  1.00  0.00     0.300 C 
BRANCH  84  85
ATOM     85  C   UNL A   1      33.801  23.416  25.630  1.00  0.00     0.025 A 
ATOM     86  C   UNL A   1      35.103  23.806  26.005  1.00  0.00     0.014 A 
ATOM     87  C   UNL A   1      33.612  22.885  24.340  1.00  0.00     0.052 A 
ATOM     88  C   UNL A   1      36.154  23.772  25.092  1.00  0.00     0.040 A 
ATOM     89  C   UNL A   1      34.672  22.834  23.431  1.00  0.00     0.060 A 
ATOM     90  Cl  UNL A   1      32.084  22.293  23.794  1.00  0.00    -0.084 Cl
ATOM     91  C   UNL A   1      35.923  23.301  23.808  1.00  0.00     0.124 A 
ATOM     92  F   UNL A   1      36.923  23.299  22.919  1.00  0.00    -0.207 F 
ENDBRANCH  84  85
ENDBRANCH  81  84
ENDBRANCH  74  77
ENDBRANCH  72  73
ENDBRANCH   1  72
TORSDOF 12
ENDMDL
MODEL 2
REMARK VINA RESULT:     -12.4      0.222      1.626
REMARK SMILES O=C(NCCCNC(=O)[C@@H]1CCC[N@@H+](Cc2ccc(F)cc2Cl)C1)c1ccc(-c2c3nc(c(-c4c(F)c(F)c(F)c(F)c4F)c4ccc([nH]4)c(-c4c(F)c(F)c(F)c(F)c4F)c4nc(c(-c5c(F)c(F)c(F)c(F)c5F)c5ccc2[nH]5)C=C4)C=C3)cc1
REMARK SMILES IDX 5 1 4 2 3 3 1 4 2 5 25 7 26 8 87 9 27 10 86 11 28 12 29 13
REMARK SMILES IDX 30 14 80 15 31 16 85 17 79 18 81 19 32 20 84 21 78 22 77 23
REMARK SMILES IDX 33 25 65 26 45 27 64 28 46 29 49 30 63 31 82 32 47 33 48 34
REMARK SMILES IDX 62 36 83 37 50 38 34 39 35 40 43 41 36 42 37 43 41 44 44 45
REMARK SMILES IDX 38 46 39 47 42 48 40 49 66 50 67 51 75 52 68 53 69 54 73 55
REMARK SMILES IDX 76 56 70 57 71 58 74 59 72 60 51 61 52 62 60 63 53 64 54 65
REMARK SMILES IDX 58 66 61 67 55 68 56 69 59 70 57 71 6 72 7 73 8 74 9 76
REMARK SMILES IDX 10 77 11 78 24 79 12 80 14 81 13 82 15 84 16 85 17 86 22 87
REMARK SMILES IDX 18 88 21 89 23 90 19 91 20 92
REMARK H PARENT 3 6 81 24 49 35 7 75 14 83
REMARK Flexibility Score: inf
ROOT
ATOM      1  C   UNL A   1      31.402  31.770  26.480  1.00  0.00     0.042 C 
ENDROOT
BRANCH   1   2
ATOM      2  C   UNL A   1      32.679  32.486  26.879  1.00  0.00     0.118 C 
BRANCH   2   3
ATOM      3  N   UNL A   1      32.429  33.830  27.374  1.00  0.00    -0.352 N 
ATOM      4  O   UNL A   1      32.527  35.537  28.842  1.00  0.00    -0.269 OA
ATOM      5  C   UNL A   1      33.010  34.491  28.430  1.00  0.00     0.251 C 
ATOM      6  H   UNL A   1      31.746  34.341  26.881  1.00  0.00     0.163 HD
BRANCH   5   7
ATOM      7  C   UNL A   1      34.215  33.924  29.075  1.00  0.00     0.039 A 
ATOM      8  C   UNL A   1      34.096  32.894  30.008  1.00  0.00     0.014 A 
ATOM      9  C   UNL A   1      35.479  34.412  28.732  1.00  0.00     0.014 A 
ATOM     10  C   UNL A   1      35.210  32.471  30.716  1.00  0.00     0.010 A 
ATOM     11  C   UNL A   1      36.618  33.892  29.354  1.00  0.00     0.010 A 
ATOM     12  C   UNL A   1      36.491  32.931  30.367  1.00  0.00    -0.014 A 
BRANCH  12  13
ATOM     13  C   UNL A   1      37.663  32.288  31.014  1.00  0.00     0.031 A 
ATOM     14  C   UNL A   1      38.082  32.632  32.414  1.00  0.00     0.074 A 
ATOM     15  C   UNL A   1      38.311  31.330  30.324  1.00  0.00     0.049 A 
ATOM     16  N   UNL A   1      39.041  32.106  33.136  1.00  0.00    -0.248 NA
ATOM     17  C   UNL A   1      37.341  33.704  33.094  1.00  0.00     0.031 C 
ATOM     18  C   UNL A   1      38.004  30.935  28.945  1.00  0.00     0.029 A 
ATOM     19  N   UNL A   1      39.331  30.489  30.685  1.00  0.00    -0.354 N 
ATOM     20  C   UNL A   1      39.023  32.783  34.348  1.00  0.00     0.074 A 
ATOM     21  C   UNL A   1      37.981  33.784  34.254  1.00  0.00     0.031 C 
ATOM     22  C   UNL A   1      38.767  29.890  28.603  1.00  0.00     0.029 A 
ATOM     23  C   UNL A   1      39.672  29.591  29.703  1.00  0.00     0.049 A 
ATOM     24  H   UNL A   1      39.776  30.525  31.563  1.00  0.00     0.167 HD
ATOM     25  C   UNL A   1      39.797  32.573  35.439  1.00  0.00     0.037 A 
ATOM     26  C   UNL A   1      40.625  28.642  29.679  1.00  0.00     0.037 A 
ATOM     27  C   UNL A   1      40.832  31.571  35.519  1.00  0.00     0.049 A 
ATOM     28  C   UNL A   1      41.481  28.454  30.898  1.00  0.00     0.074 A 
ATOM     29  C   UNL A   1      41.669  31.276  36.582  1.00  0.00     0.029 A 
ATOM     30  N   UNL A   1      41.175  30.701  34.493  1.00  0.00    -0.354 N 
ATOM     31  N   UNL A   1      41.432  29.082  32.047  1.00  0.00    -0.248 NA
ATOM     32  C   UNL A   1      42.523  27.424  30.817  1.00  0.00     0.031 C 
ATOM     33  C   UNL A   1      42.547  30.262  36.185  1.00  0.00     0.029 A 
ATOM     34  C   UNL A   1      42.221  29.883  34.892  1.00  0.00     0.049 A 
ATOM     35  H   UNL A   1      40.739  30.670  33.611  1.00  0.00     0.167 HD
ATOM     36  C   UNL A   1      42.430  28.519  32.829  1.00  0.00     0.074 A 
ATOM     37  C   UNL A   1      43.038  27.471  32.037  1.00  0.00     0.031 C 
ATOM     38  C   UNL A   1      42.818  28.850  34.086  1.00  0.00     0.037 A 
BRANCH  25  39
ATOM     39  C   UNL A   1      39.567  33.443  36.642  1.00  0.00     0.064 A 
ATOM     40  C   UNL A   1      38.687  33.062  37.667  1.00  0.00     0.173 A 
ATOM     41  C   UNL A   1      40.288  34.636  36.810  1.00  0.00     0.173 A 
ATOM     42  F   UNL A   1      37.965  31.937  37.553  1.00  0.00    -0.203 F 
ATOM     43  C   UNL A   1      38.526  33.850  38.805  1.00  0.00     0.198 A 
ATOM     44  C   UNL A   1      40.145  35.407  37.962  1.00  0.00     0.198 A 
ATOM     45  F   UNL A   1      41.147  35.046  35.864  1.00  0.00    -0.203 F 
ATOM     46  F   UNL A   1      37.655  33.482  39.754  1.00  0.00    -0.200 F 
ATOM     47  C   UNL A   1      39.263  35.015  38.956  1.00  0.00     0.200 A 
ATOM     48  F   UNL A   1      40.870  36.524  38.112  1.00  0.00    -0.200 F 
ATOM     49  F   UNL A   1      39.120  35.763  40.059  1.00  0.00    -0.200 F 
ENDBRANCH  25  39
BRANCH  26  50
ATOM     50  C   UNL A   1      40.835  27.828  28.453  1.00  0.00     0.064 A 
ATOM     51  C   UNL A   1      41.681  28.263  27.425  1.00  0.00     0.173 A 
ATOM     52  C   UNL A   1      40.182  26.598  28.283  1.00  0.00     0.173 A 
ATOM     53  F   UNL A   1      42.317  29.438  27.531  1.00  0.00    -0.203 F 
ATOM     54  C   UNL A   1      41.840  27.514  26.259  1.00  0.00     0.198 A 
ATOM     55  C   UNL A   1      40.373  25.831  27.137  1.00  0.00     0.198 A 
ATOM     56  F   UNL A   1      39.368  26.130  29.241  1.00  0.00    -0.203 F 
ATOM     57  F   UNL A   1      42.605  27.984  25.265  1.00  0.00    -0.200 F 
ATOM     58  C   UNL A   1      41.191  26.297  26.119  1.00  0.00     0.200 A 
ATOM     59  F   UNL A   1      39.761  24.645  27.017  1.00  0.00    -0.200 F 
ATOM     60  F   UNL A   1      41.346  25.577  25.001  1.00  0.00    -0.200 F 
ENDBRANCH  26  50
BRANCH  38  61
ATOM     61  C   UNL A   1      43.942  28.046  34.674  1.00  0.00     0.064 A 
ATOM     62  C   UNL A   1      45.280  28.448  34.545  1.00  0.00     0.173 A 
ATOM     63  C   UNL A   1      43.678  26.856  35.369  1.00  0.00     0.173 A 
ATOM     64  F   UNL A   1      45.587  29.570  33.874  1.00  0.00    -0.203 F 
ATOM     65  C   UNL A   1      46.315  27.665  35.048  1.00  0.00     0.198 A 
ATOM     66  C   UNL A   1      44.713  26.095  35.904  1.00  0.00     0.198 A 
ATOM     67  F   UNL A   1      42.416  26.430  35.528  1.00  0.00    -0.203 F 
ATOM     68  F   UNL A   1      47.588  28.032  34.849  1.00  0.00    -0.200 F 
ATOM     69  C   UNL A   1      46.030  26.492  35.731  1.00  0.00     0.200 A 
ATOM     70  F   UNL A   1      44.436  24.969  36.576  1.00  0.00    -0.200 F 
ATOM     71  F   UNL A   1      47.028  25.737  36.213  1.00  0.00    -0.200 F 
ENDBRANCH  38  61
ENDBRANCH  12  13
ENDBRANCH   5   7
ENDBRANCH   2   3
ENDBRANCH   1   2
BRANCH   1  72
ATOM     72  C   UNL A   1      31.643  30.373  25.919  1.00  0.00     0.117 C 
BRANCH  72  73
ATOM     73  N   UNL A   1      31.660  29.381  26.973  1.00  0.00    -0.356 N 
ATOM     74  C   UNL A   1      31.758  28.024  26.920  1.00  0.00     0.228 C 
ATOM     75  H   UNL A   1      31.590  29.750  27.883  1.00  0.00     0.163 HD
ATOM     76  O   UNL A   1      31.739  27.441  28.005  1.00  0.00    -0.275 OA
BRANCH  74  77
ATOM     77  C   UNL A   1      32.005  27.306  25.588  1.00  0.00     0.133 C 
ATOM     78  C   UNL A   1      30.788  27.004  24.710  1.00  0.00     0.025 C 
ATOM     79  C   UNL A   1      32.748  25.977  25.819  1.00  0.00     0.276 C 
ATOM     80  C   UNL A   1      29.888  25.974  25.375  1.00  0.00     0.062 C 
ATOM     81  N   UNL A   1      31.905  24.889  26.339  1.00  0.00    -0.330 N 
ATOM     82  C   UNL A   1      30.662  24.677  25.595  1.00  0.00     0.262 C 
ATOM     83  H   UNL A   1      31.603  25.222  27.255  1.00  0.00     0.348 HD
BRANCH  81  84
ATOM     84  C   UNL A   1      32.651  23.638  26.588  1.00  0.00     0.300 C 
BRANCH  84  85
ATOM     85  C   UNL A   1      33.823  23.386  25.651  1.00  0.00     0.025 A 
ATOM     86  C   UNL A   1      35.120  23.736  26.079  1.00  0.00     0.014 A 
ATOM     87  C   UNL A   1      33.662  22.911  24.336  1.00  0.00     0.052 A 
ATOM     88  C   UNL A   1      36.196  23.718  25.195  1.00  0.00     0.040 A 
ATOM     89  C   UNL A   1      34.747  22.876  23.456  1.00  0.00     0.060 A 
ATOM     90  Cl  UNL A   1      32.140  22.369  23.723  1.00  0.00    -0.084 Cl
ATOM     91  C   UNL A   1      35.994  23.304  23.887  1.00  0.00     0.124 A 
ATOM     92  F   UNL A   1      37.020  23.319  23.027  1.00  0.00    -0.207 F 
ENDBRANCH  84  85
ENDBRANCH  81  84
ENDBRANCH  74  77
ENDBRANCH  72  73
ENDBRANCH   1  72
TORSDOF 12
ENDMDL
MODEL 3
REMARK VINA RESULT:     -12.4      2.389      3.724
REMARK SMILES O=C(NCCCNC(=O)[C@@H]1CCC[N@@H+](Cc2ccc(F)cc2Cl)C1)c1ccc(-c2c3nc(c(-c4c(F)c(F)c(F)c(F)c4F)c4ccc([nH]4)c(-c4c(F)c(F)c(F)c(F)c4F)c4nc(c(-c5c(F)c(F)c(F)c(F)c5F)c5ccc2[nH]5)C=C4)C=C3)cc1
REMARK SMILES IDX 5 1 4 2 3 3 1 4 2 5 25 7 26 8 87 9 27 10 86 11 28 12 29 13
REMARK SMILES IDX 30 14 80 15 31 16 85 17 79 18 81 19 32 20 84 21 78 22 77 23
REMARK SMILES IDX 33 25 65 26 45 27 64 28 46 29 49 30 63 31 82 32 47 33 48 34
REMARK SMILES IDX 62 36 83 37 50 38 34 39 35 40 43 41 36 42 37 43 41 44 44 45
REMARK SMILES IDX 38 46 39 47 42 48 40 49 66 50 67 51 75 52 68 53 69 54 73 55
REMARK SMILES IDX 76 56 70 57 71 58 74 59 72 60 51 61 52 62 60 63 53 64 54 65
REMARK SMILES IDX 58 66 61 67 55 68 56 69 59 70 57 71 6 72 7 73 8 74 9 76
REMARK SMILES IDX 10 77 11 78 24 79 12 80 14 81 13 82 15 84 16 85 17 86 22 87
REMARK SMILES IDX 18 88 21 89 23 90 19 91 20 92
REMARK H PARENT 3 6 81 24 49 35 7 75 14 83
REMARK Flexibility Score: inf
ROOT
ATOM      1  C   UNL A   1      33.226  28.500  23.784  1.00  0.00     0.042 C 
ENDROOT
BRANCH   1   2
ATOM      2  C   UNL A   1      33.649  28.931  25.177  1.00  0.00     0.118 C 
BRANCH   2   3
ATOM      3  N   UNL A   1      32.954  30.128  25.621  1.00  0.00    -0.352 N 
ATOM      4  O   UNL A   1      32.377  31.762  27.062  1.00  0.00    -0.269 OA
ATOM      5  C   UNL A   1      33.194  30.918  26.720  1.00  0.00     0.251 C 
ATOM      6  H   UNL A   1      32.202  30.416  25.052  1.00  0.00     0.163 HD
BRANCH   5   7
ATOM      7  C   UNL A   1      34.441  30.732  27.496  1.00  0.00     0.039 A 
ATOM      8  C   UNL A   1      34.746  29.490  28.052  1.00  0.00     0.014 A 
ATOM      9  C   UNL A   1      35.325  31.804  27.653  1.00  0.00     0.014 A 
ATOM     10  C   UNL A   1      35.835  29.362  28.900  1.00  0.00     0.010 A 
ATOM     11  C   UNL A   1      36.494  31.637  28.402  1.00  0.00     0.010 A 
ATOM     12  C   UNL A   1      36.748  30.419  29.049  1.00  0.00    -0.014 A 
BRANCH  12  13
ATOM     13  C   UNL A   1      38.004  30.157  29.798  1.00  0.00     0.031 A 
ATOM     14  C   UNL A   1      38.214  30.665  31.194  1.00  0.00     0.074 A 
ATOM     15  C   UNL A   1      38.936  29.386  29.204  1.00  0.00     0.049 A 
ATOM     16  N   UNL A   1      39.228  30.458  31.998  1.00  0.00    -0.248 NA
ATOM     17  C   UNL A   1      37.163  31.519  31.766  1.00  0.00     0.031 C 
ATOM     18  C   UNL A   1      38.846  28.861  27.837  1.00  0.00     0.029 A 
ATOM     19  N   UNL A   1      40.120  28.877  29.671  1.00  0.00    -0.354 N 
ATOM     20  C   UNL A   1      38.941  31.156  33.163  1.00  0.00     0.074 A 
ATOM     21  C   UNL A   1      37.674  31.824  32.952  1.00  0.00     0.031 C 
ATOM     22  C   UNL A   1      39.887  28.054  27.603  1.00  0.00     0.029 A 
ATOM     23  C   UNL A   1      40.762  28.067  28.767  1.00  0.00     0.049 A 
ATOM     24  H   UNL A   1      40.476  29.075  30.569  1.00  0.00     0.167 HD
ATOM     25  C   UNL A   1      39.666  31.218  34.306  1.00  0.00     0.037 A 
ATOM     26  C   UNL A   1      41.937  27.420  28.854  1.00  0.00     0.037 A 
ATOM     27  C   UNL A   1      40.927  30.548  34.505  1.00  0.00     0.049 A 
ATOM     28  C   UNL A   1      42.725  27.531  30.127  1.00  0.00     0.074 A 
ATOM     29  C   UNL A   1      41.737  30.544  35.627  1.00  0.00     0.029 A 
ATOM     30  N   UNL A   1      41.566  29.762  33.554  1.00  0.00    -0.354 N 
ATOM     31  N   UNL A   1      42.426  28.171  31.231  1.00  0.00    -0.248 NA
ATOM     32  C   UNL A   1      44.013  26.828  30.166  1.00  0.00     0.031 C 
ATOM     33  C   UNL A   1      42.884  29.796  35.342  1.00  0.00     0.029 A 
ATOM     34  C   UNL A   1      42.766  29.285  34.059  1.00  0.00     0.049 A 
ATOM     35  H   UNL A   1      41.217  29.572  32.653  1.00  0.00     0.167 HD
ATOM     36  C   UNL A   1      43.483  27.942  32.099  1.00  0.00     0.074 A 
ATOM     37  C   UNL A   1      44.408  27.070  31.407  1.00  0.00     0.031 C 
ATOM     38  C   UNL A   1      43.678  28.423  33.352  1.00  0.00     0.037 A 
BRANCH  25  39
ATOM     39  C   UNL A   1      39.122  32.043  35.439  1.00  0.00     0.064 A 
ATOM     40  C   UNL A   1      38.357  31.468  36.465  1.00  0.00     0.173 A 
ATOM     41  C   UNL A   1      39.431  33.408  35.540  1.00  0.00     0.173 A 
ATOM     42  F   UNL A   1      38.025  30.169  36.413  1.00  0.00    -0.203 F 
ATOM     43  C   UNL A   1      37.908  32.232  37.541  1.00  0.00     0.198 A 
ATOM     44  C   UNL A   1      39.004  34.163  36.631  1.00  0.00     0.198 A 
ATOM     45  F   UNL A   1      40.163  34.009  34.590  1.00  0.00    -0.203 F 
ATOM     46  F   UNL A   1      37.151  31.668  38.491  1.00  0.00    -0.200 F 
ATOM     47  C   UNL A   1      38.241  33.575  37.628  1.00  0.00     0.200 A 
ATOM     48  F   UNL A   1      39.340  35.458  36.721  1.00  0.00    -0.200 F 
ATOM     49  F   UNL A   1      37.824  34.305  38.672  1.00  0.00    -0.200 F 
ENDBRANCH  25  39
BRANCH  26  50
ATOM     50  C   UNL A   1      42.447  26.642  27.694  1.00  0.00     0.064 A 
ATOM     51  C   UNL A   1      42.037  25.322  27.465  1.00  0.00     0.173 A 
ATOM     52  C   UNL A   1      43.366  27.204  26.795  1.00  0.00     0.173 A 
ATOM     53  F   UNL A   1      41.171  24.733  28.302  1.00  0.00    -0.203 F 
ATOM     54  C   UNL A   1      42.551  24.584  26.399  1.00  0.00     0.198 A 
ATOM     55  C   UNL A   1      43.848  26.481  25.708  1.00  0.00     0.198 A 
ATOM     56  F   UNL A   1      43.785  28.467  26.964  1.00  0.00    -0.203 F 
ATOM     57  F   UNL A   1      42.190  23.304  26.239  1.00  0.00    -0.200 F 
ATOM     58  C   UNL A   1      43.451  25.166  25.520  1.00  0.00     0.200 A 
ATOM     59  F   UNL A   1      44.700  27.055  24.849  1.00  0.00    -0.200 F 
ATOM     60  F   UNL A   1      43.943  24.457  24.495  1.00  0.00    -0.200 F 
ENDBRANCH  26  50
BRANCH  38  61
ATOM     61  C   UNL A   1      44.935  27.990  34.049  1.00  0.00     0.064 A 
ATOM     62  C   UNL A   1      46.120  28.737  33.963  1.00  0.00     0.173 A 
ATOM     63  C   UNL A   1      44.958  26.809  34.807  1.00  0.00     0.173 A 
ATOM     64  F   UNL A   1      46.155  29.866  33.236  1.00  0.00    -0.203 F 
ATOM     65  C   UNL A   1      47.291  28.296  34.570  1.00  0.00     0.198 A 
ATOM     66  C   UNL A   1      46.122  26.389  35.443  1.00  0.00     0.198 A 
ATOM     67  F   UNL A   1      43.851  26.061  34.929  1.00  0.00    -0.203 F 
ATOM     68  F   UNL A   1      48.428  28.988  34.412  1.00  0.00    -0.200 F 
ATOM     69  C   UNL A   1      47.290  27.124  35.313  1.00  0.00     0.200 A 
ATOM     70  F   UNL A   1      46.116  25.266  36.173  1.00  0.00    -0.200 F 
ATOM     71  F   UNL A   1      48.421  26.698  35.894  1.00  0.00    -0.200 F 
ENDBRANCH  38  61
ENDBRANCH  12  13
ENDBRANCH   5   7
ENDBRANCH   2   3
ENDBRANCH   1   2
BRANCH   1  72
ATOM     72  C   UNL A   1      32.369  27.239  23.777  1.00  0.00     0.117 C 
BRANCH  72  73
ATOM     73  N   UNL A   1      32.967  26.204  22.962  1.00  0.00    -0.356 N 
ATOM     74  C   UNL A   1      33.693  25.106  23.306  1.00  0.00     0.228 C 
ATOM     75  H   UNL A   1      32.823  26.312  21.994  1.00  0.00     0.163 HD
ATOM     76  O   UNL A   1      34.078  24.401  22.370  1.00  0.00    -0.275 OA
BRANCH  74  77
ATOM     77  C   UNL A   1      33.893  24.726  24.777  1.00  0.00     0.133 C 
ATOM     78  C   UNL A   1      35.282  24.244  25.202  1.00  0.00     0.025 C 
ATOM     79  C   UNL A   1      32.881  23.644  25.200  1.00  0.00     0.276 C 
ATOM     80  C   UNL A   1      35.605  22.903  24.561  1.00  0.00     0.062 C 
ATOM     81  N   UNL A   1      33.203  22.288  24.724  1.00  0.00    -0.330 N 
ATOM     82  C   UNL A   1      34.577  21.861  24.995  1.00  0.00     0.262 C 
ATOM     83  H   UNL A   1      33.152  22.361  23.708  1.00  0.00     0.348 HD
BRANCH  81  84
ATOM     84  C   UNL A   1      32.197  21.278  25.111  1.00  0.00     0.300 C 
BRANCH  84  85
ATOM     85  C   UNL A   1      32.443  19.879  24.566  1.00  0.00     0.025 A 
ATOM     86  C   UNL A   1      32.842  18.864  25.460  1.00  0.00     0.014 A 
ATOM     87  C   UNL A   1      32.388  19.571  23.193  1.00  0.00     0.052 A 
ATOM     88  C   UNL A   1      33.276  17.625  24.993  1.00  0.00     0.040 A 
ATOM     89  C   UNL A   1      32.805  18.321  22.728  1.00  0.00     0.060 A 
ATOM     90  Cl  UNL A   1      31.832  20.700  22.009  1.00  0.00    -0.084 Cl
ATOM     91  C   UNL A   1      33.268  17.373  23.629  1.00  0.00     0.124 A 
ATOM     92  F   UNL A   1      33.716  16.196  23.176  1.00  0.00    -0.207 F 
ENDBRANCH  84  85
ENDBRANCH  81  84
ENDBRANCH  74  77
ENDBRANCH  72  73
ENDBRANCH   1  72
TORSDOF 12
ENDMDL
