MODEL 1
REMARK VINA RESULT:     -11.8      0.000      0.000
REMARK SMILES CC(C)(C(=O)NCCCNC(=O)c1ccc(-c2c3nc(c(-c4c(F)c(F)c(F)c(F)c4F)c4ccc([nH]4)c(-c4c(F)c(F)c(F)c(F)c4F)c4nc(c(-c5c(F)c(F)c(F)c(F)c5F)c5ccc2[nH]5)C=C4)C=C3)cc1)c1ccc(C(=O)CCCCl)cc1
REMARK SMILES IDX 4 1 5 2 6 3 2 5 1 6 3 7 76 8 77 9 87 10 78 11 86 12 79 13
REMARK SMILES IDX 80 14 81 15 82 16 83 17 84 18 85 19 7 20 8 21 9 22 10 23
REMARK SMILES IDX 11 24 12 26 13 27 14 28 75 29 15 30 74 31 16 32 17 33 18 34
REMARK SMILES IDX 68 35 19 36 73 37 67 38 69 39 20 40 72 41 66 42 65 43 21 45
REMARK SMILES IDX 53 46 33 47 52 48 34 49 37 50 51 51 70 52 35 53 36 54 50 56
REMARK SMILES IDX 71 57 38 58 22 59 23 60 31 61 24 62 25 63 29 64 32 65 26 66
REMARK SMILES IDX 27 67 30 68 28 69 54 70 55 71 63 72 56 73 57 74 61 75 64 76
REMARK SMILES IDX 58 77 59 78 62 79 60 80 39 81 40 82 48 83 41 84 42 85 46 86
REMARK SMILES IDX 49 87 43 88 44 89 47 90 45 91
REMARK H PARENT 6 4 10 25 69 44 37 55
REMARK Flexibility Score: inf
ROOT
ATOM      1  C   UNL A   1      31.809  28.398  26.937  1.00  0.00     0.230 C 
ATOM      2  O   UNL A   1      31.630  27.811  28.010  1.00  0.00    -0.274 OA
ATOM      3  N   UNL A   1      31.752  29.751  27.025  1.00  0.00    -0.355 N 
ATOM      4  H   UNL A   1      31.792  30.086  27.950  1.00  0.00     0.163 HD
ENDROOT
BRANCH   1   5
ATOM      5  C   UNL A   1      32.089  27.639  25.606  1.00  0.00     0.068 C 
ATOM      6  C   UNL A   1      30.841  27.690  24.703  1.00  0.00     0.026 C 
ATOM      7  C   UNL A   1      33.283  28.266  24.844  1.00  0.00     0.026 C 
BRANCH   5   8
ATOM      8  C   UNL A   1      32.510  26.180  25.935  1.00  0.00    -0.033 A 
ATOM      9  C   UNL A   1      31.618  25.203  26.403  1.00  0.00     0.005 A 
ATOM     10  C   UNL A   1      33.853  25.798  25.742  1.00  0.00     0.005 A 
ATOM     11  C   UNL A   1      32.030  23.875  26.562  1.00  0.00     0.012 A 
ATOM     12  C   UNL A   1      34.272  24.484  25.932  1.00  0.00     0.012 A 
ATOM     13  C   UNL A   1      33.346  23.502  26.273  1.00  0.00     0.018 A 
BRANCH  13  14
ATOM     14  C   UNL A   1      33.691  22.055  26.259  1.00  0.00     0.162 C 
ATOM     15  O   UNL A   1      33.919  21.479  27.321  1.00  0.00    -0.294 OA
BRANCH  14  16
ATOM     16  C   UNL A   1      33.654  21.287  24.947  1.00  0.00     0.082 C 
BRANCH  16  17
ATOM     17  C   UNL A   1      32.356  21.505  24.159  1.00  0.00     0.024 C 
BRANCH  17  18
ATOM     18  C   UNL A   1      32.499  22.033  22.732  1.00  0.00     0.110 C 
ATOM     19  Cl  UNL A   1      33.797  23.241  22.587  1.00  0.00    -0.127 Cl
ENDBRANCH  17  18
ENDBRANCH  16  17
ENDBRANCH  14  16
ENDBRANCH  13  14
ENDBRANCH   5   8
ENDBRANCH   1   5
BRANCH   3  20
ATOM     20  C   UNL A   1      31.644  30.801  26.033  1.00  0.00     0.117 C 
BRANCH  20  21
ATOM     21  C   UNL A   1      31.383  32.149  26.691  1.00  0.00     0.042 C 
BRANCH  21  22
ATOM     22  C   UNL A   1      32.643  32.801  27.247  1.00  0.00     0.118 C 
BRANCH  22  23
ATOM     23  N   UNL A   1      32.431  34.199  27.601  1.00  0.00    -0.352 N 
ATOM     24  C   UNL A   1      32.996  34.947  28.603  1.00  0.00     0.251 C 
ATOM     25  H   UNL A   1      31.784  34.679  27.035  1.00  0.00     0.163 HD
ATOM     26  O   UNL A   1      32.524  36.040  28.896  1.00  0.00    -0.269 OA
BRANCH  24  27
ATOM     27  C   UNL A   1      34.166  34.425  29.338  1.00  0.00     0.039 A 
ATOM     28  C   UNL A   1      33.971  33.786  30.564  1.00  0.00     0.014 A 
ATOM     29  C   UNL A   1      35.454  34.577  28.820  1.00  0.00     0.014 A 
ATOM     30  C   UNL A   1      35.066  33.240  31.238  1.00  0.00     0.010 A 
ATOM     31  C   UNL A   1      36.526  33.950  29.440  1.00  0.00     0.010 A 
ATOM     32  C   UNL A   1      36.345  33.286  30.662  1.00  0.00    -0.014 A 
BRANCH  32  33
ATOM     33  C   UNL A   1      37.523  32.674  31.326  1.00  0.00     0.031 A 
ATOM     34  C   UNL A   1      38.241  31.532  30.662  1.00  0.00     0.074 A 
ATOM     35  C   UNL A   1      37.890  33.086  32.555  1.00  0.00     0.049 A 
ATOM     36  N   UNL A   1      39.207  30.779  31.123  1.00  0.00    -0.248 NA
ATOM     37  C   UNL A   1      37.788  31.164  29.311  1.00  0.00     0.031 C 
ATOM     38  C   UNL A   1      37.245  34.155  33.317  1.00  0.00     0.029 A 
ATOM     39  N   UNL A   1      38.886  32.639  33.386  1.00  0.00    -0.354 N 
ATOM     40  C   UNL A   1      39.459  29.841  30.131  1.00  0.00     0.074 A 
ATOM     41  C   UNL A   1      38.506  30.078  29.070  1.00  0.00     0.031 C 
ATOM     42  C   UNL A   1      37.873  34.295  34.495  1.00  0.00     0.029 A 
ATOM     43  C   UNL A   1      38.933  33.297  34.591  1.00  0.00     0.049 A 
ATOM     44  H   UNL A   1      39.509  31.917  33.142  1.00  0.00     0.167 HD
ATOM     45  C   UNL A   1      40.415  28.882  30.096  1.00  0.00     0.037 A 
ATOM     46  C   UNL A   1      39.733  33.104  35.657  1.00  0.00     0.037 A 
ATOM     47  C   UNL A   1      41.379  28.670  31.144  1.00  0.00     0.049 A 
ATOM     48  C   UNL A   1      40.780  32.023  35.600  1.00  0.00     0.074 A 
ATOM     49  C   UNL A   1      42.425  27.766  31.184  1.00  0.00     0.029 A 
ATOM     50  N   UNL A   1      41.410  29.372  32.341  1.00  0.00    -0.354 N 
ATOM     51  N   UNL A   1      41.051  31.182  34.630  1.00  0.00    -0.248 NA
ATOM     52  C   UNL A   1      41.637  31.869  36.783  1.00  0.00     0.031 C 
ATOM     53  C   UNL A   1      43.056  27.884  32.427  1.00  0.00     0.029 A 
ATOM     54  C   UNL A   1      42.444  28.905  33.136  1.00  0.00     0.049 A 
ATOM     55  H   UNL A   1      40.788  30.095  32.588  1.00  0.00     0.167 HD
ATOM     56  C   UNL A   1      42.129  30.424  35.072  1.00  0.00     0.074 A 
ATOM     57  C   UNL A   1      42.468  30.915  36.392  1.00  0.00     0.031 C 
ATOM     58  C   UNL A   1      42.778  29.415  34.442  1.00  0.00     0.037 A 
BRANCH  45  59
ATOM     59  C   UNL A   1      40.467  27.994  28.887  1.00  0.00     0.064 A 
ATOM     60  C   UNL A   1      41.233  28.325  27.758  1.00  0.00     0.173 A 
ATOM     61  C   UNL A   1      39.764  26.779  28.866  1.00  0.00     0.173 A 
ATOM     62  F   UNL A   1      41.915  29.480  27.720  1.00  0.00    -0.203 F 
ATOM     63  C   UNL A   1      41.266  27.491  26.643  1.00  0.00     0.198 A 
ATOM     64  C   UNL A   1      39.828  25.931  27.763  1.00  0.00     0.198 A 
ATOM     65  F   UNL A   1      39.019  26.409  29.920  1.00  0.00    -0.203 F 
ATOM     66  F   UNL A   1      41.959  27.859  25.556  1.00  0.00    -0.200 F 
ATOM     67  C   UNL A   1      40.571  26.293  26.649  1.00  0.00     0.200 A 
ATOM     68  F   UNL A   1      39.167  24.765  27.776  1.00  0.00    -0.200 F 
ATOM     69  F   UNL A   1      40.610  25.488  25.578  1.00  0.00    -0.200 F 
ENDBRANCH  45  59
BRANCH  46  70
ATOM     70  C   UNL A   1      39.590  33.963  36.862  1.00  0.00     0.064 A 
ATOM     71  C   UNL A   1      40.245  35.200  36.944  1.00  0.00     0.173 A 
ATOM     72  C   UNL A   1      38.807  33.567  37.956  1.00  0.00     0.173 A 
ATOM     73  F   UNL A   1      41.021  35.615  35.932  1.00  0.00    -0.203 F 
ATOM     74  C   UNL A   1      40.144  35.995  38.084  1.00  0.00     0.198 A 
ATOM     75  C   UNL A   1      38.682  34.377  39.082  1.00  0.00     0.198 A 
ATOM     76  F   UNL A   1      38.154  32.397  37.925  1.00  0.00    -0.203 F 
ATOM     77  F   UNL A   1      40.823  37.148  38.157  1.00  0.00    -0.200 F 
ATOM     78  C   UNL A   1      39.358  35.585  39.151  1.00  0.00     0.200 A 
ATOM     79  F   UNL A   1      37.906  33.985  40.103  1.00  0.00    -0.200 F 
ATOM     80  F   UNL A   1      39.258  36.351  40.246  1.00  0.00    -0.200 F 
ENDBRANCH  46  70
BRANCH  58  81
ATOM     81  C   UNL A   1      43.955  28.804  35.147  1.00  0.00     0.064 A 
ATOM     82  C   UNL A   1      43.810  27.722  36.027  1.00  0.00     0.173 A 
ATOM     83  C   UNL A   1      45.251  29.282  34.901  1.00  0.00     0.173 A 
ATOM     84  F   UNL A   1      42.590  27.237  36.307  1.00  0.00    -0.203 F 
ATOM     85  C   UNL A   1      44.917  27.158  36.656  1.00  0.00     0.198 A 
ATOM     86  C   UNL A   1      46.359  28.694  35.504  1.00  0.00     0.198 A 
ATOM     87  F   UNL A   1      45.445  30.310  34.062  1.00  0.00    -0.203 F 
ATOM     88  F   UNL A   1      44.750  26.158  37.531  1.00  0.00    -0.200 F 
ATOM     89  C   UNL A   1      46.190  27.638  36.387  1.00  0.00     0.200 A 
ATOM     90  F   UNL A   1      47.589  29.150  35.230  1.00  0.00    -0.200 F 
ATOM     91  F   UNL A   1      47.255  27.088  36.985  1.00  0.00    -0.200 F 
ENDBRANCH  58  81
ENDBRANCH  32  33
ENDBRANCH  24  27
ENDBRANCH  22  23
ENDBRANCH  21  22
ENDBRANCH  20  21
ENDBRANCH   3  20
TORSDOF 15
ENDMDL
MODEL 2
REMARK VINA RESULT:     -11.8      2.537      8.355
REMARK SMILES CC(C)(C(=O)NCCCNC(=O)c1ccc(-c2c3nc(c(-c4c(F)c(F)c(F)c(F)c4F)c4ccc([nH]4)c(-c4c(F)c(F)c(F)c(F)c4F)c4nc(c(-c5c(F)c(F)c(F)c(F)c5F)c5ccc2[nH]5)C=C4)C=C3)cc1)c1ccc(C(=O)CCCCl)cc1
REMARK SMILES IDX 4 1 5 2 6 3 2 5 1 6 3 7 76 8 77 9 87 10 78 11 86 12 79 13
REMARK SMILES IDX 80 14 81 15 82 16 83 17 84 18 85 19 7 20 8 21 9 22 10 23
REMARK SMILES IDX 11 24 12 26 13 27 14 28 75 29 15 30 74 31 16 32 17 33 18 34
REMARK SMILES IDX 68 35 19 36 73 37 67 38 69 39 20 40 72 41 66 42 65 43 21 45
REMARK SMILES IDX 53 46 33 47 52 48 34 49 37 50 51 51 70 52 35 53 36 54 50 56
REMARK SMILES IDX 71 57 38 58 22 59 23 60 31 61 24 62 25 63 29 64 32 65 26 66
REMARK SMILES IDX 27 67 30 68 28 69 54 70 55 71 63 72 56 73 57 74 61 75 64 76
REMARK SMILES IDX 58 77 59 78 62 79 60 80 39 81 40 82 48 83 41 84 42 85 46 86
REMARK SMILES IDX 49 87 43 88 44 89 47 90 45 91
REMARK H PARENT 6 4 10 25 69 44 37 55
REMARK Flexibility Score: inf
ROOT
ATOM      1  C   UNL A   1      33.186  25.845  25.635  1.00  0.00     0.230 C 
ATOM      2  O   UNL A   1      34.339  25.452  25.427  1.00  0.00    -0.274 OA
ATOM      3  N   UNL A   1      33.109  26.976  26.381  1.00  0.00    -0.355 N 
ATOM      4  H   UNL A   1      33.969  27.446  26.472  1.00  0.00     0.163 HD
ENDROOT
BRANCH   1   5
ATOM      5  C   UNL A   1      31.936  25.105  25.071  1.00  0.00     0.068 C 
ATOM      6  C   UNL A   1      32.383  23.893  24.230  1.00  0.00     0.026 C 
ATOM      7  C   UNL A   1      31.018  24.607  26.215  1.00  0.00     0.026 C 
BRANCH   5   8
ATOM      8  C   UNL A   1      31.085  26.107  24.243  1.00  0.00    -0.033 A 
ATOM      9  C   UNL A   1      29.698  26.252  24.391  1.00  0.00     0.005 A 
ATOM     10  C   UNL A   1      31.730  26.931  23.300  1.00  0.00     0.005 A 
ATOM     11  C   UNL A   1      29.006  27.257  23.706  1.00  0.00     0.012 A 
ATOM     12  C   UNL A   1      31.038  27.911  22.593  1.00  0.00     0.012 A 
ATOM     13  C   UNL A   1      29.686  28.126  22.847  1.00  0.00     0.018 A 
BRANCH  13  14
ATOM     14  C   UNL A   1      28.958  29.302  22.298  1.00  0.00     0.162 C 
ATOM     15  O   UNL A   1      29.394  29.867  21.297  1.00  0.00    -0.294 OA
BRANCH  14  16
ATOM     16  C   UNL A   1      27.635  29.722  22.919  1.00  0.00     0.082 C 
BRANCH  16  17
ATOM     17  C   UNL A   1      27.584  31.213  23.274  1.00  0.00     0.024 C 
BRANCH  17  18
ATOM     18  C   UNL A   1      28.876  31.839  23.797  1.00  0.00     0.110 C 
ATOM     19  Cl  UNL A   1      29.142  33.475  23.149  1.00  0.00    -0.127 Cl
ENDBRANCH  17  18
ENDBRANCH  16  17
ENDBRANCH  14  16
ENDBRANCH  13  14
ENDBRANCH   5   8
ENDBRANCH   1   5
BRANCH   3  20
ATOM     20  C   UNL A   1      32.016  27.631  27.070  1.00  0.00     0.117 C 
BRANCH  20  21
ATOM     21  C   UNL A   1      31.695  28.975  26.432  1.00  0.00     0.042 C 
BRANCH  21  22
ATOM     22  C   UNL A   1      32.936  29.785  26.080  1.00  0.00     0.118 C 
BRANCH  22  23
ATOM     23  N   UNL A   1      32.786  31.197  26.411  1.00  0.00    -0.352 N 
ATOM     24  C   UNL A   1      33.464  31.962  27.326  1.00  0.00     0.251 C 
ATOM     25  H   UNL A   1      32.092  31.674  25.900  1.00  0.00     0.163 HD
ATOM     26  O   UNL A   1      33.044  33.072  27.632  1.00  0.00    -0.269 OA
BRANCH  24  27
ATOM     27  C   UNL A   1      34.694  31.437  27.953  1.00  0.00     0.039 A 
ATOM     28  C   UNL A   1      35.806  32.273  28.078  1.00  0.00     0.014 A 
ATOM     29  C   UNL A   1      34.751  30.117  28.406  1.00  0.00     0.014 A 
ATOM     30  C   UNL A   1      36.953  31.802  28.721  1.00  0.00     0.010 A 
ATOM     31  C   UNL A   1      35.853  29.683  29.130  1.00  0.00     0.010 A 
ATOM     32  C   UNL A   1      36.971  30.516  29.283  1.00  0.00    -0.014 A 
BRANCH  32  33
ATOM     33  C   UNL A   1      38.154  30.000  30.014  1.00  0.00     0.031 A 
ATOM     34  C   UNL A   1      38.444  30.496  31.405  1.00  0.00     0.074 A 
ATOM     35  C   UNL A   1      39.008  29.158  29.401  1.00  0.00     0.049 A 
ATOM     36  N   UNL A   1      39.484  30.271  32.166  1.00  0.00    -0.248 NA
ATOM     37  C   UNL A   1      37.446  31.395  32.006  1.00  0.00     0.031 C 
ATOM     38  C   UNL A   1      38.856  28.641  28.041  1.00  0.00     0.029 A 
ATOM     39  N   UNL A   1      40.184  28.604  29.839  1.00  0.00    -0.354 N 
ATOM     40  C   UNL A   1      39.274  31.014  33.319  1.00  0.00     0.074 A 
ATOM     41  C   UNL A   1      38.040  31.745  33.135  1.00  0.00     0.031 C 
ATOM     42  C   UNL A   1      39.889  27.829  27.762  1.00  0.00     0.029 A 
ATOM     43  C   UNL A   1      40.798  27.806  28.903  1.00  0.00     0.049 A 
ATOM     44  H   UNL A   1      40.554  28.762  30.737  1.00  0.00     0.167 HD
ATOM     45  C   UNL A   1      40.030  31.065  34.442  1.00  0.00     0.037 A 
ATOM     46  C   UNL A   1      41.969  27.145  28.958  1.00  0.00     0.037 A 
ATOM     47  C   UNL A   1      41.242  30.313  34.629  1.00  0.00     0.049 A 
ATOM     48  C   UNL A   1      42.799  27.227  30.212  1.00  0.00     0.074 A 
ATOM     49  C   UNL A   1      42.053  30.247  35.749  1.00  0.00     0.029 A 
ATOM     50  N   UNL A   1      41.821  29.497  33.667  1.00  0.00    -0.354 N 
ATOM     51  N   UNL A   1      42.559  27.883  31.322  1.00  0.00    -0.248 NA
ATOM     52  C   UNL A   1      44.058  26.471  30.224  1.00  0.00     0.031 C 
ATOM     53  C   UNL A   1      43.149  29.433  35.446  1.00  0.00     0.029 A 
ATOM     54  C   UNL A   1      42.990  28.941  34.160  1.00  0.00     0.049 A 
ATOM     55  H   UNL A   1      41.454  29.337  32.768  1.00  0.00     0.167 HD
ATOM     56  C   UNL A   1      43.617  27.593  32.174  1.00  0.00     0.074 A 
ATOM     57  C   UNL A   1      44.493  26.691  31.456  1.00  0.00     0.031 C 
ATOM     58  C   UNL A   1      43.843  28.032  33.436  1.00  0.00     0.037 A 
BRANCH  45  59
ATOM     59  C   UNL A   1      39.565  31.961  35.554  1.00  0.00     0.064 A 
ATOM     60  C   UNL A   1      40.021  33.283  35.677  1.00  0.00     0.173 A 
ATOM     61  C   UNL A   1      38.629  31.503  36.494  1.00  0.00     0.173 A 
ATOM     62  F   UNL A   1      40.925  33.769  34.813  1.00  0.00    -0.203 F 
ATOM     63  C   UNL A   1      39.584  34.100  36.716  1.00  0.00     0.198 A 
ATOM     64  C   UNL A   1      38.168  32.334  37.511  1.00  0.00     0.198 A 
ATOM     65  F   UNL A   1      38.155  30.249  36.422  1.00  0.00    -0.203 F 
ATOM     66  F   UNL A   1      40.078  35.339  36.845  1.00  0.00    -0.200 F 
ATOM     67  C   UNL A   1      38.652  33.628  37.628  1.00  0.00     0.200 A 
ATOM     68  F   UNL A   1      37.256  31.881  38.383  1.00  0.00    -0.200 F 
ATOM     69  F   UNL A   1      38.227  34.418  38.623  1.00  0.00    -0.200 F 
ENDBRANCH  45  59
BRANCH  46  70
ATOM     70  C   UNL A   1      42.421  26.331  27.798  1.00  0.00     0.064 A 
ATOM     71  C   UNL A   1      43.316  26.856  26.856  1.00  0.00     0.173 A 
ATOM     72  C   UNL A   1      41.963  25.020  27.601  1.00  0.00     0.173 A 
ATOM     73  F   UNL A   1      43.768  28.112  26.990  1.00  0.00    -0.203 F 
ATOM     74  C   UNL A   1      43.716  26.111  25.749  1.00  0.00     0.198 A 
ATOM     75  C   UNL A   1      42.388  24.265  26.510  1.00  0.00     0.198 A 
ATOM     76  F   UNL A   1      41.111  24.467  28.477  1.00  0.00    -0.203 F 
ATOM     77  F   UNL A   1      44.532  26.657  24.837  1.00  0.00    -0.200 F 
ATOM     78  C   UNL A   1      43.256  24.814  25.579  1.00  0.00     0.200 A 
ATOM     79  F   UNL A   1      41.955  23.006  26.360  1.00  0.00    -0.200 F 
ATOM     80  F   UNL A   1      43.643  24.097  24.515  1.00  0.00    -0.200 F 
ENDBRANCH  46  70
BRANCH  58  81
ATOM     81  C   UNL A   1      45.059  27.506  34.144  1.00  0.00     0.064 A 
ATOM     82  C   UNL A   1      46.284  28.188  34.118  1.00  0.00     0.173 A 
ATOM     83  C   UNL A   1      44.981  26.324  34.897  1.00  0.00     0.173 A 
ATOM     84  F   UNL A   1      46.414  29.315  33.401  1.00  0.00    -0.203 F 
ATOM     85  C   UNL A   1      47.393  27.692  34.797  1.00  0.00     0.198 A 
ATOM     86  C   UNL A   1      46.082  25.849  35.603  1.00  0.00     0.198 A 
ATOM     87  F   UNL A   1      43.830  25.637  34.961  1.00  0.00    -0.203 F 
ATOM     88  F   UNL A   1      48.567  28.334  34.717  1.00  0.00    -0.200 F 
ATOM     89  C   UNL A   1      47.289  26.529  35.545  1.00  0.00     0.200 A 
ATOM     90  F   UNL A   1      45.974  24.734  36.338  1.00  0.00    -0.200 F 
ATOM     91  F   UNL A   1      48.355  26.058  36.207  1.00  0.00    -0.200 F 
ENDBRANCH  58  81
ENDBRANCH  32  33
ENDBRANCH  24  27
ENDBRANCH  22  23
ENDBRANCH  21  22
ENDBRANCH  20  21
ENDBRANCH   3  20
TORSDOF 15
ENDMDL
MODEL 3
REMARK VINA RESULT:     -11.7      2.594      4.360
REMARK SMILES CC(C)(C(=O)NCCCNC(=O)c1ccc(-c2c3nc(c(-c4c(F)c(F)c(F)c(F)c4F)c4ccc([nH]4)c(-c4c(F)c(F)c(F)c(F)c4F)c4nc(c(-c5c(F)c(F)c(F)c(F)c5F)c5ccc2[nH]5)C=C4)C=C3)cc1)c1ccc(C(=O)CCCCl)cc1
REMARK SMILES IDX 4 1 5 2 6 3 2 5 1 6 3 7 76 8 77 9 87 10 78 11 86 12 79 13
REMARK SMILES IDX 80 14 81 15 82 16 83 17 84 18 85 19 7 20 8 21 9 22 10 23
REMARK SMILES IDX 11 24 12 26 13 27 14 28 75 29 15 30 74 31 16 32 17 33 18 34
REMARK SMILES IDX 68 35 19 36 73 37 67 38 69 39 20 40 72 41 66 42 65 43 21 45
REMARK SMILES IDX 53 46 33 47 52 48 34 49 37 50 51 51 70 52 35 53 36 54 50 56
REMARK SMILES IDX 71 57 38 58 22 59 23 60 31 61 24 62 25 63 29 64 32 65 26 66
REMARK SMILES IDX 27 67 30 68 28 69 54 70 55 71 63 72 56 73 57 74 61 75 64 76
REMARK SMILES IDX 58 77 59 78 62 79 60 80 39 81 40 82 48 83 41 84 42 85 46 86
REMARK SMILES IDX 49 87 43 88 44 89 47 90 45 91
REMARK H PARENT 6 4 10 25 69 44 37 55
REMARK Flexibility Score: inf
ROOT
ATOM      1  C   UNL A   1      30.873  25.193  26.034  1.00  0.00     0.230 C 
ATOM      2  O   UNL A   1      30.402  24.213  26.622  1.00  0.00    -0.274 OA
ATOM      3  N   UNL A   1      31.094  26.269  26.832  1.00  0.00    -0.355 N 
ATOM      4  H   UNL A   1      31.056  26.059  27.793  1.00  0.00     0.163 HD
ENDROOT
BRANCH   1   5
ATOM      5  C   UNL A   1      31.195  25.179  24.510  1.00  0.00     0.068 C 
ATOM      6  C   UNL A   1      32.710  25.363  24.295  1.00  0.00     0.026 C 
ATOM      7  C   UNL A   1      30.757  23.843  23.859  1.00  0.00     0.026 C 
BRANCH   5   8
ATOM      8  C   UNL A   1      30.367  26.289  23.807  1.00  0.00    -0.033 A 
ATOM      9  C   UNL A   1      28.984  26.450  23.979  1.00  0.00     0.005 A 
ATOM     10  C   UNL A   1      31.030  27.200  22.961  1.00  0.00     0.005 A 
ATOM     11  C   UNL A   1      28.316  27.545  23.417  1.00  0.00     0.012 A 
ATOM     12  C   UNL A   1      30.361  28.272  22.374  1.00  0.00     0.012 A 
ATOM     13  C   UNL A   1      29.015  28.489  22.659  1.00  0.00     0.018 A 
BRANCH  13  14
ATOM     14  C   UNL A   1      28.315  29.737  22.253  1.00  0.00     0.162 C 
ATOM     15  O   UNL A   1      28.070  29.931  21.063  1.00  0.00    -0.294 OA
BRANCH  14  16
ATOM     16  C   UNL A   1      27.823  30.703  23.319  1.00  0.00     0.082 C 
BRANCH  16  17
ATOM     17  C   UNL A   1      28.878  31.739  23.726  1.00  0.00     0.024 C 
BRANCH  17  18
ATOM     18  C   UNL A   1      28.812  33.097  23.028  1.00  0.00     0.110 C 
ATOM     19  Cl  UNL A   1      28.015  33.001  21.440  1.00  0.00    -0.127 Cl
ENDBRANCH  17  18
ENDBRANCH  16  17
ENDBRANCH  14  16
ENDBRANCH  13  14
ENDBRANCH   5   8
ENDBRANCH   1   5
BRANCH   3  20
ATOM     20  C   UNL A   1      31.375  27.662  26.555  1.00  0.00     0.117 C 
BRANCH  20  21
ATOM     21  C   UNL A   1      32.856  27.966  26.730  1.00  0.00     0.042 C 
BRANCH  21  22
ATOM     22  C   UNL A   1      33.375  29.015  25.754  1.00  0.00     0.118 C 
BRANCH  22  23
ATOM     23  N   UNL A   1      32.933  30.359  26.101  1.00  0.00    -0.352 N 
ATOM     24  C   UNL A   1      33.399  31.218  27.064  1.00  0.00     0.251 C 
ATOM     25  H   UNL A   1      32.184  30.705  25.561  1.00  0.00     0.163 HD
ATOM     26  O   UNL A   1      32.753  32.214  27.367  1.00  0.00    -0.269 OA
BRANCH  24  27
ATOM     27  C   UNL A   1      34.675  30.928  27.748  1.00  0.00     0.039 A 
ATOM     28  C   UNL A   1      35.670  31.907  27.779  1.00  0.00     0.014 A 
ATOM     29  C   UNL A   1      34.891  29.685  28.349  1.00  0.00     0.014 A 
ATOM     30  C   UNL A   1      36.858  31.661  28.473  1.00  0.00     0.010 A 
ATOM     31  C   UNL A   1      36.028  29.479  29.119  1.00  0.00     0.010 A 
ATOM     32  C   UNL A   1      37.029  30.460  29.178  1.00  0.00    -0.014 A 
BRANCH  32  33
ATOM     33  C   UNL A   1      38.257  30.184  29.965  1.00  0.00     0.031 A 
ATOM     34  C   UNL A   1      39.307  29.263  29.407  1.00  0.00     0.074 A 
ATOM     35  C   UNL A   1      38.386  30.691  31.206  1.00  0.00     0.049 A 
ATOM     36  N   UNL A   1      40.387  28.794  29.977  1.00  0.00    -0.248 NA
ATOM     37  C   UNL A   1      39.094  28.774  28.035  1.00  0.00     0.031 C 
ATOM     38  C   UNL A   1      37.417  31.563  31.870  1.00  0.00     0.029 A 
ATOM     39  N   UNL A   1      39.382  30.530  32.136  1.00  0.00    -0.354 N 
ATOM     40  C   UNL A   1      40.966  27.944  29.045  1.00  0.00     0.074 A 
ATOM     41  C   UNL A   1      40.088  27.912  27.896  1.00  0.00     0.031 C 
ATOM     42  C   UNL A   1      37.874  31.876  33.093  1.00  0.00     0.029 A 
ATOM     43  C   UNL A   1      39.142  31.191  33.317  1.00  0.00     0.049 A 
ATOM     44  H   UNL A   1      40.190  29.993  31.974  1.00  0.00     0.167 HD
ATOM     45  C   UNL A   1      42.137  27.269  29.129  1.00  0.00     0.037 A 
ATOM     46  C   UNL A   1      39.860  31.225  34.456  1.00  0.00     0.037 A 
ATOM     47  C   UNL A   1      43.019  27.327  30.265  1.00  0.00     0.049 A 
ATOM     48  C   UNL A   1      41.153  30.455  34.529  1.00  0.00     0.074 A 
ATOM     49  C   UNL A   1      44.256  26.729  30.429  1.00  0.00     0.029 A 
ATOM     50  N   UNL A   1      42.754  28.026  31.434  1.00  0.00    -0.354 N 
ATOM     51  N   UNL A   1      41.723  29.704  33.618  1.00  0.00    -0.248 NA
ATOM     52  C   UNL A   1      41.904  30.543  35.789  1.00  0.00     0.031 C 
ATOM     53  C   UNL A   1      44.714  27.022  31.718  1.00  0.00     0.029 A 
ATOM     54  C   UNL A   1      43.793  27.855  32.333  1.00  0.00     0.049 A 
ATOM     55  H   UNL A   1      41.945  28.564  31.600  1.00  0.00     0.167 HD
ATOM     56  C   UNL A   1      42.913  29.259  34.179  1.00  0.00     0.074 A 
ATOM     57  C   UNL A   1      42.988  29.836  35.506  1.00  0.00     0.031 C 
ATOM     58  C   UNL A   1      43.859  28.448  33.645  1.00  0.00     0.037 A 
BRANCH  45  59
ATOM     59  C   UNL A   1      42.531  26.411  27.961  1.00  0.00     0.064 A 
ATOM     60  C   UNL A   1      42.047  25.102  27.809  1.00  0.00     0.173 A 
ATOM     61  C   UNL A   1      43.381  26.913  26.964  1.00  0.00     0.173 A 
ATOM     62  F   UNL A   1      41.240  24.568  28.738  1.00  0.00    -0.203 F 
ATOM     63  C   UNL A   1      42.426  24.319  26.722  1.00  0.00     0.198 A 
ATOM     64  C   UNL A   1      43.730  26.139  25.861  1.00  0.00     0.198 A 
ATOM     65  F   UNL A   1      43.870  28.160  27.056  1.00  0.00    -0.203 F 
ATOM     66  F   UNL A   1      41.995  23.052  26.630  1.00  0.00    -0.200 F 
ATOM     67  C   UNL A   1      43.260  24.839  25.745  1.00  0.00     0.200 A 
ATOM     68  F   UNL A   1      44.525  26.649  24.910  1.00  0.00    -0.200 F 
ATOM     69  F   UNL A   1      43.617  24.086  24.696  1.00  0.00    -0.200 F 
ENDBRANCH  45  59
BRANCH  46  70
ATOM     70  C   UNL A   1      39.386  32.031  35.612  1.00  0.00     0.064 A 
ATOM     71  C   UNL A   1      39.805  33.357  35.784  1.00  0.00     0.173 A 
ATOM     72  C   UNL A   1      38.516  31.492  36.571  1.00  0.00     0.173 A 
ATOM     73  F   UNL A   1      40.653  33.911  34.904  1.00  0.00    -0.203 F 
ATOM     74  C   UNL A   1      39.392  34.106  36.884  1.00  0.00     0.198 A 
ATOM     75  C   UNL A   1      38.079  32.253  37.654  1.00  0.00     0.198 A 
ATOM     76  F   UNL A   1      38.079  30.231  36.450  1.00  0.00    -0.203 F 
ATOM     77  F   UNL A   1      39.850  35.355  37.050  1.00  0.00    -0.200 F 
ATOM     78  C   UNL A   1      38.525  33.555  37.816  1.00  0.00     0.200 A 
ATOM     79  F   UNL A   1      37.227  31.723  38.542  1.00  0.00    -0.200 F 
ATOM     80  F   UNL A   1      38.126  34.278  38.872  1.00  0.00    -0.200 F 
ENDBRANCH  46  70
BRANCH  58  81
ATOM     81  C   UNL A   1      45.082  28.174  34.472  1.00  0.00     0.064 A 
ATOM     82  C   UNL A   1      45.173  27.053  35.309  1.00  0.00     0.173 A 
ATOM     83  C   UNL A   1      46.195  29.025  34.389  1.00  0.00     0.173 A 
ATOM     84  F   UNL A   1      44.130  26.217  35.435  1.00  0.00    -0.203 F 
ATOM     85  C   UNL A   1      46.324  26.807  36.054  1.00  0.00     0.198 A 
ATOM     86  C   UNL A   1      47.357  28.757  35.107  1.00  0.00     0.198 A 
ATOM     87  F   UNL A   1      46.163  30.107  33.598  1.00  0.00    -0.203 F 
ATOM     88  F   UNL A   1      46.370  25.758  36.885  1.00  0.00    -0.200 F 
ATOM     89  C   UNL A   1      47.417  27.654  35.945  1.00  0.00     0.200 A 
ATOM     90  F   UNL A   1      48.417  29.568  34.988  1.00  0.00    -0.200 F 
ATOM     91  F   UNL A   1      48.528  27.411  36.654  1.00  0.00    -0.200 F 
ENDBRANCH  58  81
ENDBRANCH  32  33
ENDBRANCH  24  27
ENDBRANCH  22  23
ENDBRANCH  21  22
ENDBRANCH  20  21
ENDBRANCH   3  20
TORSDOF 15
ENDMDL
