MODEL 1
REMARK VINA RESULT:     -13.9      0.000      0.000
REMARK SMILES O=C(CN1CC2(CCC1=O)CC[NH+](Cc1ccc(Cl)c(F)c1)CC2)NCCCNC(=O)c1ccc(-c2c3nc(c(-c4c(F)c(F)c(F)c(F)c4F)c4ccc([nH]4)c(-c4c(F)c(F)c(F)c(F)c4F)c4nc(c(-c5c(F)c(F)c(F)c(F)c5F)c5ccc2[nH]5)C=C4)C=C3)cc1
REMARK SMILES IDX 26 1 25 2 1 3 2 4 3 6 4 7 5 8 9 9 6 10 8 11 10 12 7 13 11 14
REMARK SMILES IDX 24 15 12 16 23 17 13 18 14 20 15 21 16 22 22 23 17 24 20 25
REMARK SMILES IDX 18 26 21 27 19 28 27 29 28 30 29 31 30 32 31 34 32 35 33 36
REMARK SMILES IDX 94 37 34 38 93 39 35 40 36 41 37 42 87 43 38 44 92 45 86 46
REMARK SMILES IDX 88 47 39 48 91 49 85 50 84 51 40 53 72 54 52 55 71 56 53 57
REMARK SMILES IDX 56 58 70 59 89 60 54 61 55 62 69 64 90 65 57 66 41 67 42 68
REMARK SMILES IDX 50 69 43 70 44 71 48 72 51 73 45 74 46 75 49 76 47 77 73 78
REMARK SMILES IDX 74 79 82 80 75 81 76 82 80 83 83 84 77 85 78 86 81 87 79 88
REMARK SMILES IDX 58 89 59 90 67 91 60 92 61 93 65 94 68 95 62 96 63 97 66 98
REMARK SMILES IDX 64 99
REMARK H PARENT 25 5 13 19 29 33 88 52 56 63
REMARK Flexibility Score: inf
ROOT
ATOM      1  C   UNL A   1      31.439  30.706  26.579  1.00  0.00     0.117 C 
ENDROOT
BRANCH   1   2
ATOM      2  N   UNL A   1      32.066  30.142  25.409  1.00  0.00    -0.354 N 
ATOM      3  O   UNL A   1      33.484  28.737  26.541  1.00  0.00    -0.273 OA
ATOM      4  C   UNL A   1      33.043  29.178  25.483  1.00  0.00     0.239 C 
ATOM      5  H   UNL A   1      31.783  30.461  24.521  1.00  0.00     0.163 HD
BRANCH   4   6
ATOM      6  C   UNL A   1      33.678  28.846  24.144  1.00  0.00     0.219 C 
BRANCH   6   7
ATOM      7  N   UNL A   1      32.899  27.910  23.333  1.00  0.00    -0.333 N 
ATOM      8  C   UNL A   1      31.584  27.510  23.816  1.00  0.00     0.127 C 
ATOM      9  C   UNL A   1      33.420  27.410  22.156  1.00  0.00     0.223 C 
ATOM     10  C   UNL A   1      31.498  25.981  23.868  1.00  0.00    -0.001 C 
ATOM     11  C   UNL A   1      33.011  25.993  21.791  1.00  0.00     0.101 C 
ATOM     12  O   UNL A   1      34.277  28.020  21.519  1.00  0.00    -0.275 OA
ATOM     13  C   UNL A   1      31.705  25.505  22.408  1.00  0.00     0.019 C 
ATOM     14  C   UNL A   1      32.610  25.437  24.797  1.00  0.00     0.070 C 
ATOM     15  C   UNL A   1      30.097  25.518  24.330  1.00  0.00     0.070 C 
ATOM     16  C   UNL A   1      32.264  25.492  26.284  1.00  0.00     0.263 C 
ATOM     17  C   UNL A   1      29.884  25.510  25.846  1.00  0.00     0.263 C 
ATOM     18  N   UNL A   1      30.969  24.922  26.619  1.00  0.00    -0.331 N 
ATOM     19  H   UNL A   1      30.780  25.227  27.575  1.00  0.00     0.348 HD
BRANCH  18  20
ATOM     20  C   UNL A   1      30.926  23.473  26.869  1.00  0.00     0.299 C 
BRANCH  20  21
ATOM     21  C   UNL A   1      32.004  22.633  26.218  1.00  0.00     0.009 A 
ATOM     22  C   UNL A   1      33.190  22.334  26.906  1.00  0.00     0.011 A 
ATOM     23  C   UNL A   1      31.801  22.060  24.954  1.00  0.00     0.050 A 
ATOM     24  C   UNL A   1      34.076  21.370  26.413  1.00  0.00     0.024 A 
ATOM     25  C   UNL A   1      32.665  21.072  24.485  1.00  0.00     0.142 A 
ATOM     26  C   UNL A   1      33.787  20.708  25.221  1.00  0.00     0.076 A 
ATOM     27  F   UNL A   1      32.346  20.428  23.353  1.00  0.00    -0.205 F 
ATOM     28  Cl  UNL A   1      34.795  19.412  24.705  1.00  0.00    -0.081 Cl
ENDBRANCH  20  21
ENDBRANCH  18  20
ENDBRANCH   6   7
ENDBRANCH   4   6
ENDBRANCH   1   2
BRANCH   1  29
ATOM     29  C   UNL A   1      31.459  32.230  26.549  1.00  0.00     0.042 C 
BRANCH  29  30
ATOM     30  C   UNL A   1      32.632  32.851  27.305  1.00  0.00     0.118 C 
BRANCH  30  31
ATOM     31  N   UNL A   1      32.398  34.243  27.671  1.00  0.00    -0.352 N 
ATOM     32  C   UNL A   1      32.992  35.026  28.625  1.00  0.00     0.251 C 
ATOM     33  H   UNL A   1      31.698  34.693  27.148  1.00  0.00     0.163 HD
ATOM     34  O   UNL A   1      32.521  36.134  28.884  1.00  0.00    -0.269 OA
BRANCH  32  35
ATOM     35  C   UNL A   1      34.177  34.548  29.368  1.00  0.00     0.039 A 
ATOM     36  C   UNL A   1      33.994  33.998  30.640  1.00  0.00     0.014 A 
ATOM     37  C   UNL A   1      35.463  34.651  28.832  1.00  0.00     0.014 A 
ATOM     38  C   UNL A   1      35.087  33.478  31.337  1.00  0.00     0.010 A 
ATOM     39  C   UNL A   1      36.540  34.064  29.492  1.00  0.00     0.010 A 
ATOM     40  C   UNL A   1      36.362  33.462  30.747  1.00  0.00    -0.014 A 
BRANCH  40  41
ATOM     41  C   UNL A   1      37.505  32.783  31.413  1.00  0.00     0.031 A 
ATOM     42  C   UNL A   1      38.193  31.620  30.756  1.00  0.00     0.074 A 
ATOM     43  C   UNL A   1      37.878  33.177  32.646  1.00  0.00     0.049 A 
ATOM     44  N   UNL A   1      39.160  30.865  31.214  1.00  0.00    -0.248 NA
ATOM     45  C   UNL A   1      37.719  31.240  29.416  1.00  0.00     0.031 C 
ATOM     46  C   UNL A   1      37.261  34.264  33.408  1.00  0.00     0.029 A 
ATOM     47  N   UNL A   1      38.858  32.702  33.482  1.00  0.00    -0.354 N 
ATOM     48  C   UNL A   1      39.403  29.918  30.227  1.00  0.00     0.074 A 
ATOM     49  C   UNL A   1      38.448  30.161  29.167  1.00  0.00     0.031 C 
ATOM     50  C   UNL A   1      37.889  34.388  34.587  1.00  0.00     0.029 A 
ATOM     51  C   UNL A   1      38.920  33.359  34.687  1.00  0.00     0.049 A 
ATOM     52  H   UNL A   1      39.460  31.960  33.241  1.00  0.00     0.167 HD
ATOM     53  C   UNL A   1      40.349  28.949  30.200  1.00  0.00     0.037 A 
ATOM     54  C   UNL A   1      39.707  33.148  35.759  1.00  0.00     0.037 A 
ATOM     55  C   UNL A   1      41.303  28.716  31.254  1.00  0.00     0.049 A 
ATOM     56  C   UNL A   1      40.727  32.043  35.715  1.00  0.00     0.074 A 
ATOM     57  C   UNL A   1      42.337  27.796  31.294  1.00  0.00     0.029 A 
ATOM     58  N   UNL A   1      41.334  29.402  32.460  1.00  0.00    -0.354 N 
ATOM     59  N   UNL A   1      40.997  31.202  34.745  1.00  0.00    -0.248 NA
ATOM     60  C   UNL A   1      41.555  31.859  36.914  1.00  0.00     0.031 C 
ATOM     61  C   UNL A   1      42.953  27.883  32.546  1.00  0.00     0.029 A 
ATOM     62  C   UNL A   1      42.348  28.901  33.264  1.00  0.00     0.049 A 
ATOM     63  H   UNL A   1      40.727  30.135  32.709  1.00  0.00     0.167 HD
ATOM     64  C   UNL A   1      42.039  30.410  35.207  1.00  0.00     0.074 A 
ATOM     65  C   UNL A   1      42.368  30.884  36.534  1.00  0.00     0.031 C 
ATOM     66  C   UNL A   1      42.666  29.380  34.586  1.00  0.00     0.037 A 
BRANCH  53  67
ATOM     67  C   UNL A   1      40.398  28.057  28.991  1.00  0.00     0.064 A 
ATOM     68  C   UNL A   1      39.680  26.853  28.932  1.00  0.00     0.173 A 
ATOM     69  C   UNL A   1      41.137  28.435  27.859  1.00  0.00     0.173 A 
ATOM     70  F   UNL A   1      38.964  26.441  29.988  1.00  0.00    -0.203 F 
ATOM     71  C   UNL A   1      39.723  26.047  27.797  1.00  0.00     0.198 A 
ATOM     72  C   UNL A   1      41.150  27.643  26.713  1.00  0.00     0.198 A 
ATOM     73  F   UNL A   1      41.835  29.580  27.856  1.00  0.00    -0.203 F 
ATOM     74  F   UNL A   1      39.068  24.877  27.783  1.00  0.00    -0.200 F 
ATOM     75  C   UNL A   1      40.450  26.446  26.686  1.00  0.00     0.200 A 
ATOM     76  F   UNL A   1      41.840  28.038  25.635  1.00  0.00    -0.200 F 
ATOM     77  F   UNL A   1      40.482  25.673  25.591  1.00  0.00    -0.200 F 
ENDBRANCH  53  67
BRANCH  54  78
ATOM     78  C   UNL A   1      39.567  34.007  36.964  1.00  0.00     0.064 A 
ATOM     79  C   UNL A   1      38.794  33.596  38.058  1.00  0.00     0.173 A 
ATOM     80  C   UNL A   1      40.192  35.261  37.043  1.00  0.00     0.173 A 
ATOM     81  F   UNL A   1      38.158  32.416  38.022  1.00  0.00    -0.203 F 
ATOM     82  C   UNL A   1      38.632  34.414  39.176  1.00  0.00     0.198 A 
ATOM     83  C   UNL A   1      40.057  36.064  38.175  1.00  0.00     0.198 A 
ATOM     84  F   UNL A   1      40.946  35.703  36.026  1.00  0.00    -0.203 F 
ATOM     85  F   UNL A   1      37.845  34.017  40.184  1.00  0.00    -0.200 F 
ATOM     86  C   UNL A   1      39.269  35.644  39.236  1.00  0.00     0.200 A 
ATOM     87  F   UNL A   1      40.687  37.245  38.234  1.00  0.00    -0.200 F 
ATOM     88  F   UNL A   1      39.116  36.428  40.311  1.00  0.00    -0.200 F 
ENDBRANCH  54  78
BRANCH  66  89
ATOM     89  C   UNL A   1      43.791  28.713  35.324  1.00  0.00     0.064 A 
ATOM     90  C   UNL A   1      45.123  29.130  35.175  1.00  0.00     0.173 A 
ATOM     91  C   UNL A   1      43.531  27.662  36.219  1.00  0.00     0.173 A 
ATOM     92  F   UNL A   1      45.429  30.119  34.322  1.00  0.00    -0.203 F 
ATOM     93  C   UNL A   1      46.153  28.500  35.869  1.00  0.00     0.198 A 
ATOM     94  C   UNL A   1      44.559  27.059  36.936  1.00  0.00     0.198 A 
ATOM     95  F   UNL A   1      42.275  27.228  36.404  1.00  0.00    -0.203 F 
ATOM     96  F   UNL A   1      47.423  28.879  35.667  1.00  0.00    -0.200 F 
ATOM     97  C   UNL A   1      45.870  27.471  36.755  1.00  0.00     0.200 A 
ATOM     98  F   UNL A   1      44.281  26.075  37.804  1.00  0.00    -0.200 F 
ATOM     99  F   UNL A   1      46.862  26.873  37.427  1.00  0.00    -0.200 F 
ENDBRANCH  66  89
ENDBRANCH  40  41
ENDBRANCH  32  35
ENDBRANCH  30  31
ENDBRANCH  29  30
ENDBRANCH   1  29
TORSDOF 13
ENDMDL
MODEL 2
REMARK VINA RESULT:     -13.7      0.432      7.125
REMARK SMILES O=C(CN1CC2(CCC1=O)CC[NH+](Cc1ccc(Cl)c(F)c1)CC2)NCCCNC(=O)c1ccc(-c2c3nc(c(-c4c(F)c(F)c(F)c(F)c4F)c4ccc([nH]4)c(-c4c(F)c(F)c(F)c(F)c4F)c4nc(c(-c5c(F)c(F)c(F)c(F)c5F)c5ccc2[nH]5)C=C4)C=C3)cc1
REMARK SMILES IDX 26 1 25 2 1 3 2 4 3 6 4 7 5 8 9 9 6 10 8 11 10 12 7 13 11 14
REMARK SMILES IDX 24 15 12 16 23 17 13 18 14 20 15 21 16 22 22 23 17 24 20 25
REMARK SMILES IDX 18 26 21 27 19 28 27 29 28 30 29 31 30 32 31 34 32 35 33 36
REMARK SMILES IDX 94 37 34 38 93 39 35 40 36 41 37 42 87 43 38 44 92 45 86 46
REMARK SMILES IDX 88 47 39 48 91 49 85 50 84 51 40 53 72 54 52 55 71 56 53 57
REMARK SMILES IDX 56 58 70 59 89 60 54 61 55 62 69 64 90 65 57 66 41 67 42 68
REMARK SMILES IDX 50 69 43 70 44 71 48 72 51 73 45 74 46 75 49 76 47 77 73 78
REMARK SMILES IDX 74 79 82 80 75 81 76 82 80 83 83 84 77 85 78 86 81 87 79 88
REMARK SMILES IDX 58 89 59 90 67 91 60 92 61 93 65 94 68 95 62 96 63 97 66 98
REMARK SMILES IDX 64 99
REMARK H PARENT 25 5 13 19 29 33 88 52 56 63
REMARK Flexibility Score: inf
ROOT
ATOM      1  C   UNL A   1      31.318  30.902  26.520  1.00  0.00     0.117 C 
ENDROOT
BRANCH   1   2
ATOM      2  N   UNL A   1      31.985  30.323  25.380  1.00  0.00    -0.354 N 
ATOM      3  O   UNL A   1      33.226  28.799  26.565  1.00  0.00    -0.273 OA
ATOM      4  C   UNL A   1      32.889  29.293  25.493  1.00  0.00     0.239 C 
ATOM      5  H   UNL A   1      31.786  30.680  24.485  1.00  0.00     0.163 HD
BRANCH   4   6
ATOM      6  C   UNL A   1      33.591  28.949  24.191  1.00  0.00     0.219 C 
BRANCH   6   7
ATOM      7  N   UNL A   1      32.859  27.998  23.355  1.00  0.00    -0.333 N 
ATOM      8  C   UNL A   1      31.537  27.570  23.794  1.00  0.00     0.127 C 
ATOM      9  C   UNL A   1      33.430  27.508  22.197  1.00  0.00     0.223 C 
ATOM     10  C   UNL A   1      31.480  26.041  23.844  1.00  0.00    -0.001 C 
ATOM     11  C   UNL A   1      33.062  26.083  21.820  1.00  0.00     0.101 C 
ATOM     12  O   UNL A   1      34.295  28.135  21.588  1.00  0.00    -0.275 OA
ATOM     13  C   UNL A   1      31.747  25.569  22.392  1.00  0.00     0.019 C 
ATOM     14  C   UNL A   1      32.572  25.519  24.811  1.00  0.00     0.070 C 
ATOM     15  C   UNL A   1      30.075  25.549  24.259  1.00  0.00     0.070 C 
ATOM     16  C   UNL A   1      32.174  25.567  26.285  1.00  0.00     0.263 C 
ATOM     17  C   UNL A   1      29.810  25.537  25.767  1.00  0.00     0.263 C 
ATOM     18  N   UNL A   1      30.880  24.971  26.576  1.00  0.00    -0.331 N 
ATOM     19  H   UNL A   1      30.653  25.272  27.525  1.00  0.00     0.348 HD
BRANCH  18  20
ATOM     20  C   UNL A   1      30.859  23.522  26.825  1.00  0.00     0.299 C 
BRANCH  20  21
ATOM     21  C   UNL A   1      31.968  22.702  26.203  1.00  0.00     0.009 A 
ATOM     22  C   UNL A   1      33.133  22.408  26.930  1.00  0.00     0.011 A 
ATOM     23  C   UNL A   1      31.817  22.143  24.926  1.00  0.00     0.050 A 
ATOM     24  C   UNL A   1      34.047  21.461  26.456  1.00  0.00     0.024 A 
ATOM     25  C   UNL A   1      32.709  21.171  24.476  1.00  0.00     0.142 A 
ATOM     26  C   UNL A   1      33.809  20.810  25.247  1.00  0.00     0.076 A 
ATOM     27  F   UNL A   1      32.438  20.537  23.325  1.00  0.00    -0.205 F 
ATOM     28  Cl  UNL A   1      34.849  19.532  24.752  1.00  0.00    -0.081 Cl
ENDBRANCH  20  21
ENDBRANCH  18  20
ENDBRANCH   6   7
ENDBRANCH   4   6
ENDBRANCH   1   2
BRANCH   1  29
ATOM     29  C   UNL A   1      31.396  32.423  26.506  1.00  0.00     0.042 C 
BRANCH  29  30
ATOM     30  C   UNL A   1      32.617  32.991  27.227  1.00  0.00     0.118 C 
BRANCH  30  31
ATOM     31  N   UNL A   1      32.415  34.356  27.698  1.00  0.00    -0.352 N 
ATOM     32  C   UNL A   1      33.020  35.048  28.714  1.00  0.00     0.251 C 
ATOM     33  H   UNL A   1      31.731  34.863  27.206  1.00  0.00     0.163 HD
ATOM     34  O   UNL A   1      32.574  36.144  29.055  1.00  0.00    -0.269 OA
BRANCH  32  35
ATOM     35  C   UNL A   1      34.186  34.483  29.426  1.00  0.00     0.039 A 
ATOM     36  C   UNL A   1      33.978  33.846  30.652  1.00  0.00     0.014 A 
ATOM     37  C   UNL A   1      35.478  34.591  28.905  1.00  0.00     0.014 A 
ATOM     38  C   UNL A   1      35.052  33.246  31.314  1.00  0.00     0.010 A 
ATOM     39  C   UNL A   1      36.534  33.926  29.526  1.00  0.00     0.010 A 
ATOM     40  C   UNL A   1      36.331  33.239  30.732  1.00  0.00    -0.014 A 
BRANCH  40  41
ATOM     41  C   UNL A   1      37.450  32.481  31.351  1.00  0.00     0.031 A 
ATOM     42  C   UNL A   1      37.980  32.866  32.703  1.00  0.00     0.074 A 
ATOM     43  C   UNL A   1      38.033  31.484  30.658  1.00  0.00     0.049 A 
ATOM     44  N   UNL A   1      38.991  32.365  33.368  1.00  0.00    -0.248 NA
ATOM     45  C   UNL A   1      37.300  33.975  33.390  1.00  0.00     0.031 C 
ATOM     46  C   UNL A   1      37.639  31.043  29.319  1.00  0.00     0.029 A 
ATOM     47  N   UNL A   1      39.089  30.667  30.978  1.00  0.00    -0.354 N 
ATOM     48  C   UNL A   1      39.074  33.100  34.544  1.00  0.00     0.074 A 
ATOM     49  C   UNL A   1      38.044  34.116  34.478  1.00  0.00     0.031 C 
ATOM     50  C   UNL A   1      38.426  30.024  28.941  1.00  0.00     0.029 A 
ATOM     51  C   UNL A   1      39.411  29.770  29.988  1.00  0.00     0.049 A 
ATOM     52  H   UNL A   1      39.570  30.718  31.836  1.00  0.00     0.167 HD
ATOM     53  C   UNL A   1      39.919  32.931  35.589  1.00  0.00     0.037 A 
ATOM     54  C   UNL A   1      40.398  28.857  29.922  1.00  0.00     0.037 A 
ATOM     55  C   UNL A   1      40.936  31.913  35.654  1.00  0.00     0.049 A 
ATOM     56  C   UNL A   1      41.343  28.711  31.084  1.00  0.00     0.074 A 
ATOM     57  C   UNL A   1      41.803  31.624  36.695  1.00  0.00     0.029 A 
ATOM     58  N   UNL A   1      41.233  31.023  34.631  1.00  0.00    -0.354 N 
ATOM     59  N   UNL A   1      41.364  29.363  32.221  1.00  0.00    -0.248 NA
ATOM     60  C   UNL A   1      42.400  27.700  30.954  1.00  0.00     0.031 C 
ATOM     61  C   UNL A   1      42.663  30.603  36.279  1.00  0.00     0.029 A 
ATOM     62  C   UNL A   1      42.292  30.209  35.003  1.00  0.00     0.049 A 
ATOM     63  H   UNL A   1      40.762  30.977  33.768  1.00  0.00     0.167 HD
ATOM     64  C   UNL A   1      42.416  28.826  32.950  1.00  0.00     0.074 A 
ATOM     65  C   UNL A   1      42.996  27.779  32.135  1.00  0.00     0.031 C 
ATOM     66  C   UNL A   1      42.863  29.169  34.183  1.00  0.00     0.037 A 
BRANCH  53  67
ATOM     67  C   UNL A   1      39.784  33.871  36.754  1.00  0.00     0.064 A 
ATOM     68  C   UNL A   1      38.974  33.566  37.859  1.00  0.00     0.173 A 
ATOM     69  C   UNL A   1      40.510  35.072  36.786  1.00  0.00     0.173 A 
ATOM     70  F   UNL A   1      38.254  32.436  37.877  1.00  0.00    -0.203 F 
ATOM     71  C   UNL A   1      38.875  34.441  38.938  1.00  0.00     0.198 A 
ATOM     72  C   UNL A   1      40.434  35.929  37.882  1.00  0.00     0.198 A 
ATOM     73  F   UNL A   1      41.306  35.410  35.761  1.00  0.00    -0.203 F 
ATOM     74  F   UNL A   1      38.057  34.151  39.960  1.00  0.00    -0.200 F 
ATOM     75  C   UNL A   1      39.610  35.617  38.953  1.00  0.00     0.200 A 
ATOM     76  F   UNL A   1      41.158  37.055  37.902  1.00  0.00    -0.200 F 
ATOM     77  F   UNL A   1      39.520  36.452  39.997  1.00  0.00    -0.200 F 
ENDBRANCH  53  67
BRANCH  54  78
ATOM     78  C   UNL A   1      40.540  28.001  28.714  1.00  0.00     0.064 A 
ATOM     79  C   UNL A   1      41.319  28.414  27.625  1.00  0.00     0.173 A 
ATOM     80  C   UNL A   1      39.890  26.761  28.618  1.00  0.00     0.173 A 
ATOM     81  F   UNL A   1      41.941  29.601  27.658  1.00  0.00    -0.203 F 
ATOM     82  C   UNL A   1      41.426  27.630  26.477  1.00  0.00     0.198 A 
ATOM     83  C   UNL A   1      40.025  25.963  27.483  1.00  0.00     0.198 A 
ATOM     84  F   UNL A   1      39.134  26.317  29.633  1.00  0.00    -0.203 F 
ATOM     85  F   UNL A   1      42.135  28.073  25.430  1.00  0.00    -0.200 F 
ATOM     86  C   UNL A   1      40.784  26.403  26.410  1.00  0.00     0.200 A 
ATOM     87  F   UNL A   1      39.415  24.771  27.429  1.00  0.00    -0.200 F 
ATOM     88  F   UNL A   1      40.890  25.648  25.307  1.00  0.00    -0.200 F 
ENDBRANCH  54  78
BRANCH  66  89
ATOM     89  C   UNL A   1      44.018  28.388  34.740  1.00  0.00     0.064 A 
ATOM     90  C   UNL A   1      45.346  28.812  34.572  1.00  0.00     0.173 A 
ATOM     91  C   UNL A   1      43.794  27.216  35.479  1.00  0.00     0.173 A 
ATOM     92  F   UNL A   1      45.617  29.916  33.862  1.00  0.00    -0.203 F 
ATOM     93  C   UNL A   1      46.405  28.075  35.098  1.00  0.00     0.198 A 
ATOM     94  C   UNL A   1      44.853  26.501  36.031  1.00  0.00     0.198 A 
ATOM     95  F   UNL A   1      42.544  26.769  35.675  1.00  0.00    -0.203 F 
ATOM     96  F   UNL A   1      47.667  28.469  34.876  1.00  0.00    -0.200 F 
ATOM     97  C   UNL A   1      46.157  26.925  35.833  1.00  0.00     0.200 A 
ATOM     98  F   UNL A   1      44.610  25.400  36.757  1.00  0.00    -0.200 F 
ATOM     99  F   UNL A   1      47.177  26.223  36.344  1.00  0.00    -0.200 F 
ENDBRANCH  66  89
ENDBRANCH  40  41
ENDBRANCH  32  35
ENDBRANCH  30  31
ENDBRANCH  29  30
ENDBRANCH   1  29
TORSDOF 13
ENDMDL
MODEL 3
REMARK VINA RESULT:     -13.5      4.259      8.072
REMARK SMILES O=C(CN1CC2(CCC1=O)CC[NH+](Cc1ccc(Cl)c(F)c1)CC2)NCCCNC(=O)c1ccc(-c2c3nc(c(-c4c(F)c(F)c(F)c(F)c4F)c4ccc([nH]4)c(-c4c(F)c(F)c(F)c(F)c4F)c4nc(c(-c5c(F)c(F)c(F)c(F)c5F)c5ccc2[nH]5)C=C4)C=C3)cc1
REMARK SMILES IDX 26 1 25 2 1 3 2 4 3 6 4 7 5 8 9 9 6 10 8 11 10 12 7 13 11 14
REMARK SMILES IDX 24 15 12 16 23 17 13 18 14 20 15 21 16 22 22 23 17 24 20 25
REMARK SMILES IDX 18 26 21 27 19 28 27 29 28 30 29 31 30 32 31 34 32 35 33 36
REMARK SMILES IDX 94 37 34 38 93 39 35 40 36 41 37 42 87 43 38 44 92 45 86 46
REMARK SMILES IDX 88 47 39 48 91 49 85 50 84 51 40 53 72 54 52 55 71 56 53 57
REMARK SMILES IDX 56 58 70 59 89 60 54 61 55 62 69 64 90 65 57 66 41 67 42 68
REMARK SMILES IDX 50 69 43 70 44 71 48 72 51 73 45 74 46 75 49 76 47 77 73 78
REMARK SMILES IDX 74 79 82 80 75 81 76 82 80 83 83 84 77 85 78 86 81 87 79 88
REMARK SMILES IDX 58 89 59 90 67 91 60 92 61 93 65 94 68 95 62 96 63 97 66 98
REMARK SMILES IDX 64 99
REMARK H PARENT 25 5 13 19 29 33 88 52 56 63
REMARK Flexibility Score: inf
ROOT
ATOM      1  C   UNL A   1      35.922  22.631  23.707  1.00  0.00     0.117 C 
ENDROOT
BRANCH   1   2
ATOM      2  N   UNL A   1      34.535  22.264  23.844  1.00  0.00    -0.354 N 
ATOM      3  O   UNL A   1      33.815  23.287  21.920  1.00  0.00    -0.273 OA
ATOM      4  C   UNL A   1      33.580  22.614  22.920  1.00  0.00     0.239 C 
ATOM      5  H   UNL A   1      34.260  21.742  24.633  1.00  0.00     0.163 HD
BRANCH   4   6
ATOM      6  C   UNL A   1      32.162  22.269  23.342  1.00  0.00     0.219 C 
BRANCH   6   7
ATOM      7  N   UNL A   1      31.635  23.121  24.407  1.00  0.00    -0.333 N 
ATOM      8  C   UNL A   1      30.694  24.173  24.046  1.00  0.00     0.127 C 
ATOM      9  C   UNL A   1      32.049  22.939  25.712  1.00  0.00     0.223 C 
ATOM     10  C   UNL A   1      31.193  25.518  24.581  1.00  0.00    -0.001 C 
ATOM     11  C   UNL A   1      32.128  24.190  26.571  1.00  0.00     0.101 C 
ATOM     12  O   UNL A   1      32.467  21.853  26.111  1.00  0.00    -0.275 OA
ATOM     13  C   UNL A   1      31.255  25.354  26.121  1.00  0.00     0.019 C 
ATOM     14  C   UNL A   1      32.594  25.815  23.993  1.00  0.00     0.070 C 
ATOM     15  C   UNL A   1      30.192  26.652  24.259  1.00  0.00     0.070 C 
ATOM     16  C   UNL A   1      32.568  26.403  22.583  1.00  0.00     0.263 C 
ATOM     17  C   UNL A   1      30.316  27.246  22.853  1.00  0.00     0.263 C 
ATOM     18  N   UNL A   1      31.676  27.540  22.424  1.00  0.00    -0.331 N 
ATOM     19  H   UNL A   1      31.590  27.675  21.417  1.00  0.00     0.348 HD
BRANCH  18  20
ATOM     20  C   UNL A   1      32.226  28.864  22.749  1.00  0.00     0.299 C 
BRANCH  20  21
ATOM     21  C   UNL A   1      32.582  29.124  24.197  1.00  0.00     0.009 A 
ATOM     22  C   UNL A   1      33.813  28.697  24.718  1.00  0.00     0.011 A 
ATOM     23  C   UNL A   1      31.731  29.875  25.021  1.00  0.00     0.050 A 
ATOM     24  C   UNL A   1      34.247  29.138  25.973  1.00  0.00     0.024 A 
ATOM     25  C   UNL A   1      32.182  30.344  26.253  1.00  0.00     0.142 A 
ATOM     26  C   UNL A   1      33.446  30.000  26.720  1.00  0.00     0.076 A 
ATOM     27  F   UNL A   1      31.406  31.198  26.937  1.00  0.00    -0.205 F 
ATOM     28  Cl  UNL A   1      34.055  30.667  28.185  1.00  0.00    -0.081 Cl
ENDBRANCH  20  21
ENDBRANCH  18  20
ENDBRANCH   6   7
ENDBRANCH   4   6
ENDBRANCH   1   2
BRANCH   1  29
ATOM     29  C   UNL A   1      36.303  23.762  24.654  1.00  0.00     0.042 C 
BRANCH  29  30
ATOM     30  C   UNL A   1      36.705  23.295  26.052  1.00  0.00     0.118 C 
BRANCH  30  31
ATOM     31  N   UNL A   1      37.951  22.539  26.062  1.00  0.00    -0.352 N 
ATOM     32  C   UNL A   1      39.227  22.926  26.373  1.00  0.00     0.251 C 
ATOM     33  H   UNL A   1      37.860  21.595  25.803  1.00  0.00     0.163 HD
ATOM     34  O   UNL A   1      40.168  22.164  26.149  1.00  0.00    -0.269 OA
BRANCH  32  35
ATOM     35  C   UNL A   1      39.495  24.262  26.949  1.00  0.00     0.039 A 
ATOM     36  C   UNL A   1      39.125  24.506  28.274  1.00  0.00     0.014 A 
ATOM     37  C   UNL A   1      40.089  25.275  26.192  1.00  0.00     0.014 A 
ATOM     38  C   UNL A   1      39.425  25.737  28.863  1.00  0.00     0.010 A 
ATOM     39  C   UNL A   1      40.457  26.472  26.802  1.00  0.00     0.010 A 
ATOM     40  C   UNL A   1      40.138  26.712  28.147  1.00  0.00    -0.014 A 
BRANCH  40  41
ATOM     41  C   UNL A   1      40.592  27.966  28.804  1.00  0.00     0.031 A 
ATOM     42  C   UNL A   1      42.009  28.112  29.280  1.00  0.00     0.074 A 
ATOM     43  C   UNL A   1      39.700  28.949  29.033  1.00  0.00     0.049 A 
ATOM     44  N   UNL A   1      42.565  29.103  29.932  1.00  0.00    -0.248 NA
ATOM     45  C   UNL A   1      42.919  26.989  29.006  1.00  0.00     0.031 C 
ATOM     46  C   UNL A   1      38.285  28.911  28.660  1.00  0.00     0.029 A 
ATOM     47  N   UNL A   1      39.847  30.170  29.645  1.00  0.00    -0.354 N 
ATOM     48  C   UNL A   1      43.882  28.720  30.154  1.00  0.00     0.074 A 
ATOM     49  C   UNL A   1      44.029  27.385  29.613  1.00  0.00     0.031 C 
ATOM     50  C   UNL A   1      37.700  30.061  29.030  1.00  0.00     0.029 A 
ATOM     51  C   UNL A   1      38.684  30.898  29.709  1.00  0.00     0.049 A 
ATOM     52  H   UNL A   1      40.706  30.494  30.004  1.00  0.00     0.167 HD
ATOM     53  C   UNL A   1      44.880  29.426  30.737  1.00  0.00     0.037 A 
ATOM     54  C   UNL A   1      38.432  32.098  30.266  1.00  0.00     0.037 A 
ATOM     55  C   UNL A   1      44.731  30.757  31.266  1.00  0.00     0.049 A 
ATOM     56  C   UNL A   1      39.552  32.846  30.937  1.00  0.00     0.074 A 
ATOM     57  C   UNL A   1      45.698  31.577  31.824  1.00  0.00     0.029 A 
ATOM     58  N   UNL A   1      43.537  31.462  31.314  1.00  0.00    -0.354 N 
ATOM     59  N   UNL A   1      40.811  32.504  31.075  1.00  0.00    -0.248 NA
ATOM     60  C   UNL A   1      39.217  34.148  31.528  1.00  0.00     0.031 C 
ATOM     61  C   UNL A   1      45.078  32.750  32.264  1.00  0.00     0.029 A 
ATOM     62  C   UNL A   1      43.736  32.692  31.923  1.00  0.00     0.049 A 
ATOM     63  H   UNL A   1      42.675  31.137  30.967  1.00  0.00     0.167 HD
ATOM     64  C   UNL A   1      41.420  33.557  31.742  1.00  0.00     0.074 A 
ATOM     65  C   UNL A   1      40.399  34.559  31.963  1.00  0.00     0.031 C 
ATOM     66  C   UNL A   1      42.711  33.682  32.139  1.00  0.00     0.037 A 
BRANCH  53  67
ATOM     67  C   UNL A   1      46.229  28.770  30.841  1.00  0.00     0.064 A 
ATOM     68  C   UNL A   1      46.590  27.999  31.957  1.00  0.00     0.173 A 
ATOM     69  C   UNL A   1      47.154  28.874  29.790  1.00  0.00     0.173 A 
ATOM     70  F   UNL A   1      45.748  27.872  32.992  1.00  0.00    -0.203 F 
ATOM     71  C   UNL A   1      47.838  27.383  32.029  1.00  0.00     0.198 A 
ATOM     72  C   UNL A   1      48.387  28.229  29.852  1.00  0.00     0.198 A 
ATOM     73  F   UNL A   1      46.858  29.591  28.696  1.00  0.00    -0.203 F 
ATOM     74  F   UNL A   1      48.179  26.693  33.127  1.00  0.00    -0.200 F 
ATOM     75  C   UNL A   1      48.731  27.491  30.975  1.00  0.00     0.200 A 
ATOM     76  F   UNL A   1      49.241  28.321  28.825  1.00  0.00    -0.200 F 
ATOM     77  F   UNL A   1      49.927  26.889  31.043  1.00  0.00    -0.200 F 
ENDBRANCH  53  67
BRANCH  54  78
ATOM     78  C   UNL A   1      37.062  32.672  30.206  1.00  0.00     0.064 A 
ATOM     79  C   UNL A   1      36.671  33.498  29.144  1.00  0.00     0.173 A 
ATOM     80  C   UNL A   1      36.119  32.418  31.214  1.00  0.00     0.173 A 
ATOM     81  F   UNL A   1      37.543  33.790  28.168  1.00  0.00    -0.203 F 
ATOM     82  C   UNL A   1      35.399  34.066  29.102  1.00  0.00     0.198 A 
ATOM     83  C   UNL A   1      34.836  32.959  31.154  1.00  0.00     0.198 A 
ATOM     84  F   UNL A   1      36.439  31.631  32.252  1.00  0.00    -0.203 F 
ATOM     85  F   UNL A   1      35.071  34.894  28.101  1.00  0.00    -0.200 F 
ATOM     86  C   UNL A   1      34.480  33.791  30.103  1.00  0.00     0.200 A 
ATOM     87  F   UNL A   1      33.947  32.678  32.116  1.00  0.00    -0.200 F 
ATOM     88  F   UNL A   1      33.257  34.335  30.061  1.00  0.00    -0.200 F 
ENDBRANCH  54  78
BRANCH  66  89
ATOM     89  C   UNL A   1      43.100  34.959  32.828  1.00  0.00     0.064 A 
ATOM     90  C   UNL A   1      43.509  36.092  32.108  1.00  0.00     0.173 A 
ATOM     91  C   UNL A   1      43.032  35.062  34.226  1.00  0.00     0.173 A 
ATOM     92  F   UNL A   1      43.606  36.044  30.771  1.00  0.00    -0.203 F 
ATOM     93  C   UNL A   1      43.864  37.268  32.764  1.00  0.00     0.198 A 
ATOM     94  C   UNL A   1      43.355  36.250  34.876  1.00  0.00     0.198 A 
ATOM     95  F   UNL A   1      42.642  34.011  34.963  1.00  0.00    -0.203 F 
ATOM     96  F   UNL A   1      44.306  38.319  32.058  1.00  0.00    -0.200 F 
ATOM     97  C   UNL A   1      43.779  37.349  34.146  1.00  0.00     0.200 A 
ATOM     98  F   UNL A   1      43.255  36.330  36.211  1.00  0.00    -0.200 F 
ATOM     99  F   UNL A   1      44.114  38.484  34.774  1.00  0.00    -0.200 F 
ENDBRANCH  66  89
ENDBRANCH  40  41
ENDBRANCH  32  35
ENDBRANCH  30  31
ENDBRANCH  29  30
ENDBRANCH   1  29
TORSDOF 13
ENDMDL
