MODEL 1
REMARK VINA RESULT:     -12.7      0.000      0.000
REMARK SMILES O=C(Cn1cc(NC(=O)N2CC[N@@H+]3CCC[C@@H]3C2)cn1)NCCCNC(=O)c1ccc(-c2c3nc(c(-c4c(F)c(F)c(F)c(F)c4F)c4ccc([nH]4)c(-c4c(F)c(F)c(F)c(F)c4F)c4nc(c(-c5c(F)c(F)c(F)c(F)c5F)c5ccc2[nH]5)C=C4)C=C3)cc1
REMARK SMILES IDX 22 1 21 2 1 3 2 4 3 6 4 7 5 8 20 9 6 10 19 11 7 12 8 13 9 15
REMARK SMILES IDX 10 16 11 17 18 18 12 19 17 20 13 21 16 22 14 23 15 25 23 26
REMARK SMILES IDX 24 27 25 28 26 29 27 31 28 32 29 33 90 34 30 35 89 36 31 37
REMARK SMILES IDX 32 38 33 39 83 40 34 41 88 42 82 43 84 44 35 45 87 46 81 47
REMARK SMILES IDX 80 48 36 50 68 51 48 52 67 53 49 54 52 55 66 56 85 57 50 58
REMARK SMILES IDX 51 59 65 61 86 62 53 63 37 64 38 65 46 66 39 67 40 68 44 69
REMARK SMILES IDX 47 70 41 71 42 72 45 73 43 74 69 75 70 76 78 77 71 78 72 79
REMARK SMILES IDX 76 80 79 81 73 82 74 83 77 84 75 85 54 86 55 87 63 88 56 89
REMARK SMILES IDX 57 90 61 91 64 92 58 93 59 94 62 95 60 96
REMARK H PARENT 21 5 7 14 13 24 25 30 84 49 52 60
REMARK Flexibility Score: inf
ROOT
ATOM      1  C   UNL A   1      38.639  22.524  26.281  1.00  0.00     0.117 C 
ENDROOT
BRANCH   1   2
ATOM      2  N   UNL A   1      38.015  22.926  25.032  1.00  0.00    -0.354 N 
ATOM      3  O   UNL A   1      36.733  21.052  24.691  1.00  0.00    -0.273 OA
ATOM      4  C   UNL A   1      37.009  22.215  24.403  1.00  0.00     0.241 C 
ATOM      5  H   UNL A   1      38.327  23.757  24.608  1.00  0.00     0.163 HD
BRANCH   4   6
ATOM      6  C   UNL A   1      36.315  22.942  23.251  1.00  0.00     0.244 C 
BRANCH   6   7
ATOM      7  N   UNL A   1      34.898  23.204  23.478  1.00  0.00    -0.261 N 
ATOM      8  C   UNL A   1      34.234  23.204  24.682  1.00  0.00     0.135 A 
ATOM      9  N   UNL A   1      34.066  23.363  22.430  1.00  0.00    -0.179 NA
ATOM     10  C   UNL A   1      32.904  23.412  24.386  1.00  0.00     0.081 A 
ATOM     11  C   UNL A   1      32.885  23.601  22.990  1.00  0.00     0.161 A 
BRANCH  10  12
ATOM     12  N   UNL A   1      31.872  23.470  25.304  1.00  0.00    -0.305 N 
ATOM     13  C   UNL A   1      31.589  24.520  26.139  1.00  0.00     0.322 C 
ATOM     14  H   UNL A   1      31.283  22.683  25.365  1.00  0.00     0.171 HD
ATOM     15  O   UNL A   1      31.105  24.294  27.247  1.00  0.00    -0.248 OA
BRANCH  13  16
ATOM     16  N   UNL A   1      31.882  25.794  25.703  1.00  0.00    -0.313 N 
ATOM     17  C   UNL A   1      30.887  26.604  24.982  1.00  0.00     0.183 C 
ATOM     18  C   UNL A   1      33.003  26.509  26.299  1.00  0.00     0.186 C 
ATOM     19  C   UNL A   1      31.291  28.080  24.800  1.00  0.00     0.284 C 
ATOM     20  C   UNL A   1      32.614  27.874  26.883  1.00  0.00     0.204 C 
ATOM     21  N   UNL A   1      31.762  28.731  26.027  1.00  0.00    -0.330 N 
ATOM     22  C   UNL A   1      33.848  28.716  27.214  1.00  0.00     0.073 C 
ATOM     23  C   UNL A   1      32.481  29.980  25.757  1.00  0.00     0.262 C 
ATOM     24  H   UNL A   1      30.901  28.929  26.539  1.00  0.00     0.348 HD
ATOM     25  C   UNL A   1      33.403  30.140  26.950  1.00  0.00     0.068 C 
ENDBRANCH  13  16
ENDBRANCH  10  12
ENDBRANCH   6   7
ENDBRANCH   4   6
ENDBRANCH   1   2
BRANCH   1  26
ATOM     26  C   UNL A   1      39.688  21.424  26.126  1.00  0.00     0.042 C 
BRANCH  26  27
ATOM     27  C   UNL A   1      41.002  21.733  26.829  1.00  0.00     0.118 C 
BRANCH  27  28
ATOM     28  N   UNL A   1      42.118  22.058  25.939  1.00  0.00    -0.352 N 
ATOM     29  C   UNL A   1      42.618  23.317  25.634  1.00  0.00     0.251 C 
ATOM     30  H   UNL A   1      42.566  21.296  25.507  1.00  0.00     0.163 HD
ATOM     31  O   UNL A   1      43.350  23.492  24.677  1.00  0.00    -0.269 OA
BRANCH  29  32
ATOM     32  C   UNL A   1      42.235  24.458  26.495  1.00  0.00     0.039 A 
ATOM     33  C   UNL A   1      42.886  24.702  27.707  1.00  0.00     0.014 A 
ATOM     34  C   UNL A   1      41.230  25.314  26.055  1.00  0.00     0.014 A 
ATOM     35  C   UNL A   1      42.579  25.864  28.417  1.00  0.00     0.010 A 
ATOM     36  C   UNL A   1      41.044  26.530  26.665  1.00  0.00     0.010 A 
ATOM     37  C   UNL A   1      41.678  26.795  27.872  1.00  0.00    -0.014 A 
BRANCH  37  38
ATOM     38  C   UNL A   1      41.478  28.098  28.507  1.00  0.00     0.031 A 
ATOM     39  C   UNL A   1      42.499  29.128  28.162  1.00  0.00     0.074 A 
ATOM     40  C   UNL A   1      40.368  28.440  29.198  1.00  0.00     0.049 A 
ATOM     41  N   UNL A   1      43.330  29.709  28.964  1.00  0.00    -0.248 NA
ATOM     42  C   UNL A   1      42.695  29.482  26.747  1.00  0.00     0.031 C 
ATOM     43  C   UNL A   1      39.126  27.683  29.390  1.00  0.00     0.029 A 
ATOM     44  N   UNL A   1      40.085  29.621  29.811  1.00  0.00    -0.354 N 
ATOM     45  C   UNL A   1      44.049  30.621  28.195  1.00  0.00     0.074 A 
ATOM     46  C   UNL A   1      43.713  30.343  26.823  1.00  0.00     0.031 C 
ATOM     47  C   UNL A   1      38.157  28.505  29.850  1.00  0.00     0.029 A 
ATOM     48  C   UNL A   1      38.750  29.795  30.154  1.00  0.00     0.049 A 
ATOM     49  H   UNL A   1      40.774  30.300  29.999  1.00  0.00     0.167 HD
ATOM     50  C   UNL A   1      44.706  31.664  28.778  1.00  0.00     0.037 A 
ATOM     51  C   UNL A   1      38.175  30.927  30.629  1.00  0.00     0.037 A 
ATOM     52  C   UNL A   1      44.908  31.425  30.186  1.00  0.00     0.049 A 
ATOM     53  C   UNL A   1      39.264  31.767  31.191  1.00  0.00     0.074 A 
ATOM     54  C   UNL A   1      45.539  30.433  30.915  1.00  0.00     0.029 A 
ATOM     55  N   UNL A   1      44.094  32.070  31.087  1.00  0.00    -0.354 N 
ATOM     56  N   UNL A   1      39.939  31.452  32.261  1.00  0.00    -0.248 NA
ATOM     57  C   UNL A   1      39.912  32.710  30.292  1.00  0.00     0.031 C 
ATOM     58  C   UNL A   1      44.677  30.195  32.027  1.00  0.00     0.029 A 
ATOM     59  C   UNL A   1      43.628  31.111  31.950  1.00  0.00     0.049 A 
ATOM     60  H   UNL A   1      43.885  33.031  31.106  1.00  0.00     0.167 HD
ATOM     61  C   UNL A   1      41.248  31.793  31.957  1.00  0.00     0.074 A 
ATOM     62  C   UNL A   1      41.158  32.632  30.763  1.00  0.00     0.031 C 
ATOM     63  C   UNL A   1      42.303  31.133  32.519  1.00  0.00     0.037 A 
BRANCH  50  64
ATOM     64  C   UNL A   1      44.842  33.042  28.174  1.00  0.00     0.064 A 
ATOM     65  C   UNL A   1      46.132  33.554  27.920  1.00  0.00     0.173 A 
ATOM     66  C   UNL A   1      43.798  33.990  28.139  1.00  0.00     0.173 A 
ATOM     67  F   UNL A   1      47.204  32.746  27.930  1.00  0.00    -0.203 F 
ATOM     68  C   UNL A   1      46.367  34.921  27.755  1.00  0.00     0.198 A 
ATOM     69  C   UNL A   1      44.030  35.349  27.922  1.00  0.00     0.198 A 
ATOM     70  F   UNL A   1      42.531  33.670  28.424  1.00  0.00    -0.203 F 
ATOM     71  F   UNL A   1      47.625  35.374  27.662  1.00  0.00    -0.200 F 
ATOM     72  C   UNL A   1      45.317  35.818  27.769  1.00  0.00     0.200 A 
ATOM     73  F   UNL A   1      43.000  36.205  27.953  1.00  0.00    -0.200 F 
ATOM     74  F   UNL A   1      45.545  37.136  27.686  1.00  0.00    -0.200 F 
ENDBRANCH  50  64
BRANCH  51  75
ATOM     75  C   UNL A   1      36.817  31.459  30.363  1.00  0.00     0.064 A 
ATOM     76  C   UNL A   1      35.964  31.828  31.418  1.00  0.00     0.173 A 
ATOM     77  C   UNL A   1      36.437  31.890  29.077  1.00  0.00     0.173 A 
ATOM     78  F   UNL A   1      36.271  31.495  32.681  1.00  0.00    -0.203 F 
ATOM     79  C   UNL A   1      34.823  32.610  31.204  1.00  0.00     0.198 A 
ATOM     80  C   UNL A   1      35.296  32.664  28.863  1.00  0.00     0.198 A 
ATOM     81  F   UNL A   1      37.218  31.651  28.012  1.00  0.00    -0.203 F 
ATOM     82  F   UNL A   1      34.074  32.998  32.244  1.00  0.00    -0.200 F 
ATOM     83  C   UNL A   1      34.498  33.038  29.928  1.00  0.00     0.200 A 
ATOM     84  F   UNL A   1      35.011  33.102  27.627  1.00  0.00    -0.200 F 
ATOM     85  F   UNL A   1      33.445  33.842  29.729  1.00  0.00    -0.200 F 
ENDBRANCH  51  75
BRANCH  63  86
ATOM     86  C   UNL A   1      42.035  30.182  33.652  1.00  0.00     0.064 A 
ATOM     87  C   UNL A   1      41.673  28.834  33.486  1.00  0.00     0.173 A 
ATOM     88  C   UNL A   1      42.313  30.615  34.956  1.00  0.00     0.173 A 
ATOM     89  F   UNL A   1      41.489  28.311  32.268  1.00  0.00    -0.203 F 
ATOM     90  C   UNL A   1      41.556  27.975  34.579  1.00  0.00     0.198 A 
ATOM     91  C   UNL A   1      42.233  29.746  36.041  1.00  0.00     0.198 A 
ATOM     92  F   UNL A   1      42.717  31.877  35.173  1.00  0.00    -0.203 F 
ATOM     93  F   UNL A   1      41.199  26.695  34.392  1.00  0.00    -0.200 F 
ATOM     94  C   UNL A   1      41.845  28.430  35.854  1.00  0.00     0.200 A 
ATOM     95  F   UNL A   1      42.563  30.179  37.266  1.00  0.00    -0.200 F 
ATOM     96  F   UNL A   1      41.775  27.593  36.899  1.00  0.00    -0.200 F 
ENDBRANCH  63  86
ENDBRANCH  37  38
ENDBRANCH  29  32
ENDBRANCH  27  28
ENDBRANCH  26  27
ENDBRANCH   1  26
TORSDOF 13
ENDMDL
MODEL 2
REMARK VINA RESULT:     -12.7      2.318      3.083
REMARK SMILES O=C(Cn1cc(NC(=O)N2CC[N@@H+]3CCC[C@@H]3C2)cn1)NCCCNC(=O)c1ccc(-c2c3nc(c(-c4c(F)c(F)c(F)c(F)c4F)c4ccc([nH]4)c(-c4c(F)c(F)c(F)c(F)c4F)c4nc(c(-c5c(F)c(F)c(F)c(F)c5F)c5ccc2[nH]5)C=C4)C=C3)cc1
REMARK SMILES IDX 22 1 21 2 1 3 2 4 3 6 4 7 5 8 20 9 6 10 19 11 7 12 8 13 9 15
REMARK SMILES IDX 10 16 11 17 18 18 12 19 17 20 13 21 16 22 14 23 15 25 23 26
REMARK SMILES IDX 24 27 25 28 26 29 27 31 28 32 29 33 90 34 30 35 89 36 31 37
REMARK SMILES IDX 32 38 33 39 83 40 34 41 88 42 82 43 84 44 35 45 87 46 81 47
REMARK SMILES IDX 80 48 36 50 68 51 48 52 67 53 49 54 52 55 66 56 85 57 50 58
REMARK SMILES IDX 51 59 65 61 86 62 53 63 37 64 38 65 46 66 39 67 40 68 44 69
REMARK SMILES IDX 47 70 41 71 42 72 45 73 43 74 69 75 70 76 78 77 71 78 72 79
REMARK SMILES IDX 76 80 79 81 73 82 74 83 77 84 75 85 54 86 55 87 63 88 56 89
REMARK SMILES IDX 57 90 61 91 64 92 58 93 59 94 62 95 60 96
REMARK H PARENT 21 5 7 14 13 24 25 30 84 49 52 60
REMARK Flexibility Score: inf
ROOT
ATOM      1  C   UNL A   1      40.384  21.353  26.990  1.00  0.00     0.117 C 
ENDROOT
BRANCH   1   2
ATOM      2  N   UNL A   1      39.637  22.350  26.244  1.00  0.00    -0.354 N 
ATOM      3  O   UNL A   1      37.814  21.059  25.709  1.00  0.00    -0.273 OA
ATOM      4  C   UNL A   1      38.349  22.165  25.775  1.00  0.00     0.241 C 
ATOM      5  H   UNL A   1      40.075  23.213  26.061  1.00  0.00     0.163 HD
BRANCH   4   6
ATOM      6  C   UNL A   1      37.656  23.423  25.251  1.00  0.00     0.244 C 
BRANCH   6   7
ATOM      7  N   UNL A   1      36.217  23.273  25.053  1.00  0.00    -0.261 N 
ATOM      8  C   UNL A   1      35.235  23.333  26.012  1.00  0.00     0.135 A 
ATOM      9  N   UNL A   1      35.737  22.928  23.842  1.00  0.00    -0.179 NA
ATOM     10  C   UNL A   1      34.052  23.044  25.367  1.00  0.00     0.081 A 
ATOM     11  C   UNL A   1      34.420  22.903  24.014  1.00  0.00     0.161 A 
BRANCH  10  12
ATOM     12  N   UNL A   1      32.804  22.980  25.959  1.00  0.00    -0.305 N 
ATOM     13  C   UNL A   1      32.058  24.045  26.393  1.00  0.00     0.322 C 
ATOM     14  H   UNL A   1      32.413  22.084  26.080  1.00  0.00     0.171 HD
ATOM     15  O   UNL A   1      31.323  23.906  27.370  1.00  0.00    -0.248 OA
BRANCH  13  16
ATOM     16  N   UNL A   1      32.181  25.242  25.721  1.00  0.00    -0.313 N 
ATOM     17  C   UNL A   1      31.321  25.566  24.572  1.00  0.00     0.183 C 
ATOM     18  C   UNL A   1      32.853  26.358  26.375  1.00  0.00     0.186 C 
ATOM     19  C   UNL A   1      31.417  27.034  24.111  1.00  0.00     0.284 C 
ATOM     20  C   UNL A   1      31.995  27.630  26.444  1.00  0.00     0.204 C 
ATOM     21  N   UNL A   1      31.301  28.016  25.194  1.00  0.00    -0.330 N 
ATOM     22  C   UNL A   1      32.830  28.847  26.847  1.00  0.00     0.073 C 
ATOM     23  C   UNL A   1      31.767  29.347  24.796  1.00  0.00     0.262 C 
ATOM     24  H   UNL A   1      30.299  28.040  25.388  1.00  0.00     0.348 HD
ATOM     25  C   UNL A   1      32.185  29.997  26.100  1.00  0.00     0.068 C 
ENDBRANCH  13  16
ENDBRANCH  10  12
ENDBRANCH   6   7
ENDBRANCH   4   6
ENDBRANCH   1   2
BRANCH   1  26
ATOM     26  C   UNL A   1      41.011  20.265  26.120  1.00  0.00     0.042 C 
BRANCH  26  27
ATOM     27  C   UNL A   1      42.312  19.711  26.681  1.00  0.00     0.118 C 
BRANCH  27  28
ATOM     28  N   UNL A   1      43.367  19.486  25.691  1.00  0.00    -0.352 N 
ATOM     29  C   UNL A   1      44.069  20.442  24.969  1.00  0.00     0.251 C 
ATOM     30  H   UNL A   1      43.606  18.547  25.516  1.00  0.00     0.163 HD
ATOM     31  O   UNL A   1      44.713  20.141  23.980  1.00  0.00    -0.269 OA
BRANCH  29  32
ATOM     32  C   UNL A   1      44.016  21.850  25.421  1.00  0.00     0.039 A 
ATOM     33  C   UNL A   1      43.170  22.777  24.809  1.00  0.00     0.014 A 
ATOM     34  C   UNL A   1      44.806  22.229  26.503  1.00  0.00     0.014 A 
ATOM     35  C   UNL A   1      43.059  24.056  25.357  1.00  0.00     0.010 A 
ATOM     36  C   UNL A   1      44.579  23.426  27.135  1.00  0.00     0.010 A 
ATOM     37  C   UNL A   1      43.744  24.366  26.545  1.00  0.00    -0.014 A 
BRANCH  37  38
ATOM     38  C   UNL A   1      43.503  25.634  27.234  1.00  0.00     0.031 A 
ATOM     39  C   UNL A   1      44.434  26.738  26.861  1.00  0.00     0.074 A 
ATOM     40  C   UNL A   1      42.420  25.882  28.003  1.00  0.00     0.049 A 
ATOM     41  N   UNL A   1      45.276  27.347  27.630  1.00  0.00    -0.248 NA
ATOM     42  C   UNL A   1      44.517  27.145  25.450  1.00  0.00     0.031 C 
ATOM     43  C   UNL A   1      41.242  25.041  28.246  1.00  0.00     0.029 A 
ATOM     44  N   UNL A   1      42.103  27.024  28.672  1.00  0.00    -0.354 N 
ATOM     45  C   UNL A   1      45.886  28.327  26.849  1.00  0.00     0.074 A 
ATOM     46  C   UNL A   1      45.481  28.068  25.491  1.00  0.00     0.031 C 
ATOM     47  C   UNL A   1      40.255  25.785  28.791  1.00  0.00     0.029 A 
ATOM     48  C   UNL A   1      40.784  27.101  29.101  1.00  0.00     0.049 A 
ATOM     49  H   UNL A   1      42.759  27.741  28.839  1.00  0.00     0.167 HD
ATOM     50  C   UNL A   1      46.512  29.392  27.425  1.00  0.00     0.037 A 
ATOM     51  C   UNL A   1      40.170  28.179  29.648  1.00  0.00     0.037 A 
ATOM     52  C   UNL A   1      46.817  29.126  28.809  1.00  0.00     0.049 A 
ATOM     53  C   UNL A   1      41.237  29.071  30.170  1.00  0.00     0.074 A 
ATOM     54  C   UNL A   1      47.554  28.155  29.465  1.00  0.00     0.029 A 
ATOM     55  N   UNL A   1      46.023  29.690  29.779  1.00  0.00    -0.354 N 
ATOM     56  N   UNL A   1      41.998  28.770  31.185  1.00  0.00    -0.248 NA
ATOM     57  C   UNL A   1      41.767  30.080  29.264  1.00  0.00     0.031 C 
ATOM     58  C   UNL A   1      46.781  27.830  30.620  1.00  0.00     0.029 A 
ATOM     59  C   UNL A   1      45.674  28.678  30.637  1.00  0.00     0.049 A 
ATOM     60  H   UNL A   1      45.755  30.635  29.843  1.00  0.00     0.167 HD
ATOM     61  C   UNL A   1      43.261  29.203  30.813  1.00  0.00     0.074 A 
ATOM     62  C   UNL A   1      43.043  30.070  29.655  1.00  0.00     0.031 C 
ATOM     63  C   UNL A   1      44.389  28.598  31.287  1.00  0.00     0.037 A 
BRANCH  50  64
ATOM     64  C   UNL A   1      46.522  30.793  26.860  1.00  0.00     0.064 A 
ATOM     65  C   UNL A   1      47.722  31.535  26.891  1.00  0.00     0.173 A 
ATOM     66  C   UNL A   1      45.355  31.542  26.596  1.00  0.00     0.173 A 
ATOM     67  F   UNL A   1      48.895  30.930  27.136  1.00  0.00    -0.203 F 
ATOM     68  C   UNL A   1      47.735  32.927  26.775  1.00  0.00     0.198 A 
ATOM     69  C   UNL A   1      45.379  32.927  26.430  1.00  0.00     0.198 A 
ATOM     70  F   UNL A   1      44.137  30.992  26.600  1.00  0.00    -0.203 F 
ATOM     71  F   UNL A   1      48.881  33.599  26.957  1.00  0.00    -0.200 F 
ATOM     72  C   UNL A   1      46.562  33.623  26.558  1.00  0.00     0.200 A 
ATOM     73  F   UNL A   1      44.228  33.585  26.233  1.00  0.00    -0.200 F 
ATOM     74  F   UNL A   1      46.559  34.962  26.522  1.00  0.00    -0.200 F 
ENDBRANCH  50  64
BRANCH  51  75
ATOM     75  C   UNL A   1      38.767  28.630  29.484  1.00  0.00     0.064 A 
ATOM     76  C   UNL A   1      37.951  28.880  30.602  1.00  0.00     0.173 A 
ATOM     77  C   UNL A   1      38.289  29.102  28.246  1.00  0.00     0.173 A 
ATOM     78  F   UNL A   1      38.350  28.501  31.825  1.00  0.00    -0.203 F 
ATOM     79  C   UNL A   1      36.751  29.592  30.492  1.00  0.00     0.198 A 
ATOM     80  C   UNL A   1      37.089  29.807  28.137  1.00  0.00     0.198 A 
ATOM     81  F   UNL A   1      39.024  28.976  27.131  1.00  0.00    -0.203 F 
ATOM     82  F   UNL A   1      36.036  29.870  31.590  1.00  0.00    -0.200 F 
ATOM     83  C   UNL A   1      36.328  30.066  29.262  1.00  0.00     0.200 A 
ATOM     84  F   UNL A   1      36.708  30.290  26.945  1.00  0.00    -0.200 F 
ATOM     85  F   UNL A   1      35.214  30.804  29.165  1.00  0.00    -0.200 F 
ENDBRANCH  51  75
BRANCH  63  86
ATOM     86  C   UNL A   1      44.253  27.598  32.402  1.00  0.00     0.064 A 
ATOM     87  C   UNL A   1      44.118  26.212  32.212  1.00  0.00     0.173 A 
ATOM     88  C   UNL A   1      44.430  28.050  33.717  1.00  0.00     0.173 A 
ATOM     89  F   UNL A   1      44.047  25.685  30.983  1.00  0.00    -0.203 F 
ATOM     90  C   UNL A   1      44.117  25.329  33.291  1.00  0.00     0.198 A 
ATOM     91  C   UNL A   1      44.467  27.162  34.790  1.00  0.00     0.198 A 
ATOM     92  F   UNL A   1      44.619  29.357  33.959  1.00  0.00    -0.203 F 
ATOM     93  F   UNL A   1      43.976  24.010  33.081  1.00  0.00    -0.200 F 
ATOM     94  C   UNL A   1      44.301  25.804  34.578  1.00  0.00     0.200 A 
ATOM     95  F   UNL A   1      44.696  27.625  36.027  1.00  0.00    -0.200 F 
ATOM     96  F   UNL A   1      44.345  24.951  35.611  1.00  0.00    -0.200 F 
ENDBRANCH  63  86
ENDBRANCH  37  38
ENDBRANCH  29  32
ENDBRANCH  27  28
ENDBRANCH  26  27
ENDBRANCH   1  26
TORSDOF 13
ENDMDL
MODEL 3
REMARK VINA RESULT:     -12.5      1.134      1.725
REMARK SMILES O=C(Cn1cc(NC(=O)N2CC[N@@H+]3CCC[C@@H]3C2)cn1)NCCCNC(=O)c1ccc(-c2c3nc(c(-c4c(F)c(F)c(F)c(F)c4F)c4ccc([nH]4)c(-c4c(F)c(F)c(F)c(F)c4F)c4nc(c(-c5c(F)c(F)c(F)c(F)c5F)c5ccc2[nH]5)C=C4)C=C3)cc1
REMARK SMILES IDX 22 1 21 2 1 3 2 4 3 6 4 7 5 8 20 9 6 10 19 11 7 12 8 13 9 15
REMARK SMILES IDX 10 16 11 17 18 18 12 19 17 20 13 21 16 22 14 23 15 25 23 26
REMARK SMILES IDX 24 27 25 28 26 29 27 31 28 32 29 33 90 34 30 35 89 36 31 37
REMARK SMILES IDX 32 38 33 39 83 40 34 41 88 42 82 43 84 44 35 45 87 46 81 47
REMARK SMILES IDX 80 48 36 50 68 51 48 52 67 53 49 54 52 55 66 56 85 57 50 58
REMARK SMILES IDX 51 59 65 61 86 62 53 63 37 64 38 65 46 66 39 67 40 68 44 69
REMARK SMILES IDX 47 70 41 71 42 72 45 73 43 74 69 75 70 76 78 77 71 78 72 79
REMARK SMILES IDX 76 80 79 81 73 82 74 83 77 84 75 85 54 86 55 87 63 88 56 89
REMARK SMILES IDX 57 90 61 91 64 92 58 93 59 94 62 95 60 96
REMARK H PARENT 21 5 7 14 13 24 25 30 84 49 52 60
REMARK Flexibility Score: inf
ROOT
ATOM      1  C   UNL A   1      39.158  21.918  26.130  1.00  0.00     0.117 C 
ENDROOT
BRANCH   1   2
ATOM      2  N   UNL A   1      37.785  21.488  25.934  1.00  0.00    -0.354 N 
ATOM      3  O   UNL A   1      37.168  23.060  24.377  1.00  0.00    -0.273 OA
ATOM      4  C   UNL A   1      36.936  22.010  24.974  1.00  0.00     0.241 C 
ATOM      5  H   UNL A   1      37.436  20.779  26.521  1.00  0.00     0.163 HD
BRANCH   4   6
ATOM      6  C   UNL A   1      35.632  21.240  24.764  1.00  0.00     0.244 C 
BRANCH   6   7
ATOM      7  N   UNL A   1      34.543  21.659  25.641  1.00  0.00    -0.261 N 
ATOM      8  C   UNL A   1      33.196  21.616  25.372  1.00  0.00     0.135 A 
ATOM      9  N   UNL A   1      34.818  22.265  26.812  1.00  0.00    -0.179 NA
ATOM     10  C   UNL A   1      32.572  22.198  26.455  1.00  0.00     0.081 A 
ATOM     11  C   UNL A   1      33.622  22.484  27.349  1.00  0.00     0.161 A 
BRANCH  10  12
ATOM     12  N   UNL A   1      31.209  22.378  26.601  1.00  0.00    -0.305 N 
ATOM     13  C   UNL A   1      30.543  23.576  26.580  1.00  0.00     0.322 C 
ATOM     14  H   UNL A   1      30.663  21.568  26.731  1.00  0.00     0.171 HD
ATOM     15  O   UNL A   1      29.531  23.713  27.267  1.00  0.00    -0.248 OA
BRANCH  13  16
ATOM     16  N   UNL A   1      31.054  24.590  25.800  1.00  0.00    -0.313 N 
ATOM     17  C   UNL A   1      30.647  24.755  24.396  1.00  0.00     0.183 C 
ATOM     18  C   UNL A   1      31.667  25.745  26.447  1.00  0.00     0.186 C 
ATOM     19  C   UNL A   1      31.113  26.079  23.758  1.00  0.00     0.284 C 
ATOM     20  C   UNL A   1      31.044  27.082  26.022  1.00  0.00     0.204 C 
ATOM     21  N   UNL A   1      30.832  27.269  24.568  1.00  0.00    -0.330 N 
ATOM     22  C   UNL A   1      31.901  28.267  26.472  1.00  0.00     0.073 C 
ATOM     23  C   UNL A   1      31.604  28.437  24.133  1.00  0.00     0.262 C 
ATOM     24  H   UNL A   1      29.836  27.434  24.416  1.00  0.00     0.348 HD
ATOM     25  C   UNL A   1      31.707  29.297  25.377  1.00  0.00     0.068 C 
ENDBRANCH  13  16
ENDBRANCH  10  12
ENDBRANCH   6   7
ENDBRANCH   4   6
ENDBRANCH   1   2
BRANCH   1  26
ATOM     26  C   UNL A   1      40.123  20.784  26.473  1.00  0.00     0.042 C 
BRANCH  26  27
ATOM     27  C   UNL A   1      41.461  21.266  27.015  1.00  0.00     0.118 C 
BRANCH  27  28
ATOM     28  N   UNL A   1      42.443  21.639  25.996  1.00  0.00    -0.352 N 
ATOM     29  C   UNL A   1      42.821  22.919  25.612  1.00  0.00     0.251 C 
ATOM     30  H   UNL A   1      42.887  20.895  25.527  1.00  0.00     0.163 HD
ATOM     31  O   UNL A   1      43.425  23.115  24.573  1.00  0.00    -0.269 OA
BRANCH  29  32
ATOM     32  C   UNL A   1      42.467  24.055  26.492  1.00  0.00     0.039 A 
ATOM     33  C   UNL A   1      43.169  24.303  27.674  1.00  0.00     0.014 A 
ATOM     34  C   UNL A   1      41.434  24.901  26.099  1.00  0.00     0.014 A 
ATOM     35  C   UNL A   1      42.884  25.461  28.398  1.00  0.00     0.010 A 
ATOM     36  C   UNL A   1      41.264  26.114  26.719  1.00  0.00     0.010 A 
ATOM     37  C   UNL A   1      41.949  26.384  27.897  1.00  0.00    -0.014 A 
BRANCH  37  38
ATOM     38  C   UNL A   1      41.766  27.684  28.543  1.00  0.00     0.031 A 
ATOM     39  C   UNL A   1      42.813  28.696  28.225  1.00  0.00     0.074 A 
ATOM     40  C   UNL A   1      40.653  28.041  29.220  1.00  0.00     0.049 A 
ATOM     41  N   UNL A   1      43.643  29.252  29.046  1.00  0.00    -0.248 NA
ATOM     42  C   UNL A   1      43.038  29.062  26.817  1.00  0.00     0.031 C 
ATOM     43  C   UNL A   1      39.392  27.307  29.384  1.00  0.00     0.029 A 
ATOM     44  N   UNL A   1      40.384  29.221  29.842  1.00  0.00    -0.354 N 
ATOM     45  C   UNL A   1      44.392  30.158  28.298  1.00  0.00     0.074 A 
ATOM     46  C   UNL A   1      44.072  29.901  26.918  1.00  0.00     0.031 C 
ATOM     47  C   UNL A   1      38.433  28.144  29.838  1.00  0.00     0.029 A 
ATOM     48  C   UNL A   1      39.048  29.418  30.165  1.00  0.00     0.049 A 
ATOM     49  H   UNL A   1      41.083  29.884  30.047  1.00  0.00     0.167 HD
ATOM     50  C   UNL A   1      45.061  31.180  28.903  1.00  0.00     0.037 A 
ATOM     51  C   UNL A   1      38.487  30.557  30.643  1.00  0.00     0.037 A 
ATOM     52  C   UNL A   1      45.236  30.923  30.311  1.00  0.00     0.049 A 
ATOM     53  C   UNL A   1      39.584  31.369  31.231  1.00  0.00     0.074 A 
ATOM     54  C   UNL A   1      45.835  29.910  31.039  1.00  0.00     0.029 A 
ATOM     55  N   UNL A   1      44.421  31.574  31.205  1.00  0.00    -0.354 N 
ATOM     56  N   UNL A   1      40.236  31.029  32.308  1.00  0.00    -0.248 NA
ATOM     57  C   UNL A   1      40.265  32.308  30.352  1.00  0.00     0.031 C 
ATOM     58  C   UNL A   1      44.950  29.679  32.135  1.00  0.00     0.029 A 
ATOM     59  C   UNL A   1      43.922  30.616  32.051  1.00  0.00     0.049 A 
ATOM     60  H   UNL A   1      44.230  32.540  31.232  1.00  0.00     0.167 HD
ATOM     61  C   UNL A   1      41.556  31.346  32.029  1.00  0.00     0.074 A 
ATOM     62  C   UNL A   1      41.502  32.200  30.842  1.00  0.00     0.031 C 
ATOM     63  C   UNL A   1      42.589  30.660  32.600  1.00  0.00     0.037 A 
BRANCH  50  64
ATOM     64  C   UNL A   1      45.234  32.561  28.316  1.00  0.00     0.064 A 
ATOM     65  C   UNL A   1      44.086  33.314  27.985  1.00  0.00     0.173 A 
ATOM     66  C   UNL A   1      46.446  33.038  27.772  1.00  0.00     0.173 A 
ATOM     67  F   UNL A   1      42.877  32.954  28.442  1.00  0.00    -0.203 F 
ATOM     68  C   UNL A   1      44.136  34.388  27.093  1.00  0.00     0.198 A 
ATOM     69  C   UNL A   1      46.499  34.143  26.923  1.00  0.00     0.198 A 
ATOM     70  F   UNL A   1      47.606  32.396  27.942  1.00  0.00    -0.203 F 
ATOM     71  F   UNL A   1      43.000  34.977  26.697  1.00  0.00    -0.200 F 
ATOM     72  C   UNL A   1      45.341  34.793  26.553  1.00  0.00     0.200 A 
ATOM     73  F   UNL A   1      47.676  34.513  26.398  1.00  0.00    -0.200 F 
ATOM     74  F   UNL A   1      45.384  35.773  25.640  1.00  0.00    -0.200 F 
ENDBRANCH  50  64
BRANCH  51  75
ATOM     75  C   UNL A   1      37.145  31.119  30.362  1.00  0.00     0.064 A 
ATOM     76  C   UNL A   1      36.272  31.467  31.408  1.00  0.00     0.173 A 
ATOM     77  C   UNL A   1      36.804  31.597  29.082  1.00  0.00     0.173 A 
ATOM     78  F   UNL A   1      36.542  31.088  32.666  1.00  0.00    -0.203 F 
ATOM     79  C   UNL A   1      35.149  32.274  31.192  1.00  0.00     0.198 A 
ATOM     80  C   UNL A   1      35.680  32.397  28.866  1.00  0.00     0.198 A 
ATOM     81  F   UNL A   1      37.607  31.381  28.030  1.00  0.00    -0.203 F 
ATOM     82  F   UNL A   1      34.380  32.641  32.226  1.00  0.00    -0.200 F 
ATOM     83  C   UNL A   1      34.862  32.749  29.923  1.00  0.00     0.200 A 
ATOM     84  F   UNL A   1      35.433  32.879  27.639  1.00  0.00    -0.200 F 
ATOM     85  F   UNL A   1      33.826  33.576  29.725  1.00  0.00    -0.200 F 
ENDBRANCH  51  75
BRANCH  63  86
ATOM     86  C   UNL A   1      42.284  29.702  33.718  1.00  0.00     0.064 A 
ATOM     87  C   UNL A   1      41.900  28.363  33.532  1.00  0.00     0.173 A 
ATOM     88  C   UNL A   1      42.547  30.117  35.031  1.00  0.00     0.173 A 
ATOM     89  F   UNL A   1      41.728  27.855  32.306  1.00  0.00    -0.203 F 
ATOM     90  C   UNL A   1      41.748  27.495  34.614  1.00  0.00     0.198 A 
ATOM     91  C   UNL A   1      42.432  29.238  36.105  1.00  0.00     0.198 A 
ATOM     92  F   UNL A   1      42.970  31.369  35.268  1.00  0.00    -0.203 F 
ATOM     93  F   UNL A   1      41.372  26.223  34.408  1.00  0.00    -0.200 F 
ATOM     94  C   UNL A   1      42.023  27.932  35.898  1.00  0.00     0.200 A 
ATOM     95  F   UNL A   1      42.749  29.653  37.340  1.00  0.00    -0.200 F 
ATOM     96  F   UNL A   1      41.920  27.086  36.933  1.00  0.00    -0.200 F 
ENDBRANCH  63  86
ENDBRANCH  37  38
ENDBRANCH  29  32
ENDBRANCH  27  28
ENDBRANCH  26  27
ENDBRANCH   1  26
TORSDOF 13
ENDMDL
