MODEL 1
REMARK VINA RESULT:     -10.7      0.000      0.000
REMARK SMILES O=C(NCCCNC(=O)c1[nH]c2ccc(Cl)cc2c1-c1ccccc1)c1ccc(-c2c3nc(c(-c4c(F)c(F)c(F)c(F)c4F)c4ccc([nH]4)c(-c4c(F)c(F)c(F)c(F)c4F)c4nc(c(-c5c(F)c(F)c(F)c(F)c5F)c5ccc2[nH]5)C=C4)C=C3)cc1
REMARK SMILES IDX 4 1 3 2 1 3 2 4 26 6 27 7 88 8 28 9 87 10 29 11 30 12 31 13
REMARK SMILES IDX 81 14 32 15 86 16 80 17 82 18 33 19 85 20 79 21 78 22 34 24
REMARK SMILES IDX 66 25 46 26 65 27 47 28 50 29 64 30 83 31 48 32 49 33 63 35
REMARK SMILES IDX 84 36 51 37 35 38 36 39 44 40 37 41 38 42 42 43 45 44 39 45
REMARK SMILES IDX 40 46 43 47 41 48 67 49 68 50 76 51 69 52 70 53 74 54 77 55
REMARK SMILES IDX 71 56 72 57 75 58 73 59 52 60 53 61 61 62 54 63 55 64 59 65
REMARK SMILES IDX 62 66 56 67 57 68 60 69 58 70 5 71 6 72 7 73 8 74 9 76 10 77
REMARK SMILES IDX 11 78 19 79 12 80 18 82 13 83 17 84 14 85 15 86 16 87 20 88
REMARK SMILES IDX 21 89 25 90 22 91 24 92 23 93
REMARK H PARENT 3 5 82 23 50 34 7 75 11 81
REMARK Flexibility Score: inf
ROOT
ATOM      1  C   UNL A   1      34.662  32.523  28.976  1.00  0.00     0.118 C 
ENDROOT
BRANCH   1   2
ATOM      2  N   UNL A   1      34.096  31.411  28.222  1.00  0.00    -0.352 N 
ATOM      3  O   UNL A   1      34.073  29.530  26.980  1.00  0.00    -0.269 OA
ATOM      4  C   UNL A   1      34.691  30.270  27.738  1.00  0.00     0.251 C 
ATOM      5  H   UNL A   1      33.134  31.489  28.030  1.00  0.00     0.163 HD
BRANCH   4   6
ATOM      6  C   UNL A   1      36.086  29.949  28.106  1.00  0.00     0.039 A 
ATOM      7  C   UNL A   1      37.138  30.257  27.246  1.00  0.00     0.014 A 
ATOM      8  C   UNL A   1      36.348  29.342  29.339  1.00  0.00     0.014 A 
ATOM      9  C   UNL A   1      38.416  29.793  27.520  1.00  0.00     0.010 A 
ATOM     10  C   UNL A   1      37.659  28.993  29.675  1.00  0.00     0.010 A 
ATOM     11  C   UNL A   1      38.700  29.192  28.754  1.00  0.00    -0.014 A 
BRANCH  11  12
ATOM     12  C   UNL A   1      40.110  28.886  29.094  1.00  0.00     0.031 A 
ATOM     13  C   UNL A   1      40.953  29.848  29.878  1.00  0.00     0.074 A 
ATOM     14  C   UNL A   1      40.617  27.706  28.686  1.00  0.00     0.049 A 
ATOM     15  N   UNL A   1      42.210  29.739  30.232  1.00  0.00    -0.248 NA
ATOM     16  C   UNL A   1      40.313  31.097  30.318  1.00  0.00     0.031 C 
ATOM     17  C   UNL A   1      39.887  26.700  27.908  1.00  0.00     0.029 A 
ATOM     18  N   UNL A   1      41.854  27.144  28.871  1.00  0.00    -0.354 N 
ATOM     19  C   UNL A   1      42.518  30.912  30.909  1.00  0.00     0.074 A 
ATOM     20  C   UNL A   1      41.322  31.727  30.905  1.00  0.00     0.031 C 
ATOM     21  C   UNL A   1      40.673  25.633  27.716  1.00  0.00     0.029 A 
ATOM     22  C   UNL A   1      41.986  25.910  28.281  1.00  0.00     0.049 A 
ATOM     23  H   UNL A   1      42.576  27.581  29.377  1.00  0.00     0.167 HD
ATOM     24  C   UNL A   1      43.694  31.265  31.479  1.00  0.00     0.037 A 
ATOM     25  C   UNL A   1      43.057  25.105  28.169  1.00  0.00     0.037 A 
ATOM     26  C   UNL A   1      44.869  30.430  31.493  1.00  0.00     0.049 A 
ATOM     27  C   UNL A   1      44.355  25.545  28.781  1.00  0.00     0.074 A 
ATOM     28  C   UNL A   1      46.089  30.669  32.102  1.00  0.00     0.029 A 
ATOM     29  N   UNL A   1      44.975  29.200  30.859  1.00  0.00    -0.354 N 
ATOM     30  N   UNL A   1      44.619  26.631  29.464  1.00  0.00    -0.248 NA
ATOM     31  C   UNL A   1      45.506  24.652  28.597  1.00  0.00     0.031 C 
ATOM     32  C   UNL A   1      46.951  29.615  31.784  1.00  0.00     0.029 A 
ATOM     33  C   UNL A   1      46.253  28.689  31.028  1.00  0.00     0.049 A 
ATOM     34  H   UNL A   1      44.250  28.757  30.362  1.00  0.00     0.167 HD
ATOM     35  C   UNL A   1      45.960  26.549  29.804  1.00  0.00     0.074 A 
ATOM     36  C   UNL A   1      46.449  25.292  29.274  1.00  0.00     0.031 C 
ATOM     37  C   UNL A   1      46.720  27.437  30.490  1.00  0.00     0.037 A 
BRANCH  24  38
ATOM     38  C   UNL A   1      43.793  32.621  32.117  1.00  0.00     0.064 A 
ATOM     39  C   UNL A   1      44.148  33.762  31.384  1.00  0.00     0.173 A 
ATOM     40  C   UNL A   1      43.454  32.791  33.469  1.00  0.00     0.173 A 
ATOM     41  F   UNL A   1      44.489  33.657  30.091  1.00  0.00    -0.203 F 
ATOM     42  C   UNL A   1      44.176  35.020  31.984  1.00  0.00     0.198 A 
ATOM     43  C   UNL A   1      43.457  34.052  34.058  1.00  0.00     0.198 A 
ATOM     44  F   UNL A   1      43.099  31.734  34.215  1.00  0.00    -0.203 F 
ATOM     45  F   UNL A   1      44.552  36.093  31.272  1.00  0.00    -0.200 F 
ATOM     46  C   UNL A   1      43.823  35.165  33.317  1.00  0.00     0.200 A 
ATOM     47  F   UNL A   1      43.100  34.192  35.343  1.00  0.00    -0.200 F 
ATOM     48  F   UNL A   1      43.836  36.378  33.888  1.00  0.00    -0.200 F 
ENDBRANCH  24  38
BRANCH  25  49
ATOM     49  C   UNL A   1      42.948  23.830  27.415  1.00  0.00     0.064 A 
ATOM     50  C   UNL A   1      42.479  22.662  28.031  1.00  0.00     0.173 A 
ATOM     51  C   UNL A   1      43.302  23.756  26.058  1.00  0.00     0.173 A 
ATOM     52  F   UNL A   1      42.143  22.678  29.329  1.00  0.00    -0.203 F 
ATOM     53  C   UNL A   1      42.389  21.465  27.324  1.00  0.00     0.198 A 
ATOM     54  C   UNL A   1      43.177  22.568  25.345  1.00  0.00     0.198 A 
ATOM     55  F   UNL A   1      43.748  24.849  25.420  1.00  0.00    -0.203 F 
ATOM     56  F   UNL A   1      41.984  20.351  27.950  1.00  0.00    -0.200 F 
ATOM     57  C   UNL A   1      42.731  21.420  25.981  1.00  0.00     0.200 A 
ATOM     58  F   UNL A   1      43.489  22.536  24.042  1.00  0.00    -0.200 F 
ATOM     59  F   UNL A   1      42.638  20.270  25.302  1.00  0.00    -0.200 F 
ENDBRANCH  25  49
BRANCH  37  60
ATOM     60  C   UNL A   1      48.156  27.070  30.720  1.00  0.00     0.064 A 
ATOM     61  C   UNL A   1      48.540  26.237  31.781  1.00  0.00     0.173 A 
ATOM     62  C   UNL A   1      49.155  27.527  29.848  1.00  0.00     0.173 A 
ATOM     63  F   UNL A   1      47.624  25.791  32.654  1.00  0.00    -0.203 F 
ATOM     64  C   UNL A   1      49.874  25.891  31.971  1.00  0.00     0.198 A 
ATOM     65  C   UNL A   1      50.484  27.154  30.022  1.00  0.00     0.198 A 
ATOM     66  F   UNL A   1      48.840  28.325  28.816  1.00  0.00    -0.203 F 
ATOM     67  F   UNL A   1      50.225  25.132  33.019  1.00  0.00    -0.200 F 
ATOM     68  C   UNL A   1      50.843  26.342  31.087  1.00  0.00     0.200 A 
ATOM     69  F   UNL A   1      51.417  27.579  29.160  1.00  0.00    -0.200 F 
ATOM     70  F   UNL A   1      52.126  25.999  31.266  1.00  0.00    -0.200 F 
ENDBRANCH  37  60
ENDBRANCH  11  12
ENDBRANCH   4   6
ENDBRANCH   1   2
BRANCH   1  71
ATOM     71  C   UNL A   1      34.783  32.235  30.459  1.00  0.00     0.042 C 
BRANCH  71  72
ATOM     72  C   UNL A   1      35.865  33.045  31.142  1.00  0.00     0.118 C 
BRANCH  72  73
ATOM     73  N   UNL A   1      35.495  33.494  32.472  1.00  0.00    -0.351 N 
ATOM     74  C   UNL A   1      35.939  33.042  33.686  1.00  0.00     0.268 C 
ATOM     75  H   UNL A   1      34.834  34.223  32.506  1.00  0.00     0.163 HD
ATOM     76  O   UNL A   1      35.372  33.451  34.698  1.00  0.00    -0.268 OA
BRANCH  74  77
ATOM     77  C   UNL A   1      36.978  32.044  33.738  1.00  0.00     0.113 A 
ATOM     78  N   UNL A   1      36.724  30.765  33.298  1.00  0.00    -0.350 N 
ATOM     79  C   UNL A   1      38.294  32.056  34.199  1.00  0.00     0.020 A 
ATOM     80  C   UNL A   1      37.879  30.029  33.243  1.00  0.00     0.047 A 
ATOM     81  H   UNL A   1      35.832  30.424  33.057  1.00  0.00     0.167 HD
ATOM     82  C   UNL A   1      38.884  30.806  33.819  1.00  0.00     0.010 A 
ATOM     83  C   UNL A   1      38.100  28.745  32.732  1.00  0.00     0.028 A 
ATOM     84  C   UNL A   1      40.182  30.262  33.904  1.00  0.00     0.031 A 
ATOM     85  C   UNL A   1      39.400  28.240  32.804  1.00  0.00     0.022 A 
ATOM     86  C   UNL A   1      40.422  28.988  33.382  1.00  0.00     0.041 A 
ATOM     87  Cl  UNL A   1      42.016  28.337  33.446  1.00  0.00    -0.084 Cl
BRANCH  79  88
ATOM     88  C   UNL A   1      38.925  33.220  34.815  1.00  0.00    -0.015 A 
ATOM     89  C   UNL A   1      38.736  33.500  36.175  1.00  0.00     0.009 A 
ATOM     90  C   UNL A   1      39.629  34.139  34.023  1.00  0.00     0.009 A 
ATOM     91  C   UNL A   1      39.201  34.700  36.720  1.00  0.00     0.001 A 
ATOM     92  C   UNL A   1      40.086  35.343  34.567  1.00  0.00     0.001 A 
ATOM     93  C   UNL A   1      39.863  35.625  35.914  1.00  0.00     0.000 A 
ENDBRANCH  79  88
ENDBRANCH  74  77
ENDBRANCH  72  73
ENDBRANCH  71  72
ENDBRANCH   1  71
TORSDOF 11
ENDMDL
MODEL 2
REMARK VINA RESULT:     -10.6      3.568     10.330
REMARK SMILES O=C(NCCCNC(=O)c1[nH]c2ccc(Cl)cc2c1-c1ccccc1)c1ccc(-c2c3nc(c(-c4c(F)c(F)c(F)c(F)c4F)c4ccc([nH]4)c(-c4c(F)c(F)c(F)c(F)c4F)c4nc(c(-c5c(F)c(F)c(F)c(F)c5F)c5ccc2[nH]5)C=C4)C=C3)cc1
REMARK SMILES IDX 4 1 3 2 1 3 2 4 26 6 27 7 88 8 28 9 87 10 29 11 30 12 31 13
REMARK SMILES IDX 81 14 32 15 86 16 80 17 82 18 33 19 85 20 79 21 78 22 34 24
REMARK SMILES IDX 66 25 46 26 65 27 47 28 50 29 64 30 83 31 48 32 49 33 63 35
REMARK SMILES IDX 84 36 51 37 35 38 36 39 44 40 37 41 38 42 42 43 45 44 39 45
REMARK SMILES IDX 40 46 43 47 41 48 67 49 68 50 76 51 69 52 70 53 74 54 77 55
REMARK SMILES IDX 71 56 72 57 75 58 73 59 52 60 53 61 61 62 54 63 55 64 59 65
REMARK SMILES IDX 62 66 56 67 57 68 60 69 58 70 5 71 6 72 7 73 8 74 9 76 10 77
REMARK SMILES IDX 11 78 19 79 12 80 18 82 13 83 17 84 14 85 15 86 16 87 20 88
REMARK SMILES IDX 21 89 25 90 22 91 24 92 23 93
REMARK H PARENT 3 5 82 23 50 34 7 75 11 81
REMARK Flexibility Score: inf
ROOT
ATOM      1  C   UNL A   1      40.947  21.996  26.712  1.00  0.00     0.118 C 
ENDROOT
BRANCH   1   2
ATOM      2  N   UNL A   1      39.622  22.259  26.166  1.00  0.00    -0.352 N 
ATOM      3  O   UNL A   1      37.629  23.287  25.930  1.00  0.00    -0.269 OA
ATOM      4  C   UNL A   1      38.780  23.331  26.351  1.00  0.00     0.251 C 
ATOM      5  H   UNL A   1      39.274  21.559  25.569  1.00  0.00     0.163 HD
BRANCH   4   6
ATOM      6  C   UNL A   1      39.252  24.526  27.082  1.00  0.00     0.039 A 
ATOM      7  C   UNL A   1      38.994  24.675  28.443  1.00  0.00     0.014 A 
ATOM      8  C   UNL A   1      39.976  25.508  26.398  1.00  0.00     0.014 A 
ATOM      9  C   UNL A   1      39.283  25.875  29.076  1.00  0.00     0.010 A 
ATOM     10  C   UNL A   1      40.386  26.662  27.071  1.00  0.00     0.010 A 
ATOM     11  C   UNL A   1      40.017  26.866  28.410  1.00  0.00    -0.014 A 
BRANCH  11  12
ATOM     12  C   UNL A   1      40.478  28.050  29.173  1.00  0.00     0.031 A 
ATOM     13  C   UNL A   1      41.873  28.136  29.718  1.00  0.00     0.074 A 
ATOM     14  C   UNL A   1      39.608  29.062  29.357  1.00  0.00     0.049 A 
ATOM     15  N   UNL A   1      42.420  29.091  30.429  1.00  0.00    -0.248 NA
ATOM     16  C   UNL A   1      42.773  27.006  29.441  1.00  0.00     0.031 C 
ATOM     17  C   UNL A   1      38.222  29.077  28.878  1.00  0.00     0.029 A 
ATOM     18  N   UNL A   1      39.752  30.272  29.984  1.00  0.00    -0.354 N 
ATOM     19  C   UNL A   1      43.713  28.667  30.706  1.00  0.00     0.074 A 
ATOM     20  C   UNL A   1      43.867  27.361  30.101  1.00  0.00     0.031 C 
ATOM     21  C   UNL A   1      37.658  30.250  29.193  1.00  0.00     0.029 A 
ATOM     22  C   UNL A   1      38.609  31.034  29.968  1.00  0.00     0.049 A 
ATOM     23  H   UNL A   1      40.592  30.567  30.405  1.00  0.00     0.167 HD
ATOM     24  C   UNL A   1      44.676  29.317  31.403  1.00  0.00     0.037 A 
ATOM     25  C   UNL A   1      38.339  32.218  30.547  1.00  0.00     0.037 A 
ATOM     26  C   UNL A   1      44.512  30.627  31.979  1.00  0.00     0.049 A 
ATOM     27  C   UNL A   1      39.417  32.892  31.343  1.00  0.00     0.074 A 
ATOM     28  C   UNL A   1      45.448  31.400  32.646  1.00  0.00     0.029 A 
ATOM     29  N   UNL A   1      43.330  31.356  31.969  1.00  0.00    -0.354 N 
ATOM     30  N   UNL A   1      40.652  32.507  31.553  1.00  0.00    -0.248 NA
ATOM     31  C   UNL A   1      39.063  34.162  31.991  1.00  0.00     0.031 C 
ATOM     32  C   UNL A   1      44.817  32.565  33.093  1.00  0.00     0.029 A 
ATOM     33  C   UNL A   1      43.504  32.548  32.655  1.00  0.00     0.049 A 
ATOM     34  H   UNL A   1      42.493  31.067  31.540  1.00  0.00     0.167 HD
ATOM     35  C   UNL A   1      41.227  33.488  32.344  1.00  0.00     0.074 A 
ATOM     36  C   UNL A   1      40.213  34.501  32.555  1.00  0.00     0.031 C 
ATOM     37  C   UNL A   1      42.481  33.543  32.855  1.00  0.00     0.037 A 
BRANCH  24  38
ATOM     38  C   UNL A   1      45.991  28.622  31.610  1.00  0.00     0.064 A 
ATOM     39  C   UNL A   1      46.232  27.807  32.725  1.00  0.00     0.173 A 
ATOM     40  C   UNL A   1      46.999  28.715  30.637  1.00  0.00     0.173 A 
ATOM     41  F   UNL A   1      45.307  27.687  33.689  1.00  0.00    -0.203 F 
ATOM     42  C   UNL A   1      47.440  27.124  32.867  1.00  0.00     0.198 A 
ATOM     43  C   UNL A   1      48.193  28.011  30.769  1.00  0.00     0.198 A 
ATOM     44  F   UNL A   1      46.817  29.475  29.547  1.00  0.00    -0.203 F 
ATOM     45  F   UNL A   1      47.661  26.377  33.958  1.00  0.00    -0.200 F 
ATOM     46  C   UNL A   1      48.414  27.221  31.886  1.00  0.00     0.200 A 
ATOM     47  F   UNL A   1      49.127  28.093  29.811  1.00  0.00    -0.200 F 
ATOM     48  F   UNL A   1      49.569  26.551  32.017  1.00  0.00    -0.200 F 
ENDBRANCH  24  38
BRANCH  25  49
ATOM     49  C   UNL A   1      36.981  32.807  30.425  1.00  0.00     0.064 A 
ATOM     50  C   UNL A   1      36.024  32.637  31.435  1.00  0.00     0.173 A 
ATOM     51  C   UNL A   1      36.614  33.560  29.299  1.00  0.00     0.173 A 
ATOM     52  F   UNL A   1      36.321  31.913  32.524  1.00  0.00    -0.203 F 
ATOM     53  C   UNL A   1      34.747  33.181  31.312  1.00  0.00     0.198 A 
ATOM     54  C   UNL A   1      35.350  34.132  29.193  1.00  0.00     0.198 A 
ATOM     55  F   UNL A   1      37.497  33.759  28.308  1.00  0.00    -0.203 F 
ATOM     56  F   UNL A   1      33.836  32.963  32.270  1.00  0.00    -0.200 F 
ATOM     57  C   UNL A   1      34.414  33.933  30.196  1.00  0.00     0.200 A 
ATOM     58  F   UNL A   1      35.040  34.876  28.123  1.00  0.00    -0.200 F 
ATOM     59  F   UNL A   1      33.187  34.460  30.083  1.00  0.00    -0.200 F 
ENDBRANCH  25  49
BRANCH  37  60
ATOM     60  C   UNL A   1      42.830  34.749  33.677  1.00  0.00     0.064 A 
ATOM     61  C   UNL A   1      42.735  34.736  35.075  1.00  0.00     0.173 A 
ATOM     62  C   UNL A   1      43.298  35.918  33.059  1.00  0.00     0.173 A 
ATOM     63  F   UNL A   1      42.272  33.648  35.711  1.00  0.00    -0.203 F 
ATOM     64  C   UNL A   1      43.079  35.857  35.825  1.00  0.00     0.198 A 
ATOM     65  C   UNL A   1      43.671  37.026  33.813  1.00  0.00     0.198 A 
ATOM     66  F   UNL A   1      43.409  35.980  31.723  1.00  0.00    -0.203 F 
ATOM     67  F   UNL A   1      42.936  35.839  37.158  1.00  0.00    -0.200 F 
ATOM     68  C   UNL A   1      43.555  36.997  35.195  1.00  0.00     0.200 A 
ATOM     69  F   UNL A   1      44.144  38.121  33.203  1.00  0.00    -0.200 F 
ATOM     70  F   UNL A   1      43.896  38.071  35.919  1.00  0.00    -0.200 F 
ENDBRANCH  37  60
ENDBRANCH  11  12
ENDBRANCH   4   6
ENDBRANCH   1   2
BRANCH   1  71
ATOM     71  C   UNL A   1      42.054  22.154  25.690  1.00  0.00     0.042 C 
BRANCH  71  72
ATOM     72  C   UNL A   1      43.097  23.179  26.085  1.00  0.00     0.118 C 
BRANCH  72  73
ATOM     73  N   UNL A   1      44.314  23.094  25.299  1.00  0.00    -0.351 N 
ATOM     74  C   UNL A   1      45.126  24.106  24.862  1.00  0.00     0.268 C 
ATOM     75  H   UNL A   1      44.594  22.185  25.046  1.00  0.00     0.163 HD
ATOM     76  O   UNL A   1      46.023  23.825  24.067  1.00  0.00    -0.268 OA
BRANCH  74  77
ATOM     77  C   UNL A   1      44.852  25.463  25.262  1.00  0.00     0.113 A 
ATOM     78  N   UNL A   1      43.740  26.111  24.777  1.00  0.00    -0.350 N 
ATOM     79  C   UNL A   1      45.524  26.375  26.076  1.00  0.00     0.020 A 
ATOM     80  C   UNL A   1      43.549  27.305  25.422  1.00  0.00     0.047 A 
ATOM     81  H   UNL A   1      43.159  25.764  24.061  1.00  0.00     0.167 HD
ATOM     82  C   UNL A   1      44.664  27.511  26.235  1.00  0.00     0.010 A 
ATOM     83  C   UNL A   1      42.482  28.207  25.342  1.00  0.00     0.028 A 
ATOM     84  C   UNL A   1      44.723  28.694  27.000  1.00  0.00     0.031 A 
ATOM     85  C   UNL A   1      42.553  29.359  26.130  1.00  0.00     0.022 A 
ATOM     86  C   UNL A   1      43.657  29.595  26.944  1.00  0.00     0.041 A 
ATOM     87  Cl  UNL A   1      43.707  31.021  27.909  1.00  0.00    -0.084 Cl
BRANCH  79  88
ATOM     88  C   UNL A   1      46.800  26.091  26.728  1.00  0.00    -0.015 A 
ATOM     89  C   UNL A   1      47.999  26.142  26.004  1.00  0.00     0.009 A 
ATOM     90  C   UNL A   1      46.826  25.644  28.058  1.00  0.00     0.009 A 
ATOM     91  C   UNL A   1      49.193  25.708  26.586  1.00  0.00     0.001 A 
ATOM     92  C   UNL A   1      48.020  25.203  28.635  1.00  0.00     0.001 A 
ATOM     93  C   UNL A   1      49.201  25.227  27.895  1.00  0.00     0.000 A 
ENDBRANCH  79  88
ENDBRANCH  74  77
ENDBRANCH  72  73
ENDBRANCH  71  72
ENDBRANCH   1  71
TORSDOF 11
ENDMDL
MODEL 3
REMARK VINA RESULT:     -10.6      3.558     10.407
REMARK SMILES O=C(NCCCNC(=O)c1[nH]c2ccc(Cl)cc2c1-c1ccccc1)c1ccc(-c2c3nc(c(-c4c(F)c(F)c(F)c(F)c4F)c4ccc([nH]4)c(-c4c(F)c(F)c(F)c(F)c4F)c4nc(c(-c5c(F)c(F)c(F)c(F)c5F)c5ccc2[nH]5)C=C4)C=C3)cc1
REMARK SMILES IDX 4 1 3 2 1 3 2 4 26 6 27 7 88 8 28 9 87 10 29 11 30 12 31 13
REMARK SMILES IDX 81 14 32 15 86 16 80 17 82 18 33 19 85 20 79 21 78 22 34 24
REMARK SMILES IDX 66 25 46 26 65 27 47 28 50 29 64 30 83 31 48 32 49 33 63 35
REMARK SMILES IDX 84 36 51 37 35 38 36 39 44 40 37 41 38 42 42 43 45 44 39 45
REMARK SMILES IDX 40 46 43 47 41 48 67 49 68 50 76 51 69 52 70 53 74 54 77 55
REMARK SMILES IDX 71 56 72 57 75 58 73 59 52 60 53 61 61 62 54 63 55 64 59 65
REMARK SMILES IDX 62 66 56 67 57 68 60 69 58 70 5 71 6 72 7 73 8 74 9 76 10 77
REMARK SMILES IDX 11 78 19 79 12 80 18 82 13 83 17 84 14 85 15 86 16 87 20 88
REMARK SMILES IDX 21 89 25 90 22 91 24 92 23 93
REMARK H PARENT 3 5 82 23 50 34 7 75 11 81
REMARK Flexibility Score: inf
ROOT
ATOM      1  C   UNL A   1      40.740  21.925  26.941  1.00  0.00     0.118 C 
ENDROOT
BRANCH   1   2
ATOM      2  N   UNL A   1      39.503  22.264  26.246  1.00  0.00    -0.352 N 
ATOM      3  O   UNL A   1      37.625  23.418  25.772  1.00  0.00    -0.269 OA
ATOM      4  C   UNL A   1      38.724  23.394  26.317  1.00  0.00     0.251 C 
ATOM      5  H   UNL A   1      39.174  21.573  25.628  1.00  0.00     0.163 HD
BRANCH   4   6
ATOM      6  C   UNL A   1      39.197  24.574  27.072  1.00  0.00     0.039 A 
ATOM      7  C   UNL A   1      38.909  24.712  28.429  1.00  0.00     0.014 A 
ATOM      8  C   UNL A   1      39.952  25.552  26.417  1.00  0.00     0.014 A 
ATOM      9  C   UNL A   1      39.201  25.899  29.082  1.00  0.00     0.010 A 
ATOM     10  C   UNL A   1      40.364  26.692  27.113  1.00  0.00     0.010 A 
ATOM     11  C   UNL A   1      39.966  26.886  28.445  1.00  0.00    -0.014 A 
BRANCH  11  12
ATOM     12  C   UNL A   1      40.428  28.054  29.232  1.00  0.00     0.031 A 
ATOM     13  C   UNL A   1      41.814  28.117  29.802  1.00  0.00     0.074 A 
ATOM     14  C   UNL A   1      39.566  29.074  29.417  1.00  0.00     0.049 A 
ATOM     15  N   UNL A   1      42.360  29.056  30.535  1.00  0.00    -0.248 NA
ATOM     16  C   UNL A   1      42.706  26.981  29.524  1.00  0.00     0.031 C 
ATOM     17  C   UNL A   1      38.188  29.111  28.915  1.00  0.00     0.029 A 
ATOM     18  N   UNL A   1      39.712  30.273  30.063  1.00  0.00    -0.354 N 
ATOM     19  C   UNL A   1      43.643  28.614  30.828  1.00  0.00     0.074 A 
ATOM     20  C   UNL A   1      43.793  27.315  30.207  1.00  0.00     0.031 C 
ATOM     21  C   UNL A   1      37.632  30.285  29.237  1.00  0.00     0.029 A 
ATOM     22  C   UNL A   1      38.578  31.048  30.039  1.00  0.00     0.049 A 
ATOM     23  H   UNL A   1      40.548  30.553  30.502  1.00  0.00     0.167 HD
ATOM     24  C   UNL A   1      44.601  29.243  31.550  1.00  0.00     0.037 A 
ATOM     25  C   UNL A   1      38.311  32.226  30.630  1.00  0.00     0.037 A 
ATOM     26  C   UNL A   1      44.441  30.547  32.142  1.00  0.00     0.049 A 
ATOM     27  C   UNL A   1      39.383  32.877  31.453  1.00  0.00     0.074 A 
ATOM     28  C   UNL A   1      45.375  31.299  32.836  1.00  0.00     0.029 A 
ATOM     29  N   UNL A   1      43.268  31.289  32.123  1.00  0.00    -0.354 N 
ATOM     30  N   UNL A   1      40.610  32.475  31.678  1.00  0.00    -0.248 NA
ATOM     31  C   UNL A   1      39.032  34.142  32.112  1.00  0.00     0.031 C 
ATOM     32  C   UNL A   1      44.749  32.465  33.289  1.00  0.00     0.029 A 
ATOM     33  C   UNL A   1      43.443  32.470  32.828  1.00  0.00     0.049 A 
ATOM     34  H   UNL A   1      42.435  31.015  31.675  1.00  0.00     0.167 HD
ATOM     35  C   UNL A   1      41.182  33.439  32.493  1.00  0.00     0.074 A 
ATOM     36  C   UNL A   1      40.176  34.460  32.701  1.00  0.00     0.031 C 
ATOM     37  C   UNL A   1      42.428  33.473  33.025  1.00  0.00     0.037 A 
BRANCH  24  38
ATOM     38  C   UNL A   1      45.904  28.530  31.770  1.00  0.00     0.064 A 
ATOM     39  C   UNL A   1      46.120  27.702  32.880  1.00  0.00     0.173 A 
ATOM     40  C   UNL A   1      46.927  28.620  30.812  1.00  0.00     0.173 A 
ATOM     41  F   UNL A   1      45.179  27.585  33.830  1.00  0.00    -0.203 F 
ATOM     42  C   UNL A   1      47.317  27.004  33.033  1.00  0.00     0.198 A 
ATOM     43  C   UNL A   1      48.111  27.901  30.954  1.00  0.00     0.198 A 
ATOM     44  F   UNL A   1      46.770  29.392  29.726  1.00  0.00    -0.203 F 
ATOM     45  F   UNL A   1      47.514  26.245  34.120  1.00  0.00    -0.200 F 
ATOM     46  C   UNL A   1      48.307  27.098  32.066  1.00  0.00     0.200 A 
ATOM     47  F   UNL A   1      49.059  27.981  30.010  1.00  0.00    -0.200 F 
ATOM     48  F   UNL A   1      49.451  26.413  32.208  1.00  0.00    -0.200 F 
ENDBRANCH  24  38
BRANCH  25  49
ATOM     49  C   UNL A   1      36.962  32.832  30.493  1.00  0.00     0.064 A 
ATOM     50  C   UNL A   1      35.993  32.676  31.494  1.00  0.00     0.173 A 
ATOM     51  C   UNL A   1      36.616  33.588  29.362  1.00  0.00     0.173 A 
ATOM     52  F   UNL A   1      36.270  31.950  32.586  1.00  0.00    -0.203 F 
ATOM     53  C   UNL A   1      34.724  33.235  31.357  1.00  0.00     0.198 A 
ATOM     54  C   UNL A   1      35.361  34.176  29.244  1.00  0.00     0.198 A 
ATOM     55  F   UNL A   1      37.511  33.775  28.380  1.00  0.00    -0.203 F 
ATOM     56  F   UNL A   1      33.801  33.030  32.306  1.00  0.00    -0.200 F 
ATOM     57  C   UNL A   1      34.411  33.990  30.237  1.00  0.00     0.200 A 
ATOM     58  F   UNL A   1      35.071  34.922  28.169  1.00  0.00    -0.200 F 
ATOM     59  F   UNL A   1      33.193  34.532  30.111  1.00  0.00    -0.200 F 
ENDBRANCH  25  49
BRANCH  37  60
ATOM     60  C   UNL A   1      42.776  34.663  33.870  1.00  0.00     0.064 A 
ATOM     61  C   UNL A   1      43.206  35.868  33.297  1.00  0.00     0.173 A 
ATOM     62  C   UNL A   1      42.643  34.607  35.265  1.00  0.00     0.173 A 
ATOM     63  F   UNL A   1      43.368  35.964  31.968  1.00  0.00    -0.203 F 
ATOM     64  C   UNL A   1      43.507  36.970  34.092  1.00  0.00     0.198 A 
ATOM     65  C   UNL A   1      42.915  35.719  36.055  1.00  0.00     0.198 A 
ATOM     66  F   UNL A   1      42.233  33.477  35.861  1.00  0.00    -0.203 F 
ATOM     67  F   UNL A   1      43.962  38.097  33.528  1.00  0.00    -0.200 F 
ATOM     68  C   UNL A   1      43.354  36.897  35.469  1.00  0.00     0.200 A 
ATOM     69  F   UNL A   1      42.754  35.652  37.383  1.00  0.00    -0.200 F 
ATOM     70  F   UNL A   1      43.636  37.962  36.232  1.00  0.00    -0.200 F 
ENDBRANCH  37  60
ENDBRANCH  11  12
ENDBRANCH   4   6
ENDBRANCH   1   2
BRANCH   1  71
ATOM     71  C   UNL A   1      41.932  21.815  26.012  1.00  0.00     0.042 C 
BRANCH  71  72
ATOM     72  C   UNL A   1      42.743  23.091  25.921  1.00  0.00     0.118 C 
BRANCH  72  73
ATOM     73  N   UNL A   1      43.953  22.949  25.131  1.00  0.00    -0.351 N 
ATOM     74  C   UNL A   1      44.831  23.917  24.723  1.00  0.00     0.268 C 
ATOM     75  H   UNL A   1      44.171  22.031  24.849  1.00  0.00     0.163 HD
ATOM     76  O   UNL A   1      45.707  23.601  23.918  1.00  0.00    -0.268 OA
BRANCH  74  77
ATOM     77  C   UNL A   1      44.648  25.276  25.165  1.00  0.00     0.113 A 
ATOM     78  N   UNL A   1      43.579  26.010  24.706  1.00  0.00    -0.350 N 
ATOM     79  C   UNL A   1      45.381  26.116  26.002  1.00  0.00     0.020 A 
ATOM     80  C   UNL A   1      43.469  27.195  25.388  1.00  0.00     0.047 A 
ATOM     81  H   UNL A   1      42.974  25.724  23.983  1.00  0.00     0.167 HD
ATOM     82  C   UNL A   1      44.599  27.301  26.200  1.00  0.00     0.010 A 
ATOM     83  C   UNL A   1      42.464  28.167  25.341  1.00  0.00     0.028 A 
ATOM     84  C   UNL A   1      44.739  28.454  27.000  1.00  0.00     0.031 A 
ATOM     85  C   UNL A   1      42.614  29.286  26.163  1.00  0.00     0.022 A 
ATOM     86  C   UNL A   1      43.734  29.425  26.977  1.00  0.00     0.041 A 
ATOM     87  Cl  UNL A   1      43.881  30.815  27.984  1.00  0.00    -0.084 Cl
BRANCH  79  88
ATOM     88  C   UNL A   1      46.639  25.729  26.637  1.00  0.00    -0.015 A 
ATOM     89  C   UNL A   1      46.678  25.385  27.995  1.00  0.00     0.009 A 
ATOM     90  C   UNL A   1      47.843  25.816  25.922  1.00  0.00     0.009 A 
ATOM     91  C   UNL A   1      47.903  25.180  28.636  1.00  0.00     0.001 A 
ATOM     92  C   UNL A   1      49.067  25.618  26.567  1.00  0.00     0.001 A 
ATOM     93  C   UNL A   1      49.095  25.309  27.926  1.00  0.00     0.000 A 
ENDBRANCH  79  88
ENDBRANCH  74  77
ENDBRANCH  72  73
ENDBRANCH  71  72
ENDBRANCH   1  71
TORSDOF 11
ENDMDL
