MODEL 1
REMARK VINA RESULT:      -9.9      0.000      0.000
REMARK SMILES CC[C@H]1CC[C@](CC(C)(C)O)(C(=O)NCCCNC(=O)c2ccc(-c3c4nc(c(-c5c(F)c(F)c(F)c(F)c5F)c5ccc([nH]5)c(-c5c(F)c(F)c(F)c(F)c5F)c5nc(c(-c6c(F)c(F)c(F)c(F)c6F)c6ccc3[nH]6)C=C5)C=C4)cc2)C1
REMARK SMILES IDX 15 1 14 2 12 3 13 4 6 6 3 7 4 8 84 9 5 10 2 11 1 12 7 13
REMARK SMILES IDX 8 14 9 15 10 16 11 17 16 19 17 20 18 21 19 22 20 24 21 25
REMARK SMILES IDX 22 26 83 27 23 28 82 29 24 30 25 31 26 32 76 33 27 34 81 35
REMARK SMILES IDX 75 36 77 37 28 38 80 39 74 40 73 41 29 43 61 44 41 45 60 46
REMARK SMILES IDX 42 47 45 48 59 49 78 50 43 51 44 52 58 54 79 55 46 56 30 57
REMARK SMILES IDX 31 58 39 59 32 60 33 61 37 62 40 63 34 64 35 65 38 66 36 67
REMARK SMILES IDX 62 68 63 69 71 70 64 71 65 72 69 73 72 74 66 75 67 76 70 77
REMARK SMILES IDX 68 78 47 79 48 80 56 81 49 82 50 83 54 84 57 85 51 86 52 87
REMARK SMILES IDX 55 88 53 89
REMARK H PARENT 14 5 11 18 18 23 77 42 45 53
REMARK Flexibility Score: inf
ROOT
ATOM      1  C   UNL A   1      42.454  22.548  25.690  1.00  0.00     0.117 C 
ENDROOT
BRANCH   1   2
ATOM      2  N   UNL A   1      43.868  22.213  25.706  1.00  0.00    -0.356 N 
ATOM      3  C   UNL A   1      44.955  22.878  26.179  1.00  0.00     0.226 C 
ATOM      4  O   UNL A   1      45.991  22.205  26.234  1.00  0.00    -0.274 OA
ATOM      5  H   UNL A   1      44.078  21.342  25.298  1.00  0.00     0.163 HD
BRANCH   3   6
ATOM      6  C   UNL A   1      44.909  24.339  26.683  1.00  0.00     0.052 C 
ATOM      7  C   UNL A   1      44.466  26.409  25.312  1.00  0.00    -0.010 C 
ATOM      8  C   UNL A   1      45.928  26.040  25.148  1.00  0.00     0.005 C 
ATOM      9  C   UNL A   1      43.830  25.175  25.949  1.00  0.00     0.020 C 
ATOM     10  C   UNL A   1      46.247  25.054  26.261  1.00  0.00     0.017 C 
BRANCH   7  11
ATOM     11  C   UNL A   1      44.169  27.734  26.026  1.00  0.00     0.000 C 
ATOM     12  C   UNL A   1      45.360  28.557  26.480  1.00  0.00     0.004 C 
ENDBRANCH   7  11
BRANCH   6  13
ATOM     13  C   UNL A   1      44.917  24.356  28.249  1.00  0.00     0.051 C 
BRANCH  13  14
ATOM     14  C   UNL A   1      43.919  23.570  29.130  1.00  0.00     0.060 C 
ATOM     15  C   UNL A   1      44.201  23.753  30.627  1.00  0.00     0.042 C 
ATOM     16  C   UNL A   1      42.490  24.076  28.859  1.00  0.00     0.042 C 
BRANCH  14  17
ATOM     17  O   UNL A   1      43.921  22.189  28.800  1.00  0.00    -0.390 OA
ATOM     18  H   UNL A   1      44.334  22.065  27.930  1.00  0.00     0.211 HD
ENDBRANCH  14  17
ENDBRANCH  13  14
ENDBRANCH   6  13
ENDBRANCH   3   6
ENDBRANCH   1   2
BRANCH   1  19
ATOM     19  C   UNL A   1      41.568  21.393  26.115  1.00  0.00     0.042 C 
BRANCH  19  20
ATOM     20  C   UNL A   1      40.375  21.838  26.945  1.00  0.00     0.118 C 
BRANCH  20  21
ATOM     21  N   UNL A   1      39.279  22.380  26.145  1.00  0.00    -0.352 N 
ATOM     22  C   UNL A   1      38.710  23.630  26.126  1.00  0.00     0.251 C 
ATOM     23  H   UNL A   1      38.880  21.740  25.511  1.00  0.00     0.163 HD
ATOM     24  O   UNL A   1      37.677  23.829  25.491  1.00  0.00    -0.269 OA
BRANCH  22  25
ATOM     25  C   UNL A   1      39.318  24.730  26.903  1.00  0.00     0.039 A 
ATOM     26  C   UNL A   1      40.163  25.642  26.265  1.00  0.00     0.014 A 
ATOM     27  C   UNL A   1      39.026  24.882  28.256  1.00  0.00     0.014 A 
ATOM     28  C   UNL A   1      40.620  26.763  26.963  1.00  0.00     0.010 A 
ATOM     29  C   UNL A   1      39.359  26.062  28.902  1.00  0.00     0.010 A 
ATOM     30  C   UNL A   1      40.171  27.015  28.269  1.00  0.00    -0.014 A 
BRANCH  30  31
ATOM     31  C   UNL A   1      40.545  28.240  29.022  1.00  0.00     0.031 A 
ATOM     32  C   UNL A   1      41.939  28.367  29.581  1.00  0.00     0.074 A 
ATOM     33  C   UNL A   1      39.618  29.177  29.299  1.00  0.00     0.049 A 
ATOM     34  N   UNL A   1      42.418  29.242  30.428  1.00  0.00    -0.248 NA
ATOM     35  C   UNL A   1      42.908  27.335  29.176  1.00  0.00     0.031 C 
ATOM     36  C   UNL A   1      38.217  29.144  28.874  1.00  0.00     0.029 A 
ATOM     37  N   UNL A   1      39.714  30.339  30.024  1.00  0.00    -0.354 N 
ATOM     38  C   UNL A   1      43.719  28.831  30.695  1.00  0.00     0.074 A 
ATOM     39  C   UNL A   1      43.934  27.600  29.968  1.00  0.00     0.031 C 
ATOM     40  C   UNL A   1      37.595  30.251  29.313  1.00  0.00     0.029 A 
ATOM     41  C   UNL A   1      38.540  31.049  30.087  1.00  0.00     0.049 A 
ATOM     42  H   UNL A   1      40.546  30.636  30.457  1.00  0.00     0.167 HD
ATOM     43  C   UNL A   1      44.661  29.442  31.450  1.00  0.00     0.037 A 
ATOM     44  C   UNL A   1      38.260  32.212  30.704  1.00  0.00     0.037 A 
ATOM     45  C   UNL A   1      44.470  30.708  32.102  1.00  0.00     0.049 A 
ATOM     46  C   UNL A   1      39.347  32.910  31.477  1.00  0.00     0.074 A 
ATOM     47  C   UNL A   1      45.378  31.449  32.837  1.00  0.00     0.029 A 
ATOM     48  N   UNL A   1      43.289  31.435  32.071  1.00  0.00    -0.354 N 
ATOM     49  N   UNL A   1      40.583  32.532  31.691  1.00  0.00    -0.248 NA
ATOM     50  C   UNL A   1      39.000  34.201  32.089  1.00  0.00     0.031 C 
ATOM     51  C   UNL A   1      44.742  32.620  33.262  1.00  0.00     0.029 A 
ATOM     52  C   UNL A   1      43.449  32.622  32.766  1.00  0.00     0.049 A 
ATOM     53  H   UNL A   1      42.461  31.150  31.622  1.00  0.00     0.167 HD
ATOM     54  C   UNL A   1      41.171  33.548  32.429  1.00  0.00     0.074 A 
ATOM     55  C   UNL A   1      40.158  34.566  32.619  1.00  0.00     0.031 C 
ATOM     56  C   UNL A   1      42.435  33.632  32.911  1.00  0.00     0.037 A 
BRANCH  43  57
ATOM     57  C   UNL A   1      45.991  28.761  31.583  1.00  0.00     0.064 A 
ATOM     58  C   UNL A   1      47.026  28.986  30.661  1.00  0.00     0.173 A 
ATOM     59  C   UNL A   1      46.243  27.887  32.651  1.00  0.00     0.173 A 
ATOM     60  F   UNL A   1      46.830  29.800  29.612  1.00  0.00    -0.203 F 
ATOM     61  C   UNL A   1      48.250  28.335  30.783  1.00  0.00     0.198 A 
ATOM     62  C   UNL A   1      47.481  27.262  32.788  1.00  0.00     0.198 A 
ATOM     63  F   UNL A   1      45.291  27.640  33.562  1.00  0.00    -0.203 F 
ATOM     64  F   UNL A   1      49.201  28.522  29.858  1.00  0.00    -0.200 F 
ATOM     65  C   UNL A   1      48.479  27.479  31.850  1.00  0.00     0.200 A 
ATOM     66  F   UNL A   1      47.705  26.443  33.825  1.00  0.00    -0.200 F 
ATOM     67  F   UNL A   1      49.659  26.856  31.969  1.00  0.00    -0.200 F 
ENDBRANCH  43  57
BRANCH  44  68
ATOM     68  C   UNL A   1      36.910  32.821  30.579  1.00  0.00     0.064 A 
ATOM     69  C   UNL A   1      36.569  33.567  29.442  1.00  0.00     0.173 A 
ATOM     70  C   UNL A   1      35.944  32.686  31.585  1.00  0.00     0.173 A 
ATOM     71  F   UNL A   1      37.468  33.739  28.461  1.00  0.00    -0.203 F 
ATOM     72  C   UNL A   1      35.322  34.178  29.328  1.00  0.00     0.198 A 
ATOM     73  C   UNL A   1      34.688  33.276  31.459  1.00  0.00     0.198 A 
ATOM     74  F   UNL A   1      36.218  31.976  32.689  1.00  0.00    -0.203 F 
ATOM     75  F   UNL A   1      35.041  34.926  28.252  1.00  0.00    -0.200 F 
ATOM     76  C   UNL A   1      34.381  34.030  30.335  1.00  0.00     0.200 A 
ATOM     77  F   UNL A   1      33.776  33.121  32.429  1.00  0.00    -0.200 F 
ATOM     78  F   UNL A   1      33.183  34.620  30.226  1.00  0.00    -0.200 F 
ENDBRANCH  44  68
BRANCH  56  79
ATOM     79  C   UNL A   1      42.810  34.888  33.637  1.00  0.00     0.064 A 
ATOM     80  C   UNL A   1      42.717  34.987  35.032  1.00  0.00     0.173 A 
ATOM     81  C   UNL A   1      43.314  35.988  32.927  1.00  0.00     0.173 A 
ATOM     82  F   UNL A   1      42.226  33.965  35.749  1.00  0.00    -0.203 F 
ATOM     83  C   UNL A   1      43.096  36.152  35.690  1.00  0.00     0.198 A 
ATOM     84  C   UNL A   1      43.716  37.143  33.591  1.00  0.00     0.198 A 
ATOM     85  F   UNL A   1      43.427  35.937  31.591  1.00  0.00    -0.203 F 
ATOM     86  F   UNL A   1      42.963  36.242  37.020  1.00  0.00    -0.200 F 
ATOM     87  C   UNL A   1      43.602  37.226  34.971  1.00  0.00     0.200 A 
ATOM     88  F   UNL A   1      44.214  38.175  32.896  1.00  0.00    -0.200 F 
ATOM     89  F   UNL A   1      43.974  38.344  35.608  1.00  0.00    -0.200 F 
ENDBRANCH  56  79
ENDBRANCH  30  31
ENDBRANCH  22  25
ENDBRANCH  20  21
ENDBRANCH  19  20
ENDBRANCH   1  19
TORSDOF 14
ENDMDL
MODEL 2
REMARK VINA RESULT:      -9.8      4.946      9.743
REMARK SMILES CC[C@H]1CC[C@](CC(C)(C)O)(C(=O)NCCCNC(=O)c2ccc(-c3c4nc(c(-c5c(F)c(F)c(F)c(F)c5F)c5ccc([nH]5)c(-c5c(F)c(F)c(F)c(F)c5F)c5nc(c(-c6c(F)c(F)c(F)c(F)c6F)c6ccc3[nH]6)C=C5)C=C4)cc2)C1
REMARK SMILES IDX 15 1 14 2 12 3 13 4 6 6 3 7 4 8 84 9 5 10 2 11 1 12 7 13
REMARK SMILES IDX 8 14 9 15 10 16 11 17 16 19 17 20 18 21 19 22 20 24 21 25
REMARK SMILES IDX 22 26 83 27 23 28 82 29 24 30 25 31 26 32 76 33 27 34 81 35
REMARK SMILES IDX 75 36 77 37 28 38 80 39 74 40 73 41 29 43 61 44 41 45 60 46
REMARK SMILES IDX 42 47 45 48 59 49 78 50 43 51 44 52 58 54 79 55 46 56 30 57
REMARK SMILES IDX 31 58 39 59 32 60 33 61 37 62 40 63 34 64 35 65 38 66 36 67
REMARK SMILES IDX 62 68 63 69 71 70 64 71 65 72 69 73 72 74 66 75 67 76 70 77
REMARK SMILES IDX 68 78 47 79 48 80 56 81 49 82 50 83 54 84 57 85 51 86 52 87
REMARK SMILES IDX 55 88 53 89
REMARK H PARENT 14 5 11 18 18 23 77 42 45 53
REMARK Flexibility Score: inf
ROOT
ATOM      1  C   UNL A   1      32.082  30.347  26.378  1.00  0.00     0.117 C 
ENDROOT
BRANCH   1   2
ATOM      2  N   UNL A   1      32.831  30.153  25.147  1.00  0.00    -0.356 N 
ATOM      3  C   UNL A   1      32.964  29.080  24.324  1.00  0.00     0.226 C 
ATOM      4  O   UNL A   1      33.501  29.326  23.237  1.00  0.00    -0.274 OA
ATOM      5  H   UNL A   1      33.336  30.946  24.856  1.00  0.00     0.163 HD
BRANCH   3   6
ATOM      6  C   UNL A   1      32.432  27.670  24.665  1.00  0.00     0.052 C 
ATOM      7  C   UNL A   1      33.740  25.741  25.630  1.00  0.00    -0.010 C 
ATOM      8  C   UNL A   1      33.985  25.774  24.133  1.00  0.00     0.005 C 
ATOM      9  C   UNL A   1      33.094  27.090  25.941  1.00  0.00     0.020 C 
ATOM     10  C   UNL A   1      32.908  26.672  23.544  1.00  0.00     0.017 C 
BRANCH   7  11
ATOM     11  C   UNL A   1      32.987  24.520  26.175  1.00  0.00     0.000 C 
ATOM     12  C   UNL A   1      31.486  24.652  26.343  1.00  0.00     0.004 C 
ENDBRANCH   7  11
BRANCH   6  13
ATOM     13  C   UNL A   1      30.868  27.662  24.578  1.00  0.00     0.051 C 
BRANCH  13  14
ATOM     14  C   UNL A   1      30.065  28.169  23.358  1.00  0.00     0.060 C 
ATOM     15  C   UNL A   1      28.695  27.485  23.244  1.00  0.00     0.042 C 
ATOM     16  C   UNL A   1      29.822  29.682  23.500  1.00  0.00     0.042 C 
BRANCH  14  17
ATOM     17  O   UNL A   1      30.798  27.995  22.154  1.00  0.00    -0.390 OA
ATOM     18  H   UNL A   1      30.737  27.069  21.870  1.00  0.00     0.211 HD
ENDBRANCH  14  17
ENDBRANCH  13  14
ENDBRANCH   6  13
ENDBRANCH   3   6
ENDBRANCH   1   2
BRANCH   1  19
ATOM     19  C   UNL A   1      31.736  31.800  26.635  1.00  0.00     0.042 C 
BRANCH  19  20
ATOM     20  C   UNL A   1      32.853  32.560  27.332  1.00  0.00     0.118 C 
BRANCH  20  21
ATOM     21  N   UNL A   1      32.523  33.956  27.609  1.00  0.00    -0.352 N 
ATOM     22  C   UNL A   1      33.022  34.831  28.544  1.00  0.00     0.251 C 
ATOM     23  H   UNL A   1      31.824  34.334  27.028  1.00  0.00     0.163 HD
ATOM     24  O   UNL A   1      32.481  35.920  28.720  1.00  0.00    -0.269 OA
BRANCH  22  25
ATOM     25  C   UNL A   1      34.188  34.448  29.366  1.00  0.00     0.039 A 
ATOM     26  C   UNL A   1      33.988  33.889  30.631  1.00  0.00     0.014 A 
ATOM     27  C   UNL A   1      35.480  34.607  28.873  1.00  0.00     0.014 A 
ATOM     28  C   UNL A   1      35.081  33.393  31.346  1.00  0.00     0.010 A 
ATOM     29  C   UNL A   1      36.541  33.988  29.515  1.00  0.00     0.010 A 
ATOM     30  C   UNL A   1      36.359  33.382  30.766  1.00  0.00    -0.014 A 
BRANCH  30  31
ATOM     31  C   UNL A   1      37.538  32.778  31.440  1.00  0.00     0.031 A 
ATOM     32  C   UNL A   1      38.291  31.666  30.756  1.00  0.00     0.074 A 
ATOM     33  C   UNL A   1      37.863  33.142  32.695  1.00  0.00     0.049 A 
ATOM     34  N   UNL A   1      39.211  30.868  31.234  1.00  0.00    -0.248 NA
ATOM     35  C   UNL A   1      37.915  31.375  29.362  1.00  0.00     0.031 C 
ATOM     36  C   UNL A   1      37.177  34.158  33.495  1.00  0.00     0.029 A 
ATOM     37  N   UNL A   1      38.853  32.682  33.529  1.00  0.00    -0.354 N 
ATOM     38  C   UNL A   1      39.479  29.955  30.222  1.00  0.00     0.074 A 
ATOM     39  C   UNL A   1      38.585  30.258  29.127  1.00  0.00     0.031 C 
ATOM     40  C   UNL A   1      37.787  34.271  34.686  1.00  0.00     0.029 A 
ATOM     41  C   UNL A   1      38.878  33.305  34.752  1.00  0.00     0.049 A 
ATOM     42  H   UNL A   1      39.485  31.972  33.273  1.00  0.00     0.167 HD
ATOM     43  C   UNL A   1      40.409  28.971  30.193  1.00  0.00     0.037 A 
ATOM     44  C   UNL A   1      39.691  33.114  35.808  1.00  0.00     0.037 A 
ATOM     45  C   UNL A   1      41.351  28.727  31.250  1.00  0.00     0.049 A 
ATOM     46  C   UNL A   1      40.766  32.064  35.722  1.00  0.00     0.074 A 
ATOM     47  C   UNL A   1      42.378  27.802  31.296  1.00  0.00     0.029 A 
ATOM     48  N   UNL A   1      41.396  29.438  32.439  1.00  0.00    -0.354 N 
ATOM     49  N   UNL A   1      41.034  31.232  34.746  1.00  0.00    -0.248 NA
ATOM     50  C   UNL A   1      41.657  31.931  36.884  1.00  0.00     0.031 C 
ATOM     51  C   UNL A   1      43.037  27.944  32.521  1.00  0.00     0.029 A 
ATOM     52  C   UNL A   1      42.440  28.979  33.223  1.00  0.00     0.049 A 
ATOM     53  H   UNL A   1      40.778  30.162  32.689  1.00  0.00     0.167 HD
ATOM     54  C   UNL A   1      42.140  30.504  35.158  1.00  0.00     0.074 A 
ATOM     55  C   UNL A   1      42.501  30.997  36.471  1.00  0.00     0.031 C 
ATOM     56  C   UNL A   1      42.798  29.511  34.511  1.00  0.00     0.037 A 
BRANCH  43  57
ATOM     57  C   UNL A   1      40.469  28.111  28.965  1.00  0.00     0.064 A 
ATOM     58  C   UNL A   1      39.746  26.911  28.874  1.00  0.00     0.173 A 
ATOM     59  C   UNL A   1      41.243  28.495  27.861  1.00  0.00     0.173 A 
ATOM     60  F   UNL A   1      39.003  26.491  29.910  1.00  0.00    -0.203 F 
ATOM     61  C   UNL A   1      39.823  26.112  27.738  1.00  0.00     0.198 A 
ATOM     62  C   UNL A   1      41.293  27.708  26.712  1.00  0.00     0.198 A 
ATOM     63  F   UNL A   1      41.951  29.634  27.893  1.00  0.00    -0.203 F 
ATOM     64  F   UNL A   1      39.168  24.943  27.697  1.00  0.00    -0.200 F 
ATOM     65  C   UNL A   1      40.589  26.514  26.655  1.00  0.00     0.200 A 
ATOM     66  F   UNL A   1      42.026  28.103  25.662  1.00  0.00    -0.200 F 
ATOM     67  F   UNL A   1      40.660  25.745  25.560  1.00  0.00    -0.200 F 
ENDBRANCH  43  57
BRANCH  44  68
ATOM     68  C   UNL A   1      39.558  33.964  37.020  1.00  0.00     0.064 A 
ATOM     69  C   UNL A   1      38.811  33.521  38.121  1.00  0.00     0.173 A 
ATOM     70  C   UNL A   1      40.152  35.230  37.101  1.00  0.00     0.173 A 
ATOM     71  F   UNL A   1      38.208  32.323  38.082  1.00  0.00    -0.203 F 
ATOM     72  C   UNL A   1      38.642  34.323  39.248  1.00  0.00     0.198 A 
ATOM     73  C   UNL A   1      40.004  36.022  38.238  1.00  0.00     0.198 A 
ATOM     74  F   UNL A   1      40.882  35.697  36.078  1.00  0.00    -0.203 F 
ATOM     75  F   UNL A   1      37.884  33.894  40.265  1.00  0.00    -0.200 F 
ATOM     76  C   UNL A   1      39.242  35.572  39.307  1.00  0.00     0.200 A 
ATOM     77  F   UNL A   1      40.594  37.223  38.298  1.00  0.00    -0.200 F 
ATOM     78  F   UNL A   1      39.076  36.345  40.389  1.00  0.00    -0.200 F 
ENDBRANCH  44  68
BRANCH  56  79
ATOM     79  C   UNL A   1      44.006  28.936  35.185  1.00  0.00     0.064 A 
ATOM     80  C   UNL A   1      45.289  29.453  34.961  1.00  0.00     0.173 A 
ATOM     81  C   UNL A   1      43.867  27.885  36.104  1.00  0.00     0.173 A 
ATOM     82  F   UNL A   1      45.471  30.447  34.080  1.00  0.00    -0.203 F 
ATOM     83  C   UNL A   1      46.395  28.923  35.618  1.00  0.00     0.198 A 
ATOM     84  C   UNL A   1      44.971  27.374  36.778  1.00  0.00     0.198 A 
ATOM     85  F   UNL A   1      42.657  27.362  36.355  1.00  0.00    -0.203 F 
ATOM     86  F   UNL A   1      47.619  29.404  35.361  1.00  0.00    -0.200 F 
ATOM     87  C   UNL A   1      46.235  27.890  36.531  1.00  0.00     0.200 A 
ATOM     88  F   UNL A   1      44.813  26.384  37.667  1.00  0.00    -0.200 F 
ATOM     89  F   UNL A   1      47.301  27.387  37.168  1.00  0.00    -0.200 F 
ENDBRANCH  56  79
ENDBRANCH  30  31
ENDBRANCH  22  25
ENDBRANCH  20  21
ENDBRANCH  19  20
ENDBRANCH   1  19
TORSDOF 14
ENDMDL
MODEL 3
REMARK VINA RESULT:      -9.8      4.829     10.340
REMARK SMILES CC[C@H]1CC[C@](CC(C)(C)O)(C(=O)NCCCNC(=O)c2ccc(-c3c4nc(c(-c5c(F)c(F)c(F)c(F)c5F)c5ccc([nH]5)c(-c5c(F)c(F)c(F)c(F)c5F)c5nc(c(-c6c(F)c(F)c(F)c(F)c6F)c6ccc3[nH]6)C=C5)C=C4)cc2)C1
REMARK SMILES IDX 15 1 14 2 12 3 13 4 6 6 3 7 4 8 84 9 5 10 2 11 1 12 7 13
REMARK SMILES IDX 8 14 9 15 10 16 11 17 16 19 17 20 18 21 19 22 20 24 21 25
REMARK SMILES IDX 22 26 83 27 23 28 82 29 24 30 25 31 26 32 76 33 27 34 81 35
REMARK SMILES IDX 75 36 77 37 28 38 80 39 74 40 73 41 29 43 61 44 41 45 60 46
REMARK SMILES IDX 42 47 45 48 59 49 78 50 43 51 44 52 58 54 79 55 46 56 30 57
REMARK SMILES IDX 31 58 39 59 32 60 33 61 37 62 40 63 34 64 35 65 38 66 36 67
REMARK SMILES IDX 62 68 63 69 71 70 64 71 65 72 69 73 72 74 66 75 67 76 70 77
REMARK SMILES IDX 68 78 47 79 48 80 56 81 49 82 50 83 54 84 57 85 51 86 52 87
REMARK SMILES IDX 55 88 53 89
REMARK H PARENT 14 5 11 18 18 23 77 42 45 53
REMARK Flexibility Score: inf
ROOT
ATOM      1  C   UNL A   1      31.436  30.887  26.406  1.00  0.00     0.117 C 
ENDROOT
BRANCH   1   2
ATOM      2  N   UNL A   1      32.731  30.306  26.722  1.00  0.00    -0.356 N 
ATOM      3  C   UNL A   1      33.381  29.216  26.238  1.00  0.00     0.226 C 
ATOM      4  O   UNL A   1      34.569  29.133  26.568  1.00  0.00    -0.274 OA
ATOM      5  H   UNL A   1      33.229  30.793  27.418  1.00  0.00     0.163 HD
BRANCH   3   6
ATOM      6  C   UNL A   1      32.729  28.185  25.288  1.00  0.00     0.052 C 
ATOM      7  C   UNL A   1      31.487  26.088  25.938  1.00  0.00    -0.010 C 
ATOM      8  C   UNL A   1      32.973  25.785  25.972  1.00  0.00     0.005 C 
ATOM      9  C   UNL A   1      31.411  27.612  25.867  1.00  0.00     0.020 C 
ATOM     10  C   UNL A   1      33.657  26.915  25.218  1.00  0.00     0.017 C 
BRANCH   7  11
ATOM     11  C   UNL A   1      30.660  25.346  24.880  1.00  0.00     0.000 C 
ATOM     12  C   UNL A   1      31.147  23.973  24.459  1.00  0.00     0.004 C 
ENDBRANCH   7  11
BRANCH   6  13
ATOM     13  C   UNL A   1      32.708  28.754  23.829  1.00  0.00     0.051 C 
BRANCH  13  14
ATOM     14  C   UNL A   1      31.494  28.656  22.877  1.00  0.00     0.060 C 
ATOM     15  C   UNL A   1      31.347  27.255  22.269  1.00  0.00     0.042 C 
ATOM     16  C   UNL A   1      30.205  28.962  23.661  1.00  0.00     0.042 C 
BRANCH  14  17
ATOM     17  O   UNL A   1      31.572  29.629  21.845  1.00  0.00    -0.390 OA
ATOM     18  H   UNL A   1      32.336  29.439  21.279  1.00  0.00     0.211 HD
ENDBRANCH  14  17
ENDBRANCH  13  14
ENDBRANCH   6  13
ENDBRANCH   3   6
ENDBRANCH   1   2
BRANCH   1  19
ATOM     19  C   UNL A   1      31.418  32.397  26.542  1.00  0.00     0.042 C 
BRANCH  19  20
ATOM     20  C   UNL A   1      32.605  32.935  27.325  1.00  0.00     0.118 C 
BRANCH  20  21
ATOM     21  N   UNL A   1      32.464  34.339  27.704  1.00  0.00    -0.352 N 
ATOM     22  C   UNL A   1      33.086  35.073  28.685  1.00  0.00     0.251 C 
ATOM     23  H   UNL A   1      31.815  34.845  27.165  1.00  0.00     0.163 HD
ATOM     24  O   UNL A   1      32.694  36.208  28.947  1.00  0.00    -0.269 OA
BRANCH  22  25
ATOM     25  C   UNL A   1      34.200  34.484  29.455  1.00  0.00     0.039 A 
ATOM     26  C   UNL A   1      33.927  33.733  30.602  1.00  0.00     0.014 A 
ATOM     27  C   UNL A   1      35.515  34.642  29.024  1.00  0.00     0.014 A 
ATOM     28  C   UNL A   1      34.967  33.056  31.245  1.00  0.00     0.010 A 
ATOM     29  C   UNL A   1      36.517  33.858  29.574  1.00  0.00     0.010 A 
ATOM     30  C   UNL A   1      36.260  33.062  30.699  1.00  0.00    -0.014 A 
BRANCH  30  31
ATOM     31  C   UNL A   1      37.380  32.280  31.285  1.00  0.00     0.031 A 
ATOM     32  C   UNL A   1      37.875  32.621  32.667  1.00  0.00     0.074 A 
ATOM     33  C   UNL A   1      38.019  31.353  30.547  1.00  0.00     0.049 A 
ATOM     34  N   UNL A   1      38.953  32.212  33.288  1.00  0.00    -0.248 NA
ATOM     35  C   UNL A   1      37.081  33.598  33.430  1.00  0.00     0.031 C 
ATOM     36  C   UNL A   1      37.682  30.972  29.174  1.00  0.00     0.029 A 
ATOM     37  N   UNL A   1      39.104  30.566  30.848  1.00  0.00    -0.354 N 
ATOM     38  C   UNL A   1      38.989  32.922  34.481  1.00  0.00     0.074 A 
ATOM     39  C   UNL A   1      37.862  33.828  34.473  1.00  0.00     0.031 C 
ATOM     40  C   UNL A   1      38.517  30.003  28.765  1.00  0.00     0.029 A 
ATOM     41  C   UNL A   1      39.475  29.724  29.829  1.00  0.00     0.049 A 
ATOM     42  H   UNL A   1      39.572  30.603  31.713  1.00  0.00     0.167 HD
ATOM     43  C   UNL A   1      39.864  32.808  35.508  1.00  0.00     0.037 A 
ATOM     44  C   UNL A   1      40.480  28.830  29.763  1.00  0.00     0.037 A 
ATOM     45  C   UNL A   1      40.933  31.848  35.548  1.00  0.00     0.049 A 
ATOM     46  C   UNL A   1      41.393  28.668  30.948  1.00  0.00     0.074 A 
ATOM     47  C   UNL A   1      41.836  31.601  36.566  1.00  0.00     0.029 A 
ATOM     48  N   UNL A   1      41.223  30.955  34.527  1.00  0.00    -0.354 N 
ATOM     49  N   UNL A   1      41.395  29.318  32.086  1.00  0.00    -0.248 NA
ATOM     50  C   UNL A   1      42.442  27.643  30.841  1.00  0.00     0.031 C 
ATOM     51  C   UNL A   1      42.682  30.566  36.155  1.00  0.00     0.029 A 
ATOM     52  C   UNL A   1      42.285  30.148  34.896  1.00  0.00     0.049 A 
ATOM     53  H   UNL A   1      40.744  30.903  33.669  1.00  0.00     0.167 HD
ATOM     54  C   UNL A   1      42.416  28.761  32.842  1.00  0.00     0.074 A 
ATOM     55  C   UNL A   1      43.008  27.712  32.037  1.00  0.00     0.031 C 
ATOM     56  C   UNL A   1      42.832  29.089  34.089  1.00  0.00     0.037 A 
BRANCH  43  57
ATOM     57  C   UNL A   1      39.678  33.723  36.682  1.00  0.00     0.064 A 
ATOM     58  C   UNL A   1      40.295  34.982  36.736  1.00  0.00     0.173 A 
ATOM     59  C   UNL A   1      38.861  33.347  37.759  1.00  0.00     0.173 A 
ATOM     60  F   UNL A   1      41.100  35.383  35.739  1.00  0.00    -0.203 F 
ATOM     61  C   UNL A   1      40.130  35.816  37.838  1.00  0.00     0.198 A 
ATOM     62  C   UNL A   1      38.672  34.197  38.846  1.00  0.00     0.198 A 
ATOM     63  F   UNL A   1      38.244  32.156  37.756  1.00  0.00    -0.203 F 
ATOM     64  F   UNL A   1      40.776  36.989  37.892  1.00  0.00    -0.200 F 
ATOM     65  C   UNL A   1      39.313  35.427  38.889  1.00  0.00     0.200 A 
ATOM     66  F   UNL A   1      37.874  33.824  39.856  1.00  0.00    -0.200 F 
ATOM     67  F   UNL A   1      39.152  36.231  39.947  1.00  0.00    -0.200 F 
ENDBRANCH  43  57
BRANCH  44  68
ATOM     68  C   UNL A   1      40.648  27.980  28.556  1.00  0.00     0.064 A 
ATOM     69  C   UNL A   1      41.426  28.424  27.477  1.00  0.00     0.173 A 
ATOM     70  C   UNL A   1      40.031  26.727  28.444  1.00  0.00     0.173 A 
ATOM     71  F   UNL A   1      42.020  29.626  27.530  1.00  0.00    -0.203 F 
ATOM     72  C   UNL A   1      41.560  27.657  26.321  1.00  0.00     0.198 A 
ATOM     73  C   UNL A   1      40.186  25.950  27.298  1.00  0.00     0.198 A 
ATOM     74  F   UNL A   1      39.283  26.254  29.450  1.00  0.00    -0.203 F 
ATOM     75  F   UNL A   1      42.269  28.127  25.287  1.00  0.00    -0.200 F 
ATOM     76  C   UNL A   1      40.942  26.419  26.233  1.00  0.00     0.200 A 
ATOM     77  F   UNL A   1      39.598  24.748  27.221  1.00  0.00    -0.200 F 
ATOM     78  F   UNL A   1      41.068  25.684  25.120  1.00  0.00    -0.200 F 
ENDBRANCH  44  68
BRANCH  56  79
ATOM     79  C   UNL A   1      43.937  28.270  34.682  1.00  0.00     0.064 A 
ATOM     80  C   UNL A   1      43.678  27.094  35.398  1.00  0.00     0.173 A 
ATOM     81  C   UNL A   1      45.275  28.645  34.486  1.00  0.00     0.173 A 
ATOM     82  F   UNL A   1      42.414  26.706  35.622  1.00  0.00    -0.203 F 
ATOM     83  C   UNL A   1      44.720  26.332  35.917  1.00  0.00     0.198 A 
ATOM     84  C   UNL A   1      46.315  27.868  34.984  1.00  0.00     0.198 A 
ATOM     85  F   UNL A   1      45.571  29.760  33.801  1.00  0.00    -0.203 F 
ATOM     86  F   UNL A   1      44.452  25.232  36.632  1.00  0.00    -0.200 F 
ATOM     87  C   UNL A   1      46.037  26.715  35.703  1.00  0.00     0.200 A 
ATOM     88  F   UNL A   1      47.586  28.233  34.768  1.00  0.00    -0.200 F 
ATOM     89  F   UNL A   1      47.039  25.975  36.197  1.00  0.00    -0.200 F 
ENDBRANCH  56  79
ENDBRANCH  30  31
ENDBRANCH  22  25
ENDBRANCH  20  21
ENDBRANCH  19  20
ENDBRANCH   1  19
TORSDOF 14
ENDMDL
