MODEL 1
REMARK VINA RESULT:     -12.1      0.000      0.000
REMARK SMILES CC1=CC2=[NH+]C(=O)[C@](C)(CC(=O)NCCCNC(=O)c3ccc(-c4c5nc(c(-c6c(F)c(F)c(F)c(F)c6F)c6ccc([nH]6)c(-c6c(F)c(F)c(F)c(F)c6F)c6nc(c(-c7c(F)c(F)c(F)c(F)c7F)c7ccc4[nH]7)C=C6)C=C5)cc3)N2C=C1
REMARK SMILES IDX 15 1 14 2 13 3 11 4 12 5 10 7 8 8 1 9 2 10 3 11 85 12 4 13
REMARK SMILES IDX 84 14 5 15 83 16 6 17 7 19 9 20 16 21 17 22 18 23 19 25
REMARK SMILES IDX 20 26 21 27 82 28 22 29 81 30 23 31 24 32 25 33 75 34 26 35
REMARK SMILES IDX 80 36 74 37 76 38 27 39 79 40 73 41 72 42 28 44 60 45 40 46
REMARK SMILES IDX 59 47 41 48 44 49 58 50 77 51 42 52 43 53 57 55 78 56 45 57
REMARK SMILES IDX 29 58 30 59 38 60 31 61 32 62 36 63 39 64 33 65 34 66 37 67
REMARK SMILES IDX 35 68 61 69 62 70 70 71 63 72 64 73 68 74 71 75 65 76 66 77
REMARK SMILES IDX 69 78 67 79 46 80 47 81 55 82 48 83 49 84 53 85 56 86 50 87
REMARK SMILES IDX 51 88 54 89 52 90
REMARK H PARENT 13 6 5 18 17 24 76 43 44 54
REMARK Flexibility Score: inf
ROOT
ATOM      1  C   UNL A   1      31.310  32.578  26.498  1.00  0.00     0.042 C 
ENDROOT
BRANCH   1   2
ATOM      2  C   UNL A   1      31.338  31.106  26.095  1.00  0.00     0.117 C 
BRANCH   2   3
ATOM      3  N   UNL A   1      32.326  30.372  26.870  1.00  0.00    -0.356 N 
ATOM      4  C   UNL A   1      33.199  29.399  26.492  1.00  0.00     0.225 C 
ATOM      5  O   UNL A   1      33.890  28.879  27.368  1.00  0.00    -0.275 OA
ATOM      6  H   UNL A   1      32.370  30.620  27.822  1.00  0.00     0.163 HD
BRANCH   4   7
ATOM      7  C   UNL A   1      33.325  28.991  25.043  1.00  0.00     0.166 C 
BRANCH   7   8
ATOM      8  C   UNL A   1      32.538  27.741  24.657  1.00  0.00     0.217 C 
ATOM      9  C   UNL A   1      35.376  22.885  23.620  1.00  0.00     0.045 C 
ATOM     10  C   UNL A   1      34.635  24.162  23.865  1.00  0.00    -0.039 C 
ATOM     11  C   UNL A   1      33.863  24.736  22.919  1.00  0.00     0.102 C 
ATOM     12  C   UNL A   1      34.786  24.767  25.192  1.00  0.00     0.047 C 
ATOM     13  C   UNL A   1      33.223  26.023  23.282  1.00  0.00     0.283 C 
ATOM     14  C   UNL A   1      34.135  25.903  25.495  1.00  0.00     0.202 C 
ATOM     15  N   UNL A   1      32.520  26.741  22.452  1.00  0.00    -0.206 N 
ATOM     16  N   UNL A   1      33.353  26.537  24.558  1.00  0.00    -0.217 N 
ATOM     17  C   UNL A   1      32.119  27.863  23.164  1.00  0.00     0.356 C 
ATOM     18  H   UNL A   1      32.317  26.531  21.512  1.00  0.00     0.315 HD
ATOM     19  O   UNL A   1      31.498  28.810  22.700  1.00  0.00    -0.242 OA
ATOM     20  C   UNL A   1      31.259  27.445  25.432  1.00  0.00     0.076 C 
ENDBRANCH   7   8
ENDBRANCH   4   7
ENDBRANCH   2   3
ENDBRANCH   1   2
BRANCH   1  21
ATOM     21  C   UNL A   1      32.546  33.026  27.265  1.00  0.00     0.118 C 
BRANCH  21  22
ATOM     22  N   UNL A   1      32.423  34.393  27.742  1.00  0.00    -0.352 N 
ATOM     23  C   UNL A   1      33.046  35.026  28.789  1.00  0.00     0.251 C 
ATOM     24  H   UNL A   1      31.793  34.955  27.234  1.00  0.00     0.163 HD
ATOM     25  O   UNL A   1      32.624  36.113  29.172  1.00  0.00    -0.269 OA
BRANCH  23  26
ATOM     26  C   UNL A   1      34.210  34.412  29.471  1.00  0.00     0.039 A 
ATOM     27  C   UNL A   1      34.002  33.745  30.682  1.00  0.00     0.014 A 
ATOM     28  C   UNL A   1      35.507  34.537  28.966  1.00  0.00     0.014 A 
ATOM     29  C   UNL A   1      35.080  33.163  31.356  1.00  0.00     0.010 A 
ATOM     30  C   UNL A   1      36.567  33.883  29.591  1.00  0.00     0.010 A 
ATOM     31  C   UNL A   1      36.369  33.202  30.801  1.00  0.00    -0.014 A 
BRANCH  31  32
ATOM     32  C   UNL A   1      37.521  32.557  31.485  1.00  0.00     0.031 A 
ATOM     33  C   UNL A   1      38.242  31.407  30.833  1.00  0.00     0.074 A 
ATOM     34  C   UNL A   1      37.890  32.974  32.712  1.00  0.00     0.049 A 
ATOM     35  N   UNL A   1      39.229  30.678  31.294  1.00  0.00    -0.248 NA
ATOM     36  C   UNL A   1      37.777  31.006  29.496  1.00  0.00     0.031 C 
ATOM     37  C   UNL A   1      37.249  34.050  33.467  1.00  0.00     0.029 A 
ATOM     38  N   UNL A   1      38.891  32.536  33.543  1.00  0.00    -0.354 N 
ATOM     39  C   UNL A   1      39.491  29.732  30.312  1.00  0.00     0.074 A 
ATOM     40  C   UNL A   1      38.523  29.937  29.257  1.00  0.00     0.031 C 
ATOM     41  C   UNL A   1      37.887  34.209  34.637  1.00  0.00     0.029 A 
ATOM     42  C   UNL A   1      38.956  33.218  34.733  1.00  0.00     0.049 A 
ATOM     43  H   UNL A   1      39.505  31.803  33.308  1.00  0.00     0.167 HD
ATOM     44  C   UNL A   1      40.469  28.794  30.278  1.00  0.00     0.037 A 
ATOM     45  C   UNL A   1      39.780  33.060  35.787  1.00  0.00     0.037 A 
ATOM     46  C   UNL A   1      41.445  28.604  31.319  1.00  0.00     0.049 A 
ATOM     47  C   UNL A   1      40.843  31.996  35.733  1.00  0.00     0.074 A 
ATOM     48  C   UNL A   1      42.501  27.711  31.359  1.00  0.00     0.029 A 
ATOM     49  N   UNL A   1      41.482  29.321  32.506  1.00  0.00    -0.354 N 
ATOM     50  N   UNL A   1      41.119  31.147  34.773  1.00  0.00    -0.248 NA
ATOM     51  C   UNL A   1      41.715  31.873  36.910  1.00  0.00     0.031 C 
ATOM     52  C   UNL A   1      43.149  27.854  32.591  1.00  0.00     0.029 A 
ATOM     53  C   UNL A   1      42.532  28.876  33.295  1.00  0.00     0.049 A 
ATOM     54  H   UNL A   1      40.856  30.040  32.752  1.00  0.00     0.167 HD
ATOM     55  C   UNL A   1      42.214  30.415  35.213  1.00  0.00     0.074 A 
ATOM     56  C   UNL A   1      42.562  30.930  36.521  1.00  0.00     0.031 C 
ATOM     57  C   UNL A   1      42.872  29.407  34.589  1.00  0.00     0.037 A 
BRANCH  44  58
ATOM     58  C   UNL A   1      40.534  27.901  29.071  1.00  0.00     0.064 A 
ATOM     59  C   UNL A   1      39.755  26.737  28.974  1.00  0.00     0.173 A 
ATOM     60  C   UNL A   1      41.354  28.231  27.981  1.00  0.00     0.173 A 
ATOM     61  F   UNL A   1      38.961  26.369  29.991  1.00  0.00    -0.203 F 
ATOM     62  C   UNL A   1      39.821  25.920  27.847  1.00  0.00     0.198 A 
ATOM     63  C   UNL A   1      41.392  27.429  26.842  1.00  0.00     0.198 A 
ATOM     64  F   UNL A   1      42.114  29.336  28.016  1.00  0.00    -0.203 F 
ATOM     65  F   UNL A   1      39.108  24.786  27.803  1.00  0.00    -0.200 F 
ATOM     66  C   UNL A   1      40.633  26.271  26.780  1.00  0.00     0.200 A 
ATOM     67  F   UNL A   1      42.165  27.777  25.805  1.00  0.00    -0.200 F 
ATOM     68  F   UNL A   1      40.688  25.488  25.693  1.00  0.00    -0.200 F 
ENDBRANCH  44  58
BRANCH  45  69
ATOM     69  C   UNL A   1      39.650  33.943  36.976  1.00  0.00     0.064 A 
ATOM     70  C   UNL A   1      38.893  33.547  38.088  1.00  0.00     0.173 A 
ATOM     71  C   UNL A   1      40.264  35.203  37.022  1.00  0.00     0.173 A 
ATOM     72  F   UNL A   1      38.269  32.360  38.084  1.00  0.00    -0.203 F 
ATOM     73  C   UNL A   1      38.732  34.388  39.187  1.00  0.00     0.198 A 
ATOM     74  C   UNL A   1      40.128  36.031  38.135  1.00  0.00     0.198 A 
ATOM     75  F   UNL A   1      41.003  35.629  35.987  1.00  0.00    -0.203 F 
ATOM     76  F   UNL A   1      37.958  34.005  40.213  1.00  0.00    -0.200 F 
ATOM     77  C   UNL A   1      39.354  35.627  39.212  1.00  0.00     0.200 A 
ATOM     78  F   UNL A   1      40.743  37.220  38.162  1.00  0.00    -0.200 F 
ATOM     79  F   UNL A   1      39.200  36.435  40.270  1.00  0.00    -0.200 F 
ENDBRANCH  45  69
BRANCH  57  80
ATOM     80  C   UNL A   1      44.064  28.824  35.294  1.00  0.00     0.064 A 
ATOM     81  C   UNL A   1      45.360  29.320  35.092  1.00  0.00     0.173 A 
ATOM     82  C   UNL A   1      43.899  27.774  36.211  1.00  0.00     0.173 A 
ATOM     83  F   UNL A   1      45.573  30.313  34.215  1.00  0.00    -0.203 F 
ATOM     84  C   UNL A   1      46.450  28.768  35.758  1.00  0.00     0.198 A 
ATOM     85  C   UNL A   1      44.987  27.247  36.901  1.00  0.00     0.198 A 
ATOM     86  F   UNL A   1      42.680  27.268  36.448  1.00  0.00    -0.203 F 
ATOM     87  F   UNL A   1      47.687  29.222  35.508  1.00  0.00    -0.200 F 
ATOM     88  C   UNL A   1      46.263  27.738  36.668  1.00  0.00     0.200 A 
ATOM     89  F   UNL A   1      44.801  26.262  37.791  1.00  0.00    -0.200 F 
ATOM     90  F   UNL A   1      47.313  27.212  37.313  1.00  0.00    -0.200 F 
ENDBRANCH  57  80
ENDBRANCH  31  32
ENDBRANCH  23  26
ENDBRANCH  21  22
ENDBRANCH   1  21
TORSDOF 11
ENDMDL
MODEL 2
REMARK VINA RESULT:     -12.1      0.293      1.188
REMARK SMILES CC1=CC2=[NH+]C(=O)[C@](C)(CC(=O)NCCCNC(=O)c3ccc(-c4c5nc(c(-c6c(F)c(F)c(F)c(F)c6F)c6ccc([nH]6)c(-c6c(F)c(F)c(F)c(F)c6F)c6nc(c(-c7c(F)c(F)c(F)c(F)c7F)c7ccc4[nH]7)C=C6)C=C5)cc3)N2C=C1
REMARK SMILES IDX 15 1 14 2 13 3 11 4 12 5 10 7 8 8 1 9 2 10 3 11 85 12 4 13
REMARK SMILES IDX 84 14 5 15 83 16 6 17 7 19 9 20 16 21 17 22 18 23 19 25
REMARK SMILES IDX 20 26 21 27 82 28 22 29 81 30 23 31 24 32 25 33 75 34 26 35
REMARK SMILES IDX 80 36 74 37 76 38 27 39 79 40 73 41 72 42 28 44 60 45 40 46
REMARK SMILES IDX 59 47 41 48 44 49 58 50 77 51 42 52 43 53 57 55 78 56 45 57
REMARK SMILES IDX 29 58 30 59 38 60 31 61 32 62 36 63 39 64 33 65 34 66 37 67
REMARK SMILES IDX 35 68 61 69 62 70 70 71 63 72 64 73 68 74 71 75 65 76 66 77
REMARK SMILES IDX 69 78 67 79 46 80 47 81 55 82 48 83 49 84 53 85 56 86 50 87
REMARK SMILES IDX 51 88 54 89 52 90
REMARK H PARENT 13 6 5 18 17 24 76 43 44 54
REMARK Flexibility Score: inf
ROOT
ATOM      1  C   UNL A   1      31.241  32.440  26.519  1.00  0.00     0.042 C 
ENDROOT
BRANCH   1   2
ATOM      2  C   UNL A   1      31.323  30.993  26.037  1.00  0.00     0.117 C 
BRANCH   2   3
ATOM      3  N   UNL A   1      32.246  30.223  26.855  1.00  0.00    -0.356 N 
ATOM      4  C   UNL A   1      33.117  29.236  26.511  1.00  0.00     0.225 C 
ATOM      5  O   UNL A   1      33.744  28.685  27.417  1.00  0.00    -0.275 OA
ATOM      6  H   UNL A   1      32.239  30.453  27.812  1.00  0.00     0.163 HD
BRANCH   4   7
ATOM      7  C   UNL A   1      33.321  28.851  25.065  1.00  0.00     0.166 C 
BRANCH   7   8
ATOM      8  C   UNL A   1      32.568  27.599  24.622  1.00  0.00     0.217 C 
ATOM      9  C   UNL A   1      35.511  22.793  23.645  1.00  0.00     0.045 C 
ATOM     10  C   UNL A   1      34.743  24.057  23.875  1.00  0.00    -0.039 C 
ATOM     11  C   UNL A   1      34.010  24.638  22.902  1.00  0.00     0.102 C 
ATOM     12  C   UNL A   1      34.825  24.642  25.216  1.00  0.00     0.047 C 
ATOM     13  C   UNL A   1      33.338  25.911  23.254  1.00  0.00     0.283 C 
ATOM     14  C   UNL A   1      34.146  25.765  25.506  1.00  0.00     0.202 C 
ATOM     15  N   UNL A   1      32.666  26.635  22.403  1.00  0.00    -0.206 N 
ATOM     16  N   UNL A   1      33.401  26.405  24.543  1.00  0.00    -0.217 N 
ATOM     17  C   UNL A   1      32.219  27.740  23.113  1.00  0.00     0.356 C 
ATOM     18  H   UNL A   1      32.510  26.438  21.451  1.00  0.00     0.315 HD
ATOM     19  O   UNL A   1      31.609  28.687  22.635  1.00  0.00    -0.242 OA
ATOM     20  C   UNL A   1      31.257  27.275  25.330  1.00  0.00     0.076 C 
ENDBRANCH   7   8
ENDBRANCH   4   7
ENDBRANCH   2   3
ENDBRANCH   1   2
BRANCH   1  21
ATOM     21  C   UNL A   1      32.527  32.946  27.156  1.00  0.00     0.118 C 
BRANCH  21  22
ATOM     22  N   UNL A   1      32.395  34.311  27.637  1.00  0.00    -0.352 N 
ATOM     23  C   UNL A   1      33.026  34.949  28.676  1.00  0.00     0.251 C 
ATOM     24  H   UNL A   1      31.750  34.865  27.140  1.00  0.00     0.163 HD
ATOM     25  O   UNL A   1      32.596  36.030  29.067  1.00  0.00    -0.269 OA
BRANCH  23  26
ATOM     26  C   UNL A   1      34.208  34.350  29.338  1.00  0.00     0.039 A 
ATOM     27  C   UNL A   1      34.014  33.595  30.499  1.00  0.00     0.014 A 
ATOM     28  C   UNL A   1      35.504  34.569  28.867  1.00  0.00     0.014 A 
ATOM     29  C   UNL A   1      35.109  33.023  31.154  1.00  0.00     0.010 A 
ATOM     30  C   UNL A   1      36.586  33.928  29.468  1.00  0.00     0.010 A 
ATOM     31  C   UNL A   1      36.403  33.160  30.628  1.00  0.00    -0.014 A 
BRANCH  31  32
ATOM     32  C   UNL A   1      37.575  32.528  31.290  1.00  0.00     0.031 A 
ATOM     33  C   UNL A   1      38.313  31.404  30.613  1.00  0.00     0.074 A 
ATOM     34  C   UNL A   1      37.948  32.934  32.520  1.00  0.00     0.049 A 
ATOM     35  N   UNL A   1      39.319  30.689  31.052  1.00  0.00    -0.248 NA
ATOM     36  C   UNL A   1      37.843  31.015  29.274  1.00  0.00     0.031 C 
ATOM     37  C   UNL A   1      37.292  33.985  33.298  1.00  0.00     0.029 A 
ATOM     38  N   UNL A   1      38.966  32.504  33.334  1.00  0.00    -0.354 N 
ATOM     39  C   UNL A   1      39.590  29.763  30.053  1.00  0.00     0.074 A 
ATOM     40  C   UNL A   1      38.607  29.965  29.011  1.00  0.00     0.031 C 
ATOM     41  C   UNL A   1      37.939  34.138  34.464  1.00  0.00     0.029 A 
ATOM     42  C   UNL A   1      39.029  33.169  34.534  1.00  0.00     0.049 A 
ATOM     43  H   UNL A   1      39.592  31.787  33.082  1.00  0.00     0.167 HD
ATOM     44  C   UNL A   1      40.586  28.846  29.995  1.00  0.00     0.037 A 
ATOM     45  C   UNL A   1      39.866  33.010  35.577  1.00  0.00     0.037 A 
ATOM     46  C   UNL A   1      41.576  28.660  31.023  1.00  0.00     0.049 A 
ATOM     47  C   UNL A   1      40.950  31.969  35.496  1.00  0.00     0.074 A 
ATOM     48  C   UNL A   1      42.651  27.788  31.039  1.00  0.00     0.029 A 
ATOM     49  N   UNL A   1      41.611  29.358  32.221  1.00  0.00    -0.354 N 
ATOM     50  N   UNL A   1      41.234  31.141  34.520  1.00  0.00    -0.248 NA
ATOM     51  C   UNL A   1      41.837  31.846  36.662  1.00  0.00     0.031 C 
ATOM     52  C   UNL A   1      43.308  27.926  32.267  1.00  0.00     0.029 A 
ATOM     53  C   UNL A   1      42.678  28.923  32.992  1.00  0.00     0.049 A 
ATOM     54  H   UNL A   1      40.973  30.061  32.485  1.00  0.00     0.167 HD
ATOM     55  C   UNL A   1      42.348  30.425  34.937  1.00  0.00     0.074 A 
ATOM     56  C   UNL A   1      42.698  30.926  36.250  1.00  0.00     0.031 C 
ATOM     57  C   UNL A   1      43.020  29.441  34.291  1.00  0.00     0.037 A 
BRANCH  44  58
ATOM     58  C   UNL A   1      40.657  27.974  28.773  1.00  0.00     0.064 A 
ATOM     59  C   UNL A   1      39.934  26.773  28.683  1.00  0.00     0.173 A 
ATOM     60  C   UNL A   1      41.425  28.358  27.663  1.00  0.00     0.173 A 
ATOM     61  F   UNL A   1      39.193  26.352  29.719  1.00  0.00    -0.203 F 
ATOM     62  C   UNL A   1      40.005  25.976  27.543  1.00  0.00     0.198 A 
ATOM     63  C   UNL A   1      41.466  27.575  26.512  1.00  0.00     0.198 A 
ATOM     64  F   UNL A   1      42.130  29.500  27.691  1.00  0.00    -0.203 F 
ATOM     65  F   UNL A   1      39.349  24.808  27.504  1.00  0.00    -0.200 F 
ATOM     66  C   UNL A   1      40.764  26.381  26.457  1.00  0.00     0.200 A 
ATOM     67  F   UNL A   1      42.188  27.975  25.457  1.00  0.00    -0.200 F 
ATOM     68  F   UNL A   1      40.824  25.617  25.357  1.00  0.00    -0.200 F 
ENDBRANCH  44  58
BRANCH  45  69
ATOM     69  C   UNL A   1      39.731  33.872  36.781  1.00  0.00     0.064 A 
ATOM     70  C   UNL A   1      38.926  33.479  37.861  1.00  0.00     0.173 A 
ATOM     71  C   UNL A   1      40.386  35.109  36.874  1.00  0.00     0.173 A 
ATOM     72  F   UNL A   1      38.262  32.315  37.811  1.00  0.00    -0.203 F 
ATOM     73  C   UNL A   1      38.761  34.302  38.973  1.00  0.00     0.198 A 
ATOM     74  C   UNL A   1      40.245  35.916  38.000  1.00  0.00     0.198 A 
ATOM     75  F   UNL A   1      41.171  35.530  35.872  1.00  0.00    -0.203 F 
ATOM     76  F   UNL A   1      37.943  33.925  39.966  1.00  0.00    -0.200 F 
ATOM     77  C   UNL A   1      39.424  35.517  39.044  1.00  0.00     0.200 A 
ATOM     78  F   UNL A   1      40.900  37.083  38.072  1.00  0.00    -0.200 F 
ATOM     79  F   UNL A   1      39.266  36.308  40.115  1.00  0.00    -0.200 F 
ENDBRANCH  45  69
BRANCH  57  80
ATOM     80  C   UNL A   1      44.231  28.872  34.975  1.00  0.00     0.064 A 
ATOM     81  C   UNL A   1      44.149  27.752  35.816  1.00  0.00     0.173 A 
ATOM     82  C   UNL A   1      45.497  29.436  34.758  1.00  0.00     0.173 A 
ATOM     83  F   UNL A   1      42.960  27.184  36.069  1.00  0.00    -0.203 F 
ATOM     84  C   UNL A   1      45.283  27.238  36.437  1.00  0.00     0.198 A 
ATOM     85  C   UNL A   1      46.635  28.900  35.353  1.00  0.00     0.198 A 
ATOM     86  F   UNL A   1      45.634  30.504  33.955  1.00  0.00    -0.203 F 
ATOM     87  F   UNL A   1      45.172  26.201  37.280  1.00  0.00    -0.200 F 
ATOM     88  C   UNL A   1      46.526  27.807  36.200  1.00  0.00     0.200 A 
ATOM     89  F   UNL A   1      47.837  29.441  35.110  1.00  0.00    -0.200 F 
ATOM     90  F   UNL A   1      47.618  27.306  36.794  1.00  0.00    -0.200 F 
ENDBRANCH  57  80
ENDBRANCH  31  32
ENDBRANCH  23  26
ENDBRANCH  21  22
ENDBRANCH   1  21
TORSDOF 11
ENDMDL
MODEL 3
REMARK VINA RESULT:     -12.1      4.780      9.487
REMARK SMILES CC1=CC2=[NH+]C(=O)[C@](C)(CC(=O)NCCCNC(=O)c3ccc(-c4c5nc(c(-c6c(F)c(F)c(F)c(F)c6F)c6ccc([nH]6)c(-c6c(F)c(F)c(F)c(F)c6F)c6nc(c(-c7c(F)c(F)c(F)c(F)c7F)c7ccc4[nH]7)C=C6)C=C5)cc3)N2C=C1
REMARK SMILES IDX 15 1 14 2 13 3 11 4 12 5 10 7 8 8 1 9 2 10 3 11 85 12 4 13
REMARK SMILES IDX 84 14 5 15 83 16 6 17 7 19 9 20 16 21 17 22 18 23 19 25
REMARK SMILES IDX 20 26 21 27 82 28 22 29 81 30 23 31 24 32 25 33 75 34 26 35
REMARK SMILES IDX 80 36 74 37 76 38 27 39 79 40 73 41 72 42 28 44 60 45 40 46
REMARK SMILES IDX 59 47 41 48 44 49 58 50 77 51 42 52 43 53 57 55 78 56 45 57
REMARK SMILES IDX 29 58 30 59 38 60 31 61 32 62 36 63 39 64 33 65 34 66 37 67
REMARK SMILES IDX 35 68 61 69 62 70 70 71 63 72 64 73 68 74 71 75 65 76 66 77
REMARK SMILES IDX 69 78 67 79 46 80 47 81 55 82 48 83 49 84 53 85 56 86 50 87
REMARK SMILES IDX 51 88 54 89 52 90
REMARK H PARENT 13 6 5 18 17 24 76 43 44 54
REMARK Flexibility Score: inf
ROOT
ATOM      1  C   UNL A   1      41.398  20.495  26.172  1.00  0.00     0.042 C 
ENDROOT
BRANCH   1   2
ATOM      2  C   UNL A   1      42.880  20.679  26.489  1.00  0.00     0.117 C 
BRANCH   2   3
ATOM      3  N   UNL A   1      43.090  21.832  27.350  1.00  0.00    -0.356 N 
ATOM      4  C   UNL A   1      44.141  22.691  27.434  1.00  0.00     0.225 C 
ATOM      5  O   UNL A   1      44.105  23.556  28.311  1.00  0.00    -0.275 OA
ATOM      6  H   UNL A   1      42.350  22.022  27.972  1.00  0.00     0.163 HD
BRANCH   4   7
ATOM      7  C   UNL A   1      45.299  22.596  26.470  1.00  0.00     0.166 C 
BRANCH   7   8
ATOM      8  C   UNL A   1      45.317  23.665  25.379  1.00  0.00     0.217 C 
ATOM      9  C   UNL A   1      44.784  29.160  26.874  1.00  0.00     0.045 C 
ATOM     10  C   UNL A   1      44.897  27.720  26.479  1.00  0.00    -0.039 C 
ATOM     11  C   UNL A   1      44.007  27.131  25.653  1.00  0.00     0.102 C 
ATOM     12  C   UNL A   1      46.027  26.972  27.037  1.00  0.00     0.047 C 
ATOM     13  C   UNL A   1      44.213  25.688  25.383  1.00  0.00     0.283 C 
ATOM     14  C   UNL A   1      46.209  25.680  26.713  1.00  0.00     0.202 C 
ATOM     15  N   UNL A   1      43.395  24.959  24.678  1.00  0.00    -0.206 N 
ATOM     16  N   UNL A   1      45.317  25.030  25.891  1.00  0.00    -0.217 N 
ATOM     17  C   UNL A   1      43.928  23.678  24.679  1.00  0.00     0.356 C 
ATOM     18  H   UNL A   1      42.567  25.257  24.236  1.00  0.00     0.315 HD
ATOM     19  O   UNL A   1      43.402  22.693  24.178  1.00  0.00    -0.242 OA
ATOM     20  C   UNL A   1      46.350  23.522  24.267  1.00  0.00     0.076 C 
ENDBRANCH   7   8
ENDBRANCH   4   7
ENDBRANCH   2   3
ENDBRANCH   1   2
BRANCH   1  21
ATOM     21  C   UNL A   1      40.497  21.525  26.838  1.00  0.00     0.118 C 
BRANCH  21  22
ATOM     22  N   UNL A   1      39.434  21.971  25.953  1.00  0.00    -0.352 N 
ATOM     23  C   UNL A   1      38.730  23.149  25.938  1.00  0.00     0.251 C 
ATOM     24  H   UNL A   1      39.178  21.326  25.255  1.00  0.00     0.163 HD
ATOM     25  O   UNL A   1      37.710  23.231  25.260  1.00  0.00    -0.269 OA
BRANCH  23  26
ATOM     26  C   UNL A   1      39.174  24.317  26.735  1.00  0.00     0.039 A 
ATOM     27  C   UNL A   1      39.995  25.271  26.126  1.00  0.00     0.014 A 
ATOM     28  C   UNL A   1      38.842  24.453  28.085  1.00  0.00     0.014 A 
ATOM     29  C   UNL A   1      40.439  26.379  26.853  1.00  0.00     0.010 A 
ATOM     30  C   UNL A   1      39.211  25.602  28.785  1.00  0.00     0.010 A 
ATOM     31  C   UNL A   1      40.027  26.570  28.181  1.00  0.00    -0.014 A 
BRANCH  31  32
ATOM     32  C   UNL A   1      40.459  27.762  28.958  1.00  0.00     0.031 A 
ATOM     33  C   UNL A   1      41.856  27.839  29.514  1.00  0.00     0.074 A 
ATOM     34  C   UNL A   1      39.581  28.754  29.205  1.00  0.00     0.049 A 
ATOM     35  N   UNL A   1      42.401  28.766  30.264  1.00  0.00    -0.248 NA
ATOM     36  C   UNL A   1      42.754  26.715  29.207  1.00  0.00     0.031 C 
ATOM     37  C   UNL A   1      38.188  28.781  28.757  1.00  0.00     0.029 A 
ATOM     38  N   UNL A   1      39.728  29.928  29.900  1.00  0.00    -0.354 N 
ATOM     39  C   UNL A   1      43.693  28.330  30.525  1.00  0.00     0.074 A 
ATOM     40  C   UNL A   1      43.834  27.030  29.906  1.00  0.00     0.031 C 
ATOM     41  C   UNL A   1      37.617  29.925  29.163  1.00  0.00     0.029 A 
ATOM     42  C   UNL A   1      38.589  30.694  29.936  1.00  0.00     0.049 A 
ATOM     43  H   UNL A   1      40.571  30.197  30.332  1.00  0.00     0.167 HD
ATOM     44  C   UNL A   1      44.684  28.967  31.195  1.00  0.00     0.037 A 
ATOM     45  C   UNL A   1      38.351  31.879  30.530  1.00  0.00     0.037 A 
ATOM     46  C   UNL A   1      44.548  30.270  31.793  1.00  0.00     0.049 A 
ATOM     47  C   UNL A   1      39.462  32.556  31.288  1.00  0.00     0.074 A 
ATOM     48  C   UNL A   1      45.505  31.019  32.455  1.00  0.00     0.029 A 
ATOM     49  N   UNL A   1      43.380  31.017  31.801  1.00  0.00    -0.354 N 
ATOM     50  N   UNL A   1      40.698  32.161  31.476  1.00  0.00    -0.248 NA
ATOM     51  C   UNL A   1      39.145  33.849  31.910  1.00  0.00     0.031 C 
ATOM     52  C   UNL A   1      44.902  32.199  32.905  1.00  0.00     0.029 A 
ATOM     53  C   UNL A   1      43.586  32.211  32.474  1.00  0.00     0.049 A 
ATOM     54  H   UNL A   1      42.529  30.741  31.388  1.00  0.00     0.167 HD
ATOM     55  C   UNL A   1      41.314  33.168  32.206  1.00  0.00     0.074 A 
ATOM     56  C   UNL A   1      40.320  34.200  32.414  1.00  0.00     0.031 C 
ATOM     57  C   UNL A   1      42.589  33.233  32.663  1.00  0.00     0.037 A 
BRANCH  44  58
ATOM     58  C   UNL A   1      46.006  28.264  31.314  1.00  0.00     0.064 A 
ATOM     59  C   UNL A   1      47.045  28.489  30.396  1.00  0.00     0.173 A 
ATOM     60  C   UNL A   1      46.255  27.384  32.379  1.00  0.00     0.173 A 
ATOM     61  F   UNL A   1      46.858  29.312  29.353  1.00  0.00    -0.203 F 
ATOM     62  C   UNL A   1      48.268  27.833  30.521  1.00  0.00     0.198 A 
ATOM     63  C   UNL A   1      47.491  26.757  32.519  1.00  0.00     0.198 A 
ATOM     64  F   UNL A   1      45.301  27.138  33.289  1.00  0.00    -0.203 F 
ATOM     65  F   UNL A   1      49.223  28.024  29.601  1.00  0.00    -0.200 F 
ATOM     66  C   UNL A   1      48.492  26.975  31.585  1.00  0.00     0.200 A 
ATOM     67  F   UNL A   1      47.711  25.939  33.557  1.00  0.00    -0.200 F 
ATOM     68  F   UNL A   1      49.673  26.352  31.709  1.00  0.00    -0.200 F 
ENDBRANCH  44  58
BRANCH  45  69
ATOM     69  C   UNL A   1      37.012  32.517  30.416  1.00  0.00     0.064 A 
ATOM     70  C   UNL A   1      36.700  33.343  29.327  1.00  0.00     0.173 A 
ATOM     71  C   UNL A   1      36.026  32.329  31.395  1.00  0.00     0.173 A 
ATOM     72  F   UNL A   1      37.617  33.571  28.375  1.00  0.00    -0.203 F 
ATOM     73  C   UNL A   1      35.463  33.977  29.235  1.00  0.00     0.198 A 
ATOM     74  C   UNL A   1      34.778  32.938  31.286  1.00  0.00     0.198 A 
ATOM     75  F   UNL A   1      36.272  31.544  32.454  1.00  0.00    -0.203 F 
ATOM     76  F   UNL A   1      35.211  34.804  28.211  1.00  0.00    -0.200 F 
ATOM     77  C   UNL A   1      34.501  33.771  30.212  1.00  0.00     0.200 A 
ATOM     78  F   UNL A   1      33.846  32.724  32.224  1.00  0.00    -0.200 F 
ATOM     79  F   UNL A   1      33.311  34.380  30.124  1.00  0.00    -0.200 F 
ENDBRANCH  45  69
BRANCH  57  80
ATOM     80  C   UNL A   1      42.995  34.481  33.394  1.00  0.00     0.064 A 
ATOM     81  C   UNL A   1      43.440  35.626  32.717  1.00  0.00     0.173 A 
ATOM     82  C   UNL A   1      42.905  34.541  34.794  1.00  0.00     0.173 A 
ATOM     83  F   UNL A   1      43.559  35.615  31.381  1.00  0.00    -0.203 F 
ATOM     84  C   UNL A   1      43.808  36.773  33.414  1.00  0.00     0.198 A 
ATOM     85  C   UNL A   1      43.241  35.701  35.486  1.00  0.00     0.198 A 
ATOM     86  F   UNL A   1      42.477  33.477  35.491  1.00  0.00    -0.203 F 
ATOM     87  F   UNL A   1      44.282  37.836  32.749  1.00  0.00    -0.200 F 
ATOM     88  C   UNL A   1      43.701  36.813  34.797  1.00  0.00     0.200 A 
ATOM     89  F   UNL A   1      43.122  35.743  36.820  1.00  0.00    -0.200 F 
ATOM     90  F   UNL A   1      44.050  37.921  35.465  1.00  0.00    -0.200 F 
ENDBRANCH  57  80
ENDBRANCH  31  32
ENDBRANCH  23  26
ENDBRANCH  21  22
ENDBRANCH   1  21
TORSDOF 11
ENDMDL
