MODEL 1
REMARK VINA RESULT:     -11.7      0.000      0.000
REMARK SMILES CN(CC(C)(C)O)C(=O)NC[C@@H](C(=O)NCCCNC(=O)c1ccc(-c2c3nc(c(-c4c(F)c(F)c(F)c(F)c4F)c4ccc([nH]4)c(-c4c(F)c(F)c(F)c(F)c4F)c4nc(c(-c5c(F)c(F)c(F)c(F)c5F)c5ccc2[nH]5)C=C4)C=C3)cc1)c1ccccc1
REMARK SMILES IDX 13 1 14 2 15 3 12 5 11 6 10 7 8 8 9 9 2 11 1 12 3 13 4 14
REMARK SMILES IDX 5 15 6 16 7 17 85 19 86 20 90 21 87 22 89 23 88 24 16 25
REMARK SMILES IDX 17 26 18 27 19 28 20 29 21 31 22 32 23 33 84 34 24 35 83 36
REMARK SMILES IDX 25 37 26 38 27 39 77 40 28 41 82 42 76 43 78 44 29 45 81 46
REMARK SMILES IDX 75 47 74 48 30 50 62 51 42 52 61 53 43 54 46 55 60 56 79 57
REMARK SMILES IDX 44 58 45 59 59 61 80 62 47 63 31 64 32 65 40 66 33 67 34 68
REMARK SMILES IDX 38 69 41 70 35 71 36 72 39 73 37 74 63 75 64 76 72 77 65 78
REMARK SMILES IDX 66 79 70 80 73 81 67 82 68 83 71 84 69 85 48 86 49 87 57 88
REMARK SMILES IDX 50 89 51 90 55 91 58 92 52 93 53 94 56 95 54 96
REMARK H PARENT 15 4 10 10 7 18 19 30 78 49 46 60
REMARK Flexibility Score: inf
ROOT
ATOM      1  C   UNL A   1      34.566  20.707  25.717  1.00  0.00     0.229 C 
ATOM      2  O   UNL A   1      33.973  21.131  26.710  1.00  0.00    -0.274 OA
ATOM      3  N   UNL A   1      35.931  20.773  25.747  1.00  0.00    -0.355 N 
ATOM      4  H   UNL A   1      36.318  20.906  26.643  1.00  0.00     0.163 HD
ENDROOT
BRANCH   1   5
ATOM      5  C   UNL A   1      33.855  20.081  24.511  1.00  0.00     0.128 C 
BRANCH   5   6
ATOM      6  C   UNL A   1      32.445  20.662  24.227  1.00  0.00     0.136 C 
BRANCH   6   7
ATOM      7  N   UNL A   1      32.241  22.077  24.525  1.00  0.00    -0.337 N 
ATOM      8  C   UNL A   1      32.685  23.300  24.203  1.00  0.00     0.317 C 
ATOM      9  O   UNL A   1      32.226  24.195  24.925  1.00  0.00    -0.249 OA
ATOM     10  H   UNL A   1      31.526  22.163  25.197  1.00  0.00     0.165 HD
BRANCH   8  11
ATOM     11  N   UNL A   1      33.554  23.590  23.198  1.00  0.00    -0.325 N 
ATOM     12  C   UNL A   1      34.969  23.618  23.563  1.00  0.00     0.148 C 
BRANCH  11  13
ATOM     13  C   UNL A   1      33.280  23.922  21.799  1.00  0.00     0.155 C 
BRANCH  13  14
ATOM     14  C   UNL A   1      32.608  25.304  21.575  1.00  0.00     0.077 C 
ATOM     15  C   UNL A   1      33.332  26.444  22.278  1.00  0.00     0.043 C 
ATOM     16  C   UNL A   1      32.528  25.575  20.069  1.00  0.00     0.043 C 
BRANCH  14  17
ATOM     17  O   UNL A   1      31.270  25.275  22.088  1.00  0.00    -0.389 OA
ATOM     18  H   UNL A   1      30.825  24.470  21.785  1.00  0.00     0.211 HD
ENDBRANCH  14  17
ENDBRANCH  13  14
ENDBRANCH  11  13
ENDBRANCH   8  11
ENDBRANCH   6   7
ENDBRANCH   5   6
BRANCH   5  19
ATOM     19  C   UNL A   1      33.697  18.557  24.645  1.00  0.00    -0.034 A 
ATOM     20  C   UNL A   1      34.727  17.686  24.249  1.00  0.00     0.004 A 
ATOM     21  C   UNL A   1      32.575  18.009  25.285  1.00  0.00     0.004 A 
ATOM     22  C   UNL A   1      34.658  16.320  24.527  1.00  0.00     0.000 A 
ATOM     23  C   UNL A   1      32.516  16.645  25.583  1.00  0.00     0.000 A 
ATOM     24  C   UNL A   1      33.562  15.803  25.212  1.00  0.00     0.000 A 
ENDBRANCH   5  19
ENDBRANCH   1   5
BRANCH   3  25
ATOM     25  C   UNL A   1      36.905  20.681  24.669  1.00  0.00     0.117 C 
BRANCH  25  26
ATOM     26  C   UNL A   1      37.948  19.613  24.977  1.00  0.00     0.042 C 
BRANCH  26  27
ATOM     27  C   UNL A   1      39.115  20.098  25.817  1.00  0.00     0.118 C 
BRANCH  27  28
ATOM     28  N   UNL A   1      40.165  19.106  25.952  1.00  0.00    -0.352 N 
ATOM     29  C   UNL A   1      41.512  19.292  26.130  1.00  0.00     0.251 C 
ATOM     30  H   UNL A   1      39.869  18.168  25.908  1.00  0.00     0.163 HD
ATOM     31  O   UNL A   1      42.276  18.329  26.043  1.00  0.00    -0.269 OA
BRANCH  29  32
ATOM     32  C   UNL A   1      42.060  20.641  26.403  1.00  0.00     0.039 A 
ATOM     33  C   UNL A   1      42.364  21.475  25.325  1.00  0.00     0.014 A 
ATOM     34  C   UNL A   1      42.287  21.085  27.710  1.00  0.00     0.014 A 
ATOM     35  C   UNL A   1      42.843  22.767  25.558  1.00  0.00     0.010 A 
ATOM     36  C   UNL A   1      42.661  22.405  27.942  1.00  0.00     0.010 A 
ATOM     37  C   UNL A   1      42.966  23.256  26.870  1.00  0.00    -0.014 A 
BRANCH  37  38
ATOM     38  C   UNL A   1      43.448  24.635  27.140  1.00  0.00     0.031 A 
ATOM     39  C   UNL A   1      42.507  25.662  27.712  1.00  0.00     0.074 A 
ATOM     40  C   UNL A   1      44.711  24.981  26.823  1.00  0.00     0.049 A 
ATOM     41  N   UNL A   1      42.715  26.930  27.966  1.00  0.00    -0.248 NA
ATOM     42  C   UNL A   1      41.136  25.213  28.009  1.00  0.00     0.031 C 
ATOM     43  C   UNL A   1      45.704  24.094  26.217  1.00  0.00     0.029 A 
ATOM     44  N   UNL A   1      45.374  26.175  26.962  1.00  0.00    -0.354 N 
ATOM     45  C   UNL A   1      41.503  27.429  28.425  1.00  0.00     0.074 A 
ATOM     46  C   UNL A   1      40.547  26.346  28.360  1.00  0.00     0.031 C 
ATOM     47  C   UNL A   1      46.860  24.761  26.072  1.00  0.00     0.029 A 
ATOM     48  C   UNL A   1      46.678  26.135  26.533  1.00  0.00     0.049 A 
ATOM     49  H   UNL A   1      44.954  26.984  27.335  1.00  0.00     0.167 HD
ATOM     50  C   UNL A   1      41.217  28.670  28.884  1.00  0.00     0.037 A 
ATOM     51  C   UNL A   1      47.619  27.099  26.510  1.00  0.00     0.037 A 
ATOM     52  C   UNL A   1      42.181  29.734  28.986  1.00  0.00     0.049 A 
ATOM     53  C   UNL A   1      47.275  28.471  27.026  1.00  0.00     0.074 A 
ATOM     54  C   UNL A   1      42.013  31.003  29.511  1.00  0.00     0.029 A 
ATOM     55  N   UNL A   1      43.495  29.651  28.549  1.00  0.00    -0.354 N 
ATOM     56  N   UNL A   1      46.147  28.908  27.530  1.00  0.00    -0.248 NA
ATOM     57  C   UNL A   1      48.340  29.482  26.974  1.00  0.00     0.031 C 
ATOM     58  C   UNL A   1      43.209  31.706  29.342  1.00  0.00     0.029 A 
ATOM     59  C   UNL A   1      44.142  30.857  28.767  1.00  0.00     0.049 A 
ATOM     60  H   UNL A   1      43.907  28.854  28.146  1.00  0.00     0.167 HD
ATOM     61  C   UNL A   1      46.374  30.231  27.884  1.00  0.00     0.074 A 
ATOM     62  C   UNL A   1      47.753  30.521  27.549  1.00  0.00     0.031 C 
ATOM     63  C   UNL A   1      45.518  31.127  28.437  1.00  0.00     0.037 A 
BRANCH  50  64
ATOM     64  C   UNL A   1      39.803  28.947  29.312  1.00  0.00     0.064 A 
ATOM     65  C   UNL A   1      38.839  29.433  28.415  1.00  0.00     0.173 A 
ATOM     66  C   UNL A   1      39.400  28.695  30.632  1.00  0.00     0.173 A 
ATOM     67  F   UNL A   1      39.173  29.701  27.144  1.00  0.00    -0.203 F 
ATOM     68  C   UNL A   1      37.535  29.687  28.831  1.00  0.00     0.198 A 
ATOM     69  C   UNL A   1      38.086  28.917  31.037  1.00  0.00     0.198 A 
ATOM     70  F   UNL A   1      40.278  28.225  31.531  1.00  0.00    -0.203 F 
ATOM     71  F   UNL A   1      36.647  30.204  27.971  1.00  0.00    -0.200 F 
ATOM     72  C   UNL A   1      37.157  29.422  30.140  1.00  0.00     0.200 A 
ATOM     73  F   UNL A   1      37.719  28.647  32.297  1.00  0.00    -0.200 F 
ATOM     74  F   UNL A   1      35.900  29.661  30.537  1.00  0.00    -0.200 F 
ENDBRANCH  50  64
BRANCH  51  75
ATOM     75  C   UNL A   1      48.986  26.794  26.013  1.00  0.00     0.064 A 
ATOM     76  C   UNL A   1      49.325  27.007  24.669  1.00  0.00     0.173 A 
ATOM     77  C   UNL A   1      49.977  26.277  26.860  1.00  0.00     0.173 A 
ATOM     78  F   UNL A   1      48.405  27.479  23.814  1.00  0.00    -0.203 F 
ATOM     79  C   UNL A   1      50.595  26.697  24.186  1.00  0.00     0.198 A 
ATOM     80  C   UNL A   1      51.257  25.996  26.384  1.00  0.00     0.198 A 
ATOM     81  F   UNL A   1      49.706  26.056  28.154  1.00  0.00    -0.203 F 
ATOM     82  F   UNL A   1      50.875  26.866  22.888  1.00  0.00    -0.200 F 
ATOM     83  C   UNL A   1      51.561  26.197  25.046  1.00  0.00     0.200 A 
ATOM     84  F   UNL A   1      52.191  25.524  27.219  1.00  0.00    -0.200 F 
ATOM     85  F   UNL A   1      52.783  25.900  24.582  1.00  0.00    -0.200 F 
ENDBRANCH  51  75
BRANCH  63  86
ATOM     86  C   UNL A   1      46.057  32.492  28.753  1.00  0.00     0.064 A 
ATOM     87  C   UNL A   1      45.979  33.548  27.834  1.00  0.00     0.173 A 
ATOM     88  C   UNL A   1      46.621  32.756  30.011  1.00  0.00     0.173 A 
ATOM     89  F   UNL A   1      45.460  33.344  26.614  1.00  0.00    -0.203 F 
ATOM     90  C   UNL A   1      46.470  34.811  28.153  1.00  0.00     0.198 A 
ATOM     91  C   UNL A   1      47.081  34.028  30.338  1.00  0.00     0.198 A 
ATOM     92  F   UNL A   1      46.713  31.782  30.929  1.00  0.00    -0.203 F 
ATOM     93  F   UNL A   1      46.431  35.793  27.241  1.00  0.00    -0.200 F 
ATOM     94  C   UNL A   1      47.013  35.052  29.407  1.00  0.00     0.200 A 
ATOM     95  F   UNL A   1      47.589  34.262  31.556  1.00  0.00    -0.200 F 
ATOM     96  F   UNL A   1      47.476  36.271  29.715  1.00  0.00    -0.200 F 
ENDBRANCH  63  86
ENDBRANCH  37  38
ENDBRANCH  29  32
ENDBRANCH  27  28
ENDBRANCH  26  27
ENDBRANCH  25  26
ENDBRANCH   3  25
TORSDOF 17
ENDMDL
MODEL 2
REMARK VINA RESULT:     -11.6      5.019      8.795
REMARK SMILES CN(CC(C)(C)O)C(=O)NC[C@@H](C(=O)NCCCNC(=O)c1ccc(-c2c3nc(c(-c4c(F)c(F)c(F)c(F)c4F)c4ccc([nH]4)c(-c4c(F)c(F)c(F)c(F)c4F)c4nc(c(-c5c(F)c(F)c(F)c(F)c5F)c5ccc2[nH]5)C=C4)C=C3)cc1)c1ccccc1
REMARK SMILES IDX 13 1 14 2 15 3 12 5 11 6 10 7 8 8 9 9 2 11 1 12 3 13 4 14
REMARK SMILES IDX 5 15 6 16 7 17 85 19 86 20 90 21 87 22 89 23 88 24 16 25
REMARK SMILES IDX 17 26 18 27 19 28 20 29 21 31 22 32 23 33 84 34 24 35 83 36
REMARK SMILES IDX 25 37 26 38 27 39 77 40 28 41 82 42 76 43 78 44 29 45 81 46
REMARK SMILES IDX 75 47 74 48 30 50 62 51 42 52 61 53 43 54 46 55 60 56 79 57
REMARK SMILES IDX 44 58 45 59 59 61 80 62 47 63 31 64 32 65 40 66 33 67 34 68
REMARK SMILES IDX 38 69 41 70 35 71 36 72 39 73 37 74 63 75 64 76 72 77 65 78
REMARK SMILES IDX 66 79 70 80 73 81 67 82 68 83 71 84 69 85 48 86 49 87 57 88
REMARK SMILES IDX 50 89 51 90 55 91 58 92 52 93 53 94 56 95 54 96
REMARK H PARENT 15 4 10 10 7 18 19 30 78 49 46 60
REMARK Flexibility Score: inf
ROOT
ATOM      1  C   UNL A   1      31.652  27.067  22.738  1.00  0.00     0.229 C 
ATOM      2  O   UNL A   1      31.470  26.564  21.628  1.00  0.00    -0.274 OA
ATOM      3  N   UNL A   1      32.911  27.533  22.998  1.00  0.00    -0.355 N 
ATOM      4  H   UNL A   1      33.476  27.661  22.201  1.00  0.00     0.163 HD
ENDROOT
BRANCH   1   5
ATOM      5  C   UNL A   1      30.543  27.231  23.784  1.00  0.00     0.128 C 
BRANCH   5   6
ATOM      6  C   UNL A   1      29.699  25.953  24.028  1.00  0.00     0.136 C 
BRANCH   6   7
ATOM      7  N   UNL A   1      29.868  25.285  25.315  1.00  0.00    -0.337 N 
ATOM      8  C   UNL A   1      30.656  24.411  25.959  1.00  0.00     0.317 C 
ATOM      9  O   UNL A   1      30.213  24.071  27.063  1.00  0.00    -0.249 OA
ATOM     10  H   UNL A   1      29.153  25.579  25.925  1.00  0.00     0.165 HD
BRANCH   8  11
ATOM     11  N   UNL A   1      31.834  23.914  25.494  1.00  0.00    -0.325 N 
ATOM     12  C   UNL A   1      33.022  24.721  25.766  1.00  0.00     0.148 C 
BRANCH  11  13
ATOM     13  C   UNL A   1      32.088  22.699  24.718  1.00  0.00     0.155 C 
BRANCH  13  14
ATOM     14  C   UNL A   1      32.137  22.904  23.180  1.00  0.00     0.077 C 
ATOM     15  C   UNL A   1      33.326  23.736  22.723  1.00  0.00     0.043 C 
ATOM     16  C   UNL A   1      32.157  21.530  22.500  1.00  0.00     0.043 C 
BRANCH  14  17
ATOM     17  O   UNL A   1      30.953  23.588  22.750  1.00  0.00    -0.389 OA
ATOM     18  H   UNL A   1      30.424  23.836  23.524  1.00  0.00     0.211 HD
ENDBRANCH  14  17
ENDBRANCH  13  14
ENDBRANCH  11  13
ENDBRANCH   8  11
ENDBRANCH   6   7
ENDBRANCH   5   6
BRANCH   5  19
ATOM     19  C   UNL A   1      29.561  28.360  23.429  1.00  0.00    -0.034 A 
ATOM     20  C   UNL A   1      28.206  28.087  23.174  1.00  0.00     0.004 A 
ATOM     21  C   UNL A   1      29.968  29.703  23.480  1.00  0.00     0.004 A 
ATOM     22  C   UNL A   1      27.282  29.121  23.022  1.00  0.00     0.000 A 
ATOM     23  C   UNL A   1      29.037  30.738  23.350  1.00  0.00     0.000 A 
ATOM     24  C   UNL A   1      27.694  30.446  23.131  1.00  0.00     0.000 A 
ENDBRANCH   5  19
ENDBRANCH   1   5
BRANCH   3  25
ATOM     25  C   UNL A   1      33.552  27.869  24.260  1.00  0.00     0.117 C 
BRANCH  25  26
ATOM     26  C   UNL A   1      33.310  29.332  24.613  1.00  0.00     0.042 C 
BRANCH  26  27
ATOM     27  C   UNL A   1      32.805  29.564  26.025  1.00  0.00     0.118 C 
BRANCH  27  28
ATOM     28  N   UNL A   1      32.608  30.967  26.332  1.00  0.00    -0.352 N 
ATOM     29  C   UNL A   1      33.288  31.763  27.220  1.00  0.00     0.251 C 
ATOM     30  H   UNL A   1      31.885  31.412  25.834  1.00  0.00     0.163 HD
ATOM     31  O   UNL A   1      32.861  32.889  27.478  1.00  0.00    -0.269 OA
BRANCH  29  32
ATOM     32  C   UNL A   1      34.515  31.271  27.889  1.00  0.00     0.039 A 
ATOM     33  C   UNL A   1      35.592  32.146  28.048  1.00  0.00     0.014 A 
ATOM     34  C   UNL A   1      34.617  29.955  28.349  1.00  0.00     0.014 A 
ATOM     35  C   UNL A   1      36.744  31.718  28.712  1.00  0.00     0.010 A 
ATOM     36  C   UNL A   1      35.719  29.564  29.102  1.00  0.00     0.010 A 
ATOM     37  C   UNL A   1      36.806  30.432  29.274  1.00  0.00    -0.014 A 
BRANCH  37  38
ATOM     38  C   UNL A   1      38.011  29.966  30.008  1.00  0.00     0.031 A 
ATOM     39  C   UNL A   1      38.264  30.437  31.415  1.00  0.00     0.074 A 
ATOM     40  C   UNL A   1      38.905  29.164  29.395  1.00  0.00     0.049 A 
ATOM     41  N   UNL A   1      39.282  30.192  32.203  1.00  0.00    -0.248 NA
ATOM     42  C   UNL A   1      37.255  31.331  32.007  1.00  0.00     0.031 C 
ATOM     43  C   UNL A   1      38.800  28.678  28.018  1.00  0.00     0.029 A 
ATOM     44  N   UNL A   1      40.080  28.620  29.850  1.00  0.00    -0.354 N 
ATOM     45  C   UNL A   1      39.046  30.918  33.363  1.00  0.00     0.074 A 
ATOM     46  C   UNL A   1      37.821  31.659  33.158  1.00  0.00     0.031 C 
ATOM     47  C   UNL A   1      39.846  27.878  27.754  1.00  0.00     0.029 A 
ATOM     48  C   UNL A   1      40.717  27.830  28.925  1.00  0.00     0.049 A 
ATOM     49  H   UNL A   1      40.433  28.780  30.756  1.00  0.00     0.167 HD
ATOM     50  C   UNL A   1      39.769  30.945  34.508  1.00  0.00     0.037 A 
ATOM     51  C   UNL A   1      41.874  27.146  29.011  1.00  0.00     0.037 A 
ATOM     52  C   UNL A   1      40.965  30.175  34.724  1.00  0.00     0.049 A 
ATOM     53  C   UNL A   1      42.660  27.193  30.295  1.00  0.00     0.074 A 
ATOM     54  C   UNL A   1      41.728  30.070  35.874  1.00  0.00     0.029 A 
ATOM     55  N   UNL A   1      41.573  29.379  33.765  1.00  0.00    -0.354 N 
ATOM     56  N   UNL A   1      42.385  27.821  31.412  1.00  0.00    -0.248 NA
ATOM     57  C   UNL A   1      43.916  26.431  30.328  1.00  0.00     0.031 C 
ATOM     58  C   UNL A   1      42.828  29.254  35.594  1.00  0.00     0.029 A 
ATOM     59  C   UNL A   1      42.719  28.802  34.288  1.00  0.00     0.049 A 
ATOM     60  H   UNL A   1      41.241  29.243  32.849  1.00  0.00     0.167 HD
ATOM     61  C   UNL A   1      43.412  27.505  32.290  1.00  0.00     0.074 A 
ATOM     62  C   UNL A   1      44.311  26.618  31.579  1.00  0.00     0.031 C 
ATOM     63  C   UNL A   1      43.598  27.913  33.571  1.00  0.00     0.037 A 
BRANCH  50  64
ATOM     64  C   UNL A   1      39.287  31.838  35.617  1.00  0.00     0.064 A 
ATOM     65  C   UNL A   1      39.688  33.179  35.717  1.00  0.00     0.173 A 
ATOM     66  C   UNL A   1      38.387  31.351  36.578  1.00  0.00     0.173 A 
ATOM     67  F   UNL A   1      40.555  33.692  34.831  1.00  0.00    -0.203 F 
ATOM     68  C   UNL A   1      39.233  33.989  36.754  1.00  0.00     0.198 A 
ATOM     69  C   UNL A   1      37.907  32.174  37.594  1.00  0.00     0.198 A 
ATOM     70  F   UNL A   1      37.965  30.079  36.528  1.00  0.00    -0.203 F 
ATOM     71  F   UNL A   1      39.674  35.250  36.860  1.00  0.00    -0.200 F 
ATOM     72  C   UNL A   1      38.338  33.488  37.687  1.00  0.00     0.200 A 
ATOM     73  F   UNL A   1      37.030  31.693  38.486  1.00  0.00    -0.200 F 
ATOM     74  F   UNL A   1      37.896  34.272  38.681  1.00  0.00    -0.200 F 
ENDBRANCH  50  64
BRANCH  51  75
ATOM     75  C   UNL A   1      42.345  26.331  27.860  1.00  0.00     0.064 A 
ATOM     76  C   UNL A   1      43.286  26.843  26.955  1.00  0.00     0.173 A 
ATOM     77  C   UNL A   1      41.864  25.033  27.635  1.00  0.00     0.173 A 
ATOM     78  F   UNL A   1      43.759  28.088  27.115  1.00  0.00    -0.203 F 
ATOM     79  C   UNL A   1      43.712  26.098  25.858  1.00  0.00     0.198 A 
ATOM     80  C   UNL A   1      42.313  24.276  26.554  1.00  0.00     0.198 A 
ATOM     81  F   UNL A   1      40.965  24.495  28.471  1.00  0.00    -0.203 F 
ATOM     82  F   UNL A   1      44.573  26.631  24.982  1.00  0.00    -0.200 F 
ATOM     83  C   UNL A   1      43.229  24.812  25.661  1.00  0.00     0.200 A 
ATOM     84  F   UNL A   1      41.854  23.031  26.373  1.00  0.00    -0.200 F 
ATOM     85  F   UNL A   1      43.640  24.095  24.606  1.00  0.00    -0.200 F 
ENDBRANCH  51  75
BRANCH  63  86
ATOM     86  C   UNL A   1      44.792  27.372  34.301  1.00  0.00     0.064 A 
ATOM     87  C   UNL A   1      44.741  26.160  35.005  1.00  0.00     0.173 A 
ATOM     88  C   UNL A   1      46.016  28.058  34.262  1.00  0.00     0.173 A 
ATOM     89  F   UNL A   1      43.591  25.474  35.085  1.00  0.00    -0.203 F 
ATOM     90  C   UNL A   1      45.865  25.668  35.664  1.00  0.00     0.198 A 
ATOM     91  C   UNL A   1      47.145  27.546  34.894  1.00  0.00     0.198 A 
ATOM     92  F   UNL A   1      46.120  29.218  33.596  1.00  0.00    -0.203 F 
ATOM     93  F   UNL A   1      45.780  24.533  36.372  1.00  0.00    -0.200 F 
ATOM     94  C   UNL A   1      47.068  26.356  35.601  1.00  0.00     0.200 A 
ATOM     95  F   UNL A   1      48.310  28.204  34.817  1.00  0.00    -0.200 F 
ATOM     96  F   UNL A   1      48.150  25.876  36.227  1.00  0.00    -0.200 F 
ENDBRANCH  63  86
ENDBRANCH  37  38
ENDBRANCH  29  32
ENDBRANCH  27  28
ENDBRANCH  26  27
ENDBRANCH  25  26
ENDBRANCH   3  25
TORSDOF 17
ENDMDL
MODEL 3
REMARK VINA RESULT:     -11.6      5.664     10.130
REMARK SMILES CN(CC(C)(C)O)C(=O)NC[C@@H](C(=O)NCCCNC(=O)c1ccc(-c2c3nc(c(-c4c(F)c(F)c(F)c(F)c4F)c4ccc([nH]4)c(-c4c(F)c(F)c(F)c(F)c4F)c4nc(c(-c5c(F)c(F)c(F)c(F)c5F)c5ccc2[nH]5)C=C4)C=C3)cc1)c1ccccc1
REMARK SMILES IDX 13 1 14 2 15 3 12 5 11 6 10 7 8 8 9 9 2 11 1 12 3 13 4 14
REMARK SMILES IDX 5 15 6 16 7 17 85 19 86 20 90 21 87 22 89 23 88 24 16 25
REMARK SMILES IDX 17 26 18 27 19 28 20 29 21 31 22 32 23 33 84 34 24 35 83 36
REMARK SMILES IDX 25 37 26 38 27 39 77 40 28 41 82 42 76 43 78 44 29 45 81 46
REMARK SMILES IDX 75 47 74 48 30 50 62 51 42 52 61 53 43 54 46 55 60 56 79 57
REMARK SMILES IDX 44 58 45 59 59 61 80 62 47 63 31 64 32 65 40 66 33 67 34 68
REMARK SMILES IDX 38 69 41 70 35 71 36 72 39 73 37 74 63 75 64 76 72 77 65 78
REMARK SMILES IDX 66 79 70 80 73 81 67 82 68 83 71 84 69 85 48 86 49 87 57 88
REMARK SMILES IDX 50 89 51 90 55 91 58 92 52 93 53 94 56 95 54 96
REMARK H PARENT 15 4 10 10 7 18 19 30 78 49 46 60
REMARK Flexibility Score: inf
ROOT
ATOM      1  C   UNL A   1      31.701  29.329  23.802  1.00  0.00     0.229 C 
ATOM      2  O   UNL A   1      32.551  29.069  22.949  1.00  0.00    -0.274 OA
ATOM      3  N   UNL A   1      32.120  30.062  24.877  1.00  0.00    -0.355 N 
ATOM      4  H   UNL A   1      32.977  30.529  24.750  1.00  0.00     0.163 HD
ENDROOT
BRANCH   1   5
ATOM      5  C   UNL A   1      30.228  28.920  23.680  1.00  0.00     0.128 C 
BRANCH   5   6
ATOM      6  C   UNL A   1      29.991  27.619  22.869  1.00  0.00     0.136 C 
BRANCH   6   7
ATOM      7  N   UNL A   1      31.171  26.837  22.514  1.00  0.00    -0.337 N 
ATOM      8  C   UNL A   1      31.815  25.698  22.810  1.00  0.00     0.317 C 
ATOM      9  O   UNL A   1      32.924  25.606  22.269  1.00  0.00    -0.249 OA
ATOM     10  H   UNL A   1      31.670  27.312  21.810  1.00  0.00     0.165 HD
BRANCH   8  11
ATOM     11  N   UNL A   1      31.345  24.709  23.616  1.00  0.00    -0.325 N 
ATOM     12  C   UNL A   1      31.522  23.343  23.124  1.00  0.00     0.148 C 
BRANCH  11  13
ATOM     13  C   UNL A   1      30.646  24.807  24.898  1.00  0.00     0.155 C 
BRANCH  13  14
ATOM     14  C   UNL A   1      31.562  25.070  26.123  1.00  0.00     0.077 C 
ATOM     15  C   UNL A   1      33.006  24.647  25.895  1.00  0.00     0.043 C 
ATOM     16  C   UNL A   1      31.495  26.560  26.478  1.00  0.00     0.043 C 
BRANCH  14  17
ATOM     17  O   UNL A   1      31.079  24.329  27.251  1.00  0.00    -0.389 OA
ATOM     18  H   UNL A   1      31.538  24.623  28.052  1.00  0.00     0.211 HD
ENDBRANCH  14  17
ENDBRANCH  13  14
ENDBRANCH  11  13
ENDBRANCH   8  11
ENDBRANCH   6   7
ENDBRANCH   5   6
BRANCH   5  19
ATOM     19  C   UNL A   1      29.362  30.017  23.037  1.00  0.00    -0.034 A 
ATOM     20  C   UNL A   1      29.002  31.169  23.758  1.00  0.00     0.004 A 
ATOM     21  C   UNL A   1      29.021  29.953  21.677  1.00  0.00     0.004 A 
ATOM     22  C   UNL A   1      28.366  32.240  23.128  1.00  0.00     0.000 A 
ATOM     23  C   UNL A   1      28.405  31.034  21.042  1.00  0.00     0.000 A 
ATOM     24  C   UNL A   1      28.087  32.180  21.766  1.00  0.00     0.000 A 
ENDBRANCH   5  19
ENDBRANCH   1   5
BRANCH   3  25
ATOM     25  C   UNL A   1      31.504  30.263  26.181  1.00  0.00     0.117 C 
BRANCH  25  26
ATOM     26  C   UNL A   1      31.397  31.749  26.502  1.00  0.00     0.042 C 
BRANCH  26  27
ATOM     27  C   UNL A   1      32.707  32.400  26.906  1.00  0.00     0.118 C 
BRANCH  27  28
ATOM     28  N   UNL A   1      32.540  33.765  27.368  1.00  0.00    -0.352 N 
ATOM     29  C   UNL A   1      33.185  34.418  28.387  1.00  0.00     0.251 C 
ATOM     30  H   UNL A   1      31.869  34.297  26.882  1.00  0.00     0.163 HD
ATOM     31  O   UNL A   1      32.783  35.524  28.752  1.00  0.00    -0.269 OA
BRANCH  29  32
ATOM     32  C   UNL A   1      34.344  33.797  29.069  1.00  0.00     0.039 A 
ATOM     33  C   UNL A   1      34.113  32.794  30.014  1.00  0.00     0.014 A 
ATOM     34  C   UNL A   1      35.654  34.202  28.795  1.00  0.00     0.014 A 
ATOM     35  C   UNL A   1      35.191  32.165  30.640  1.00  0.00     0.010 A 
ATOM     36  C   UNL A   1      36.727  33.503  29.338  1.00  0.00     0.010 A 
ATOM     37  C   UNL A   1      36.511  32.491  30.284  1.00  0.00    -0.014 A 
BRANCH  37  38
ATOM     38  C   UNL A   1      37.673  31.816  30.918  1.00  0.00     0.031 A 
ATOM     39  C   UNL A   1      38.093  32.194  32.314  1.00  0.00     0.074 A 
ATOM     40  C   UNL A   1      38.382  30.904  30.225  1.00  0.00     0.049 A 
ATOM     41  N   UNL A   1      39.109  31.766  33.020  1.00  0.00    -0.248 NA
ATOM     42  C   UNL A   1      37.283  33.217  32.996  1.00  0.00     0.031 C 
ATOM     43  C   UNL A   1      38.107  30.486  28.849  1.00  0.00     0.029 A 
ATOM     44  N   UNL A   1      39.483  30.165  30.582  1.00  0.00    -0.354 N 
ATOM     45  C   UNL A   1      39.072  32.481  34.210  1.00  0.00     0.074 A 
ATOM     46  C   UNL A   1      37.971  33.413  34.110  1.00  0.00     0.031 C 
ATOM     47  C   UNL A   1      38.991  29.539  28.492  1.00  0.00     0.029 A 
ATOM     48  C   UNL A   1      39.920  29.315  29.596  1.00  0.00     0.049 A 
ATOM     49  H   UNL A   1      39.917  30.238  31.463  1.00  0.00     0.167 HD
ATOM     50  C   UNL A   1      39.867  32.355  35.300  1.00  0.00     0.037 A 
ATOM     51  C   UNL A   1      40.956  28.454  29.583  1.00  0.00     0.037 A 
ATOM     52  C   UNL A   1      40.935  31.398  35.412  1.00  0.00     0.049 A 
ATOM     53  C   UNL A   1      41.824  28.334  30.807  1.00  0.00     0.074 A 
ATOM     54  C   UNL A   1      41.748  31.135  36.501  1.00  0.00     0.029 A 
ATOM     55  N   UNL A   1      41.342  30.548  34.394  1.00  0.00    -0.354 N 
ATOM     56  N   UNL A   1      41.731  28.960  31.955  1.00  0.00    -0.248 NA
ATOM     57  C   UNL A   1      42.941  27.381  30.733  1.00  0.00     0.031 C 
ATOM     58  C   UNL A   1      42.681  30.166  36.124  1.00  0.00     0.029 A 
ATOM     59  C   UNL A   1      42.413  29.780  34.820  1.00  0.00     0.049 A 
ATOM     60  H   UNL A   1      40.930  30.497  33.501  1.00  0.00     0.167 HD
ATOM     61  C   UNL A   1      42.751  28.456  32.749  1.00  0.00     0.074 A 
ATOM     62  C   UNL A   1      43.445  27.462  31.956  1.00  0.00     0.031 C 
ATOM     63  C   UNL A   1      43.086  28.787  34.022  1.00  0.00     0.037 A 
BRANCH  50  64
ATOM     64  C   UNL A   1      39.611  33.276  36.460  1.00  0.00     0.064 A 
ATOM     65  C   UNL A   1      38.742  32.926  37.506  1.00  0.00     0.173 A 
ATOM     66  C   UNL A   1      40.267  34.513  36.542  1.00  0.00     0.173 A 
ATOM     67  F   UNL A   1      38.081  31.759  37.473  1.00  0.00    -0.203 F 
ATOM     68  C   UNL A   1      38.515  33.793  38.571  1.00  0.00     0.198 A 
ATOM     69  C   UNL A   1      40.063  35.364  37.625  1.00  0.00     0.198 A 
ATOM     70  F   UNL A   1      41.112  34.897  35.573  1.00  0.00    -0.203 F 
ATOM     71  F   UNL A   1      37.638  33.461  39.528  1.00  0.00    -0.200 F 
ATOM     72  C   UNL A   1      39.181  35.008  38.633  1.00  0.00     0.200 A 
ATOM     73  F   UNL A   1      40.719  36.531  37.692  1.00  0.00    -0.200 F 
ATOM     74  F   UNL A   1      38.965  35.839  39.663  1.00  0.00    -0.200 F 
ENDBRANCH  50  64
BRANCH  51  75
ATOM     75  C   UNL A   1      41.210  27.613  28.384  1.00  0.00     0.064 A 
ATOM     76  C   UNL A   1      42.093  28.040  27.381  1.00  0.00     0.173 A 
ATOM     77  C   UNL A   1      40.576  26.374  28.209  1.00  0.00     0.173 A 
ATOM     78  F   UNL A   1      42.706  29.228  27.493  1.00  0.00    -0.203 F 
ATOM     79  C   UNL A   1      42.316  27.273  26.240  1.00  0.00     0.198 A 
ATOM     80  C   UNL A   1      40.823  25.592  27.081  1.00  0.00     0.198 A 
ATOM     81  F   UNL A   1      39.725  25.917  29.137  1.00  0.00    -0.203 F 
ATOM     82  F   UNL A   1      43.126  27.729  25.277  1.00  0.00    -0.200 F 
ATOM     83  C   UNL A   1      41.685  26.046  26.094  1.00  0.00     0.200 A 
ATOM     84  F   UNL A   1      40.221  24.403  26.948  1.00  0.00    -0.200 F 
ATOM     85  F   UNL A   1      41.901  25.307  24.997  1.00  0.00    -0.200 F 
ENDBRANCH  51  75
BRANCH  63  86
ATOM     86  C   UNL A   1      44.225  28.040  34.652  1.00  0.00     0.064 A 
ATOM     87  C   UNL A   1      45.539  28.528  34.615  1.00  0.00     0.173 A 
ATOM     88  C   UNL A   1      43.991  26.838  35.339  1.00  0.00     0.173 A 
ATOM     89  F   UNL A   1      45.819  29.665  33.959  1.00  0.00    -0.203 F 
ATOM     90  C   UNL A   1      46.579  27.828  35.220  1.00  0.00     0.198 A 
ATOM     91  C   UNL A   1      45.027  26.159  35.970  1.00  0.00     0.198 A 
ATOM     92  F   UNL A   1      42.750  26.332  35.411  1.00  0.00    -0.203 F 
ATOM     93  F   UNL A   1      47.836  28.287  35.129  1.00  0.00    -0.200 F 
ATOM     94  C   UNL A   1      46.322  26.649  35.904  1.00  0.00     0.200 A 
ATOM     95  F   UNL A   1      44.773  25.029  36.645  1.00  0.00    -0.200 F 
ATOM     96  F   UNL A   1      47.323  25.982  36.493  1.00  0.00    -0.200 F 
ENDBRANCH  63  86
ENDBRANCH  37  38
ENDBRANCH  29  32
ENDBRANCH  27  28
ENDBRANCH  26  27
ENDBRANCH  25  26
ENDBRANCH   3  25
TORSDOF 17
ENDMDL
