MODEL 1
REMARK VINA RESULT:     -14.3      0.000      0.000
REMARK SMILES O=C(NCCCNC(=O)c1ccc(N2C(=O)C[C@H]([NH+]3CCN(c4ccc(F)cc4)CC3)C2=O)cc1)c1ccc(-c2c3nc(c(-c4c(F)c(F)c(F)c(F)c4F)c4ccc([nH]4)c(-c4c(F)c(F)c(F)c(F)c4F)c4nc(c(-c5c(F)c(F)c(F)c(F)c5F)c5ccc2[nH]5)C=C4)C=C3)cc1
REMARK SMILES IDX 5 1 4 2 3 3 1 4 2 5 36 7 37 8 98 9 38 10 97 11 39 12 40 13
REMARK SMILES IDX 41 14 91 15 42 16 96 17 90 18 92 19 43 20 95 21 89 22 88 23
REMARK SMILES IDX 44 25 76 26 56 27 75 28 57 29 60 30 74 31 93 32 58 33 59 34
REMARK SMILES IDX 73 36 94 37 61 38 45 39 46 40 54 41 47 42 48 43 52 44 55 45
REMARK SMILES IDX 49 46 50 47 53 48 51 49 77 50 78 51 86 52 79 53 80 54 84 55
REMARK SMILES IDX 87 56 81 57 82 58 85 59 83 60 62 61 63 62 71 63 64 64 65 65
REMARK SMILES IDX 69 66 72 67 66 68 67 69 70 70 68 71 6 72 7 73 8 74 9 76
REMARK SMILES IDX 10 77 11 78 35 79 12 80 34 81 13 82 14 83 15 84 32 85 16 86
REMARK SMILES IDX 17 87 18 88 33 89 19 90 20 91 31 92 21 94 30 95 22 96 23 97
REMARK SMILES IDX 24 98 29 99 25 100 28 101 26 102 27 103
REMARK H PARENT 3 6 92 24 60 35 7 75 19 93
REMARK Flexibility Score: inf
ROOT
ATOM      1  C   UNL A   1      31.041  32.170  26.154  1.00  0.00     0.042 C 
ENDROOT
BRANCH   1   2
ATOM      2  C   UNL A   1      32.273  32.550  26.961  1.00  0.00     0.118 C 
BRANCH   2   3
ATOM      3  N   UNL A   1      32.244  33.934  27.418  1.00  0.00    -0.352 N 
ATOM      4  O   UNL A   1      32.706  35.702  28.733  1.00  0.00    -0.269 OA
ATOM      5  C   UNL A   1      33.011  34.573  28.360  1.00  0.00     0.251 C 
ATOM      6  H   UNL A   1      31.566  34.500  26.982  1.00  0.00     0.163 HD
BRANCH   5   7
ATOM      7  C   UNL A   1      34.188  33.898  28.945  1.00  0.00     0.039 A 
ATOM      8  C   UNL A   1      34.035  32.771  29.755  1.00  0.00     0.014 A 
ATOM      9  C   UNL A   1      35.465  34.389  28.664  1.00  0.00     0.014 A 
ATOM     10  C   UNL A   1      35.134  32.244  30.421  1.00  0.00     0.010 A 
ATOM     11  C   UNL A   1      36.584  33.788  29.249  1.00  0.00     0.010 A 
ATOM     12  C   UNL A   1      36.423  32.734  30.161  1.00  0.00    -0.014 A 
BRANCH  12  13
ATOM     13  C   UNL A   1      37.593  32.086  30.807  1.00  0.00     0.031 A 
ATOM     14  C   UNL A   1      38.033  32.478  32.188  1.00  0.00     0.074 A 
ATOM     15  C   UNL A   1      38.249  31.121  30.133  1.00  0.00     0.049 A 
ATOM     16  N   UNL A   1      39.044  32.030  32.890  1.00  0.00    -0.248 NA
ATOM     17  C   UNL A   1      37.246  33.517  32.868  1.00  0.00     0.031 C 
ATOM     18  C   UNL A   1      37.913  30.660  28.785  1.00  0.00     0.029 A 
ATOM     19  N   UNL A   1      39.325  30.350  30.490  1.00  0.00    -0.354 N 
ATOM     20  C   UNL A   1      39.024  32.740  34.083  1.00  0.00     0.074 A 
ATOM     21  C   UNL A   1      37.922  33.674  33.997  1.00  0.00     0.031 C 
ATOM     22  C   UNL A   1      38.740  29.662  28.442  1.00  0.00     0.029 A 
ATOM     23  C   UNL A   1      39.708  29.463  29.514  1.00  0.00     0.049 A 
ATOM     24  H   UNL A   1      39.779  30.425  31.360  1.00  0.00     0.167 HD
ATOM     25  C   UNL A   1      39.850  32.617  35.151  1.00  0.00     0.037 A 
ATOM     26  C   UNL A   1      40.741  28.604  29.472  1.00  0.00     0.037 A 
ATOM     27  C   UNL A   1      40.941  31.678  35.227  1.00  0.00     0.049 A 
ATOM     28  C   UNL A   1      41.667  28.520  30.651  1.00  0.00     0.074 A 
ATOM     29  C   UNL A   1      41.814  31.451  36.278  1.00  0.00     0.029 A 
ATOM     30  N   UNL A   1      41.317  30.815  34.207  1.00  0.00    -0.354 N 
ATOM     31  N   UNL A   1      41.619  29.174  31.787  1.00  0.00    -0.248 NA
ATOM     32  C   UNL A   1      42.789  27.581  30.543  1.00  0.00     0.031 C 
ATOM     33  C   UNL A   1      42.753  30.497  35.871  1.00  0.00     0.029 A 
ATOM     34  C   UNL A   1      42.426  30.077  34.592  1.00  0.00     0.049 A 
ATOM     35  H   UNL A   1      40.862  30.738  33.336  1.00  0.00     0.167 HD
ATOM     36  C   UNL A   1      42.688  28.707  32.539  1.00  0.00     0.074 A 
ATOM     37  C   UNL A   1      43.356  27.704  31.735  1.00  0.00     0.031 C 
ATOM     38  C   UNL A   1      43.079  29.078  33.783  1.00  0.00     0.037 A 
BRANCH  25  39
ATOM     39  C   UNL A   1      39.624  33.537  36.318  1.00  0.00     0.064 A 
ATOM     40  C   UNL A   1      40.190  34.822  36.371  1.00  0.00     0.173 A 
ATOM     41  C   UNL A   1      38.799  33.144  37.384  1.00  0.00     0.173 A 
ATOM     42  F   UNL A   1      40.994  35.246  35.386  1.00  0.00    -0.203 F 
ATOM     43  C   UNL A   1      39.964  35.661  37.460  1.00  0.00     0.198 A 
ATOM     44  C   UNL A   1      38.548  33.998  38.454  1.00  0.00     0.198 A 
ATOM     45  F   UNL A   1      38.225  31.931  37.382  1.00  0.00    -0.203 F 
ATOM     46  F   UNL A   1      40.557  36.861  37.512  1.00  0.00    -0.200 F 
ATOM     47  C   UNL A   1      39.138  35.252  38.497  1.00  0.00     0.200 A 
ATOM     48  F   UNL A   1      37.737  33.608  39.447  1.00  0.00    -0.200 F 
ATOM     49  F   UNL A   1      38.917  36.064  39.539  1.00  0.00    -0.200 F 
ENDBRANCH  25  39
BRANCH  26  50
ATOM     50  C   UNL A   1      40.952  27.767  28.263  1.00  0.00     0.064 A 
ATOM     51  C   UNL A   1      41.742  28.221  27.199  1.00  0.00     0.173 A 
ATOM     52  C   UNL A   1      40.381  26.490  28.154  1.00  0.00     0.173 A 
ATOM     53  F   UNL A   1      42.294  29.441  27.248  1.00  0.00    -0.203 F 
ATOM     54  C   UNL A   1      41.941  27.435  26.066  1.00  0.00     0.198 A 
ATOM     55  C   UNL A   1      40.609  25.691  27.036  1.00  0.00     0.198 A 
ATOM     56  F   UNL A   1      39.623  26.005  29.150  1.00  0.00    -0.203 F 
ATOM     57  F   UNL A   1      42.667  27.910  25.044  1.00  0.00    -0.200 F 
ATOM     58  C   UNL A   1      41.381  26.168  25.989  1.00  0.00     0.200 A 
ATOM     59  F   UNL A   1      40.083  24.461  26.976  1.00  0.00    -0.200 F 
ATOM     60  F   UNL A   1      41.583  25.409  24.903  1.00  0.00    -0.200 F 
ENDBRANCH  26  50
BRANCH  38  61
ATOM     61  C   UNL A   1      44.262  28.362  34.371  1.00  0.00     0.064 A 
ATOM     62  C   UNL A   1      44.116  27.188  35.126  1.00  0.00     0.173 A 
ATOM     63  C   UNL A   1      45.562  28.841  34.145  1.00  0.00     0.173 A 
ATOM     64  F   UNL A   1      42.895  26.698  35.385  1.00  0.00    -0.203 F 
ATOM     65  C   UNL A   1      45.227  26.538  35.657  1.00  0.00     0.198 A 
ATOM     66  C   UNL A   1      46.671  28.169  34.648  1.00  0.00     0.198 A 
ATOM     67  F   UNL A   1      45.755  29.957  33.426  1.00  0.00    -0.203 F 
ATOM     68  F   UNL A   1      45.061  25.449  36.420  1.00  0.00    -0.200 F 
ATOM     69  C   UNL A   1      46.503  27.023  35.411  1.00  0.00     0.200 A 
ATOM     70  F   UNL A   1      47.903  28.631  34.397  1.00  0.00    -0.200 F 
ATOM     71  F   UNL A   1      47.571  26.391  35.916  1.00  0.00    -0.200 F 
ENDBRANCH  38  61
ENDBRANCH  12  13
ENDBRANCH   5   7
ENDBRANCH   2   3
ENDBRANCH   1   2
BRANCH   1  72
ATOM     72  C   UNL A   1      31.161  30.824  25.454  1.00  0.00     0.118 C 
BRANCH  72  73
ATOM     73  N   UNL A   1      30.229  30.707  24.341  1.00  0.00    -0.352 N 
ATOM     74  C   UNL A   1      30.214  29.794  23.319  1.00  0.00     0.251 C 
ATOM     75  H   UNL A   1      29.508  31.377  24.320  1.00  0.00     0.163 HD
ATOM     76  O   UNL A   1      29.503  29.968  22.336  1.00  0.00    -0.269 OA
BRANCH  74  77
ATOM     77  C   UNL A   1      31.064  28.595  23.413  1.00  0.00     0.039 A 
ATOM     78  C   UNL A   1      32.300  28.583  22.768  1.00  0.00     0.016 A 
ATOM     79  C   UNL A   1      30.623  27.477  24.123  1.00  0.00     0.016 A 
ATOM     80  C   UNL A   1      33.131  27.466  22.896  1.00  0.00     0.027 A 
ATOM     81  C   UNL A   1      31.447  26.358  24.228  1.00  0.00     0.027 A 
ATOM     82  C   UNL A   1      32.712  26.340  23.622  1.00  0.00     0.052 A 
BRANCH  82  83
ATOM     83  N   UNL A   1      33.531  25.191  23.712  1.00  0.00    -0.245 N 
ATOM     84  C   UNL A   1      33.426  24.121  22.856  1.00  0.00     0.240 C 
ATOM     85  C   UNL A   1      34.517  25.009  24.659  1.00  0.00     0.292 C 
ATOM     86  O   UNL A   1      32.624  23.934  21.957  1.00  0.00    -0.274 OA
ATOM     87  C   UNL A   1      34.559  23.186  23.118  1.00  0.00     0.176 C 
ATOM     88  C   UNL A   1      35.096  23.605  24.474  1.00  0.00     0.284 C 
ATOM     89  O   UNL A   1      34.844  25.777  25.556  1.00  0.00    -0.267 OA
BRANCH  88  90
ATOM     90  N   UNL A   1      34.840  22.747  25.645  1.00  0.00    -0.321 N 
ATOM     91  C   UNL A   1      33.467  22.247  25.848  1.00  0.00     0.284 C 
ATOM     92  C   UNL A   1      35.801  21.635  25.801  1.00  0.00     0.284 C 
ATOM     93  H   UNL A   1      34.984  23.432  26.387  1.00  0.00     0.348 HD
ATOM     94  C   UNL A   1      33.061  21.002  25.029  1.00  0.00     0.178 C 
ATOM     95  C   UNL A   1      35.498  20.336  25.017  1.00  0.00     0.178 C 
ATOM     96  N   UNL A   1      34.083  19.959  25.131  1.00  0.00    -0.360 N 
BRANCH  96  97
ATOM     97  C   UNL A   1      33.721  18.631  25.011  1.00  0.00     0.037 A 
ATOM     98  C   UNL A   1      32.627  18.086  25.701  1.00  0.00     0.029 A 
ATOM     99  C   UNL A   1      34.500  17.767  24.226  1.00  0.00     0.029 A 
ATOM    100  C   UNL A   1      32.334  16.720  25.622  1.00  0.00     0.041 A 
ATOM    101  C   UNL A   1      34.222  16.402  24.154  1.00  0.00     0.041 A 
ATOM    102  C   UNL A   1      33.142  15.890  24.857  1.00  0.00     0.123 A 
ATOM    103  F   UNL A   1      32.882  14.578  24.803  1.00  0.00    -0.207 F 
ENDBRANCH  96  97
ENDBRANCH  88  90
ENDBRANCH  82  83
ENDBRANCH  74  77
ENDBRANCH  72  73
ENDBRANCH   1  72
TORSDOF 13
ENDMDL
MODEL 2
REMARK VINA RESULT:     -14.2      0.168      1.866
REMARK SMILES O=C(NCCCNC(=O)c1ccc(N2C(=O)C[C@H]([NH+]3CCN(c4ccc(F)cc4)CC3)C2=O)cc1)c1ccc(-c2c3nc(c(-c4c(F)c(F)c(F)c(F)c4F)c4ccc([nH]4)c(-c4c(F)c(F)c(F)c(F)c4F)c4nc(c(-c5c(F)c(F)c(F)c(F)c5F)c5ccc2[nH]5)C=C4)C=C3)cc1
REMARK SMILES IDX 5 1 4 2 3 3 1 4 2 5 36 7 37 8 98 9 38 10 97 11 39 12 40 13
REMARK SMILES IDX 41 14 91 15 42 16 96 17 90 18 92 19 43 20 95 21 89 22 88 23
REMARK SMILES IDX 44 25 76 26 56 27 75 28 57 29 60 30 74 31 93 32 58 33 59 34
REMARK SMILES IDX 73 36 94 37 61 38 45 39 46 40 54 41 47 42 48 43 52 44 55 45
REMARK SMILES IDX 49 46 50 47 53 48 51 49 77 50 78 51 86 52 79 53 80 54 84 55
REMARK SMILES IDX 87 56 81 57 82 58 85 59 83 60 62 61 63 62 71 63 64 64 65 65
REMARK SMILES IDX 69 66 72 67 66 68 67 69 70 70 68 71 6 72 7 73 8 74 9 76
REMARK SMILES IDX 10 77 11 78 35 79 12 80 34 81 13 82 14 83 15 84 32 85 16 86
REMARK SMILES IDX 17 87 18 88 33 89 19 90 20 91 31 92 21 94 30 95 22 96 23 97
REMARK SMILES IDX 24 98 29 99 25 100 28 101 26 102 27 103
REMARK H PARENT 3 6 92 24 60 35 7 75 19 93
REMARK Flexibility Score: inf
ROOT
ATOM      1  C   UNL A   1      31.045  32.169  26.285  1.00  0.00     0.042 C 
ENDROOT
BRANCH   1   2
ATOM      2  C   UNL A   1      32.287  32.556  27.073  1.00  0.00     0.118 C 
BRANCH   2   3
ATOM      3  N   UNL A   1      32.279  33.952  27.491  1.00  0.00    -0.352 N 
ATOM      4  O   UNL A   1      32.771  35.750  28.755  1.00  0.00    -0.269 OA
ATOM      5  C   UNL A   1      33.058  34.607  28.413  1.00  0.00     0.251 C 
ATOM      6  H   UNL A   1      31.609  34.515  27.041  1.00  0.00     0.163 HD
BRANCH   5   7
ATOM      7  C   UNL A   1      34.226  33.930  29.015  1.00  0.00     0.039 A 
ATOM      8  C   UNL A   1      34.061  32.810  29.830  1.00  0.00     0.014 A 
ATOM      9  C   UNL A   1      35.509  34.415  28.744  1.00  0.00     0.014 A 
ATOM     10  C   UNL A   1      35.151  32.283  30.511  1.00  0.00     0.010 A 
ATOM     11  C   UNL A   1      36.619  33.814  29.345  1.00  0.00     0.010 A 
ATOM     12  C   UNL A   1      36.445  32.767  30.262  1.00  0.00    -0.014 A 
BRANCH  12  13
ATOM     13  C   UNL A   1      37.605  32.118  30.923  1.00  0.00     0.031 A 
ATOM     14  C   UNL A   1      38.022  32.506  32.313  1.00  0.00     0.074 A 
ATOM     15  C   UNL A   1      38.275  31.158  30.257  1.00  0.00     0.049 A 
ATOM     16  N   UNL A   1      39.022  32.057  33.030  1.00  0.00    -0.248 NA
ATOM     17  C   UNL A   1      37.222  33.540  32.984  1.00  0.00     0.031 C 
ATOM     18  C   UNL A   1      37.961  30.701  28.901  1.00  0.00     0.029 A 
ATOM     19  N   UNL A   1      39.346  30.388  30.628  1.00  0.00    -0.354 N 
ATOM     20  C   UNL A   1      38.982  32.762  34.225  1.00  0.00     0.074 A 
ATOM     21  C   UNL A   1      37.878  33.694  34.125  1.00  0.00     0.031 C 
ATOM     22  C   UNL A   1      38.796  29.707  28.568  1.00  0.00     0.029 A 
ATOM     23  C   UNL A   1      39.747  29.505  29.655  1.00  0.00     0.049 A 
ATOM     24  H   UNL A   1      39.786  30.460  31.505  1.00  0.00     0.167 HD
ATOM     25  C   UNL A   1      39.790  32.636  35.306  1.00  0.00     0.037 A 
ATOM     26  C   UNL A   1      40.783  28.649  29.626  1.00  0.00     0.037 A 
ATOM     27  C   UNL A   1      40.882  31.700  35.396  1.00  0.00     0.049 A 
ATOM     28  C   UNL A   1      41.690  28.562  30.820  1.00  0.00     0.074 A 
ATOM     29  C   UNL A   1      41.738  31.470  36.460  1.00  0.00     0.029 A 
ATOM     30  N   UNL A   1      41.276  30.842  34.378  1.00  0.00    -0.354 N 
ATOM     31  N   UNL A   1      41.622  29.211  31.957  1.00  0.00    -0.248 NA
ATOM     32  C   UNL A   1      42.816  27.626  30.726  1.00  0.00     0.031 C 
ATOM     33  C   UNL A   1      42.685  30.520  36.065  1.00  0.00     0.029 A 
ATOM     34  C   UNL A   1      42.380  30.104  34.779  1.00  0.00     0.049 A 
ATOM     35  H   UNL A   1      40.836  30.767  33.500  1.00  0.00     0.167 HD
ATOM     36  C   UNL A   1      42.680  28.744  32.725  1.00  0.00     0.074 A 
ATOM     37  C   UNL A   1      43.363  27.746  31.928  1.00  0.00     0.031 C 
ATOM     38  C   UNL A   1      43.049  29.111  33.977  1.00  0.00     0.037 A 
BRANCH  25  39
ATOM     39  C   UNL A   1      39.543  33.552  36.473  1.00  0.00     0.064 A 
ATOM     40  C   UNL A   1      38.737  33.172  37.558  1.00  0.00     0.173 A 
ATOM     41  C   UNL A   1      40.152  34.816  36.524  1.00  0.00     0.173 A 
ATOM     42  F   UNL A   1      38.124  31.980  37.558  1.00  0.00    -0.203 F 
ATOM     43  C   UNL A   1      38.526  34.034  38.632  1.00  0.00     0.198 A 
ATOM     44  C   UNL A   1      39.965  35.662  37.614  1.00  0.00     0.198 A 
ATOM     45  F   UNL A   1      40.940  35.229  35.519  1.00  0.00    -0.203 F 
ATOM     46  F   UNL A   1      37.710  33.669  39.630  1.00  0.00    -0.200 F 
ATOM     47  C   UNL A   1      39.145  35.275  38.663  1.00  0.00     0.200 A 
ATOM     48  F   UNL A   1      40.578  36.854  37.650  1.00  0.00    -0.200 F 
ATOM     49  F   UNL A   1      38.945  36.100  39.699  1.00  0.00    -0.200 F 
ENDBRANCH  25  39
BRANCH  26  50
ATOM     50  C   UNL A   1      41.015  27.818  28.417  1.00  0.00     0.064 A 
ATOM     51  C   UNL A   1      40.407  26.564  28.275  1.00  0.00     0.173 A 
ATOM     52  C   UNL A   1      41.837  28.268  27.372  1.00  0.00     0.173 A 
ATOM     53  F   UNL A   1      39.628  26.083  29.253  1.00  0.00    -0.203 F 
ATOM     54  C   UNL A   1      40.623  25.785  27.140  1.00  0.00     0.198 A 
ATOM     55  C   UNL A   1      42.025  27.503  26.223  1.00  0.00     0.198 A 
ATOM     56  F   UNL A   1      42.436  29.465  27.456  1.00  0.00    -0.203 F 
ATOM     57  F   UNL A   1      40.063  24.571  27.047  1.00  0.00    -0.200 F 
ATOM     58  C   UNL A   1      41.426  26.259  26.111  1.00  0.00     0.200 A 
ATOM     59  F   UNL A   1      42.784  27.974  25.224  1.00  0.00    -0.200 F 
ATOM     60  F   UNL A   1      41.623  25.513  25.016  1.00  0.00    -0.200 F 
ENDBRANCH  26  50
BRANCH  38  61
ATOM     61  C   UNL A   1      44.224  28.395  34.580  1.00  0.00     0.064 A 
ATOM     62  C   UNL A   1      45.530  28.893  34.469  1.00  0.00     0.173 A 
ATOM     63  C   UNL A   1      44.032  27.211  35.309  1.00  0.00     0.173 A 
ATOM     64  F   UNL A   1      45.771  30.011  33.769  1.00  0.00    -0.203 F 
ATOM     65  C   UNL A   1      46.604  28.215  35.041  1.00  0.00     0.198 A 
ATOM     66  C   UNL A   1      45.103  26.556  35.909  1.00  0.00     0.198 A 
ATOM     67  F   UNL A   1      42.801  26.695  35.449  1.00  0.00    -0.203 F 
ATOM     68  F   UNL A   1      47.850  28.680  34.877  1.00  0.00    -0.200 F 
ATOM     69  C   UNL A   1      46.389  27.054  35.768  1.00  0.00     0.200 A 
ATOM     70  F   UNL A   1      44.890  25.441  36.622  1.00  0.00    -0.200 F 
ATOM     71  F   UNL A   1      47.423  26.408  36.324  1.00  0.00    -0.200 F 
ENDBRANCH  38  61
ENDBRANCH  12  13
ENDBRANCH   5   7
ENDBRANCH   2   3
ENDBRANCH   1   2
BRANCH   1  72
ATOM     72  C   UNL A   1      31.182  30.851  25.538  1.00  0.00     0.118 C 
BRANCH  72  73
ATOM     73  N   UNL A   1      30.259  30.766  24.414  1.00  0.00    -0.352 N 
ATOM     74  C   UNL A   1      30.245  29.874  23.374  1.00  0.00     0.251 C 
ATOM     75  H   UNL A   1      29.545  31.444  24.400  1.00  0.00     0.163 HD
ATOM     76  O   UNL A   1      29.545  30.076  22.387  1.00  0.00    -0.269 OA
BRANCH  74  77
ATOM     77  C   UNL A   1      31.083  28.666  23.450  1.00  0.00     0.039 A 
ATOM     78  C   UNL A   1      32.309  28.642  22.788  1.00  0.00     0.016 A 
ATOM     79  C   UNL A   1      30.639  27.549  24.160  1.00  0.00     0.016 A 
ATOM     80  C   UNL A   1      33.129  27.515  22.899  1.00  0.00     0.027 A 
ATOM     81  C   UNL A   1      31.450  26.421  24.249  1.00  0.00     0.027 A 
ATOM     82  C   UNL A   1      32.707  26.391  23.626  1.00  0.00     0.052 A 
BRANCH  82  83
ATOM     83  N   UNL A   1      33.514  25.232  23.700  1.00  0.00    -0.245 N 
ATOM     84  C   UNL A   1      33.378  24.163  22.847  1.00  0.00     0.240 C 
ATOM     85  C   UNL A   1      34.517  25.038  24.626  1.00  0.00     0.292 C 
ATOM     86  O   UNL A   1      32.556  23.986  21.964  1.00  0.00    -0.274 OA
ATOM     87  C   UNL A   1      34.505  23.215  23.085  1.00  0.00     0.176 C 
ATOM     88  C   UNL A   1      35.075  23.628  24.429  1.00  0.00     0.284 C 
ATOM     89  O   UNL A   1      34.872  25.802  25.515  1.00  0.00    -0.267 OA
BRANCH  88  90
ATOM     90  N   UNL A   1      34.833  22.773  25.606  1.00  0.00    -0.321 N 
ATOM     91  C   UNL A   1      33.462  22.277  25.830  1.00  0.00     0.284 C 
ATOM     92  C   UNL A   1      35.793  21.659  25.751  1.00  0.00     0.284 C 
ATOM     93  H   UNL A   1      34.989  23.459  26.344  1.00  0.00     0.348 HD
ATOM     94  C   UNL A   1      33.041  21.031  25.019  1.00  0.00     0.178 C 
ATOM     95  C   UNL A   1      35.476  20.359  24.975  1.00  0.00     0.178 C 
ATOM     96  N   UNL A   1      34.062  19.986  25.109  1.00  0.00    -0.360 N 
BRANCH  96  97
ATOM     97  C   UNL A   1      33.695  18.658  24.997  1.00  0.00     0.037 A 
ATOM     98  C   UNL A   1      32.617  18.114  25.712  1.00  0.00     0.029 A 
ATOM     99  C   UNL A   1      34.453  17.794  24.193  1.00  0.00     0.029 A 
ATOM    100  C   UNL A   1      32.320  16.750  25.640  1.00  0.00     0.041 A 
ATOM    101  C   UNL A   1      34.171  16.429  24.127  1.00  0.00     0.041 A 
ATOM    102  C   UNL A   1      33.108  15.919  24.855  1.00  0.00     0.123 A 
ATOM    103  F   UNL A   1      32.844  14.607  24.808  1.00  0.00    -0.207 F 
ENDBRANCH  96  97
ENDBRANCH  88  90
ENDBRANCH  82  83
ENDBRANCH  74  77
ENDBRANCH  72  73
ENDBRANCH   1  72
TORSDOF 13
ENDMDL
MODEL 3
REMARK VINA RESULT:     -14.2      0.313      7.078
REMARK SMILES O=C(NCCCNC(=O)c1ccc(N2C(=O)C[C@H]([NH+]3CCN(c4ccc(F)cc4)CC3)C2=O)cc1)c1ccc(-c2c3nc(c(-c4c(F)c(F)c(F)c(F)c4F)c4ccc([nH]4)c(-c4c(F)c(F)c(F)c(F)c4F)c4nc(c(-c5c(F)c(F)c(F)c(F)c5F)c5ccc2[nH]5)C=C4)C=C3)cc1
REMARK SMILES IDX 5 1 4 2 3 3 1 4 2 5 36 7 37 8 98 9 38 10 97 11 39 12 40 13
REMARK SMILES IDX 41 14 91 15 42 16 96 17 90 18 92 19 43 20 95 21 89 22 88 23
REMARK SMILES IDX 44 25 76 26 56 27 75 28 57 29 60 30 74 31 93 32 58 33 59 34
REMARK SMILES IDX 73 36 94 37 61 38 45 39 46 40 54 41 47 42 48 43 52 44 55 45
REMARK SMILES IDX 49 46 50 47 53 48 51 49 77 50 78 51 86 52 79 53 80 54 84 55
REMARK SMILES IDX 87 56 81 57 82 58 85 59 83 60 62 61 63 62 71 63 64 64 65 65
REMARK SMILES IDX 69 66 72 67 66 68 67 69 70 70 68 71 6 72 7 73 8 74 9 76
REMARK SMILES IDX 10 77 11 78 35 79 12 80 34 81 13 82 14 83 15 84 32 85 16 86
REMARK SMILES IDX 17 87 18 88 33 89 19 90 20 91 31 92 21 94 30 95 22 96 23 97
REMARK SMILES IDX 24 98 29 99 25 100 28 101 26 102 27 103
REMARK H PARENT 3 6 92 24 60 35 7 75 19 93
REMARK Flexibility Score: inf
ROOT
ATOM      1  C   UNL A   1      31.040  32.026  26.152  1.00  0.00     0.042 C 
ENDROOT
BRANCH   1   2
ATOM      2  C   UNL A   1      32.272  32.463  26.928  1.00  0.00     0.118 C 
BRANCH   2   3
ATOM      3  N   UNL A   1      32.197  33.848  27.375  1.00  0.00    -0.352 N 
ATOM      4  O   UNL A   1      32.596  35.640  28.679  1.00  0.00    -0.269 OA
ATOM      5  C   UNL A   1      32.939  34.519  28.316  1.00  0.00     0.251 C 
ATOM      6  H   UNL A   1      31.504  34.389  26.932  1.00  0.00     0.163 HD
BRANCH   5   7
ATOM      7  C   UNL A   1      34.133  33.885  28.912  1.00  0.00     0.039 A 
ATOM      8  C   UNL A   1      34.018  32.727  29.683  1.00  0.00     0.014 A 
ATOM      9  C   UNL A   1      35.391  34.448  28.682  1.00  0.00     0.014 A 
ATOM     10  C   UNL A   1      35.125  32.235  30.362  1.00  0.00     0.010 A 
ATOM     11  C   UNL A   1      36.523  33.887  29.278  1.00  0.00     0.010 A 
ATOM     12  C   UNL A   1      36.393  32.797  30.153  1.00  0.00    -0.014 A 
BRANCH  12  13
ATOM     13  C   UNL A   1      37.577  32.189  30.810  1.00  0.00     0.031 A 
ATOM     14  C   UNL A   1      38.388  31.129  30.122  1.00  0.00     0.074 A 
ATOM     15  C   UNL A   1      37.925  32.617  32.040  1.00  0.00     0.049 A 
ATOM     16  N   UNL A   1      39.437  30.478  30.559  1.00  0.00    -0.248 NA
ATOM     17  C   UNL A   1      37.962  30.738  28.770  1.00  0.00     0.031 C 
ATOM     18  C   UNL A   1      37.210  33.640  32.807  1.00  0.00     0.029 A 
ATOM     19  N   UNL A   1      38.966  32.258  32.855  1.00  0.00    -0.354 N 
ATOM     20  C   UNL A   1      39.786  29.593  29.548  1.00  0.00     0.074 A 
ATOM     21  C   UNL A   1      38.816  29.765  28.487  1.00  0.00     0.031 C 
ATOM     22  C   UNL A   1      37.853  33.852  33.964  1.00  0.00     0.029 A 
ATOM     23  C   UNL A   1      38.981  32.932  34.052  1.00  0.00     0.049 A 
ATOM     24  H   UNL A   1      39.638  31.582  32.609  1.00  0.00     0.167 HD
ATOM     25  C   UNL A   1      40.824  28.721  29.511  1.00  0.00     0.037 A 
ATOM     26  C   UNL A   1      39.793  32.806  35.116  1.00  0.00     0.037 A 
ATOM     27  C   UNL A   1      41.786  28.563  30.572  1.00  0.00     0.049 A 
ATOM     28  C   UNL A   1      40.907  31.800  35.065  1.00  0.00     0.074 A 
ATOM     29  C   UNL A   1      42.894  27.733  30.617  1.00  0.00     0.029 A 
ATOM     30  N   UNL A   1      41.752  29.243  31.782  1.00  0.00    -0.354 N 
ATOM     31  N   UNL A   1      41.247  30.992  34.090  1.00  0.00    -0.248 NA
ATOM     32  C   UNL A   1      41.750  31.690  36.261  1.00  0.00     0.031 C 
ATOM     33  C   UNL A   1      43.492  27.866  31.874  1.00  0.00     0.029 A 
ATOM     34  C   UNL A   1      42.800  28.830  32.590  1.00  0.00     0.049 A 
ATOM     35  H   UNL A   1      41.081  29.921  32.030  1.00  0.00     0.167 HD
ATOM     36  C   UNL A   1      42.358  30.294  34.544  1.00  0.00     0.074 A 
ATOM     37  C   UNL A   1      42.643  30.788  35.876  1.00  0.00     0.031 C 
ATOM     38  C   UNL A   1      43.075  29.333  33.913  1.00  0.00     0.037 A 
BRANCH  25  39
ATOM     39  C   UNL A   1      40.960  27.849  28.294  1.00  0.00     0.064 A 
ATOM     40  C   UNL A   1      40.320  26.603  28.198  1.00  0.00     0.173 A 
ATOM     41  C   UNL A   1      41.713  28.282  27.191  1.00  0.00     0.173 A 
ATOM     42  F   UNL A   1      39.596  26.135  29.225  1.00  0.00    -0.203 F 
ATOM     43  C   UNL A   1      40.455  25.812  27.059  1.00  0.00     0.198 A 
ATOM     44  C   UNL A   1      41.818  27.504  26.041  1.00  0.00     0.198 A 
ATOM     45  F   UNL A   1      42.339  29.468  27.223  1.00  0.00    -0.203 F 
ATOM     46  F   UNL A   1      39.878  24.604  27.013  1.00  0.00    -0.200 F 
ATOM     47  C   UNL A   1      41.198  26.266  25.979  1.00  0.00     0.200 A 
ATOM     48  F   UNL A   1      42.522  27.952  24.992  1.00  0.00    -0.200 F 
ATOM     49  F   UNL A   1      41.321  25.506  24.882  1.00  0.00    -0.200 F 
ENDBRANCH  25  39
BRANCH  26  50
ATOM     50  C   UNL A   1      39.567  33.650  36.316  1.00  0.00     0.064 A 
ATOM     51  C   UNL A   1      40.108  34.939  36.406  1.00  0.00     0.173 A 
ATOM     52  C   UNL A   1      38.791  33.191  37.392  1.00  0.00     0.173 A 
ATOM     53  F   UNL A   1      40.870  35.415  35.411  1.00  0.00    -0.203 F 
ATOM     54  C   UNL A   1      39.895  35.731  37.531  1.00  0.00     0.198 A 
ATOM     55  C   UNL A   1      38.551  33.997  38.502  1.00  0.00     0.198 A 
ATOM     56  F   UNL A   1      38.244  31.967  37.353  1.00  0.00    -0.203 F 
ATOM     57  F   UNL A   1      40.458  36.944  37.610  1.00  0.00    -0.200 F 
ATOM     58  C   UNL A   1      39.110  35.263  38.575  1.00  0.00     0.200 A 
ATOM     59  F   UNL A   1      37.775  33.548  39.498  1.00  0.00    -0.200 F 
ATOM     60  F   UNL A   1      38.896  36.031  39.652  1.00  0.00    -0.200 F 
ENDBRANCH  26  50
BRANCH  38  61
ATOM     61  C   UNL A   1      44.267  28.780  34.640  1.00  0.00     0.064 A 
ATOM     62  C   UNL A   1      45.530  29.386  34.558  1.00  0.00     0.173 A 
ATOM     63  C   UNL A   1      44.134  27.647  35.458  1.00  0.00     0.173 A 
ATOM     64  F   UNL A   1      45.715  30.460  33.777  1.00  0.00    -0.203 F 
ATOM     65  C   UNL A   1      46.621  28.859  35.245  1.00  0.00     0.198 A 
ATOM     66  C   UNL A   1      45.219  27.145  36.171  1.00  0.00     0.198 A 
ATOM     67  F   UNL A   1      42.947  27.034  35.575  1.00  0.00    -0.203 F 
ATOM     68  F   UNL A   1      47.830  29.422  35.109  1.00  0.00    -0.200 F 
ATOM     69  C   UNL A   1      46.464  27.747  36.057  1.00  0.00     0.200 A 
ATOM     70  F   UNL A   1      45.061  26.078  36.966  1.00  0.00    -0.200 F 
ATOM     71  F   UNL A   1      47.513  27.247  36.723  1.00  0.00    -0.200 F 
ENDBRANCH  38  61
ENDBRANCH  12  13
ENDBRANCH   5   7
ENDBRANCH   2   3
ENDBRANCH   1   2
BRANCH   1  72
ATOM     72  C   UNL A   1      31.208  30.691  25.440  1.00  0.00     0.118 C 
BRANCH  72  73
ATOM     73  N   UNL A   1      30.330  30.579  24.284  1.00  0.00    -0.352 N 
ATOM     74  C   UNL A   1      30.375  29.683  23.248  1.00  0.00     0.251 C 
ATOM     75  H   UNL A   1      29.601  31.240  24.240  1.00  0.00     0.163 HD
ATOM     76  O   UNL A   1      29.708  29.864  22.235  1.00  0.00    -0.269 OA
BRANCH  74  77
ATOM     77  C   UNL A   1      31.238  28.495  23.363  1.00  0.00     0.039 A 
ATOM     78  C   UNL A   1      30.779  27.384  24.069  1.00  0.00     0.016 A 
ATOM     79  C   UNL A   1      32.509  28.494  22.788  1.00  0.00     0.016 A 
ATOM     80  C   UNL A   1      31.574  26.236  24.138  1.00  0.00     0.027 A 
ATOM     81  C   UNL A   1      33.307  27.355  22.878  1.00  0.00     0.027 A 
ATOM     82  C   UNL A   1      32.848  26.211  23.549  1.00  0.00     0.052 A 
BRANCH  82  83
ATOM     83  N   UNL A   1      33.673  25.068  23.658  1.00  0.00    -0.245 N 
ATOM     84  C   UNL A   1      33.582  23.989  22.812  1.00  0.00     0.240 C 
ATOM     85  C   UNL A   1      34.653  24.902  24.614  1.00  0.00     0.292 C 
ATOM     86  O   UNL A   1      32.789  23.787  21.908  1.00  0.00    -0.274 OA
ATOM     87  C   UNL A   1      34.720  23.064  23.092  1.00  0.00     0.176 C 
ATOM     88  C   UNL A   1      35.243  23.501  24.448  1.00  0.00     0.284 C 
ATOM     89  O   UNL A   1      34.967  25.682  25.506  1.00  0.00    -0.267 OA
BRANCH  88  90
ATOM     90  N   UNL A   1      34.983  22.653  25.626  1.00  0.00    -0.321 N 
ATOM     91  C   UNL A   1      33.602  22.185  25.849  1.00  0.00     0.284 C 
ATOM     92  C   UNL A   1      35.921  21.521  25.773  1.00  0.00     0.284 C 
ATOM     93  H   UNL A   1      35.153  23.337  26.363  1.00  0.00     0.348 HD
ATOM     94  C   UNL A   1      33.157  20.946  25.041  1.00  0.00     0.178 C 
ATOM     95  C   UNL A   1      35.578  20.226  24.999  1.00  0.00     0.178 C 
ATOM     96  N   UNL A   1      34.157  19.881  25.133  1.00  0.00    -0.360 N 
BRANCH  96  97
ATOM     97  C   UNL A   1      33.763  18.561  25.023  1.00  0.00     0.037 A 
ATOM     98  C   UNL A   1      32.631  18.057  25.682  1.00  0.00     0.029 A 
ATOM     99  C   UNL A   1      34.545  17.663  24.281  1.00  0.00     0.029 A 
ATOM    100  C   UNL A   1      32.304  16.699  25.616  1.00  0.00     0.041 A 
ATOM    101  C   UNL A   1      34.233  16.304  24.222  1.00  0.00     0.041 A 
ATOM    102  C   UNL A   1      33.116  15.834  24.895  1.00  0.00     0.123 A 
ATOM    103  F   UNL A   1      32.822  14.529  24.855  1.00  0.00    -0.207 F 
ENDBRANCH  96  97
ENDBRANCH  88  90
ENDBRANCH  82  83
ENDBRANCH  74  77
ENDBRANCH  72  73
ENDBRANCH   1  72
TORSDOF 13
ENDMDL
