MODEL 1
REMARK VINA RESULT:     -12.4      0.000      0.000
REMARK SMILES C[C@@H](C(=O)NCCCNC(=O)c1ccc(-c2c3nc(c(-c4c(F)c(F)c(F)c(F)c4F)c4ccc([nH]4)c(-c4c(F)c(F)c(F)c(F)c4F)c4nc(c(-c5c(F)c(F)c(F)c(F)c5F)c5ccc2[nH]5)C=C4)C=C3)cc1)c1ccc(C[C@@H]2CCC[C@@H]2O)cc1F
REMARK SMILES IDX 6 1 5 2 3 3 4 4 2 6 1 7 75 8 76 9 87 10 77 11 86 12 88 13
REMARK SMILES IDX 78 14 79 15 80 16 81 17 84 18 82 19 83 20 85 21 7 23 8 24
REMARK SMILES IDX 9 25 10 26 11 28 12 29 13 30 74 31 14 32 73 33 15 34 16 35
REMARK SMILES IDX 17 36 67 37 18 38 72 39 66 40 68 41 19 42 71 43 65 44 64 45
REMARK SMILES IDX 20 47 52 48 32 49 51 50 33 51 36 52 50 53 69 54 34 55 35 56
REMARK SMILES IDX 49 58 70 59 37 60 21 61 22 62 30 63 23 64 24 65 28 66 31 67
REMARK SMILES IDX 25 68 26 69 29 70 27 71 53 72 54 73 62 74 55 75 56 76 60 77
REMARK SMILES IDX 63 78 57 79 58 80 61 81 59 82 38 83 39 84 47 85 40 86 41 87
REMARK SMILES IDX 45 88 48 89 42 90 43 91 46 92 44 93
REMARK H PARENT 5 5 85 22 9 27 68 46 36 57
REMARK Flexibility Score: inf
ROOT
ATOM      1  C   UNL A   1      31.101  30.871  26.201  1.00  0.00     0.117 C 
ENDROOT
BRANCH   1   2
ATOM      2  N   UNL A   1      31.803  30.274  25.082  1.00  0.00    -0.356 N 
ATOM      3  C   UNL A   1      32.819  29.364  25.059  1.00  0.00     0.227 C 
ATOM      4  O   UNL A   1      33.303  29.110  23.953  1.00  0.00    -0.274 OA
ATOM      5  H   UNL A   1      31.499  30.575  24.196  1.00  0.00     0.163 HD
BRANCH   3   6
ATOM      6  C   UNL A   1      33.301  28.697  26.359  1.00  0.00     0.108 C 
ATOM      7  C   UNL A   1      34.763  29.038  26.664  1.00  0.00     0.023 C 
BRANCH   6   8
ATOM      8  C   UNL A   1      33.075  27.192  26.301  1.00  0.00    -0.000 A 
ATOM      9  C   UNL A   1      34.060  26.307  25.839  1.00  0.00     0.008 A 
ATOM     10  C   UNL A   1      31.825  26.663  26.634  1.00  0.00     0.127 A 
ATOM     11  C   UNL A   1      33.791  24.944  25.709  1.00  0.00     0.004 A 
ATOM     12  C   UNL A   1      31.546  25.305  26.494  1.00  0.00     0.043 A 
ATOM     13  F   UNL A   1      30.854  27.476  27.079  1.00  0.00    -0.207 F 
ATOM     14  C   UNL A   1      32.521  24.432  25.993  1.00  0.00    -0.045 A 
BRANCH  14  15
ATOM     15  C   UNL A   1      32.200  22.979  25.746  1.00  0.00     0.041 C 
BRANCH  15  16
ATOM     16  C   UNL A   1      33.259  22.111  25.029  1.00  0.00     0.022 C 
ATOM     17  C   UNL A   1      32.988  21.826  23.546  1.00  0.00     0.007 C 
ATOM     18  C   UNL A   1      33.523  20.712  25.593  1.00  0.00     0.117 C 
ATOM     19  C   UNL A   1      32.414  20.409  23.463  1.00  0.00     0.003 C 
ATOM     20  C   UNL A   1      32.555  19.796  24.853  1.00  0.00     0.032 C 
BRANCH  18  21
ATOM     21  O   UNL A   1      33.409  20.643  27.000  1.00  0.00    -0.393 OA
ATOM     22  H   UNL A   1      32.652  21.176  27.289  1.00  0.00     0.210 HD
ENDBRANCH  18  21
ENDBRANCH  15  16
ENDBRANCH  14  15
ENDBRANCH   6   8
ENDBRANCH   3   6
ENDBRANCH   1   2
BRANCH   1  23
ATOM     23  C   UNL A   1      31.328  32.380  26.264  1.00  0.00     0.042 C 
BRANCH  23  24
ATOM     24  C   UNL A   1      32.408  32.811  27.254  1.00  0.00     0.118 C 
BRANCH  24  25
ATOM     25  N   UNL A   1      32.289  34.209  27.641  1.00  0.00    -0.352 N 
ATOM     26  C   UNL A   1      32.980  34.925  28.583  1.00  0.00     0.251 C 
ATOM     27  H   UNL A   1      31.605  34.719  27.149  1.00  0.00     0.163 HD
ATOM     28  O   UNL A   1      32.598  36.060  28.881  1.00  0.00    -0.269 OA
BRANCH  26  29
ATOM     29  C   UNL A   1      34.165  34.356  29.259  1.00  0.00     0.039 A 
ATOM     30  C   UNL A   1      33.981  33.629  30.440  1.00  0.00     0.014 A 
ATOM     31  C   UNL A   1      35.457  34.572  28.769  1.00  0.00     0.014 A 
ATOM     32  C   UNL A   1      35.081  33.075  31.098  1.00  0.00     0.010 A 
ATOM     33  C   UNL A   1      36.547  33.963  29.389  1.00  0.00     0.010 A 
ATOM     34  C   UNL A   1      36.371  33.213  30.563  1.00  0.00    -0.014 A 
BRANCH  34  35
ATOM     35  C   UNL A   1      37.551  32.596  31.220  1.00  0.00     0.031 A 
ATOM     36  C   UNL A   1      38.292  31.476  30.545  1.00  0.00     0.074 A 
ATOM     37  C   UNL A   1      37.912  32.994  32.455  1.00  0.00     0.049 A 
ATOM     38  N   UNL A   1      39.279  30.743  30.996  1.00  0.00    -0.248 NA
ATOM     39  C   UNL A   1      37.845  31.114  29.191  1.00  0.00     0.031 C 
ATOM     40  C   UNL A   1      37.252  34.043  33.231  1.00  0.00     0.029 A 
ATOM     41  N   UNL A   1      38.916  32.550  33.280  1.00  0.00    -0.354 N 
ATOM     42  C   UNL A   1      39.555  29.823  29.994  1.00  0.00     0.074 A 
ATOM     43  C   UNL A   1      38.605  30.060  28.929  1.00  0.00     0.031 C 
ATOM     44  C   UNL A   1      37.874  34.172  34.414  1.00  0.00     0.029 A 
ATOM     45  C   UNL A   1      38.952  33.191  34.494  1.00  0.00     0.049 A 
ATOM     46  H   UNL A   1      39.548  31.841  33.026  1.00  0.00     0.167 HD
ATOM     47  C   UNL A   1      40.524  28.877  29.959  1.00  0.00     0.037 A 
ATOM     48  C   UNL A   1      39.757  33.000  35.556  1.00  0.00     0.037 A 
ATOM     49  C   UNL A   1      41.488  28.662  31.006  1.00  0.00     0.049 A 
ATOM     50  C   UNL A   1      40.830  31.948  35.490  1.00  0.00     0.074 A 
ATOM     51  C   UNL A   1      42.547  27.772  31.036  1.00  0.00     0.029 A 
ATOM     52  N   UNL A   1      41.510  29.350  32.210  1.00  0.00    -0.354 N 
ATOM     53  N   UNL A   1      41.117  31.120  34.515  1.00  0.00    -0.248 NA
ATOM     54  C   UNL A   1      41.695  31.808  36.670  1.00  0.00     0.031 C 
ATOM     55  C   UNL A   1      43.188  27.894  32.275  1.00  0.00     0.029 A 
ATOM     56  C   UNL A   1      42.554  28.891  32.998  1.00  0.00     0.049 A 
ATOM     57  H   UNL A   1      40.878  30.060  32.467  1.00  0.00     0.167 HD
ATOM     58  C   UNL A   1      42.207  30.381  34.952  1.00  0.00     0.074 A 
ATOM     59  C   UNL A   1      42.539  30.865  36.276  1.00  0.00     0.031 C 
ATOM     60  C   UNL A   1      42.875  29.389  34.311  1.00  0.00     0.037 A 
BRANCH  47  61
ATOM     61  C   UNL A   1      40.588  27.998  28.743  1.00  0.00     0.064 A 
ATOM     62  C   UNL A   1      39.891  26.782  28.676  1.00  0.00     0.173 A 
ATOM     63  C   UNL A   1      41.337  28.387  27.622  1.00  0.00     0.173 A 
ATOM     64  F   UNL A   1      39.170  26.359  29.726  1.00  0.00    -0.203 F 
ATOM     65  C   UNL A   1      39.967  25.973  27.545  1.00  0.00     0.198 A 
ATOM     66  C   UNL A   1      41.388  27.590  26.483  1.00  0.00     0.198 A 
ATOM     67  F   UNL A   1      42.017  29.544  27.631  1.00  0.00    -0.203 F 
ATOM     68  F   UNL A   1      39.336  24.792  27.524  1.00  0.00    -0.200 F 
ATOM     69  C   UNL A   1      40.711  26.380  26.448  1.00  0.00     0.200 A 
ATOM     70  F   UNL A   1      42.096  27.990  25.417  1.00  0.00    -0.200 F 
ATOM     71  F   UNL A   1      40.782  25.602  25.359  1.00  0.00    -0.200 F 
ENDBRANCH  47  61
BRANCH  48  72
ATOM     72  C   UNL A   1      39.593  33.845  36.766  1.00  0.00     0.064 A 
ATOM     73  C   UNL A   1      40.204  35.102  36.851  1.00  0.00     0.173 A 
ATOM     74  C   UNL A   1      38.815  33.421  37.853  1.00  0.00     0.173 A 
ATOM     75  F   UNL A   1      40.974  35.542  35.845  1.00  0.00    -0.203 F 
ATOM     76  C   UNL A   1      40.056  35.899  37.984  1.00  0.00     0.198 A 
ATOM     77  C   UNL A   1      38.647  34.229  38.976  1.00  0.00     0.198 A 
ATOM     78  F   UNL A   1      38.205  32.227  37.818  1.00  0.00    -0.203 F 
ATOM     79  F   UNL A   1      40.681  37.083  38.055  1.00  0.00    -0.200 F 
ATOM     80  C   UNL A   1      39.272  35.465  39.043  1.00  0.00     0.200 A 
ATOM     81  F   UNL A   1      37.878  33.812  39.990  1.00  0.00    -0.200 F 
ATOM     82  F   UNL A   1      39.123  36.235  40.128  1.00  0.00    -0.200 F 
ENDBRANCH  48  72
BRANCH  60  83
ATOM     83  C   UNL A   1      44.050  28.783  35.019  1.00  0.00     0.064 A 
ATOM     84  C   UNL A   1      45.344  29.303  34.872  1.00  0.00     0.173 A 
ATOM     85  C   UNL A   1      43.871  27.695  35.887  1.00  0.00     0.173 A 
ATOM     86  F   UNL A   1      45.568  30.332  34.042  1.00  0.00    -0.203 F 
ATOM     87  C   UNL A   1      46.421  28.742  35.554  1.00  0.00     0.198 A 
ATOM     88  C   UNL A   1      44.946  27.153  36.587  1.00  0.00     0.198 A 
ATOM     89  F   UNL A   1      42.653  27.164  36.064  1.00  0.00    -0.203 F 
ATOM     90  F   UNL A   1      47.655  29.228  35.368  1.00  0.00    -0.200 F 
ATOM     91  C   UNL A   1      46.221  27.673  36.415  1.00  0.00     0.200 A 
ATOM     92  F   UNL A   1      44.748  26.128  37.427  1.00  0.00    -0.200 F 
ATOM     93  F   UNL A   1      47.257  27.140  37.076  1.00  0.00    -0.200 F 
ENDBRANCH  60  83
ENDBRANCH  34  35
ENDBRANCH  26  29
ENDBRANCH  24  25
ENDBRANCH  23  24
ENDBRANCH   1  23
TORSDOF 14
ENDMDL
MODEL 2
REMARK VINA RESULT:     -12.4      4.577     10.055
REMARK SMILES C[C@@H](C(=O)NCCCNC(=O)c1ccc(-c2c3nc(c(-c4c(F)c(F)c(F)c(F)c4F)c4ccc([nH]4)c(-c4c(F)c(F)c(F)c(F)c4F)c4nc(c(-c5c(F)c(F)c(F)c(F)c5F)c5ccc2[nH]5)C=C4)C=C3)cc1)c1ccc(C[C@@H]2CCC[C@@H]2O)cc1F
REMARK SMILES IDX 6 1 5 2 3 3 4 4 2 6 1 7 75 8 76 9 87 10 77 11 86 12 88 13
REMARK SMILES IDX 78 14 79 15 80 16 81 17 84 18 82 19 83 20 85 21 7 23 8 24
REMARK SMILES IDX 9 25 10 26 11 28 12 29 13 30 74 31 14 32 73 33 15 34 16 35
REMARK SMILES IDX 17 36 67 37 18 38 72 39 66 40 68 41 19 42 71 43 65 44 64 45
REMARK SMILES IDX 20 47 52 48 32 49 51 50 33 51 36 52 50 53 69 54 34 55 35 56
REMARK SMILES IDX 49 58 70 59 37 60 21 61 22 62 30 63 23 64 24 65 28 66 31 67
REMARK SMILES IDX 25 68 26 69 29 70 27 71 53 72 54 73 62 74 55 75 56 76 60 77
REMARK SMILES IDX 63 78 57 79 58 80 61 81 59 82 38 83 39 84 47 85 40 86 41 87
REMARK SMILES IDX 45 88 48 89 42 90 43 91 46 92 44 93
REMARK H PARENT 5 5 85 22 9 27 68 46 36 57
REMARK Flexibility Score: inf
ROOT
ATOM      1  C   UNL A   1      43.582  21.775  25.896  1.00  0.00     0.117 C 
ENDROOT
BRANCH   1   2
ATOM      2  N   UNL A   1      44.390  22.405  26.921  1.00  0.00    -0.356 N 
ATOM      3  C   UNL A   1      45.253  23.459  26.844  1.00  0.00     0.227 C 
ATOM      4  O   UNL A   1      45.895  23.717  27.864  1.00  0.00    -0.274 OA
ATOM      5  H   UNL A   1      44.304  22.007  27.817  1.00  0.00     0.163 HD
BRANCH   3   6
ATOM      6  C   UNL A   1      45.382  24.270  25.543  1.00  0.00     0.108 C 
ATOM      7  C   UNL A   1      46.772  24.119  24.915  1.00  0.00     0.023 C 
BRANCH   6   8
ATOM      8  C   UNL A   1      45.032  25.731  25.789  1.00  0.00    -0.000 A 
ATOM      9  C   UNL A   1      45.887  26.594  26.489  1.00  0.00     0.008 A 
ATOM     10  C   UNL A   1      43.788  26.226  25.387  1.00  0.00     0.127 A 
ATOM     11  C   UNL A   1      45.497  27.903  26.781  1.00  0.00     0.004 A 
ATOM     12  C   UNL A   1      43.389  27.527  25.686  1.00  0.00     0.043 A 
ATOM     13  F   UNL A   1      42.940  25.432  24.715  1.00  0.00    -0.207 F 
ATOM     14  C   UNL A   1      44.230  28.372  26.422  1.00  0.00    -0.045 A 
BRANCH  14  15
ATOM     15  C   UNL A   1      43.769  29.748  26.835  1.00  0.00     0.041 C 
BRANCH  15  16
ATOM     16  C   UNL A   1      44.798  30.691  27.498  1.00  0.00     0.022 C 
ATOM     17  C   UNL A   1      44.214  31.753  28.439  1.00  0.00     0.007 C 
ATOM     18  C   UNL A   1      45.690  31.524  26.572  1.00  0.00     0.117 C 
ATOM     19  C   UNL A   1      44.174  33.068  27.657  1.00  0.00     0.003 C 
ATOM     20  C   UNL A   1      44.929  32.826  26.353  1.00  0.00     0.032 C 
BRANCH  18  21
ATOM     21  O   UNL A   1      46.033  30.857  25.375  1.00  0.00    -0.393 OA
ATOM     22  H   UNL A   1      46.706  30.183  25.562  1.00  0.00     0.210 HD
ENDBRANCH  18  21
ENDBRANCH  15  16
ENDBRANCH  14  15
ENDBRANCH   6   8
ENDBRANCH   3   6
ENDBRANCH   1   2
BRANCH   1  23
ATOM     23  C   UNL A   1      42.229  22.468  25.745  1.00  0.00     0.042 C 
BRANCH  23  24
ATOM     24  C   UNL A   1      41.106  21.839  26.567  1.00  0.00     0.118 C 
BRANCH  24  25
ATOM     25  N   UNL A   1      39.793  22.045  25.974  1.00  0.00    -0.352 N 
ATOM     26  C   UNL A   1      38.914  23.086  26.120  1.00  0.00     0.251 C 
ATOM     27  H   UNL A   1      39.490  21.325  25.375  1.00  0.00     0.163 HD
ATOM     28  O   UNL A   1      37.771  22.981  25.668  1.00  0.00    -0.269 OA
BRANCH  26  29
ATOM     29  C   UNL A   1      39.306  24.326  26.822  1.00  0.00     0.039 A 
ATOM     30  C   UNL A   1      38.953  24.478  28.167  1.00  0.00     0.014 A 
ATOM     31  C   UNL A   1      39.974  25.360  26.158  1.00  0.00     0.014 A 
ATOM     32  C   UNL A   1      39.314  25.636  28.859  1.00  0.00     0.010 A 
ATOM     33  C   UNL A   1      40.393  26.486  26.865  1.00  0.00     0.010 A 
ATOM     34  C   UNL A   1      40.062  26.638  28.221  1.00  0.00    -0.014 A 
BRANCH  34  35
ATOM     35  C   UNL A   1      40.496  27.858  28.947  1.00  0.00     0.031 A 
ATOM     36  C   UNL A   1      41.885  27.945  29.515  1.00  0.00     0.074 A 
ATOM     37  C   UNL A   1      39.619  28.858  29.158  1.00  0.00     0.049 A 
ATOM     38  N   UNL A   1      42.419  28.879  30.263  1.00  0.00    -0.248 NA
ATOM     39  C   UNL A   1      42.786  26.820  29.224  1.00  0.00     0.031 C 
ATOM     40  C   UNL A   1      38.233  28.878  28.692  1.00  0.00     0.029 A 
ATOM     41  N   UNL A   1      39.761  30.045  29.833  1.00  0.00    -0.354 N 
ATOM     42  C   UNL A   1      43.706  28.443  30.550  1.00  0.00     0.074 A 
ATOM     43  C   UNL A   1      43.859  27.143  29.933  1.00  0.00     0.031 C 
ATOM     44  C   UNL A   1      37.654  30.024  29.083  1.00  0.00     0.029 A 
ATOM     45  C   UNL A   1      38.616  30.803  29.858  1.00  0.00     0.049 A 
ATOM     46  H   UNL A   1      40.602  30.326  30.259  1.00  0.00     0.167 HD
ATOM     47  C   UNL A   1      44.676  29.077  31.251  1.00  0.00     0.037 A 
ATOM     48  C   UNL A   1      38.367  31.987  30.450  1.00  0.00     0.037 A 
ATOM     49  C   UNL A   1      44.533  30.383  31.838  1.00  0.00     0.049 A 
ATOM     50  C   UNL A   1      39.463  32.674  31.215  1.00  0.00     0.074 A 
ATOM     51  C   UNL A   1      45.478  31.136  32.512  1.00  0.00     0.029 A 
ATOM     52  N   UNL A   1      43.365  31.132  31.818  1.00  0.00    -0.354 N 
ATOM     53  N   UNL A   1      40.693  32.277  31.434  1.00  0.00    -0.248 NA
ATOM     54  C   UNL A   1      39.138  33.977  31.813  1.00  0.00     0.031 C 
ATOM     55  C   UNL A   1      44.872  32.325  32.934  1.00  0.00     0.029 A 
ATOM     56  C   UNL A   1      43.561  32.331  32.484  1.00  0.00     0.049 A 
ATOM     57  H   UNL A   1      42.522  30.853  31.394  1.00  0.00     0.167 HD
ATOM     58  C   UNL A   1      41.295  33.289  32.169  1.00  0.00     0.074 A 
ATOM     59  C   UNL A   1      40.298  34.324  32.351  1.00  0.00     0.031 C 
ATOM     60  C   UNL A   1      42.561  33.354  32.651  1.00  0.00     0.037 A 
BRANCH  47  61
ATOM     61  C   UNL A   1      45.985  28.361  31.421  1.00  0.00     0.064 A 
ATOM     62  C   UNL A   1      47.052  28.556  30.530  1.00  0.00     0.173 A 
ATOM     63  C   UNL A   1      46.184  27.488  32.501  1.00  0.00     0.173 A 
ATOM     64  F   UNL A   1      46.908  29.372  29.474  1.00  0.00    -0.203 F 
ATOM     65  C   UNL A   1      48.257  27.879  30.695  1.00  0.00     0.198 A 
ATOM     66  C   UNL A   1      47.400  26.835  32.680  1.00  0.00     0.198 A 
ATOM     67  F   UNL A   1      45.199  27.271  33.386  1.00  0.00    -0.203 F 
ATOM     68  F   UNL A   1      49.243  28.041  29.803  1.00  0.00    -0.200 F 
ATOM     69  C   UNL A   1      48.433  27.024  31.773  1.00  0.00     0.200 A 
ATOM     70  F   UNL A   1      47.573  26.019  33.728  1.00  0.00    -0.200 F 
ATOM     71  F   UNL A   1      49.594  26.375  31.933  1.00  0.00    -0.200 F 
ENDBRANCH  47  61
BRANCH  48  72
ATOM     72  C   UNL A   1      37.025  32.608  30.316  1.00  0.00     0.064 A 
ATOM     73  C   UNL A   1      36.031  32.384  31.277  1.00  0.00     0.173 A 
ATOM     74  C   UNL A   1      36.713  33.447  29.236  1.00  0.00     0.173 A 
ATOM     75  F   UNL A   1      36.277  31.573  32.317  1.00  0.00    -0.203 F 
ATOM     76  C   UNL A   1      34.770  32.963  31.157  1.00  0.00     0.198 A 
ATOM     77  C   UNL A   1      35.459  34.045  29.130  1.00  0.00     0.198 A 
ATOM     78  F   UNL A   1      37.632  33.697  28.293  1.00  0.00    -0.203 F 
ATOM     79  F   UNL A   1      33.825  32.702  32.073  1.00  0.00    -0.200 F 
ATOM     80  C   UNL A   1      34.486  33.798  30.088  1.00  0.00     0.200 A 
ATOM     81  F   UNL A   1      35.194  34.862  28.102  1.00  0.00    -0.200 F 
ATOM     82  F   UNL A   1      33.276  34.361  29.976  1.00  0.00    -0.200 F 
ENDBRANCH  48  72
BRANCH  60  83
ATOM     83  C   UNL A   1      42.951  34.598  33.391  1.00  0.00     0.064 A 
ATOM     84  C   UNL A   1      43.406  35.742  32.720  1.00  0.00     0.173 A 
ATOM     85  C   UNL A   1      42.830  34.659  34.788  1.00  0.00     0.173 A 
ATOM     86  F   UNL A   1      43.553  35.727  31.387  1.00  0.00    -0.203 F 
ATOM     87  C   UNL A   1      43.743  36.897  33.421  1.00  0.00     0.198 A 
ATOM     88  C   UNL A   1      43.143  35.824  35.484  1.00  0.00     0.198 A 
ATOM     89  F   UNL A   1      42.396  33.593  35.477  1.00  0.00    -0.203 F 
ATOM     90  F   UNL A   1      44.213  37.964  32.763  1.00  0.00    -0.200 F 
ATOM     91  C   UNL A   1      43.605  36.939  34.801  1.00  0.00     0.200 A 
ATOM     92  F   UNL A   1      42.999  35.866  36.816  1.00  0.00    -0.200 F 
ATOM     93  F   UNL A   1      43.923  38.053  35.473  1.00  0.00    -0.200 F 
ENDBRANCH  60  83
ENDBRANCH  34  35
ENDBRANCH  26  29
ENDBRANCH  24  25
ENDBRANCH  23  24
ENDBRANCH   1  23
TORSDOF 14
ENDMDL
MODEL 3
REMARK VINA RESULT:     -12.4      4.344     10.406
REMARK SMILES C[C@@H](C(=O)NCCCNC(=O)c1ccc(-c2c3nc(c(-c4c(F)c(F)c(F)c(F)c4F)c4ccc([nH]4)c(-c4c(F)c(F)c(F)c(F)c4F)c4nc(c(-c5c(F)c(F)c(F)c(F)c5F)c5ccc2[nH]5)C=C4)C=C3)cc1)c1ccc(C[C@@H]2CCC[C@@H]2O)cc1F
REMARK SMILES IDX 6 1 5 2 3 3 4 4 2 6 1 7 75 8 76 9 87 10 77 11 86 12 88 13
REMARK SMILES IDX 78 14 79 15 80 16 81 17 84 18 82 19 83 20 85 21 7 23 8 24
REMARK SMILES IDX 9 25 10 26 11 28 12 29 13 30 74 31 14 32 73 33 15 34 16 35
REMARK SMILES IDX 17 36 67 37 18 38 72 39 66 40 68 41 19 42 71 43 65 44 64 45
REMARK SMILES IDX 20 47 52 48 32 49 51 50 33 51 36 52 50 53 69 54 34 55 35 56
REMARK SMILES IDX 49 58 70 59 37 60 21 61 22 62 30 63 23 64 24 65 28 66 31 67
REMARK SMILES IDX 25 68 26 69 29 70 27 71 53 72 54 73 62 74 55 75 56 76 60 77
REMARK SMILES IDX 63 78 57 79 58 80 61 81 59 82 38 83 39 84 47 85 40 86 41 87
REMARK SMILES IDX 45 88 48 89 42 90 43 91 46 92 44 93
REMARK H PARENT 5 5 85 22 9 27 68 46 36 57
REMARK Flexibility Score: inf
ROOT
ATOM      1  C   UNL A   1      34.927  34.020  31.127  1.00  0.00     0.117 C 
ENDROOT
BRANCH   1   2
ATOM      2  N   UNL A   1      36.339  34.343  31.196  1.00  0.00    -0.356 N 
ATOM      3  C   UNL A   1      37.251  34.119  32.186  1.00  0.00     0.227 C 
ATOM      4  O   UNL A   1      38.372  34.602  32.017  1.00  0.00    -0.274 OA
ATOM      5  H   UNL A   1      36.697  34.799  30.401  1.00  0.00     0.163 HD
BRANCH   3   6
ATOM      6  C   UNL A   1      36.871  33.291  33.426  1.00  0.00     0.108 C 
ATOM      7  C   UNL A   1      36.922  34.130  34.706  1.00  0.00     0.023 C 
BRANCH   6   8
ATOM      8  C   UNL A   1      37.751  32.052  33.529  1.00  0.00    -0.000 A 
ATOM      9  C   UNL A   1      39.049  32.102  34.056  1.00  0.00     0.008 A 
ATOM     10  C   UNL A   1      37.301  30.835  33.010  1.00  0.00     0.127 A 
ATOM     11  C   UNL A   1      39.865  30.970  34.051  1.00  0.00     0.004 A 
ATOM     12  C   UNL A   1      38.116  29.705  32.991  1.00  0.00     0.043 A 
ATOM     13  F   UNL A   1      36.065  30.744  32.496  1.00  0.00    -0.207 F 
ATOM     14  C   UNL A   1      39.427  29.771  33.481  1.00  0.00    -0.045 A 
BRANCH  14  15
ATOM     15  C   UNL A   1      40.349  28.581  33.377  1.00  0.00     0.041 C 
BRANCH  15  16
ATOM     16  C   UNL A   1      41.756  28.693  34.009  1.00  0.00     0.022 C 
ATOM     17  C   UNL A   1      42.878  27.964  33.261  1.00  0.00     0.007 C 
ATOM     18  C   UNL A   1      41.925  28.182  35.443  1.00  0.00     0.117 C 
ATOM     19  C   UNL A   1      43.132  26.651  34.008  1.00  0.00     0.003 C 
ATOM     20  C   UNL A   1      42.320  26.717  35.298  1.00  0.00     0.032 C 
BRANCH  18  21
ATOM     21  O   UNL A   1      40.784  28.387  36.251  1.00  0.00    -0.393 OA
ATOM     22  H   UNL A   1      40.864  29.236  36.713  1.00  0.00     0.210 HD
ENDBRANCH  18  21
ENDBRANCH  15  16
ENDBRANCH  14  15
ENDBRANCH   6   8
ENDBRANCH   3   6
ENDBRANCH   1   2
BRANCH   1  23
ATOM     23  C   UNL A   1      34.695  32.661  30.471  1.00  0.00     0.042 C 
BRANCH  23  24
ATOM     24  C   UNL A   1      34.772  32.680  28.946  1.00  0.00     0.118 C 
BRANCH  24  25
ATOM     25  N   UNL A   1      34.080  31.554  28.335  1.00  0.00    -0.352 N 
ATOM     26  C   UNL A   1      34.566  30.343  27.917  1.00  0.00     0.251 C 
ATOM     27  H   UNL A   1      33.113  31.683  28.202  1.00  0.00     0.163 HD
ATOM     28  O   UNL A   1      33.840  29.595  27.257  1.00  0.00    -0.269 OA
BRANCH  26  29
ATOM     29  C   UNL A   1      35.949  29.924  28.228  1.00  0.00     0.039 A 
ATOM     30  C   UNL A   1      36.937  30.086  27.251  1.00  0.00     0.014 A 
ATOM     31  C   UNL A   1      36.271  29.328  29.452  1.00  0.00     0.014 A 
ATOM     32  C   UNL A   1      38.253  29.705  27.518  1.00  0.00     0.010 A 
ATOM     33  C   UNL A   1      37.597  29.010  29.742  1.00  0.00     0.010 A 
ATOM     34  C   UNL A   1      38.600  29.189  28.777  1.00  0.00    -0.014 A 
BRANCH  34  35
ATOM     35  C   UNL A   1      40.001  28.818  29.099  1.00  0.00     0.031 A 
ATOM     36  C   UNL A   1      40.887  29.782  29.838  1.00  0.00     0.074 A 
ATOM     37  C   UNL A   1      40.498  27.643  28.667  1.00  0.00     0.049 A 
ATOM     38  N   UNL A   1      42.162  29.685  30.124  1.00  0.00    -0.248 NA
ATOM     39  C   UNL A   1      40.263  31.034  30.291  1.00  0.00     0.031 C 
ATOM     40  C   UNL A   1      39.752  26.638  27.909  1.00  0.00     0.029 A 
ATOM     41  N   UNL A   1      41.754  27.103  28.790  1.00  0.00    -0.354 N 
ATOM     42  C   UNL A   1      42.495  30.869  30.769  1.00  0.00     0.074 A 
ATOM     43  C   UNL A   1      41.302  31.687  30.793  1.00  0.00     0.031 C 
ATOM     44  C   UNL A   1      40.559  25.599  27.645  1.00  0.00     0.029 A 
ATOM     45  C   UNL A   1      41.888  25.879  28.182  1.00  0.00     0.049 A 
ATOM     46  H   UNL A   1      42.488  27.550  29.268  1.00  0.00     0.167 HD
ATOM     47  C   UNL A   1      43.684  31.234  31.305  1.00  0.00     0.037 A 
ATOM     48  C   UNL A   1      42.964  25.079  28.062  1.00  0.00     0.037 A 
ATOM     49  C   UNL A   1      44.862  30.406  31.308  1.00  0.00     0.049 A 
ATOM     50  C   UNL A   1      44.271  25.502  28.673  1.00  0.00     0.074 A 
ATOM     51  C   UNL A   1      46.095  30.660  31.881  1.00  0.00     0.029 A 
ATOM     52  N   UNL A   1      44.951  29.159  30.705  1.00  0.00    -0.354 N 
ATOM     53  N   UNL A   1      44.560  26.601  29.328  1.00  0.00    -0.248 NA
ATOM     54  C   UNL A   1      45.401  24.573  28.533  1.00  0.00     0.031 C 
ATOM     55  C   UNL A   1      46.943  29.584  31.594  1.00  0.00     0.029 A 
ATOM     56  C   UNL A   1      46.224  28.640  30.879  1.00  0.00     0.049 A 
ATOM     57  H   UNL A   1      44.218  28.710  30.226  1.00  0.00     0.167 HD
ATOM     58  C   UNL A   1      45.892  26.483  29.699  1.00  0.00     0.074 A 
ATOM     59  C   UNL A   1      46.353  25.202  29.206  1.00  0.00     0.031 C 
ATOM     60  C   UNL A   1      46.665  27.360  30.388  1.00  0.00     0.037 A 
BRANCH  47  61
ATOM     61  C   UNL A   1      43.769  32.593  31.938  1.00  0.00     0.064 A 
ATOM     62  C   UNL A   1      44.145  33.725  31.200  1.00  0.00     0.173 A 
ATOM     63  C   UNL A   1      43.449  32.769  33.293  1.00  0.00     0.173 A 
ATOM     64  F   UNL A   1      44.473  33.608  29.904  1.00  0.00    -0.203 F 
ATOM     65  C   UNL A   1      44.229  34.978  31.802  1.00  0.00     0.198 A 
ATOM     66  C   UNL A   1      43.505  34.027  33.884  1.00  0.00     0.198 A 
ATOM     67  F   UNL A   1      43.077  31.720  34.042  1.00  0.00    -0.203 F 
ATOM     68  F   UNL A   1      44.641  36.036  31.091  1.00  0.00    -0.200 F 
ATOM     69  C   UNL A   1      43.904  35.129  33.142  1.00  0.00     0.200 A 
ATOM     70  F   UNL A   1      43.178  34.174  35.176  1.00  0.00    -0.200 F 
ATOM     71  F   UNL A   1      43.982  36.335  33.720  1.00  0.00    -0.200 F 
ENDBRANCH  47  61
BRANCH  48  72
ATOM     72  C   UNL A   1      42.840  23.781  27.352  1.00  0.00     0.064 A 
ATOM     73  C   UNL A   1      42.325  22.653  28.003  1.00  0.00     0.173 A 
ATOM     74  C   UNL A   1      43.222  23.643  26.009  1.00  0.00     0.173 A 
ATOM     75  F   UNL A   1      41.967  22.731  29.293  1.00  0.00    -0.203 F 
ATOM     76  C   UNL A   1      42.209  21.431  27.344  1.00  0.00     0.198 A 
ATOM     77  C   UNL A   1      43.081  22.427  25.343  1.00  0.00     0.198 A 
ATOM     78  F   UNL A   1      43.716  24.695  25.340  1.00  0.00    -0.203 F 
ATOM     79  F   UNL A   1      41.746  20.359  28.001  1.00  0.00    -0.200 F 
ATOM     80  C   UNL A   1      42.580  21.321  26.012  1.00  0.00     0.200 A 
ATOM     81  F   UNL A   1      43.429  22.329  24.053  1.00  0.00    -0.200 F 
ATOM     82  F   UNL A   1      42.460  20.149  25.376  1.00  0.00    -0.200 F 
ENDBRANCH  48  72
BRANCH  60  83
ATOM     83  C   UNL A   1      48.078  26.950  30.678  1.00  0.00     0.064 A 
ATOM     84  C   UNL A   1      48.395  26.121  31.763  1.00  0.00     0.173 A 
ATOM     85  C   UNL A   1      49.122  27.359  29.834  1.00  0.00     0.173 A 
ATOM     86  F   UNL A   1      47.433  25.717  32.607  1.00  0.00    -0.203 F 
ATOM     87  C   UNL A   1      49.710  25.732  32.006  1.00  0.00     0.198 A 
ATOM     88  C   UNL A   1      50.432  26.947  30.064  1.00  0.00     0.198 A 
ATOM     89  F   UNL A   1      48.870  28.149  28.780  1.00  0.00    -0.203 F 
ATOM     90  F   UNL A   1      49.995  24.973  33.072  1.00  0.00    -0.200 F 
ATOM     91  C   UNL A   1      50.725  26.139  31.153  1.00  0.00     0.200 A 
ATOM     92  F   UNL A   1      51.410  27.332  29.233  1.00  0.00    -0.200 F 
ATOM     93  F   UNL A   1      51.988  25.757  31.384  1.00  0.00    -0.200 F 
ENDBRANCH  60  83
ENDBRANCH  34  35
ENDBRANCH  26  29
ENDBRANCH  24  25
ENDBRANCH  23  24
ENDBRANCH   1  23
TORSDOF 14
ENDMDL
