MODEL 1
REMARK VINA RESULT:     -13.6      0.000      0.000
REMARK SMILES O=C(NCCCNC(=O)c1ccccc1-c1ccccc1C(=O)N1CC[NH+](Cc2ccc3c(c2)OCO3)CC1)c1ccc(-c2c3nc(c(-c4c(F)c(F)c(F)c(F)c4F)c4ccc([nH]4)c(-c4c(F)c(F)c(F)c(F)c4F)c4nc(c(-c5c(F)c(F)c(F)c(F)c5F)c5ccc2[nH]5)C=C4)C=C3)cc1
REMARK SMILES IDX 6 1 5 2 4 3 3 4 1 5 2 6 40 8 41 9 102 10 42 11 101 12 43 13
REMARK SMILES IDX 44 14 45 15 95 16 46 17 100 18 94 19 96 20 47 21 99 22 93 23
REMARK SMILES IDX 92 24 48 26 80 27 60 28 79 29 61 30 64 31 78 32 97 33 62 34
REMARK SMILES IDX 63 35 77 37 98 38 65 39 49 40 50 41 58 42 51 43 52 44 56 45
REMARK SMILES IDX 59 46 53 47 54 48 57 49 55 50 81 51 82 52 90 53 83 54 84 55
REMARK SMILES IDX 88 56 91 57 85 58 86 59 89 60 87 61 66 62 67 63 75 64 68 65
REMARK SMILES IDX 69 66 73 67 76 68 70 69 71 70 74 71 72 72 7 73 8 74 9 76
REMARK SMILES IDX 10 77 11 78 15 79 12 80 14 81 13 82 16 83 17 84 21 85 18 86
REMARK SMILES IDX 20 87 19 88 22 89 23 90 24 91 25 92 39 93 26 94 38 95 27 96
REMARK SMILES IDX 28 98 29 99 30 100 34 101 31 102 33 103 32 104 35 105 37 106
REMARK SMILES IDX 36 107
REMARK H PARENT 3 7 96 25 64 36 7 75 27 97
REMARK Flexibility Score: inf
ROOT
ATOM      1  C   UNL A   1      31.516  31.153  26.030  1.00  0.00     0.118 C 
ENDROOT
BRANCH   1   2
ATOM      2  C   UNL A   1      31.393  32.299  27.017  1.00  0.00     0.042 C 
BRANCH   2   3
ATOM      3  C   UNL A   1      32.749  32.947  27.251  1.00  0.00     0.118 C 
BRANCH   3   4
ATOM      4  N   UNL A   1      32.602  34.352  27.626  1.00  0.00    -0.352 N 
ATOM      5  O   UNL A   1      32.643  36.062  29.110  1.00  0.00    -0.269 OA
ATOM      6  C   UNL A   1      33.112  35.003  28.726  1.00  0.00     0.251 C 
ATOM      7  H   UNL A   1      32.068  34.906  27.010  1.00  0.00     0.163 HD
BRANCH   6   8
ATOM      8  C   UNL A   1      34.230  34.365  29.449  1.00  0.00     0.039 A 
ATOM      9  C   UNL A   1      35.524  34.583  28.990  1.00  0.00     0.014 A 
ATOM     10  C   UNL A   1      33.999  33.529  30.541  1.00  0.00     0.014 A 
ATOM     11  C   UNL A   1      36.550  33.782  29.445  1.00  0.00     0.010 A 
ATOM     12  C   UNL A   1      35.080  32.870  31.137  1.00  0.00     0.010 A 
ATOM     13  C   UNL A   1      36.362  32.971  30.573  1.00  0.00    -0.014 A 
BRANCH  13  14
ATOM     14  C   UNL A   1      37.571  32.357  31.173  1.00  0.00     0.031 A 
ATOM     15  C   UNL A   1      38.030  32.702  32.557  1.00  0.00     0.074 A 
ATOM     16  C   UNL A   1      38.196  31.400  30.458  1.00  0.00     0.049 A 
ATOM     17  N   UNL A   1      39.036  32.205  33.232  1.00  0.00    -0.248 NA
ATOM     18  C   UNL A   1      37.282  33.744  33.276  1.00  0.00     0.031 C 
ATOM     19  C   UNL A   1      37.834  30.999  29.092  1.00  0.00     0.029 A 
ATOM     20  N   UNL A   1      39.223  30.554  30.781  1.00  0.00    -0.354 N 
ATOM     21  C   UNL A   1      39.054  32.880  34.444  1.00  0.00     0.074 A 
ATOM     22  C   UNL A   1      37.977  33.847  34.403  1.00  0.00     0.031 C 
ATOM     23  C   UNL A   1      38.555  29.930  28.735  1.00  0.00     0.029 A 
ATOM     24  C   UNL A   1      39.510  29.643  29.793  1.00  0.00     0.049 A 
ATOM     25  H   UNL A   1      39.708  30.593  31.637  1.00  0.00     0.167 HD
ATOM     26  C   UNL A   1      39.891  32.697  35.493  1.00  0.00     0.037 A 
ATOM     27  C   UNL A   1      40.463  28.696  29.727  1.00  0.00     0.037 A 
ATOM     28  C   UNL A   1      40.955  31.723  35.516  1.00  0.00     0.049 A 
ATOM     29  C   UNL A   1      41.386  28.539  30.895  1.00  0.00     0.074 A 
ATOM     30  C   UNL A   1      41.866  31.461  36.525  1.00  0.00     0.029 A 
ATOM     31  N   UNL A   1      41.247  30.847  34.479  1.00  0.00    -0.354 N 
ATOM     32  N   UNL A   1      41.392  29.187  32.035  1.00  0.00    -0.248 NA
ATOM     33  C   UNL A   1      42.438  27.527  30.769  1.00  0.00     0.031 C 
ATOM     34  C   UNL A   1      42.735  30.460  36.081  1.00  0.00     0.029 A 
ATOM     35  C   UNL A   1      42.332  30.053  34.819  1.00  0.00     0.049 A 
ATOM     36  H   UNL A   1      40.756  30.795  33.627  1.00  0.00     0.167 HD
ATOM     37  C   UNL A   1      42.443  28.658  32.765  1.00  0.00     0.074 A 
ATOM     38  C   UNL A   1      43.026  27.608  31.953  1.00  0.00     0.031 C 
ATOM     39  C   UNL A   1      42.897  29.016  33.991  1.00  0.00     0.037 A 
BRANCH  26  40
ATOM     40  C   UNL A   1      39.705  33.575  36.698  1.00  0.00     0.064 A 
ATOM     41  C   UNL A   1      40.321  34.831  36.797  1.00  0.00     0.173 A 
ATOM     42  C   UNL A   1      38.857  33.180  37.745  1.00  0.00     0.173 A 
ATOM     43  F   UNL A   1      41.153  35.253  35.833  1.00  0.00    -0.203 F 
ATOM     44  C   UNL A   1      40.111  35.649  37.905  1.00  0.00     0.198 A 
ATOM     45  C   UNL A   1      38.625  34.012  38.837  1.00  0.00     0.198 A 
ATOM     46  F   UNL A   1      38.238  31.990  37.702  1.00  0.00    -0.203 F 
ATOM     47  F   UNL A   1      40.744  36.827  37.996  1.00  0.00    -0.200 F 
ATOM     48  C   UNL A   1      39.257  35.243  38.919  1.00  0.00     0.200 A 
ATOM     49  F   UNL A   1      37.788  33.623  39.809  1.00  0.00    -0.200 F 
ATOM     50  F   UNL A   1      39.046  36.037  39.979  1.00  0.00    -0.200 F 
ENDBRANCH  26  40
BRANCH  27  51
ATOM     51  C   UNL A   1      40.608  27.874  28.497  1.00  0.00     0.064 A 
ATOM     52  C   UNL A   1      39.981  26.628  28.373  1.00  0.00     0.173 A 
ATOM     53  C   UNL A   1      41.379  28.326  27.413  1.00  0.00     0.173 A 
ATOM     54  F   UNL A   1      39.245  26.145  29.386  1.00  0.00    -0.203 F 
ATOM     55  C   UNL A   1      40.142  25.853  27.226  1.00  0.00     0.198 A 
ATOM     56  C   UNL A   1      41.504  27.570  26.251  1.00  0.00     0.198 A 
ATOM     57  F   UNL A   1      41.991  29.518  27.472  1.00  0.00    -0.203 F 
ATOM     58  F   UNL A   1      39.579  24.639  27.158  1.00  0.00    -0.200 F 
ATOM     59  C   UNL A   1      40.897  26.327  26.164  1.00  0.00     0.200 A 
ATOM     60  F   UNL A   1      42.212  28.046  25.219  1.00  0.00    -0.200 F 
ATOM     61  F   UNL A   1      41.045  25.584  25.059  1.00  0.00    -0.200 F 
ENDBRANCH  27  51
BRANCH  39  62
ATOM     62  C   UNL A   1      44.062  28.239  34.527  1.00  0.00     0.064 A 
ATOM     63  C   UNL A   1      45.384  28.661  34.325  1.00  0.00     0.173 A 
ATOM     64  C   UNL A   1      43.853  27.052  35.245  1.00  0.00     0.173 A 
ATOM     65  F   UNL A   1      45.637  29.779  33.627  1.00  0.00    -0.203 F 
ATOM     66  C   UNL A   1      46.456  27.903  34.788  1.00  0.00     0.198 A 
ATOM     67  C   UNL A   1      44.925  26.315  35.738  1.00  0.00     0.198 A 
ATOM     68  F   UNL A   1      42.607  26.607  35.470  1.00  0.00    -0.203 F 
ATOM     69  F   UNL A   1      47.711  28.290  34.522  1.00  0.00    -0.200 F 
ATOM     70  C   UNL A   1      46.225  26.735  35.497  1.00  0.00     0.200 A 
ATOM     71  F   UNL A   1      44.701  25.194  36.435  1.00  0.00    -0.200 F 
ATOM     72  F   UNL A   1      47.258  26.003  35.939  1.00  0.00    -0.200 F 
ENDBRANCH  39  62
ENDBRANCH  13  14
ENDBRANCH   6   8
ENDBRANCH   3   4
ENDBRANCH   2   3
ENDBRANCH   1   2
BRANCH   1  73
ATOM     73  N   UNL A   1      32.155  30.033  26.686  1.00  0.00    -0.352 N 
ATOM     74  C   UNL A   1      32.121  28.778  26.147  1.00  0.00     0.251 C 
ATOM     75  H   UNL A   1      32.623  30.179  27.540  1.00  0.00     0.163 HD
ATOM     76  O   UNL A   1      31.657  27.851  26.803  1.00  0.00    -0.269 OA
BRANCH  74  77
ATOM     77  C   UNL A   1      32.641  28.599  24.765  1.00  0.00     0.047 A 
ATOM     78  C   UNL A   1      34.016  28.829  24.592  1.00  0.00     0.014 A 
ATOM     79  C   UNL A   1      31.812  28.278  23.661  1.00  0.00    -0.005 A 
ATOM     80  C   UNL A   1      34.600  28.700  23.334  1.00  0.00     0.001 A 
ATOM     81  C   UNL A   1      32.442  28.136  22.404  1.00  0.00     0.009 A 
ATOM     82  C   UNL A   1      33.815  28.341  22.244  1.00  0.00     0.001 A 
BRANCH  79  83
ATOM     83  C   UNL A   1      30.351  28.013  23.748  1.00  0.00    -0.005 A 
ATOM     84  C   UNL A   1      29.517  29.166  23.744  1.00  0.00     0.009 A 
ATOM     85  C   UNL A   1      29.718  26.745  23.678  1.00  0.00     0.047 A 
ATOM     86  C   UNL A   1      28.134  29.090  23.584  1.00  0.00     0.001 A 
ATOM     87  C   UNL A   1      28.308  26.696  23.543  1.00  0.00     0.014 A 
ATOM     88  C   UNL A   1      27.527  27.852  23.474  1.00  0.00     0.001 A 
BRANCH  85  89
ATOM     89  C   UNL A   1      30.403  25.418  23.486  1.00  0.00     0.254 C 
ATOM     90  O   UNL A   1      30.315  24.884  22.376  1.00  0.00    -0.269 OA
ATOM     91  N   UNL A   1      31.208  24.867  24.476  1.00  0.00    -0.327 N 
ATOM     92  C   UNL A   1      32.291  23.997  24.037  1.00  0.00     0.181 C 
ATOM     93  C   UNL A   1      30.723  24.568  25.816  1.00  0.00     0.181 C 
ATOM     94  C   UNL A   1      33.457  23.939  25.045  1.00  0.00     0.284 C 
ATOM     95  C   UNL A   1      31.859  24.397  26.859  1.00  0.00     0.284 C 
ATOM     96  N   UNL A   1      33.109  23.730  26.459  1.00  0.00    -0.328 N 
ATOM     97  H   UNL A   1      33.823  24.238  26.980  1.00  0.00     0.348 HD
BRANCH  96  98
ATOM     98  C   UNL A   1      33.325  22.371  26.973  1.00  0.00     0.299 C 
BRANCH  98  99
ATOM     99  C   UNL A   1      33.617  21.372  25.879  1.00  0.00     0.010 A 
ATOM    100  C   UNL A   1      34.962  21.083  25.549  1.00  0.00     0.013 A 
ATOM    101  C   UNL A   1      32.583  20.530  25.445  1.00  0.00     0.060 A 
ATOM    102  C   UNL A   1      35.300  19.847  25.001  1.00  0.00     0.051 A 
ATOM    103  C   UNL A   1      32.955  19.295  24.977  1.00  0.00     0.166 A 
ATOM    104  C   UNL A   1      34.277  18.947  24.806  1.00  0.00     0.165 A 
ATOM    105  O   UNL A   1      32.120  18.223  24.865  1.00  0.00    -0.454 OA
ATOM    106  O   UNL A   1      34.422  17.612  24.580  1.00  0.00    -0.454 OA
ATOM    107  C   UNL A   1      33.094  17.160  24.926  1.00  0.00     0.468 C 
ENDBRANCH  98  99
ENDBRANCH  96  98
ENDBRANCH  85  89
ENDBRANCH  79  83
ENDBRANCH  74  77
ENDBRANCH   1  73
TORSDOF 14
ENDMDL
MODEL 2
REMARK VINA RESULT:     -13.5      4.971      9.402
REMARK SMILES O=C(NCCCNC(=O)c1ccccc1-c1ccccc1C(=O)N1CC[NH+](Cc2ccc3c(c2)OCO3)CC1)c1ccc(-c2c3nc(c(-c4c(F)c(F)c(F)c(F)c4F)c4ccc([nH]4)c(-c4c(F)c(F)c(F)c(F)c4F)c4nc(c(-c5c(F)c(F)c(F)c(F)c5F)c5ccc2[nH]5)C=C4)C=C3)cc1
REMARK SMILES IDX 6 1 5 2 4 3 3 4 1 5 2 6 40 8 41 9 102 10 42 11 101 12 43 13
REMARK SMILES IDX 44 14 45 15 95 16 46 17 100 18 94 19 96 20 47 21 99 22 93 23
REMARK SMILES IDX 92 24 48 26 80 27 60 28 79 29 61 30 64 31 78 32 97 33 62 34
REMARK SMILES IDX 63 35 77 37 98 38 65 39 49 40 50 41 58 42 51 43 52 44 56 45
REMARK SMILES IDX 59 46 53 47 54 48 57 49 55 50 81 51 82 52 90 53 83 54 84 55
REMARK SMILES IDX 88 56 91 57 85 58 86 59 89 60 87 61 66 62 67 63 75 64 68 65
REMARK SMILES IDX 69 66 73 67 76 68 70 69 71 70 74 71 72 72 7 73 8 74 9 76
REMARK SMILES IDX 10 77 11 78 15 79 12 80 14 81 13 82 16 83 17 84 21 85 18 86
REMARK SMILES IDX 20 87 19 88 22 89 23 90 24 91 25 92 39 93 26 94 38 95 27 96
REMARK SMILES IDX 28 98 29 99 30 100 34 101 31 102 33 103 32 104 35 105 37 106
REMARK SMILES IDX 36 107
REMARK H PARENT 3 7 96 25 64 36 7 75 27 97
REMARK Flexibility Score: inf
ROOT
ATOM      1  C   UNL A   1      36.082  32.852  31.109  1.00  0.00     0.118 C 
ENDROOT
BRANCH   1   2
ATOM      2  C   UNL A   1      34.748  32.650  30.415  1.00  0.00     0.042 C 
BRANCH   2   3
ATOM      3  C   UNL A   1      34.951  32.436  28.923  1.00  0.00     0.118 C 
BRANCH   3   4
ATOM      4  N   UNL A   1      34.286  31.216  28.472  1.00  0.00    -0.352 N 
ATOM      5  O   UNL A   1      34.226  29.231  27.382  1.00  0.00    -0.269 OA
ATOM      6  C   UNL A   1      34.854  30.034  28.052  1.00  0.00     0.251 C 
ATOM      7  H   UNL A   1      33.301  31.241  28.467  1.00  0.00     0.163 HD
BRANCH   6   8
ATOM      8  C   UNL A   1      36.263  29.779  28.415  1.00  0.00     0.039 A 
ATOM      9  C   UNL A   1      37.250  30.078  27.484  1.00  0.00     0.014 A 
ATOM     10  C   UNL A   1      36.600  29.212  29.645  1.00  0.00     0.014 A 
ATOM     11  C   UNL A   1      38.526  29.588  27.664  1.00  0.00     0.010 A 
ATOM     12  C   UNL A   1      37.938  28.901  29.909  1.00  0.00     0.010 A 
ATOM     13  C   UNL A   1      38.907  29.060  28.906  1.00  0.00    -0.014 A 
BRANCH  13  14
ATOM     14  C   UNL A   1      40.353  28.813  29.119  1.00  0.00     0.031 A 
ATOM     15  C   UNL A   1      41.205  29.743  29.928  1.00  0.00     0.074 A 
ATOM     16  C   UNL A   1      40.861  27.662  28.632  1.00  0.00     0.049 A 
ATOM     17  N   UNL A   1      42.470  29.626  30.245  1.00  0.00    -0.248 NA
ATOM     18  C   UNL A   1      40.571  30.967  30.439  1.00  0.00     0.031 C 
ATOM     19  C   UNL A   1      40.116  26.693  27.818  1.00  0.00     0.029 A 
ATOM     20  N   UNL A   1      42.090  27.078  28.784  1.00  0.00    -0.354 N 
ATOM     21  C   UNL A   1      42.788  30.763  30.975  1.00  0.00     0.074 A 
ATOM     22  C   UNL A   1      41.592  31.576  31.029  1.00  0.00     0.031 C 
ATOM     23  C   UNL A   1      40.865  25.602  27.626  1.00  0.00     0.029 A 
ATOM     24  C   UNL A   1      42.181  25.839  28.199  1.00  0.00     0.049 A 
ATOM     25  H   UNL A   1      42.836  27.505  29.266  1.00  0.00     0.167 HD
ATOM     26  C   UNL A   1      43.972  31.085  31.550  1.00  0.00     0.037 A 
ATOM     27  C   UNL A   1      43.221  24.992  28.101  1.00  0.00     0.037 A 
ATOM     28  C   UNL A   1      45.151  30.257  31.489  1.00  0.00     0.049 A 
ATOM     29  C   UNL A   1      44.520  25.393  28.727  1.00  0.00     0.074 A 
ATOM     30  C   UNL A   1      46.403  30.493  32.030  1.00  0.00     0.029 A 
ATOM     31  N   UNL A   1      45.221  29.027  30.848  1.00  0.00    -0.354 N 
ATOM     32  N   UNL A   1      44.807  26.474  29.414  1.00  0.00    -0.248 NA
ATOM     33  C   UNL A   1      45.643  24.465  28.563  1.00  0.00     0.031 C 
ATOM     34  C   UNL A   1      47.241  29.430  31.678  1.00  0.00     0.029 A 
ATOM     35  C   UNL A   1      46.498  28.500  30.968  1.00  0.00     0.049 A 
ATOM     36  H   UNL A   1      44.474  28.591  30.377  1.00  0.00     0.167 HD
ATOM     37  C   UNL A   1      46.141  26.353  29.768  1.00  0.00     0.074 A 
ATOM     38  C   UNL A   1      46.593  25.075  29.255  1.00  0.00     0.031 C 
ATOM     39  C   UNL A   1      46.926  27.226  30.445  1.00  0.00     0.037 A 
BRANCH  26  40
ATOM     40  C   UNL A   1      44.060  32.394  32.283  1.00  0.00     0.064 A 
ATOM     41  C   UNL A   1      44.622  33.534  31.691  1.00  0.00     0.173 A 
ATOM     42  C   UNL A   1      43.526  32.525  33.575  1.00  0.00     0.173 A 
ATOM     43  F   UNL A   1      45.160  33.463  30.464  1.00  0.00    -0.203 F 
ATOM     44  C   UNL A   1      44.665  34.750  32.370  1.00  0.00     0.198 A 
ATOM     45  C   UNL A   1      43.543  33.748  34.240  1.00  0.00     0.198 A 
ATOM     46  F   UNL A   1      42.972  31.468  34.189  1.00  0.00    -0.203 F 
ATOM     47  F   UNL A   1      45.244  35.815  31.800  1.00  0.00    -0.200 F 
ATOM     48  C   UNL A   1      44.117  34.858  33.640  1.00  0.00     0.200 A 
ATOM     49  F   UNL A   1      43.001  33.854  35.462  1.00  0.00    -0.200 F 
ATOM     50  F   UNL A   1      44.147  36.032  34.287  1.00  0.00    -0.200 F 
ENDBRANCH  26  40
BRANCH  27  51
ATOM     51  C   UNL A   1      43.075  23.722  27.343  1.00  0.00     0.064 A 
ATOM     52  C   UNL A   1      43.475  23.620  26.005  1.00  0.00     0.173 A 
ATOM     53  C   UNL A   1      42.534  22.576  27.950  1.00  0.00     0.173 A 
ATOM     54  F   UNL A   1      43.985  24.689  25.375  1.00  0.00    -0.203 F 
ATOM     55  C   UNL A   1      43.313  22.431  25.295  1.00  0.00     0.198 A 
ATOM     56  C   UNL A   1      42.412  21.378  27.252  1.00  0.00     0.198 A 
ATOM     57  F   UNL A   1      42.146  22.614  29.234  1.00  0.00    -0.203 F 
ATOM     58  F   UNL A   1      43.651  22.378  23.999  1.00  0.00    -0.200 F 
ATOM     59  C   UNL A   1      42.789  21.311  25.921  1.00  0.00     0.200 A 
ATOM     60  F   UNL A   1      41.930  20.293  27.871  1.00  0.00    -0.200 F 
ATOM     61  F   UNL A   1      42.641  20.167  25.239  1.00  0.00    -0.200 F 
ENDBRANCH  27  51
BRANCH  39  62
ATOM     62  C   UNL A   1      48.344  26.802  30.686  1.00  0.00     0.064 A 
ATOM     63  C   UNL A   1      48.712  26.076  31.828  1.00  0.00     0.173 A 
ATOM     64  C   UNL A   1      49.349  27.132  29.766  1.00  0.00     0.173 A 
ATOM     65  F   UNL A   1      47.790  25.753  32.749  1.00  0.00    -0.203 F 
ATOM     66  C   UNL A   1      50.040  25.732  32.061  1.00  0.00     0.198 A 
ATOM     67  C   UNL A   1      50.671  26.756  29.982  1.00  0.00     0.198 A 
ATOM     68  F   UNL A   1      49.049  27.822  28.654  1.00  0.00    -0.203 F 
ATOM     69  F   UNL A   1      50.378  25.100  33.193  1.00  0.00    -0.200 F 
ATOM     70  C   UNL A   1      51.017  26.068  31.136  1.00  0.00     0.200 A 
ATOM     71  F   UNL A   1      51.611  27.069  29.081  1.00  0.00    -0.200 F 
ATOM     72  F   UNL A   1      52.296  25.739  31.362  1.00  0.00    -0.200 F 
ENDBRANCH  39  62
ENDBRANCH  13  14
ENDBRANCH   6   8
ENDBRANCH   3   4
ENDBRANCH   2   3
ENDBRANCH   1   2
BRANCH   1  73
ATOM     73  N   UNL A   1      36.106  34.170  31.705  1.00  0.00    -0.352 N 
ATOM     74  C   UNL A   1      37.181  34.605  32.428  1.00  0.00     0.251 C 
ATOM     75  H   UNL A   1      35.332  34.766  31.587  1.00  0.00     0.163 HD
ATOM     76  O   UNL A   1      37.021  34.973  33.587  1.00  0.00    -0.269 OA
BRANCH  74  77
ATOM     77  C   UNL A   1      38.515  34.594  31.770  1.00  0.00     0.047 A 
ATOM     78  C   UNL A   1      38.509  34.688  30.368  1.00  0.00     0.014 A 
ATOM     79  C   UNL A   1      39.730  34.434  32.483  1.00  0.00    -0.005 A 
ATOM     80  C   UNL A   1      39.704  34.675  29.654  1.00  0.00     0.001 A 
ATOM     81  C   UNL A   1      40.924  34.444  31.728  1.00  0.00     0.009 A 
ATOM     82  C   UNL A   1      40.912  34.566  30.335  1.00  0.00     0.001 A 
BRANCH  79  83
ATOM     83  C   UNL A   1      39.836  34.330  33.963  1.00  0.00    -0.005 A 
ATOM     84  C   UNL A   1      40.063  35.555  34.649  1.00  0.00     0.009 A 
ATOM     85  C   UNL A   1      39.581  33.176  34.748  1.00  0.00     0.047 A 
ATOM     86  C   UNL A   1      39.955  35.671  36.034  1.00  0.00     0.001 A 
ATOM     87  C   UNL A   1      39.501  33.316  36.156  1.00  0.00     0.014 A 
ATOM     88  C   UNL A   1      39.663  34.549  36.791  1.00  0.00     0.001 A 
BRANCH  85  89
ATOM     89  C   UNL A   1      39.137  31.831  34.235  1.00  0.00     0.254 C 
ATOM     90  O   UNL A   1      38.157  31.801  33.484  1.00  0.00    -0.269 OA
ATOM     91  N   UNL A   1      39.869  30.679  34.493  1.00  0.00    -0.327 N 
ATOM     92  C   UNL A   1      39.784  29.609  33.507  1.00  0.00     0.181 C 
ATOM     93  C   UNL A   1      40.163  30.212  35.841  1.00  0.00     0.181 C 
ATOM     94  C   UNL A   1      41.024  28.690  33.515  1.00  0.00     0.284 C 
ATOM     95  C   UNL A   1      41.339  29.202  35.901  1.00  0.00     0.284 C 
ATOM     96  N   UNL A   1      41.491  28.209  34.825  1.00  0.00    -0.328 N 
ATOM     97  H   UNL A   1      42.503  28.127  34.725  1.00  0.00     0.348 HD
BRANCH  96  98
ATOM     98  C   UNL A   1      41.145  26.821  35.153  1.00  0.00     0.299 C 
BRANCH  98  99
ATOM     99  C   UNL A   1      42.330  25.889  35.078  1.00  0.00     0.010 A 
ATOM    100  C   UNL A   1      42.250  24.618  35.693  1.00  0.00     0.013 A 
ATOM    101  C   UNL A   1      43.342  26.164  34.146  1.00  0.00     0.060 A 
ATOM    102  C   UNL A   1      43.015  23.556  35.214  1.00  0.00     0.051 A 
ATOM    103  C   UNL A   1      44.026  25.083  33.647  1.00  0.00     0.166 A 
ATOM    104  C   UNL A   1      43.832  23.809  34.135  1.00  0.00     0.165 A 
ATOM    105  O   UNL A   1      44.759  25.090  32.498  1.00  0.00    -0.454 OA
ATOM    106  O   UNL A   1      44.412  22.870  33.338  1.00  0.00    -0.454 OA
ATOM    107  C   UNL A   1      44.712  23.684  32.181  1.00  0.00     0.468 C 
ENDBRANCH  98  99
ENDBRANCH  96  98
ENDBRANCH  85  89
ENDBRANCH  79  83
ENDBRANCH  74  77
ENDBRANCH   1  73
TORSDOF 14
ENDMDL
MODEL 3
REMARK VINA RESULT:     -13.5      5.467     11.873
REMARK SMILES O=C(NCCCNC(=O)c1ccccc1-c1ccccc1C(=O)N1CC[NH+](Cc2ccc3c(c2)OCO3)CC1)c1ccc(-c2c3nc(c(-c4c(F)c(F)c(F)c(F)c4F)c4ccc([nH]4)c(-c4c(F)c(F)c(F)c(F)c4F)c4nc(c(-c5c(F)c(F)c(F)c(F)c5F)c5ccc2[nH]5)C=C4)C=C3)cc1
REMARK SMILES IDX 6 1 5 2 4 3 3 4 1 5 2 6 40 8 41 9 102 10 42 11 101 12 43 13
REMARK SMILES IDX 44 14 45 15 95 16 46 17 100 18 94 19 96 20 47 21 99 22 93 23
REMARK SMILES IDX 92 24 48 26 80 27 60 28 79 29 61 30 64 31 78 32 97 33 62 34
REMARK SMILES IDX 63 35 77 37 98 38 65 39 49 40 50 41 58 42 51 43 52 44 56 45
REMARK SMILES IDX 59 46 53 47 54 48 57 49 55 50 81 51 82 52 90 53 83 54 84 55
REMARK SMILES IDX 88 56 91 57 85 58 86 59 89 60 87 61 66 62 67 63 75 64 68 65
REMARK SMILES IDX 69 66 73 67 76 68 70 69 71 70 74 71 72 72 7 73 8 74 9 76
REMARK SMILES IDX 10 77 11 78 15 79 12 80 14 81 13 82 16 83 17 84 21 85 18 86
REMARK SMILES IDX 20 87 19 88 22 89 23 90 24 91 25 92 39 93 26 94 38 95 27 96
REMARK SMILES IDX 28 98 29 99 30 100 34 101 31 102 33 103 32 104 35 105 37 106
REMARK SMILES IDX 36 107
REMARK H PARENT 3 7 96 25 64 36 7 75 27 97
REMARK Flexibility Score: inf
ROOT
ATOM      1  C   UNL A   1      43.279  23.274  26.224  1.00  0.00     0.118 C 
ENDROOT
BRANCH   1   2
ATOM      2  C   UNL A   1      42.228  22.307  25.711  1.00  0.00     0.042 C 
BRANCH   2   3
ATOM      3  C   UNL A   1      41.091  22.177  26.713  1.00  0.00     0.118 C 
BRANCH   3   4
ATOM      4  N   UNL A   1      39.800  22.436  26.080  1.00  0.00    -0.352 N 
ATOM      5  O   UNL A   1      37.754  23.402  25.983  1.00  0.00    -0.269 OA
ATOM      6  C   UNL A   1      38.929  23.478  26.304  1.00  0.00     0.251 C 
ATOM      7  H   UNL A   1      39.516  21.778  25.403  1.00  0.00     0.163 HD
BRANCH   6   8
ATOM      8  C   UNL A   1      39.454  24.685  26.973  1.00  0.00     0.039 A 
ATOM      9  C   UNL A   1      39.211  24.846  28.332  1.00  0.00     0.014 A 
ATOM     10  C   UNL A   1      40.143  25.664  26.257  1.00  0.00     0.014 A 
ATOM     11  C   UNL A   1      39.421  26.076  28.919  1.00  0.00     0.010 A 
ATOM     12  C   UNL A   1      40.540  26.835  26.912  1.00  0.00     0.010 A 
ATOM     13  C   UNL A   1      40.155  27.061  28.243  1.00  0.00    -0.014 A 
BRANCH  13  14
ATOM     14  C   UNL A   1      40.583  28.243  29.029  1.00  0.00     0.031 A 
ATOM     15  C   UNL A   1      39.628  29.336  29.399  1.00  0.00     0.074 A 
ATOM     16  C   UNL A   1      41.854  28.255  29.482  1.00  0.00     0.049 A 
ATOM     17  N   UNL A   1      39.847  30.401  30.129  1.00  0.00    -0.248 NA
ATOM     18  C   UNL A   1      38.256  29.238  28.880  1.00  0.00     0.031 C 
ATOM     19  C   UNL A   1      42.869  27.242  29.166  1.00  0.00     0.029 A 
ATOM     20  N   UNL A   1      42.501  29.104  30.339  1.00  0.00    -0.354 N 
ATOM     21  C   UNL A   1      38.653  31.107  30.144  1.00  0.00     0.074 A 
ATOM     22  C   UNL A   1      37.717  30.367  29.323  1.00  0.00     0.031 C 
ATOM     23  C   UNL A   1      43.970  27.473  29.889  1.00  0.00     0.029 A 
ATOM     24  C   UNL A   1      43.786  28.711  30.629  1.00  0.00     0.049 A 
ATOM     25  H   UNL A   1      42.087  29.916  30.712  1.00  0.00     0.167 HD
ATOM     26  C   UNL A   1      38.370  32.261  30.793  1.00  0.00     0.037 A 
ATOM     27  C   UNL A   1      44.731  29.299  31.383  1.00  0.00     0.037 A 
ATOM     28  C   UNL A   1      39.316  32.981  31.611  1.00  0.00     0.049 A 
ATOM     29  C   UNL A   1      44.391  30.588  32.065  1.00  0.00     0.074 A 
ATOM     30  C   UNL A   1      39.135  34.164  32.305  1.00  0.00     0.029 A 
ATOM     31  N   UNL A   1      40.624  32.577  31.846  1.00  0.00    -0.354 N 
ATOM     32  N   UNL A   1      43.256  31.246  32.068  1.00  0.00    -0.248 NA
ATOM     33  C   UNL A   1      45.459  31.222  32.842  1.00  0.00     0.031 C 
ATOM     34  C   UNL A   1      40.345  34.500  32.922  1.00  0.00     0.029 A 
ATOM     35  C   UNL A   1      41.265  33.497  32.663  1.00  0.00     0.049 A 
ATOM     36  H   UNL A   1      41.038  31.759  31.486  1.00  0.00     0.167 HD
ATOM     37  C   UNL A   1      43.471  32.368  32.851  1.00  0.00     0.074 A 
ATOM     38  C   UNL A   1      44.833  32.279  33.338  1.00  0.00     0.031 C 
ATOM     39  C   UNL A   1      42.624  33.388  33.132  1.00  0.00     0.037 A 
BRANCH  26  40
ATOM     40  C   UNL A   1      36.989  32.833  30.636  1.00  0.00     0.064 A 
ATOM     41  C   UNL A   1      36.000  32.653  31.614  1.00  0.00     0.173 A 
ATOM     42  C   UNL A   1      36.665  33.616  29.517  1.00  0.00     0.173 A 
ATOM     43  F   UNL A   1      36.251  31.901  32.697  1.00  0.00    -0.203 F 
ATOM     44  C   UNL A   1      34.735  33.218  31.470  1.00  0.00     0.198 A 
ATOM     45  C   UNL A   1      35.409  34.205  29.390  1.00  0.00     0.198 A 
ATOM     46  F   UNL A   1      37.573  33.825  28.551  1.00  0.00    -0.203 F 
ATOM     47  F   UNL A   1      33.794  32.997  32.399  1.00  0.00    -0.200 F 
ATOM     48  C   UNL A   1      34.444  34.001  30.363  1.00  0.00     0.200 A 
ATOM     49  F   UNL A   1      35.134  34.973  28.326  1.00  0.00    -0.200 F 
ATOM     50  F   UNL A   1      33.230  34.555  30.233  1.00  0.00    -0.200 F 
ENDBRANCH  26  40
BRANCH  27  51
ATOM     51  C   UNL A   1      46.085  28.695  31.481  1.00  0.00     0.064 A 
ATOM     52  C   UNL A   1      46.475  27.955  32.603  1.00  0.00     0.173 A 
ATOM     53  C   UNL A   1      47.020  28.844  30.443  1.00  0.00     0.173 A 
ATOM     54  F   UNL A   1      45.624  27.794  33.629  1.00  0.00    -0.203 F 
ATOM     55  C   UNL A   1      47.755  27.411  32.698  1.00  0.00     0.198 A 
ATOM     56  C   UNL A   1      48.283  28.265  30.520  1.00  0.00     0.198 A 
ATOM     57  F   UNL A   1      46.696  29.533  29.339  1.00  0.00    -0.203 F 
ATOM     58  F   UNL A   1      48.121  26.756  33.808  1.00  0.00    -0.200 F 
ATOM     59  C   UNL A   1      48.654  27.561  31.653  1.00  0.00     0.200 A 
ATOM     60  F   UNL A   1      49.138  28.392  29.496  1.00  0.00    -0.200 F 
ATOM     61  F   UNL A   1      49.883  27.032  31.743  1.00  0.00    -0.200 F 
ENDBRANCH  27  51
BRANCH  39  62
ATOM     62  C   UNL A   1      43.152  34.467  34.030  1.00  0.00     0.064 A 
ATOM     63  C   UNL A   1      43.067  34.371  35.426  1.00  0.00     0.173 A 
ATOM     64  C   UNL A   1      43.744  35.616  33.485  1.00  0.00     0.173 A 
ATOM     65  F   UNL A   1      42.490  33.301  35.996  1.00  0.00    -0.203 F 
ATOM     66  C   UNL A   1      43.517  35.404  36.244  1.00  0.00     0.198 A 
ATOM     67  C   UNL A   1      44.226  36.631  34.305  1.00  0.00     0.198 A 
ATOM     68  F   UNL A   1      43.855  35.755  32.154  1.00  0.00    -0.203 F 
ATOM     69  F   UNL A   1      43.362  35.320  37.572  1.00  0.00    -0.200 F 
ATOM     70  C   UNL A   1      44.101  36.529  35.683  1.00  0.00     0.200 A 
ATOM     71  F   UNL A   1      44.803  37.711  33.763  1.00  0.00    -0.200 F 
ATOM     72  F   UNL A   1      44.532  37.524  36.470  1.00  0.00    -0.200 F 
ENDBRANCH  39  62
ENDBRANCH  13  14
ENDBRANCH   6   8
ENDBRANCH   3   4
ENDBRANCH   2   3
ENDBRANCH   1   2
BRANCH   1  73
ATOM     73  N   UNL A   1      44.534  22.569  26.370  1.00  0.00    -0.352 N 
ATOM     74  C   UNL A   1      45.632  23.174  26.913  1.00  0.00     0.251 C 
ATOM     75  H   UNL A   1      44.598  21.633  26.072  1.00  0.00     0.163 HD
ATOM     76  O   UNL A   1      46.673  23.229  26.267  1.00  0.00    -0.269 OA
BRANCH  74  77
ATOM     77  C   UNL A   1      45.504  23.759  28.275  1.00  0.00     0.047 A 
ATOM     78  C   UNL A   1      44.484  23.224  29.079  1.00  0.00     0.014 A 
ATOM     79  C   UNL A   1      46.305  24.834  28.735  1.00  0.00    -0.005 A 
ATOM     80  C   UNL A   1      44.272  23.711  30.367  1.00  0.00     0.001 A 
ATOM     81  C   UNL A   1      46.075  25.289  30.053  1.00  0.00     0.009 A 
ATOM     82  C   UNL A   1      45.076  24.734  30.857  1.00  0.00     0.001 A 
BRANCH  79  83
ATOM     83  C   UNL A   1      47.408  25.461  27.959  1.00  0.00    -0.005 A 
ATOM     84  C   UNL A   1      48.697  24.893  28.156  1.00  0.00     0.009 A 
ATOM     85  C   UNL A   1      47.273  26.445  26.946  1.00  0.00     0.047 A 
ATOM     86  C   UNL A   1      49.786  25.201  27.342  1.00  0.00     0.001 A 
ATOM     87  C   UNL A   1      48.403  26.759  26.149  1.00  0.00     0.014 A 
ATOM     88  C   UNL A   1      49.636  26.131  26.328  1.00  0.00     0.001 A 
BRANCH  85  89
ATOM     89  C   UNL A   1      45.982  27.038  26.447  1.00  0.00     0.254 C 
ATOM     90  O   UNL A   1      45.095  26.257  26.087  1.00  0.00    -0.269 OA
ATOM     91  N   UNL A   1      45.742  28.406  26.502  1.00  0.00    -0.327 N 
ATOM     92  C   UNL A   1      44.353  28.827  26.628  1.00  0.00     0.181 C 
ATOM     93  C   UNL A   1      46.595  29.386  25.846  1.00  0.00     0.181 C 
ATOM     94  C   UNL A   1      44.207  30.215  27.287  1.00  0.00     0.284 C 
ATOM     95  C   UNL A   1      46.419  30.825  26.398  1.00  0.00     0.284 C 
ATOM     96  N   UNL A   1      45.076  31.290  26.782  1.00  0.00    -0.328 N 
ATOM     97  H   UNL A   1      45.256  31.881  27.593  1.00  0.00     0.348 HD
BRANCH  96  98
ATOM     98  C   UNL A   1      44.432  32.259  25.887  1.00  0.00     0.299 C 
BRANCH  98  99
ATOM     99  C   UNL A   1      44.105  33.563  26.575  1.00  0.00     0.010 A 
ATOM    100  C   UNL A   1      43.713  34.676  25.796  1.00  0.00     0.013 A 
ATOM    101  C   UNL A   1      43.886  33.554  27.961  1.00  0.00     0.060 A 
ATOM    102  C   UNL A   1      42.899  35.665  26.343  1.00  0.00     0.051 A 
ATOM    103  C   UNL A   1      43.023  34.502  28.450  1.00  0.00     0.166 A 
ATOM    104  C   UNL A   1      42.507  35.500  27.653  1.00  0.00     0.165 A 
ATOM    105  O   UNL A   1      42.401  34.434  29.661  1.00  0.00    -0.454 OA
ATOM    106  O   UNL A   1      41.491  36.164  28.270  1.00  0.00    -0.454 OA
ATOM    107  C   UNL A   1      41.261  35.275  29.386  1.00  0.00     0.468 C 
ENDBRANCH  98  99
ENDBRANCH  96  98
ENDBRANCH  85  89
ENDBRANCH  79  83
ENDBRANCH  74  77
ENDBRANCH   1  73
TORSDOF 14
ENDMDL
