MODEL 1
REMARK VINA RESULT:     -12.3      0.000      0.000
REMARK SMILES CCOc1ccc(OCC(=O)N2CCC[C@H](C(=O)NCCCNC(=O)c3ccc(-c4c5nc(c(-c6c(F)c(F)c(F)c(F)c6F)c6ccc([nH]6)c(-c6c(F)c(F)c(F)c(F)c6F)c6nc(c(-c7c(F)c(F)c(F)c(F)c7F)c7ccc4[nH]7)C=C6)C=C5)cc3)C2)cc1
REMARK SMILES IDX 17 1 18 2 19 3 16 5 12 6 13 7 89 8 14 9 15 10 10 11 11 12
REMARK SMILES IDX 9 13 8 14 7 15 4 16 5 17 91 18 6 19 90 20 3 21 2 22 1 23
REMARK SMILES IDX 20 24 21 25 22 26 23 27 24 28 25 30 26 31 27 32 88 33 28 34
REMARK SMILES IDX 87 35 29 36 30 37 31 38 81 39 32 40 86 41 80 42 82 43 33 44
REMARK SMILES IDX 85 45 79 46 78 47 34 49 66 50 46 51 65 52 47 53 50 54 64 55
REMARK SMILES IDX 83 56 48 57 49 58 63 60 84 61 51 62 35 63 36 64 44 65 37 66
REMARK SMILES IDX 38 67 42 68 45 69 39 70 40 71 43 72 41 73 67 74 68 75 76 76
REMARK SMILES IDX 69 77 70 78 74 79 77 80 71 81 72 82 75 83 73 84 52 85 53 86
REMARK SMILES IDX 61 87 54 88 55 89 59 90 62 91 56 92 57 93 60 94 58 95
REMARK H PARENT 19 4 23 29 82 48 50 59
REMARK Flexibility Score: inf
ROOT
ATOM      1  C   UNL A   1      31.326  29.234  24.513  1.00  0.00     0.224 C 
ATOM      2  O   UNL A   1      30.893  29.137  23.357  1.00  0.00    -0.275 OA
ATOM      3  N   UNL A   1      31.225  30.467  25.068  1.00  0.00    -0.356 N 
ATOM      4  H   UNL A   1      30.939  31.168  24.438  1.00  0.00     0.163 HD
ENDROOT
BRANCH   1   5
ATOM      5  C   UNL A   1      31.960  28.000  25.177  1.00  0.00     0.098 C 
ATOM      6  N   UNL A   1      32.067  26.062  23.605  1.00  0.00    -0.339 N 
ATOM      7  C   UNL A   1      31.223  25.226  24.466  1.00  0.00     0.119 C 
ATOM      8  C   UNL A   1      32.821  27.101  24.290  1.00  0.00     0.133 C 
ATOM      9  C   UNL A   1      30.367  26.002  25.470  1.00  0.00     0.022 C 
ATOM     10  C   UNL A   1      31.044  27.208  26.106  1.00  0.00     0.017 C 
BRANCH   6  11
ATOM     11  C   UNL A   1      32.081  25.826  22.232  1.00  0.00     0.260 C 
ATOM     12  O   UNL A   1      31.354  26.481  21.474  1.00  0.00    -0.271 OA
BRANCH  11  13
ATOM     13  C   UNL A   1      32.897  24.653  21.628  1.00  0.00     0.329 C 
BRANCH  13  14
ATOM     14  O   UNL A   1      33.970  24.009  22.268  1.00  0.00    -0.484 OA
BRANCH  14  15
ATOM     15  C   UNL A   1      33.742  22.846  22.946  1.00  0.00     0.120 A 
ATOM     16  C   UNL A   1      32.974  20.465  24.192  1.00  0.00     0.119 A 
ATOM     17  C   UNL A   1      32.193  20.986  23.167  1.00  0.00     0.050 A 
ATOM     18  C   UNL A   1      34.150  21.109  24.570  1.00  0.00     0.050 A 
ATOM     19  C   UNL A   1      32.581  22.172  22.544  1.00  0.00     0.050 A 
ATOM     20  C   UNL A   1      34.528  22.311  23.961  1.00  0.00     0.050 A 
BRANCH  16  21
ATOM     21  O   UNL A   1      32.631  19.247  24.707  1.00  0.00    -0.494 OA
BRANCH  21  22
ATOM     22  C   UNL A   1      32.572  18.208  23.723  1.00  0.00     0.226 C 
ATOM     23  C   UNL A   1      33.879  17.431  23.664  1.00  0.00     0.049 C 
ENDBRANCH  21  22
ENDBRANCH  16  21
ENDBRANCH  14  15
ENDBRANCH  13  14
ENDBRANCH  11  13
ENDBRANCH   6  11
ENDBRANCH   1   5
BRANCH   3  24
ATOM     24  C   UNL A   1      31.460  30.943  26.410  1.00  0.00     0.117 C 
BRANCH  24  25
ATOM     25  C   UNL A   1      31.416  32.455  26.545  1.00  0.00     0.042 C 
BRANCH  25  26
ATOM     26  C   UNL A   1      32.643  33.035  27.219  1.00  0.00     0.118 C 
BRANCH  26  27
ATOM     27  N   UNL A   1      32.429  34.394  27.704  1.00  0.00    -0.352 N 
ATOM     28  C   UNL A   1      33.022  35.087  28.731  1.00  0.00     0.251 C 
ATOM     29  H   UNL A   1      31.744  34.901  27.211  1.00  0.00     0.163 HD
ATOM     30  O   UNL A   1      32.580  36.183  29.057  1.00  0.00    -0.269 OA
BRANCH  28  31
ATOM     31  C   UNL A   1      34.171  34.512  29.462  1.00  0.00     0.039 A 
ATOM     32  C   UNL A   1      33.943  33.867  30.681  1.00  0.00     0.014 A 
ATOM     33  C   UNL A   1      35.469  34.612  28.962  1.00  0.00     0.014 A 
ATOM     34  C   UNL A   1      35.007  33.274  31.360  1.00  0.00     0.010 A 
ATOM     35  C   UNL A   1      36.502  33.911  29.568  1.00  0.00     0.010 A 
ATOM     36  C   UNL A   1      36.291  33.259  30.789  1.00  0.00    -0.014 A 
BRANCH  36  37
ATOM     37  C   UNL A   1      37.436  32.610  31.472  1.00  0.00     0.031 A 
ATOM     38  C   UNL A   1      38.157  31.470  30.803  1.00  0.00     0.074 A 
ATOM     39  C   UNL A   1      37.788  33.006  32.711  1.00  0.00     0.049 A 
ATOM     40  N   UNL A   1      39.139  30.731  31.253  1.00  0.00    -0.248 NA
ATOM     41  C   UNL A   1      37.686  31.080  29.463  1.00  0.00     0.031 C 
ATOM     42  C   UNL A   1      37.123  34.058  33.484  1.00  0.00     0.029 A 
ATOM     43  N   UNL A   1      38.788  32.567  33.540  1.00  0.00    -0.354 N 
ATOM     44  C   UNL A   1      39.385  29.788  30.264  1.00  0.00     0.074 A 
ATOM     45  C   UNL A   1      38.403  29.994  29.225  1.00  0.00     0.031 C 
ATOM     46  C   UNL A   1      37.759  34.209  34.656  1.00  0.00     0.029 A 
ATOM     47  C   UNL A   1      38.844  33.238  34.738  1.00  0.00     0.049 A 
ATOM     48  H   UNL A   1      39.407  31.839  33.300  1.00  0.00     0.167 HD
ATOM     49  C   UNL A   1      40.364  28.855  30.210  1.00  0.00     0.037 A 
ATOM     50  C   UNL A   1      39.680  33.082  35.782  1.00  0.00     0.037 A 
ATOM     51  C   UNL A   1      41.359  28.679  31.235  1.00  0.00     0.049 A 
ATOM     52  C   UNL A   1      40.762  32.039  35.696  1.00  0.00     0.074 A 
ATOM     53  C   UNL A   1      42.433  27.810  31.255  1.00  0.00     0.029 A 
ATOM     54  N   UNL A   1      41.396  29.392  32.424  1.00  0.00    -0.354 N 
ATOM     55  N   UNL A   1      41.033  31.204  34.723  1.00  0.00    -0.248 NA
ATOM     56  C   UNL A   1      41.661  31.926  36.852  1.00  0.00     0.031 C 
ATOM     57  C   UNL A   1      43.089  27.954  32.481  1.00  0.00     0.029 A 
ATOM     58  C   UNL A   1      42.462  28.963  33.198  1.00  0.00     0.049 A 
ATOM     59  H   UNL A   1      40.761  30.099  32.681  1.00  0.00     0.167 HD
ATOM     60  C   UNL A   1      42.150  30.489  35.133  1.00  0.00     0.074 A 
ATOM     61  C   UNL A   1      42.516  31.003  36.436  1.00  0.00     0.031 C 
ATOM     62  C   UNL A   1      42.813  29.494  34.492  1.00  0.00     0.037 A 
BRANCH  49  63
ATOM     63  C   UNL A   1      40.410  27.961  29.003  1.00  0.00     0.064 A 
ATOM     64  C   UNL A   1      41.163  28.291  27.865  1.00  0.00     0.173 A 
ATOM     65  C   UNL A   1      39.710  26.745  28.990  1.00  0.00     0.173 A 
ATOM     66  F   UNL A   1      41.841  29.448  27.816  1.00  0.00    -0.203 F 
ATOM     67  C   UNL A   1      41.185  27.457  26.750  1.00  0.00     0.198 A 
ATOM     68  C   UNL A   1      39.763  25.896  27.888  1.00  0.00     0.198 A 
ATOM     69  F   UNL A   1      38.974  26.376  30.051  1.00  0.00    -0.203 F 
ATOM     70  F   UNL A   1      41.864  27.824  25.654  1.00  0.00    -0.200 F 
ATOM     71  C   UNL A   1      40.492  26.257  26.765  1.00  0.00     0.200 A 
ATOM     72  F   UNL A   1      39.104  24.729  27.911  1.00  0.00    -0.200 F 
ATOM     73  F   UNL A   1      40.521  25.451  25.695  1.00  0.00    -0.200 F 
ENDBRANCH  49  63
BRANCH  50  74
ATOM     74  C   UNL A   1      39.544  33.952  36.981  1.00  0.00     0.064 A 
ATOM     75  C   UNL A   1      38.827  33.521  38.107  1.00  0.00     0.173 A 
ATOM     76  C   UNL A   1      40.120  35.230  37.027  1.00  0.00     0.173 A 
ATOM     77  F   UNL A   1      38.244  32.313  38.107  1.00  0.00    -0.203 F 
ATOM     78  C   UNL A   1      38.670  34.343  39.221  1.00  0.00     0.198 A 
ATOM     79  C   UNL A   1      39.989  36.039  38.154  1.00  0.00     0.198 A 
ATOM     80  F   UNL A   1      40.822  35.688  35.981  1.00  0.00    -0.203 F 
ATOM     81  F   UNL A   1      37.935  33.926  40.260  1.00  0.00    -0.200 F 
ATOM     82  C   UNL A   1      39.256  35.600  39.245  1.00  0.00     0.200 A 
ATOM     83  F   UNL A   1      40.571  37.246  38.181  1.00  0.00    -0.200 F 
ATOM     84  F   UNL A   1      39.106  36.390  40.318  1.00  0.00    -0.200 F 
ENDBRANCH  50  74
BRANCH  62  85
ATOM     85  C   UNL A   1      44.026  28.927  35.171  1.00  0.00     0.064 A 
ATOM     86  C   UNL A   1      45.312  29.428  34.926  1.00  0.00     0.173 A 
ATOM     87  C   UNL A   1      43.892  27.891  36.108  1.00  0.00     0.173 A 
ATOM     88  F   UNL A   1      45.495  30.411  34.029  1.00  0.00    -0.203 F 
ATOM     89  C   UNL A   1      46.424  28.891  35.569  1.00  0.00     0.198 A 
ATOM     90  C   UNL A   1      45.001  27.381  36.776  1.00  0.00     0.198 A 
ATOM     91  F   UNL A   1      42.682  27.382  36.388  1.00  0.00    -0.203 F 
ATOM     92  F   UNL A   1      47.650  29.346  35.276  1.00  0.00    -0.200 F 
ATOM     93  C   UNL A   1      46.267  27.874  36.500  1.00  0.00     0.200 A 
ATOM     94  F   UNL A   1      44.845  26.413  37.689  1.00  0.00    -0.200 F 
ATOM     95  F   UNL A   1      47.337  27.364  37.122  1.00  0.00    -0.200 F 
ENDBRANCH  62  85
ENDBRANCH  36  37
ENDBRANCH  28  31
ENDBRANCH  26  27
ENDBRANCH  25  26
ENDBRANCH  24  25
ENDBRANCH   3  24
TORSDOF 16
ENDMDL
MODEL 2
REMARK VINA RESULT:     -12.1      2.135      7.745
REMARK SMILES CCOc1ccc(OCC(=O)N2CCC[C@H](C(=O)NCCCNC(=O)c3ccc(-c4c5nc(c(-c6c(F)c(F)c(F)c(F)c6F)c6ccc([nH]6)c(-c6c(F)c(F)c(F)c(F)c6F)c6nc(c(-c7c(F)c(F)c(F)c(F)c7F)c7ccc4[nH]7)C=C6)C=C5)cc3)C2)cc1
REMARK SMILES IDX 17 1 18 2 19 3 16 5 12 6 13 7 89 8 14 9 15 10 10 11 11 12
REMARK SMILES IDX 9 13 8 14 7 15 4 16 5 17 91 18 6 19 90 20 3 21 2 22 1 23
REMARK SMILES IDX 20 24 21 25 22 26 23 27 24 28 25 30 26 31 27 32 88 33 28 34
REMARK SMILES IDX 87 35 29 36 30 37 31 38 81 39 32 40 86 41 80 42 82 43 33 44
REMARK SMILES IDX 85 45 79 46 78 47 34 49 66 50 46 51 65 52 47 53 50 54 64 55
REMARK SMILES IDX 83 56 48 57 49 58 63 60 84 61 51 62 35 63 36 64 44 65 37 66
REMARK SMILES IDX 38 67 42 68 45 69 39 70 40 71 43 72 41 73 67 74 68 75 76 76
REMARK SMILES IDX 69 77 70 78 74 79 77 80 71 81 72 82 75 83 73 84 52 85 53 86
REMARK SMILES IDX 61 87 54 88 55 89 59 90 62 91 56 92 57 93 60 94 58 95
REMARK H PARENT 19 4 23 29 82 48 50 59
REMARK Flexibility Score: inf
ROOT
ATOM      1  C   UNL A   1      32.491  25.140  25.878  1.00  0.00     0.224 C 
ATOM      2  O   UNL A   1      32.344  24.045  26.438  1.00  0.00    -0.275 OA
ATOM      3  N   UNL A   1      31.424  25.974  25.951  1.00  0.00    -0.356 N 
ATOM      4  H   UNL A   1      30.615  25.559  26.327  1.00  0.00     0.163 HD
ENDROOT
BRANCH   1   5
ATOM      5  C   UNL A   1      33.808  25.427  25.138  1.00  0.00     0.098 C 
ATOM      6  N   UNL A   1      34.078  23.960  23.136  1.00  0.00    -0.339 N 
ATOM      7  C   UNL A   1      35.313  23.360  23.655  1.00  0.00     0.119 C 
ATOM      8  C   UNL A   1      33.789  25.302  23.615  1.00  0.00     0.133 C 
ATOM      9  C   UNL A   1      35.501  23.492  25.168  1.00  0.00     0.022 C 
ATOM     10  C   UNL A   1      35.061  24.823  25.763  1.00  0.00     0.017 C 
BRANCH   6  11
ATOM     11  C   UNL A   1      33.282  23.224  22.260  1.00  0.00     0.260 C 
ATOM     12  O   UNL A   1      33.430  23.330  21.036  1.00  0.00    -0.271 OA
BRANCH  11  13
ATOM     13  C   UNL A   1      32.103  22.360  22.781  1.00  0.00     0.329 C 
BRANCH  13  14
ATOM     14  O   UNL A   1      32.107  21.643  23.991  1.00  0.00    -0.484 OA
BRANCH  14  15
ATOM     15  C   UNL A   1      32.736  20.433  24.047  1.00  0.00     0.120 A 
ATOM     16  C   UNL A   1      33.763  17.833  23.997  1.00  0.00     0.119 A 
ATOM     17  C   UNL A   1      32.662  18.151  23.211  1.00  0.00     0.050 A 
ATOM     18  C   UNL A   1      34.371  18.815  24.776  1.00  0.00     0.050 A 
ATOM     19  C   UNL A   1      32.154  19.450  23.235  1.00  0.00     0.050 A 
ATOM     20  C   UNL A   1      33.848  20.113  24.819  1.00  0.00     0.050 A 
BRANCH  16  21
ATOM     21  O   UNL A   1      34.306  16.587  23.869  1.00  0.00    -0.494 OA
BRANCH  21  22
ATOM     22  C   UNL A   1      34.313  15.839  25.091  1.00  0.00     0.226 C 
ATOM     23  C   UNL A   1      32.958  15.200  25.353  1.00  0.00     0.049 C 
ENDBRANCH  21  22
ENDBRANCH  16  21
ENDBRANCH  14  15
ENDBRANCH  13  14
ENDBRANCH  11  13
ENDBRANCH   6  11
ENDBRANCH   1   5
BRANCH   3  24
ATOM     24  C   UNL A   1      31.255  27.358  25.577  1.00  0.00     0.117 C 
BRANCH  24  25
ATOM     25  C   UNL A   1      31.771  28.343  26.611  1.00  0.00     0.042 C 
BRANCH  25  26
ATOM     26  C   UNL A   1      32.907  29.207  26.103  1.00  0.00     0.118 C 
BRANCH  26  27
ATOM     27  N   UNL A   1      32.722  30.621  26.415  1.00  0.00    -0.352 N 
ATOM     28  C   UNL A   1      33.426  31.460  27.242  1.00  0.00     0.251 C 
ATOM     29  H   UNL A   1      31.963  31.044  25.952  1.00  0.00     0.163 HD
ATOM     30  O   UNL A   1      33.001  32.588  27.466  1.00  0.00    -0.269 OA
BRANCH  28  31
ATOM     31  C   UNL A   1      34.679  31.007  27.884  1.00  0.00     0.039 A 
ATOM     32  C   UNL A   1      35.740  31.908  28.006  1.00  0.00     0.014 A 
ATOM     33  C   UNL A   1      34.818  29.702  28.356  1.00  0.00     0.014 A 
ATOM     34  C   UNL A   1      36.912  31.515  28.653  1.00  0.00     0.010 A 
ATOM     35  C   UNL A   1      35.927  29.354  29.114  1.00  0.00     0.010 A 
ATOM     36  C   UNL A   1      37.000  30.244  29.246  1.00  0.00    -0.014 A 
BRANCH  36  37
ATOM     37  C   UNL A   1      38.220  29.809  29.968  1.00  0.00     0.031 A 
ATOM     38  C   UNL A   1      38.488  30.320  31.358  1.00  0.00     0.074 A 
ATOM     39  C   UNL A   1      39.108  29.003  29.355  1.00  0.00     0.049 A 
ATOM     40  N   UNL A   1      39.521  30.110  32.135  1.00  0.00    -0.248 NA
ATOM     41  C   UNL A   1      37.480  31.222  31.942  1.00  0.00     0.031 C 
ATOM     42  C   UNL A   1      38.985  28.494  27.987  1.00  0.00     0.029 A 
ATOM     43  N   UNL A   1      40.293  28.475  29.800  1.00  0.00    -0.354 N 
ATOM     44  C   UNL A   1      39.292  30.863  33.279  1.00  0.00     0.074 A 
ATOM     45  C   UNL A   1      38.066  31.596  33.068  1.00  0.00     0.031 C 
ATOM     46  C   UNL A   1      40.031  27.696  27.720  1.00  0.00     0.029 A 
ATOM     47  C   UNL A   1      40.919  27.673  28.876  1.00  0.00     0.049 A 
ATOM     48  H   UNL A   1      40.661  28.655  30.695  1.00  0.00     0.167 HD
ATOM     49  C   UNL A   1      40.021  30.913  34.419  1.00  0.00     0.037 A 
ATOM     50  C   UNL A   1      42.081  26.997  28.959  1.00  0.00     0.037 A 
ATOM     51  C   UNL A   1      41.224  30.153  34.632  1.00  0.00     0.049 A 
ATOM     52  C   UNL A   1      42.872  27.067  30.238  1.00  0.00     0.074 A 
ATOM     53  C   UNL A   1      42.006  30.079  35.769  1.00  0.00     0.029 A 
ATOM     54  N   UNL A   1      41.816  29.335  33.682  1.00  0.00    -0.354 N 
ATOM     55  N   UNL A   1      42.607  27.722  31.342  1.00  0.00    -0.248 NA
ATOM     56  C   UNL A   1      44.119  26.293  30.285  1.00  0.00     0.031 C 
ATOM     57  C   UNL A   1      43.105  29.260  35.489  1.00  0.00     0.029 A 
ATOM     58  C   UNL A   1      42.971  28.770  34.199  1.00  0.00     0.049 A 
ATOM     59  H   UNL A   1      41.468  29.177  32.774  1.00  0.00     0.167 HD
ATOM     60  C   UNL A   1      43.634  27.417  32.224  1.00  0.00     0.074 A 
ATOM     61  C   UNL A   1      44.517  26.502  31.532  1.00  0.00     0.031 C 
ATOM     62  C   UNL A   1      43.832  27.855  33.492  1.00  0.00     0.037 A 
BRANCH  49  63
ATOM     63  C   UNL A   1      39.533  31.813  35.519  1.00  0.00     0.064 A 
ATOM     64  C   UNL A   1      40.021  33.119  35.679  1.00  0.00     0.173 A 
ATOM     65  C   UNL A   1      38.546  31.372  36.414  1.00  0.00     0.173 A 
ATOM     66  F   UNL A   1      40.976  33.588  34.861  1.00  0.00    -0.203 F 
ATOM     67  C   UNL A   1      39.567  33.936  36.712  1.00  0.00     0.198 A 
ATOM     68  C   UNL A   1      38.068  32.203  37.424  1.00  0.00     0.198 A 
ATOM     69  F   UNL A   1      38.041  30.133  36.309  1.00  0.00    -0.203 F 
ATOM     70  F   UNL A   1      40.093  35.157  36.879  1.00  0.00    -0.200 F 
ATOM     71  C   UNL A   1      38.585  33.481  37.577  1.00  0.00     0.200 A 
ATOM     72  F   UNL A   1      37.108  31.767  38.251  1.00  0.00    -0.200 F 
ATOM     73  F   UNL A   1      38.143  34.270  38.566  1.00  0.00    -0.200 F 
ENDBRANCH  49  63
BRANCH  50  74
ATOM     74  C   UNL A   1      42.549  26.176  27.810  1.00  0.00     0.064 A 
ATOM     75  C   UNL A   1      42.126  24.847  27.655  1.00  0.00     0.173 A 
ATOM     76  C   UNL A   1      43.429  26.695  26.850  1.00  0.00     0.173 A 
ATOM     77  F   UNL A   1      41.296  24.299  28.555  1.00  0.00    -0.203 F 
ATOM     78  C   UNL A   1      42.585  24.063  26.599  1.00  0.00     0.198 A 
ATOM     79  C   UNL A   1      43.863  25.919  25.777  1.00  0.00     0.198 A 
ATOM     80  F   UNL A   1      43.859  27.961  26.948  1.00  0.00    -0.203 F 
ATOM     81  F   UNL A   1      42.206  22.781  26.504  1.00  0.00    -0.200 F 
ATOM     82  C   UNL A   1      43.449  24.602  25.657  1.00  0.00     0.200 A 
ATOM     83  F   UNL A   1      44.683  26.449  24.859  1.00  0.00    -0.200 F 
ATOM     84  F   UNL A   1      43.889  23.848  24.640  1.00  0.00    -0.200 F 
ENDBRANCH  50  74
BRANCH  62  85
ATOM     85  C   UNL A   1      45.026  27.317  34.227  1.00  0.00     0.064 A 
ATOM     86  C   UNL A   1      46.287  27.922  34.131  1.00  0.00     0.173 A 
ATOM     87  C   UNL A   1      44.896  26.202  35.069  1.00  0.00     0.173 A 
ATOM     88  F   UNL A   1      46.468  28.985  33.330  1.00  0.00    -0.203 F 
ATOM     89  C   UNL A   1      47.382  27.411  34.823  1.00  0.00     0.198 A 
ATOM     90  C   UNL A   1      45.983  25.715  35.788  1.00  0.00     0.198 A 
ATOM     91  F   UNL A   1      43.709  25.591  35.205  1.00  0.00    -0.203 F 
ATOM     92  F   UNL A   1      48.589  27.970  34.670  1.00  0.00    -0.200 F 
ATOM     93  C   UNL A   1      47.226  26.313  35.657  1.00  0.00     0.200 A 
ATOM     94  F   UNL A   1      45.827  24.667  36.607  1.00  0.00    -0.200 F 
ATOM     95  F   UNL A   1      48.279  25.826  36.328  1.00  0.00    -0.200 F 
ENDBRANCH  62  85
ENDBRANCH  36  37
ENDBRANCH  28  31
ENDBRANCH  26  27
ENDBRANCH  25  26
ENDBRANCH  24  25
ENDBRANCH   3  24
TORSDOF 16
ENDMDL
MODEL 3
REMARK VINA RESULT:     -12.1      2.634      8.835
REMARK SMILES CCOc1ccc(OCC(=O)N2CCC[C@H](C(=O)NCCCNC(=O)c3ccc(-c4c5nc(c(-c6c(F)c(F)c(F)c(F)c6F)c6ccc([nH]6)c(-c6c(F)c(F)c(F)c(F)c6F)c6nc(c(-c7c(F)c(F)c(F)c(F)c7F)c7ccc4[nH]7)C=C6)C=C5)cc3)C2)cc1
REMARK SMILES IDX 17 1 18 2 19 3 16 5 12 6 13 7 89 8 14 9 15 10 10 11 11 12
REMARK SMILES IDX 9 13 8 14 7 15 4 16 5 17 91 18 6 19 90 20 3 21 2 22 1 23
REMARK SMILES IDX 20 24 21 25 22 26 23 27 24 28 25 30 26 31 27 32 88 33 28 34
REMARK SMILES IDX 87 35 29 36 30 37 31 38 81 39 32 40 86 41 80 42 82 43 33 44
REMARK SMILES IDX 85 45 79 46 78 47 34 49 66 50 46 51 65 52 47 53 50 54 64 55
REMARK SMILES IDX 83 56 48 57 49 58 63 60 84 61 51 62 35 63 36 64 44 65 37 66
REMARK SMILES IDX 38 67 42 68 45 69 39 70 40 71 43 72 41 73 67 74 68 75 76 76
REMARK SMILES IDX 69 77 70 78 74 79 77 80 71 81 72 82 75 83 73 84 52 85 53 86
REMARK SMILES IDX 61 87 54 88 55 89 59 90 62 91 56 92 57 93 60 94 58 95
REMARK H PARENT 19 4 23 29 82 48 50 59
REMARK Flexibility Score: inf
ROOT
ATOM      1  C   UNL A   1      31.926  25.429  26.475  1.00  0.00     0.224 C 
ATOM      2  O   UNL A   1      31.340  24.420  26.888  1.00  0.00    -0.275 OA
ATOM      3  N   UNL A   1      31.162  26.545  26.382  1.00  0.00    -0.356 N 
ATOM      4  H   UNL A   1      30.202  26.388  26.530  1.00  0.00     0.163 HD
ENDROOT
BRANCH   1   5
ATOM      5  C   UNL A   1      33.407  25.319  26.075  1.00  0.00     0.098 C 
ATOM      6  N   UNL A   1      33.693  25.306  23.595  1.00  0.00    -0.339 N 
ATOM      7  C   UNL A   1      34.318  23.979  23.602  1.00  0.00     0.119 C 
ATOM      8  C   UNL A   1      33.845  26.074  24.821  1.00  0.00     0.133 C 
ATOM      9  C   UNL A   1      34.030  23.144  24.852  1.00  0.00     0.022 C 
ATOM     10  C   UNL A   1      34.011  23.921  26.162  1.00  0.00     0.017 C 
BRANCH   6  11
ATOM     11  C   UNL A   1      33.005  25.726  22.458  1.00  0.00     0.260 C 
ATOM     12  O   UNL A   1      33.609  26.254  21.516  1.00  0.00    -0.271 OA
BRANCH  11  13
ATOM     13  C   UNL A   1      31.456  25.671  22.392  1.00  0.00     0.329 C 
BRANCH  13  14
ATOM     14  O   UNL A   1      30.591  26.276  23.322  1.00  0.00    -0.484 OA
BRANCH  14  15
ATOM     15  C   UNL A   1      29.993  27.461  23.003  1.00  0.00     0.120 A 
ATOM     16  C   UNL A   1      28.482  29.740  22.427  1.00  0.00     0.119 A 
ATOM     17  C   UNL A   1      27.885  28.669  23.080  1.00  0.00     0.050 A 
ATOM     18  C   UNL A   1      29.834  29.691  22.094  1.00  0.00     0.050 A 
ATOM     19  C   UNL A   1      28.643  27.535  23.370  1.00  0.00     0.050 A 
ATOM     20  C   UNL A   1      30.589  28.544  22.364  1.00  0.00     0.050 A 
BRANCH  16  21
ATOM     21  O   UNL A   1      27.747  30.879  22.256  1.00  0.00    -0.494 OA
BRANCH  21  22
ATOM     22  C   UNL A   1      28.499  31.966  21.703  1.00  0.00     0.226 C 
ATOM     23  C   UNL A   1      28.763  33.040  22.747  1.00  0.00     0.049 C 
ENDBRANCH  21  22
ENDBRANCH  16  21
ENDBRANCH  14  15
ENDBRANCH  13  14
ENDBRANCH  11  13
ENDBRANCH   6  11
ENDBRANCH   1   5
BRANCH   3  24
ATOM     24  C   UNL A   1      31.495  27.922  26.105  1.00  0.00     0.117 C 
BRANCH  24  25
ATOM     25  C   UNL A   1      32.411  28.555  27.138  1.00  0.00     0.042 C 
BRANCH  25  26
ATOM     26  C   UNL A   1      33.484  29.435  26.532  1.00  0.00     0.118 C 
BRANCH  26  27
ATOM     27  N   UNL A   1      33.375  30.828  26.954  1.00  0.00    -0.352 N 
ATOM     28  C   UNL A   1      34.163  31.579  27.791  1.00  0.00     0.251 C 
ATOM     29  H   UNL A   1      32.606  31.310  26.574  1.00  0.00     0.163 HD
ATOM     30  O   UNL A   1      33.798  32.702  28.122  1.00  0.00    -0.269 OA
BRANCH  28  31
ATOM     31  C   UNL A   1      35.435  31.037  28.315  1.00  0.00     0.039 A 
ATOM     32  C   UNL A   1      36.599  31.800  28.186  1.00  0.00     0.014 A 
ATOM     33  C   UNL A   1      35.490  29.783  28.922  1.00  0.00     0.014 A 
ATOM     34  C   UNL A   1      37.799  31.327  28.718  1.00  0.00     0.010 A 
ATOM     35  C   UNL A   1      36.650  29.375  29.566  1.00  0.00     0.010 A 
ATOM     36  C   UNL A   1      37.825  30.126  29.447  1.00  0.00    -0.014 A 
BRANCH  36  37
ATOM     37  C   UNL A   1      39.079  29.614  30.052  1.00  0.00     0.031 A 
ATOM     38  C   UNL A   1      39.574  30.194  31.350  1.00  0.00     0.074 A 
ATOM     39  C   UNL A   1      39.796  28.674  29.408  1.00  0.00     0.049 A 
ATOM     40  N   UNL A   1      40.671  29.929  32.011  1.00  0.00    -0.248 NA
ATOM     41  C   UNL A   1      38.744  31.241  31.970  1.00  0.00     0.031 C 
ATOM     42  C   UNL A   1      39.448  28.081  28.114  1.00  0.00     0.029 A 
ATOM     43  N   UNL A   1      40.970  28.053  29.751  1.00  0.00    -0.354 N 
ATOM     44  C   UNL A   1      40.667  30.786  33.105  1.00  0.00     0.074 A 
ATOM     45  C   UNL A   1      39.503  31.631  32.981  1.00  0.00     0.031 C 
ATOM     46  C   UNL A   1      40.366  27.156  27.793  1.00  0.00     0.029 A 
ATOM     47  C   UNL A   1      41.389  27.121  28.832  1.00  0.00     0.049 A 
ATOM     48  H   UNL A   1      41.466  28.257  30.577  1.00  0.00     0.167 HD
ATOM     49  C   UNL A   1      41.539  30.839  34.140  1.00  0.00     0.037 A 
ATOM     50  C   UNL A   1      42.479  26.330  28.833  1.00  0.00     0.037 A 
ATOM     51  C   UNL A   1      42.677  29.970  34.272  1.00  0.00     0.049 A 
ATOM     52  C   UNL A   1      43.431  26.407  29.996  1.00  0.00     0.074 A 
ATOM     53  C   UNL A   1      43.589  29.894  35.309  1.00  0.00     0.029 A 
ATOM     54  N   UNL A   1      43.058  29.024  33.332  1.00  0.00    -0.354 N 
ATOM     55  N   UNL A   1      43.377  27.167  31.063  1.00  0.00    -0.248 NA
ATOM     56  C   UNL A   1      44.591  25.506  29.959  1.00  0.00     0.031 C 
ATOM     57  C   UNL A   1      44.555  28.941  34.971  1.00  0.00     0.029 A 
ATOM     58  C   UNL A   1      44.208  28.376  33.753  1.00  0.00     0.049 A 
ATOM     59  H   UNL A   1      42.582  28.839  32.490  1.00  0.00     0.167 HD
ATOM     60  C   UNL A   1      44.473  26.817  31.838  1.00  0.00     0.074 A 
ATOM     61  C   UNL A   1      45.165  25.762  31.126  1.00  0.00     0.031 C 
ATOM     62  C   UNL A   1      44.876  27.322  33.031  1.00  0.00     0.037 A 
BRANCH  49  63
ATOM     63  C   UNL A   1      41.289  31.865  35.209  1.00  0.00     0.064 A 
ATOM     64  C   UNL A   1      40.313  31.678  36.201  1.00  0.00     0.173 A 
ATOM     65  C   UNL A   1      42.051  33.042  35.259  1.00  0.00     0.173 A 
ATOM     66  F   UNL A   1      39.545  30.578  36.195  1.00  0.00    -0.203 F 
ATOM     67  C   UNL A   1      40.085  32.644  37.178  1.00  0.00     0.198 A 
ATOM     68  C   UNL A   1      41.846  33.990  36.258  1.00  0.00     0.198 A 
ATOM     69  F   UNL A   1      43.000  33.274  34.338  1.00  0.00    -0.203 F 
ATOM     70  F   UNL A   1      39.107  32.469  38.077  1.00  0.00    -0.200 F 
ATOM     71  C   UNL A   1      40.858  33.795  37.211  1.00  0.00     0.200 A 
ATOM     72  F   UNL A   1      42.604  35.095  36.297  1.00  0.00    -0.200 F 
ATOM     73  F   UNL A   1      40.644  34.720  38.157  1.00  0.00    -0.200 F 
ENDBRANCH  49  63
BRANCH  50  74
ATOM     74  C   UNL A   1      42.711  25.380  27.711  1.00  0.00     0.064 A 
ATOM     75  C   UNL A   1      43.563  25.714  26.649  1.00  0.00     0.173 A 
ATOM     76  C   UNL A   1      42.084  24.126  27.674  1.00  0.00     0.173 A 
ATOM     77  F   UNL A   1      44.174  26.908  26.630  1.00  0.00    -0.203 F 
ATOM     78  C   UNL A   1      43.759  24.841  25.580  1.00  0.00     0.198 A 
ATOM     79  C   UNL A   1      42.306  23.241  26.621  1.00  0.00     0.198 A 
ATOM     80  F   UNL A   1      41.266  23.754  28.668  1.00  0.00    -0.203 F 
ATOM     81  F   UNL A   1      44.537  25.208  24.553  1.00  0.00    -0.200 F 
ATOM     82  C   UNL A   1      43.135  23.603  25.570  1.00  0.00     0.200 A 
ATOM     83  F   UNL A   1      41.715  22.039  26.623  1.00  0.00    -0.200 F 
ATOM     84  F   UNL A   1      43.326  22.763  24.543  1.00  0.00    -0.200 F 
ENDBRANCH  50  74
BRANCH  62  85
ATOM     85  C   UNL A   1      46.095  26.712  33.660  1.00  0.00     0.064 A 
ATOM     86  C   UNL A   1      46.010  25.597  34.506  1.00  0.00     0.173 A 
ATOM     87  C   UNL A   1      47.369  27.229  33.382  1.00  0.00     0.173 A 
ATOM     88  F   UNL A   1      44.813  25.071  34.814  1.00  0.00    -0.203 F 
ATOM     89  C   UNL A   1      47.153  25.043  35.077  1.00  0.00     0.198 A 
ATOM     90  C   UNL A   1      48.512  26.652  33.925  1.00  0.00     0.198 A 
ATOM     91  F   UNL A   1      47.508  28.290  32.570  1.00  0.00    -0.203 F 
ATOM     92  F   UNL A   1      47.042  24.015  35.928  1.00  0.00    -0.200 F 
ATOM     93  C   UNL A   1      48.403  25.566  34.779  1.00  0.00     0.200 A 
ATOM     94  F   UNL A   1      49.720  27.145  33.621  1.00  0.00    -0.200 F 
ATOM     95  F   UNL A   1      49.502  25.027  35.324  1.00  0.00    -0.200 F 
ENDBRANCH  62  85
ENDBRANCH  36  37
ENDBRANCH  28  31
ENDBRANCH  26  27
ENDBRANCH  25  26
ENDBRANCH  24  25
ENDBRANCH   3  24
TORSDOF 16
ENDMDL
