MODEL 1
REMARK VINA RESULT:     -13.7      0.000      0.000
REMARK SMILES O=C(NCCCNC(=O)[C@@H]1CN(C(=O)C[NH+]2CCOCC2)C[C@H]1c1ccc2c(c1)OCO2)c1ccc(-c2c3nc(c(-c4c(F)c(F)c(F)c(F)c4F)c4ccc([nH]4)c(-c4c(F)c(F)c(F)c(F)c4F)c4nc(c(-c5c(F)c(F)c(F)c(F)c5F)c5ccc2[nH]5)C=C4)C=C3)cc1
REMARK SMILES IDX 5 1 4 2 3 3 1 4 2 5 33 7 34 8 95 9 35 10 94 11 36 12 37 13
REMARK SMILES IDX 38 14 88 15 39 16 93 17 87 18 89 19 40 20 92 21 86 22 85 23
REMARK SMILES IDX 41 25 73 26 53 27 72 28 54 29 57 30 71 31 90 32 55 33 56 34
REMARK SMILES IDX 70 36 91 37 58 38 42 39 43 40 51 41 44 42 45 43 49 44 52 45
REMARK SMILES IDX 46 46 47 47 50 48 48 49 74 50 75 51 83 52 76 53 77 54 81 55
REMARK SMILES IDX 84 56 78 57 79 58 82 59 80 60 59 61 60 62 68 63 61 64 62 65
REMARK SMILES IDX 66 66 69 67 63 68 64 69 67 70 65 71 6 72 7 73 8 74 9 76
REMARK SMILES IDX 10 77 11 78 23 79 12 80 22 81 24 82 25 83 29 84 26 85 28 86
REMARK SMILES IDX 27 87 30 88 32 89 31 90 13 91 14 92 15 93 16 94 17 95 21 96
REMARK SMILES IDX 18 98 20 99 19 100
REMARK H PARENT 3 6 89 24 57 35 7 75 16 97
REMARK Flexibility Score: inf
ROOT
ATOM      1  C   UNL A   1      31.433  32.177  26.848  1.00  0.00     0.042 C 
ENDROOT
BRANCH   1   2
ATOM      2  C   UNL A   1      32.758  32.904  27.075  1.00  0.00     0.118 C 
BRANCH   2   3
ATOM      3  N   UNL A   1      32.543  34.251  27.578  1.00  0.00    -0.352 N 
ATOM      4  O   UNL A   1      32.534  35.901  29.101  1.00  0.00    -0.269 OA
ATOM      5  C   UNL A   1      33.060  34.864  28.687  1.00  0.00     0.251 C 
ATOM      6  H   UNL A   1      31.933  34.807  27.039  1.00  0.00     0.163 HD
BRANCH   5   7
ATOM      7  C   UNL A   1      34.234  34.312  29.398  1.00  0.00     0.039 A 
ATOM      8  C   UNL A   1      34.088  33.512  30.536  1.00  0.00     0.014 A 
ATOM      9  C   UNL A   1      35.506  34.521  28.854  1.00  0.00     0.014 A 
ATOM     10  C   UNL A   1      35.214  32.992  31.174  1.00  0.00     0.010 A 
ATOM     11  C   UNL A   1      36.628  33.952  29.460  1.00  0.00     0.010 A 
ATOM     12  C   UNL A   1      36.493  33.193  30.633  1.00  0.00    -0.014 A 
BRANCH  12  13
ATOM     13  C   UNL A   1      37.685  32.566  31.257  1.00  0.00     0.031 A 
ATOM     14  C   UNL A   1      38.407  31.446  30.568  1.00  0.00     0.074 A 
ATOM     15  C   UNL A   1      38.090  32.985  32.471  1.00  0.00     0.049 A 
ATOM     16  N   UNL A   1      39.409  30.720  30.996  1.00  0.00    -0.248 NA
ATOM     17  C   UNL A   1      37.932  31.086  29.225  1.00  0.00     0.031 C 
ATOM     18  C   UNL A   1      37.462  34.058  33.244  1.00  0.00     0.029 A 
ATOM     19  N   UNL A   1      39.114  32.551  33.275  1.00  0.00    -0.354 N 
ATOM     20  C   UNL A   1      39.672  29.804  29.986  1.00  0.00     0.074 A 
ATOM     21  C   UNL A   1      38.708  30.050  28.934  1.00  0.00     0.031 C 
ATOM     22  C   UNL A   1      38.117  34.203  34.405  1.00  0.00     0.029 A 
ATOM     23  C   UNL A   1      39.175  33.202  34.482  1.00  0.00     0.049 A 
ATOM     24  H   UNL A   1      39.743  31.841  33.011  1.00  0.00     0.167 HD
ATOM     25  C   UNL A   1      40.633  28.850  29.944  1.00  0.00     0.037 A 
ATOM     26  C   UNL A   1      39.975  32.996  35.545  1.00  0.00     0.037 A 
ATOM     27  C   UNL A   1      41.594  28.618  30.990  1.00  0.00     0.049 A 
ATOM     28  C   UNL A   1      41.017  31.916  35.485  1.00  0.00     0.074 A 
ATOM     29  C   UNL A   1      42.633  27.703  31.022  1.00  0.00     0.029 A 
ATOM     30  N   UNL A   1      41.629  29.304  32.197  1.00  0.00    -0.354 N 
ATOM     31  N   UNL A   1      41.281  31.080  34.510  1.00  0.00    -0.248 NA
ATOM     32  C   UNL A   1      41.870  31.749  36.668  1.00  0.00     0.031 C 
ATOM     33  C   UNL A   1      43.266  27.804  32.265  1.00  0.00     0.029 A 
ATOM     34  C   UNL A   1      42.657  28.816  32.989  1.00  0.00     0.049 A 
ATOM     35  H   UNL A   1      41.015  30.029  32.452  1.00  0.00     0.167 HD
ATOM     36  C   UNL A   1      42.345  30.306  34.951  1.00  0.00     0.074 A 
ATOM     37  C   UNL A   1      42.681  30.774  36.279  1.00  0.00     0.031 C 
ATOM     38  C   UNL A   1      42.987  29.300  34.306  1.00  0.00     0.037 A 
BRANCH  25  39
ATOM     39  C   UNL A   1      40.672  27.965  28.730  1.00  0.00     0.064 A 
ATOM     40  C   UNL A   1      39.933  26.775  28.659  1.00  0.00     0.173 A 
ATOM     41  C   UNL A   1      41.443  28.326  27.615  1.00  0.00     0.173 A 
ATOM     42  F   UNL A   1      39.188  26.380  29.702  1.00  0.00    -0.203 F 
ATOM     43  C   UNL A   1      39.992  25.961  27.530  1.00  0.00     0.198 A 
ATOM     44  C   UNL A   1      41.477  27.524  26.477  1.00  0.00     0.198 A 
ATOM     45  F   UNL A   1      42.161  29.459  27.626  1.00  0.00    -0.203 F 
ATOM     46  F   UNL A   1      39.319  24.802  27.506  1.00  0.00    -0.200 F 
ATOM     47  C   UNL A   1      40.760  26.338  26.439  1.00  0.00     0.200 A 
ATOM     48  F   UNL A   1      42.209  27.897  25.418  1.00  0.00    -0.200 F 
ATOM     49  F   UNL A   1      40.815  25.554  25.353  1.00  0.00    -0.200 F 
ENDBRANCH  25  39
BRANCH  26  50
ATOM     50  C   UNL A   1      39.808  33.844  36.753  1.00  0.00     0.064 A 
ATOM     51  C   UNL A   1      40.434  35.093  36.850  1.00  0.00     0.173 A 
ATOM     52  C   UNL A   1      38.980  33.442  37.812  1.00  0.00     0.173 A 
ATOM     53  F   UNL A   1      41.249  35.510  35.870  1.00  0.00    -0.203 F 
ATOM     54  C   UNL A   1      40.240  35.909  37.963  1.00  0.00     0.198 A 
ATOM     55  C   UNL A   1      38.767  34.269  38.912  1.00  0.00     0.198 A 
ATOM     56  F   UNL A   1      38.354  32.257  37.762  1.00  0.00    -0.203 F 
ATOM     57  F   UNL A   1      40.870  37.090  38.042  1.00  0.00    -0.200 F 
ATOM     58  C   UNL A   1      39.399  35.501  38.988  1.00  0.00     0.200 A 
ATOM     59  F   UNL A   1      37.941  33.879  39.892  1.00  0.00    -0.200 F 
ATOM     60  F   UNL A   1      39.199  36.294  40.048  1.00  0.00    -0.200 F 
ENDBRANCH  26  50
BRANCH  38  61
ATOM     61  C   UNL A   1      44.147  28.661  35.009  1.00  0.00     0.064 A 
ATOM     62  C   UNL A   1      45.447  29.174  34.901  1.00  0.00     0.173 A 
ATOM     63  C   UNL A   1      43.941  27.556  35.850  1.00  0.00     0.173 A 
ATOM     64  F   UNL A   1      45.697  30.219  34.097  1.00  0.00    -0.203 F 
ATOM     65  C   UNL A   1      46.502  28.596  35.603  1.00  0.00     0.198 A 
ATOM     66  C   UNL A   1      44.994  26.998  36.568  1.00  0.00     0.198 A 
ATOM     67  F   UNL A   1      42.714  27.032  35.988  1.00  0.00    -0.203 F 
ATOM     68  F   UNL A   1      47.743  29.082  35.462  1.00  0.00    -0.200 F 
ATOM     69  C   UNL A   1      46.273  27.515  36.442  1.00  0.00     0.200 A 
ATOM     70  F   UNL A   1      44.768  25.961  37.387  1.00  0.00    -0.200 F 
ATOM     71  F   UNL A   1      47.288  26.969  37.126  1.00  0.00    -0.200 F 
ENDBRANCH  38  61
ENDBRANCH  12  13
ENDBRANCH   5   7
ENDBRANCH   2   3
ENDBRANCH   1   2
BRANCH   1  72
ATOM     72  C   UNL A   1      31.564  30.651  26.831  1.00  0.00     0.117 C 
BRANCH  72  73
ATOM     73  N   UNL A   1      32.959  30.255  26.902  1.00  0.00    -0.356 N 
ATOM     74  C   UNL A   1      33.616  29.199  26.342  1.00  0.00     0.225 C 
ATOM     75  H   UNL A   1      33.526  30.847  27.446  1.00  0.00     0.163 HD
ATOM     76  O   UNL A   1      34.738  28.953  26.786  1.00  0.00    -0.275 OA
BRANCH  74  77
ATOM     77  C   UNL A   1      32.990  28.410  25.199  1.00  0.00     0.107 C 
ATOM     78  C   UNL A   1      32.116  29.319  24.352  1.00  0.00     0.133 C 
ATOM     79  C   UNL A   1      32.007  27.280  25.652  1.00  0.00     0.053 C 
ATOM     80  N   UNL A   1      31.177  28.435  23.717  1.00  0.00    -0.336 N 
ATOM     81  C   UNL A   1      30.875  27.320  24.589  1.00  0.00     0.129 C 
BRANCH  79  82
ATOM     82  C   UNL A   1      32.687  25.930  25.901  1.00  0.00    -0.038 A 
ATOM     83  C   UNL A   1      33.981  25.698  25.360  1.00  0.00     0.008 A 
ATOM     84  C   UNL A   1      32.128  24.917  26.700  1.00  0.00     0.054 A 
ATOM     85  C   UNL A   1      34.683  24.505  25.580  1.00  0.00     0.051 A 
ATOM     86  C   UNL A   1      32.844  23.751  26.907  1.00  0.00     0.166 A 
ATOM     87  C   UNL A   1      34.085  23.548  26.361  1.00  0.00     0.165 A 
ATOM     88  O   UNL A   1      32.432  22.697  27.663  1.00  0.00    -0.454 OA
ATOM     89  O   UNL A   1      34.614  22.343  26.697  1.00  0.00    -0.454 OA
ATOM     90  C   UNL A   1      33.561  21.809  27.526  1.00  0.00     0.468 C 
ENDBRANCH  79  82
BRANCH  80  91
ATOM     91  C   UNL A   1      30.576  28.600  22.482  1.00  0.00     0.277 C 
ATOM     92  O   UNL A   1      30.430  27.660  21.698  1.00  0.00    -0.268 OA
BRANCH  91  93
ATOM     93  C   UNL A   1      30.178  30.032  22.075  1.00  0.00     0.363 C 
BRANCH  93  94
ATOM     94  N   UNL A   1      28.786  30.321  22.474  1.00  0.00    -0.323 N 
ATOM     95  C   UNL A   1      27.939  30.615  21.294  1.00  0.00     0.291 C 
ATOM     96  C   UNL A   1      28.697  31.454  23.416  1.00  0.00     0.291 C 
ATOM     97  H   UNL A   1      28.446  29.480  22.943  1.00  0.00     0.348 HD
ATOM     98  C   UNL A   1      28.141  32.029  20.708  1.00  0.00     0.221 C 
ATOM     99  C   UNL A   1      28.908  32.833  22.781  1.00  0.00     0.221 C 
ATOM    100  O   UNL A   1      27.984  33.043  21.710  1.00  0.00    -0.370 OA
ENDBRANCH  93  94
ENDBRANCH  91  93
ENDBRANCH  80  91
ENDBRANCH  74  77
ENDBRANCH  72  73
ENDBRANCH   1  72
TORSDOF 14
ENDMDL
MODEL 2
REMARK VINA RESULT:     -13.5      5.548     10.663
REMARK SMILES O=C(NCCCNC(=O)[C@@H]1CN(C(=O)C[NH+]2CCOCC2)C[C@H]1c1ccc2c(c1)OCO2)c1ccc(-c2c3nc(c(-c4c(F)c(F)c(F)c(F)c4F)c4ccc([nH]4)c(-c4c(F)c(F)c(F)c(F)c4F)c4nc(c(-c5c(F)c(F)c(F)c(F)c5F)c5ccc2[nH]5)C=C4)C=C3)cc1
REMARK SMILES IDX 5 1 4 2 3 3 1 4 2 5 33 7 34 8 95 9 35 10 94 11 36 12 37 13
REMARK SMILES IDX 38 14 88 15 39 16 93 17 87 18 89 19 40 20 92 21 86 22 85 23
REMARK SMILES IDX 41 25 73 26 53 27 72 28 54 29 57 30 71 31 90 32 55 33 56 34
REMARK SMILES IDX 70 36 91 37 58 38 42 39 43 40 51 41 44 42 45 43 49 44 52 45
REMARK SMILES IDX 46 46 47 47 50 48 48 49 74 50 75 51 83 52 76 53 77 54 81 55
REMARK SMILES IDX 84 56 78 57 79 58 82 59 80 60 59 61 60 62 68 63 61 64 62 65
REMARK SMILES IDX 66 66 69 67 63 68 64 69 67 70 65 71 6 72 7 73 8 74 9 76
REMARK SMILES IDX 10 77 11 78 23 79 12 80 22 81 24 82 25 83 29 84 26 85 28 86
REMARK SMILES IDX 27 87 30 88 32 89 31 90 13 91 14 92 15 93 16 94 17 95 21 96
REMARK SMILES IDX 18 98 20 99 19 100
REMARK H PARENT 3 6 89 24 57 35 7 75 16 97
REMARK Flexibility Score: inf
ROOT
ATOM      1  C   UNL A   1      38.152  19.788  24.981  1.00  0.00     0.042 C 
ENDROOT
BRANCH   1   2
ATOM      2  C   UNL A   1      39.184  20.145  26.049  1.00  0.00     0.118 C 
BRANCH   2   3
ATOM      3  N   UNL A   1      40.296  19.207  26.043  1.00  0.00    -0.352 N 
ATOM      4  O   UNL A   1      42.412  18.528  25.726  1.00  0.00    -0.269 OA
ATOM      5  C   UNL A   1      41.643  19.448  26.020  1.00  0.00     0.251 C 
ATOM      6  H   UNL A   1      40.042  18.256  26.060  1.00  0.00     0.163 HD
BRANCH   5   7
ATOM      7  C   UNL A   1      42.195  20.783  26.340  1.00  0.00     0.039 A 
ATOM      8  C   UNL A   1      42.420  21.737  25.342  1.00  0.00     0.014 A 
ATOM      9  C   UNL A   1      42.400  21.119  27.683  1.00  0.00     0.014 A 
ATOM     10  C   UNL A   1      42.926  22.994  25.678  1.00  0.00     0.010 A 
ATOM     11  C   UNL A   1      42.850  22.396  28.022  1.00  0.00     0.010 A 
ATOM     12  C   UNL A   1      43.130  23.340  27.022  1.00  0.00    -0.014 A 
BRANCH  12  13
ATOM     13  C   UNL A   1      43.581  24.706  27.390  1.00  0.00     0.031 A 
ATOM     14  C   UNL A   1      42.613  25.704  27.952  1.00  0.00     0.074 A 
ATOM     15  C   UNL A   1      44.863  25.056  27.176  1.00  0.00     0.049 A 
ATOM     16  N   UNL A   1      42.802  26.965  28.248  1.00  0.00    -0.248 NA
ATOM     17  C   UNL A   1      41.246  25.225  28.202  1.00  0.00     0.031 C 
ATOM     18  C   UNL A   1      45.895  24.176  26.625  1.00  0.00     0.029 A 
ATOM     19  N   UNL A   1      45.515  26.246  27.381  1.00  0.00    -0.354 N 
ATOM     20  C   UNL A   1      41.577  27.437  28.700  1.00  0.00     0.074 A 
ATOM     21  C   UNL A   1      40.644  26.332  28.616  1.00  0.00     0.031 C 
ATOM     22  C   UNL A   1      47.050  24.853  26.542  1.00  0.00     0.029 A 
ATOM     23  C   UNL A   1      46.829  26.226  26.982  1.00  0.00     0.049 A 
ATOM     24  H   UNL A   1      45.082  27.038  27.774  1.00  0.00     0.167 HD
ATOM     25  C   UNL A   1      41.264  28.677  29.147  1.00  0.00     0.037 A 
ATOM     26  C   UNL A   1      47.746  27.211  26.949  1.00  0.00     0.037 A 
ATOM     27  C   UNL A   1      42.199  29.768  29.237  1.00  0.00     0.049 A 
ATOM     28  C   UNL A   1      47.370  28.584  27.426  1.00  0.00     0.074 A 
ATOM     29  C   UNL A   1      41.989  31.050  29.716  1.00  0.00     0.029 A 
ATOM     30  N   UNL A   1      43.526  29.707  28.830  1.00  0.00    -0.354 N 
ATOM     31  N   UNL A   1      46.218  29.010  27.885  1.00  0.00    -0.248 NA
ATOM     32  C   UNL A   1      48.416  29.613  27.379  1.00  0.00     0.031 C 
ATOM     33  C   UNL A   1      43.174  31.776  29.556  1.00  0.00     0.029 A 
ATOM     34  C   UNL A   1      44.138  30.934  29.026  1.00  0.00     0.049 A 
ATOM     35  H   UNL A   1      43.966  28.908  28.459  1.00  0.00     0.167 HD
ATOM     36  C   UNL A   1      46.407  30.347  28.207  1.00  0.00     0.074 A 
ATOM     37  C   UNL A   1      47.785  30.661  27.893  1.00  0.00     0.031 C 
ATOM     38  C   UNL A   1      45.516  31.229  28.720  1.00  0.00     0.037 A 
BRANCH  25  39
ATOM     39  C   UNL A   1      39.838  28.926  29.548  1.00  0.00     0.064 A 
ATOM     40  C   UNL A   1      38.881  29.384  28.630  1.00  0.00     0.173 A 
ATOM     41  C   UNL A   1      39.419  28.681  30.864  1.00  0.00     0.173 A 
ATOM     42  F   UNL A   1      39.232  29.644  27.361  1.00  0.00    -0.203 F 
ATOM     43  C   UNL A   1      37.566  29.621  29.024  1.00  0.00     0.198 A 
ATOM     44  C   UNL A   1      38.097  28.892  31.247  1.00  0.00     0.198 A 
ATOM     45  F   UNL A   1      40.291  28.232  31.780  1.00  0.00    -0.203 F 
ATOM     46  F   UNL A   1      36.682  30.110  28.143  1.00  0.00    -0.200 F 
ATOM     47  C   UNL A   1      37.175  29.371  30.330  1.00  0.00     0.200 A 
ATOM     48  F   UNL A   1      37.717  28.636  32.507  1.00  0.00    -0.200 F 
ATOM     49  F   UNL A   1      35.909  29.599  30.707  1.00  0.00    -0.200 F 
ENDBRANCH  25  39
BRANCH  26  50
ATOM     50  C   UNL A   1      49.110  26.914  26.440  1.00  0.00     0.064 A 
ATOM     51  C   UNL A   1      50.101  26.406  27.288  1.00  0.00     0.173 A 
ATOM     52  C   UNL A   1      49.432  27.088  25.085  1.00  0.00     0.173 A 
ATOM     53  F   UNL A   1      49.844  26.241  28.594  1.00  0.00    -0.203 F 
ATOM     54  C   UNL A   1      51.366  26.084  26.801  1.00  0.00     0.198 A 
ATOM     55  C   UNL A   1      50.689  26.743  24.595  1.00  0.00     0.198 A 
ATOM     56  F   UNL A   1      48.514  27.567  24.233  1.00  0.00    -0.203 F 
ATOM     57  F   UNL A   1      52.306  25.621  27.638  1.00  0.00    -0.200 F 
ATOM     58  C   UNL A   1      51.656  26.243  25.453  1.00  0.00     0.200 A 
ATOM     59  F   UNL A   1      50.959  26.882  23.290  1.00  0.00    -0.200 F 
ATOM     60  F   UNL A   1      52.866  25.916  24.983  1.00  0.00    -0.200 F 
ENDBRANCH  26  50
BRANCH  38  61
ATOM     61  C   UNL A   1      46.010  32.614  29.017  1.00  0.00     0.064 A 
ATOM     62  C   UNL A   1      46.611  32.935  30.241  1.00  0.00     0.173 A 
ATOM     63  C   UNL A   1      45.935  33.616  28.036  1.00  0.00     0.173 A 
ATOM     64  F   UNL A   1      46.692  32.016  31.216  1.00  0.00    -0.203 F 
ATOM     65  C   UNL A   1      47.110  34.213  30.478  1.00  0.00     0.198 A 
ATOM     66  C   UNL A   1      46.457  34.884  28.267  1.00  0.00     0.198 A 
ATOM     67  F   UNL A   1      45.372  33.355  26.847  1.00  0.00    -0.203 F 
ATOM     68  F   UNL A   1      47.653  34.509  31.667  1.00  0.00    -0.200 F 
ATOM     69  C   UNL A   1      47.040  35.183  29.488  1.00  0.00     0.200 A 
ATOM     70  F   UNL A   1      46.398  35.816  27.306  1.00  0.00    -0.200 F 
ATOM     71  F   UNL A   1      47.533  36.409  29.714  1.00  0.00    -0.200 F 
ENDBRANCH  38  61
ENDBRANCH  12  13
ENDBRANCH   5   7
ENDBRANCH   2   3
ENDBRANCH   1   2
BRANCH   1  72
ATOM     72  C   UNL A   1      37.357  20.993  24.467  1.00  0.00     0.117 C 
BRANCH  72  73
ATOM     73  N   UNL A   1      36.744  21.711  25.568  1.00  0.00    -0.356 N 
ATOM     74  C   UNL A   1      35.737  22.631  25.583  1.00  0.00     0.225 C 
ATOM     75  H   UNL A   1      37.117  21.499  26.454  1.00  0.00     0.163 HD
ATOM     76  O   UNL A   1      35.599  23.278  26.622  1.00  0.00    -0.275 OA
BRANCH  74  77
ATOM     77  C   UNL A   1      34.817  22.798  24.381  1.00  0.00     0.107 C 
ATOM     78  C   UNL A   1      34.575  24.273  24.108  1.00  0.00     0.133 C 
ATOM     79  C   UNL A   1      33.375  22.224  24.582  1.00  0.00     0.053 C 
ATOM     80  N   UNL A   1      33.326  24.312  23.397  1.00  0.00    -0.336 N 
ATOM     81  C   UNL A   1      32.460  23.245  23.851  1.00  0.00     0.129 C 
BRANCH  79  82
ATOM     82  C   UNL A   1      33.235  20.750  24.189  1.00  0.00    -0.038 A 
ATOM     83  C   UNL A   1      32.364  20.399  23.122  1.00  0.00     0.008 A 
ATOM     84  C   UNL A   1      33.978  19.715  24.786  1.00  0.00     0.054 A 
ATOM     85  C   UNL A   1      32.215  19.078  22.679  1.00  0.00     0.051 A 
ATOM     86  C   UNL A   1      33.817  18.421  24.326  1.00  0.00     0.166 A 
ATOM     87  C   UNL A   1      32.959  18.108  23.303  1.00  0.00     0.165 A 
ATOM     88  O   UNL A   1      34.476  17.328  24.801  1.00  0.00    -0.454 OA
ATOM     89  O   UNL A   1      32.962  16.783  23.004  1.00  0.00    -0.454 OA
ATOM     90  C   UNL A   1      33.930  16.294  23.955  1.00  0.00     0.468 C 
ENDBRANCH  79  82
BRANCH  80  91
ATOM     91  C   UNL A   1      32.932  25.239  22.449  1.00  0.00     0.277 C 
ATOM     92  O   UNL A   1      33.718  25.690  21.613  1.00  0.00    -0.268 OA
BRANCH  91  93
ATOM     93  C   UNL A   1      31.488  25.768  22.534  1.00  0.00     0.363 C 
BRANCH  93  94
ATOM     94  N   UNL A   1      31.348  26.732  23.645  1.00  0.00    -0.323 N 
ATOM     95  C   UNL A   1      30.036  26.586  24.320  1.00  0.00     0.291 C 
ATOM     96  C   UNL A   1      31.498  28.129  23.196  1.00  0.00     0.291 C 
ATOM     97  H   UNL A   1      32.100  26.517  24.301  1.00  0.00     0.348 HD
ATOM     98  C   UNL A   1      28.853  27.202  23.542  1.00  0.00     0.221 C 
ATOM     99  C   UNL A   1      30.296  28.688  22.428  1.00  0.00     0.221 C 
ATOM    100  O   UNL A   1      29.101  28.573  23.204  1.00  0.00    -0.370 OA
ENDBRANCH  93  94
ENDBRANCH  91  93
ENDBRANCH  80  91
ENDBRANCH  74  77
ENDBRANCH  72  73
ENDBRANCH   1  72
TORSDOF 14
ENDMDL
MODEL 3
REMARK VINA RESULT:     -13.5      5.322     10.216
REMARK SMILES O=C(NCCCNC(=O)[C@@H]1CN(C(=O)C[NH+]2CCOCC2)C[C@H]1c1ccc2c(c1)OCO2)c1ccc(-c2c3nc(c(-c4c(F)c(F)c(F)c(F)c4F)c4ccc([nH]4)c(-c4c(F)c(F)c(F)c(F)c4F)c4nc(c(-c5c(F)c(F)c(F)c(F)c5F)c5ccc2[nH]5)C=C4)C=C3)cc1
REMARK SMILES IDX 5 1 4 2 3 3 1 4 2 5 33 7 34 8 95 9 35 10 94 11 36 12 37 13
REMARK SMILES IDX 38 14 88 15 39 16 93 17 87 18 89 19 40 20 92 21 86 22 85 23
REMARK SMILES IDX 41 25 73 26 53 27 72 28 54 29 57 30 71 31 90 32 55 33 56 34
REMARK SMILES IDX 70 36 91 37 58 38 42 39 43 40 51 41 44 42 45 43 49 44 52 45
REMARK SMILES IDX 46 46 47 47 50 48 48 49 74 50 75 51 83 52 76 53 77 54 81 55
REMARK SMILES IDX 84 56 78 57 79 58 82 59 80 60 59 61 60 62 68 63 61 64 62 65
REMARK SMILES IDX 66 66 69 67 63 68 64 69 67 70 65 71 6 72 7 73 8 74 9 76
REMARK SMILES IDX 10 77 11 78 23 79 12 80 22 81 24 82 25 83 29 84 26 85 28 86
REMARK SMILES IDX 27 87 30 88 32 89 31 90 13 91 14 92 15 93 16 94 17 95 21 96
REMARK SMILES IDX 18 98 20 99 19 100
REMARK H PARENT 3 6 89 24 57 35 7 75 16 97
REMARK Flexibility Score: inf
ROOT
ATOM      1  C   UNL A   1      38.133  19.886  24.966  1.00  0.00     0.042 C 
ENDROOT
BRANCH   1   2
ATOM      2  C   UNL A   1      39.095  20.138  26.125  1.00  0.00     0.118 C 
BRANCH   2   3
ATOM      3  N   UNL A   1      40.213  19.208  26.096  1.00  0.00    -0.352 N 
ATOM      4  O   UNL A   1      42.341  18.560  25.790  1.00  0.00    -0.269 OA
ATOM      5  C   UNL A   1      41.558  19.459  26.114  1.00  0.00     0.251 C 
ATOM      6  H   UNL A   1      39.965  18.256  26.058  1.00  0.00     0.163 HD
BRANCH   5   7
ATOM      7  C   UNL A   1      42.094  20.778  26.514  1.00  0.00     0.039 A 
ATOM      8  C   UNL A   1      42.400  21.759  25.566  1.00  0.00     0.014 A 
ATOM      9  C   UNL A   1      42.199  21.073  27.878  1.00  0.00     0.014 A 
ATOM     10  C   UNL A   1      42.888  23.000  25.976  1.00  0.00     0.010 A 
ATOM     11  C   UNL A   1      42.631  22.336  28.289  1.00  0.00     0.010 A 
ATOM     12  C   UNL A   1      42.992  23.306  27.341  1.00  0.00    -0.014 A 
BRANCH  12  13
ATOM     13  C   UNL A   1      43.424  24.656  27.783  1.00  0.00     0.031 A 
ATOM     14  C   UNL A   1      42.410  25.705  28.134  1.00  0.00     0.074 A 
ATOM     15  C   UNL A   1      44.738  24.946  27.826  1.00  0.00     0.049 A 
ATOM     16  N   UNL A   1      42.595  26.960  28.454  1.00  0.00    -0.248 NA
ATOM     17  C   UNL A   1      41.000  25.289  28.110  1.00  0.00     0.031 C 
ATOM     18  C   UNL A   1      45.817  24.013  27.497  1.00  0.00     0.029 A 
ATOM     19  N   UNL A   1      45.390  26.110  28.148  1.00  0.00    -0.354 N 
ATOM     20  C   UNL A   1      41.327  27.492  28.650  1.00  0.00     0.074 A 
ATOM     21  C   UNL A   1      40.380  26.428  28.388  1.00  0.00     0.031 C 
ATOM     22  C   UNL A   1      46.995  24.637  27.641  1.00  0.00     0.029 A 
ATOM     23  C   UNL A   1      46.754  26.026  28.020  1.00  0.00     0.049 A 
ATOM     24  H   UNL A   1      44.924  26.925  28.442  1.00  0.00     0.167 HD
ATOM     25  C   UNL A   1      40.989  28.752  29.017  1.00  0.00     0.037 A 
ATOM     26  C   UNL A   1      47.704  26.969  28.163  1.00  0.00     0.037 A 
ATOM     27  C   UNL A   1      41.937  29.801  29.284  1.00  0.00     0.049 A 
ATOM     28  C   UNL A   1      47.305  28.364  28.546  1.00  0.00     0.074 A 
ATOM     29  C   UNL A   1      41.696  31.099  29.703  1.00  0.00     0.029 A 
ATOM     30  N   UNL A   1      43.314  29.676  29.150  1.00  0.00    -0.354 N 
ATOM     31  N   UNL A   1      46.106  28.847  28.765  1.00  0.00    -0.248 NA
ATOM     32  C   UNL A   1      48.386  29.346  28.703  1.00  0.00     0.031 C 
ATOM     33  C   UNL A   1      42.920  31.770  29.778  1.00  0.00     0.029 A 
ATOM     34  C   UNL A   1      43.931  30.878  29.456  1.00  0.00     0.049 A 
ATOM     35  H   UNL A   1      43.782  28.853  28.879  1.00  0.00     0.167 HD
ATOM     36  C   UNL A   1      46.288  30.179  29.108  1.00  0.00     0.074 A 
ATOM     37  C   UNL A   1      47.714  30.428  29.073  1.00  0.00     0.031 C 
ATOM     38  C   UNL A   1      45.354  31.108  29.428  1.00  0.00     0.037 A 
BRANCH  25  39
ATOM     39  C   UNL A   1      39.525  29.069  29.124  1.00  0.00     0.064 A 
ATOM     40  C   UNL A   1      38.846  29.019  30.351  1.00  0.00     0.173 A 
ATOM     41  C   UNL A   1      38.797  29.449  27.987  1.00  0.00     0.173 A 
ATOM     42  F   UNL A   1      39.493  28.650  31.467  1.00  0.00    -0.203 F 
ATOM     43  C   UNL A   1      37.485  29.303  30.428  1.00  0.00     0.198 A 
ATOM     44  C   UNL A   1      37.443  29.762  28.073  1.00  0.00     0.198 A 
ATOM     45  F   UNL A   1      39.400  29.523  26.790  1.00  0.00    -0.203 F 
ATOM     46  F   UNL A   1      36.845  29.197  31.601  1.00  0.00    -0.200 F 
ATOM     47  C   UNL A   1      36.786  29.678  29.291  1.00  0.00     0.200 A 
ATOM     48  F   UNL A   1      36.772  30.137  26.975  1.00  0.00    -0.200 F 
ATOM     49  F   UNL A   1      35.476  29.953  29.367  1.00  0.00    -0.200 F 
ENDBRANCH  25  39
BRANCH  26  50
ATOM     50  C   UNL A   1      49.127  26.605  27.938  1.00  0.00     0.064 A 
ATOM     51  C   UNL A   1      49.671  26.588  26.648  1.00  0.00     0.173 A 
ATOM     52  C   UNL A   1      49.980  26.315  29.014  1.00  0.00     0.173 A 
ATOM     53  F   UNL A   1      48.889  26.841  25.588  1.00  0.00    -0.203 F 
ATOM     54  C   UNL A   1      51.018  26.293  26.441  1.00  0.00     0.198 A 
ATOM     55  C   UNL A   1      51.330  26.045  28.807  1.00  0.00     0.198 A 
ATOM     56  F   UNL A   1      49.506  26.325  30.268  1.00  0.00    -0.203 F 
ATOM     57  F   UNL A   1      51.509  26.261  25.194  1.00  0.00    -0.200 F 
ATOM     58  C   UNL A   1      51.848  26.032  27.521  1.00  0.00     0.200 A 
ATOM     59  F   UNL A   1      52.133  25.810  29.854  1.00  0.00    -0.200 F 
ATOM     60  F   UNL A   1      53.145  25.766  27.322  1.00  0.00    -0.200 F 
ENDBRANCH  26  50
BRANCH  38  61
ATOM     61  C   UNL A   1      45.843  32.474  29.808  1.00  0.00     0.064 A 
ATOM     62  C   UNL A   1      45.945  33.509  28.868  1.00  0.00     0.173 A 
ATOM     63  C   UNL A   1      46.153  32.766  31.146  1.00  0.00     0.173 A 
ATOM     64  F   UNL A   1      45.674  33.275  27.575  1.00  0.00    -0.203 F 
ATOM     65  C   UNL A   1      46.351  34.784  29.252  1.00  0.00     0.198 A 
ATOM     66  C   UNL A   1      46.535  34.048  31.529  1.00  0.00     0.198 A 
ATOM     67  F   UNL A   1      46.067  31.810  32.083  1.00  0.00    -0.203 F 
ATOM     68  F   UNL A   1      46.473  35.751  28.332  1.00  0.00    -0.200 F 
ATOM     69  C   UNL A   1      46.637  35.054  30.582  1.00  0.00     0.200 A 
ATOM     70  F   UNL A   1      46.800  34.309  32.817  1.00  0.00    -0.200 F 
ATOM     71  F   UNL A   1      47.016  36.286  30.951  1.00  0.00    -0.200 F 
ENDBRANCH  38  61
ENDBRANCH  12  13
ENDBRANCH   5   7
ENDBRANCH   2   3
ENDBRANCH   1   2
BRANCH   1  72
ATOM     72  C   UNL A   1      37.408  21.146  24.483  1.00  0.00     0.117 C 
BRANCH  72  73
ATOM     73  N   UNL A   1      36.750  21.816  25.590  1.00  0.00    -0.356 N 
ATOM     74  C   UNL A   1      35.719  22.708  25.608  1.00  0.00     0.225 C 
ATOM     75  H   UNL A   1      37.109  21.588  26.478  1.00  0.00     0.163 HD
ATOM     76  O   UNL A   1      35.540  23.320  26.661  1.00  0.00    -0.275 OA
BRANCH  74  77
ATOM     77  C   UNL A   1      34.823  22.886  24.389  1.00  0.00     0.107 C 
ATOM     78  C   UNL A   1      34.605  24.364  24.111  1.00  0.00     0.133 C 
ATOM     79  C   UNL A   1      33.370  22.332  24.565  1.00  0.00     0.053 C 
ATOM     80  N   UNL A   1      33.369  24.419  23.378  1.00  0.00    -0.336 N 
ATOM     81  C   UNL A   1      32.481  23.364  23.817  1.00  0.00     0.129 C 
BRANCH  79  82
ATOM     82  C   UNL A   1      33.217  20.859  24.171  1.00  0.00    -0.038 A 
ATOM     83  C   UNL A   1      32.322  20.514  23.123  1.00  0.00     0.008 A 
ATOM     84  C   UNL A   1      33.970  19.821  24.748  1.00  0.00     0.054 A 
ATOM     85  C   UNL A   1      32.160  19.194  22.679  1.00  0.00     0.051 A 
ATOM     86  C   UNL A   1      33.796  18.528  24.288  1.00  0.00     0.166 A 
ATOM     87  C   UNL A   1      32.915  18.221  23.284  1.00  0.00     0.165 A 
ATOM     88  O   UNL A   1      34.462  17.432  24.745  1.00  0.00    -0.454 OA
ATOM     89  O   UNL A   1      32.907  16.897  22.980  1.00  0.00    -0.454 OA
ATOM     90  C   UNL A   1      33.895  16.402  23.909  1.00  0.00     0.468 C 
ENDBRANCH  79  82
BRANCH  80  91
ATOM     91  C   UNL A   1      33.005  25.350  22.423  1.00  0.00     0.277 C 
ATOM     92  O   UNL A   1      33.570  25.417  21.329  1.00  0.00    -0.268 OA
BRANCH  91  93
ATOM     93  C   UNL A   1      31.922  26.375  22.810  1.00  0.00     0.363 C 
BRANCH  93  94
ATOM     94  N   UNL A   1      32.349  27.745  22.461  1.00  0.00    -0.323 N 
ATOM     95  C   UNL A   1      33.525  28.161  23.260  1.00  0.00     0.291 C 
ATOM     96  C   UNL A   1      31.270  28.734  22.654  1.00  0.00     0.291 C 
ATOM     97  H   UNL A   1      32.595  27.720  21.470  1.00  0.00     0.348 HD
ATOM     98  C   UNL A   1      33.194  28.559  24.714  1.00  0.00     0.221 C 
ATOM     99  C   UNL A   1      30.982  29.090  24.116  1.00  0.00     0.221 C 
ATOM    100  O   UNL A   1      32.165  29.558  24.766  1.00  0.00    -0.370 OA
ENDBRANCH  93  94
ENDBRANCH  91  93
ENDBRANCH  80  91
ENDBRANCH  74  77
ENDBRANCH  72  73
ENDBRANCH   1  72
TORSDOF 14
ENDMDL
