MODEL 1
REMARK VINA RESULT:     -11.8      0.000      0.000
REMARK SMILES O=C(NCCCNC(=O)[C@@H](Cc1ccccc1Br)CC(F)(F)F)c1ccc(-c2c3nc(c(-c4c(F)c(F)c(F)c(F)c4F)c4ccc([nH]4)c(-c4c(F)c(F)c(F)c(F)c4F)c4nc(c(-c5c(F)c(F)c(F)c(F)c5F)c5ccc2[nH]5)C=C4)C=C3)cc1
REMARK SMILES IDX 5 1 4 2 3 3 1 4 2 5 24 7 25 8 86 9 26 10 85 11 27 12 28 13
REMARK SMILES IDX 29 14 79 15 30 16 84 17 78 18 80 19 31 20 83 21 77 22 76 23
REMARK SMILES IDX 32 25 64 26 44 27 63 28 45 29 48 30 62 31 81 32 46 33 47 34
REMARK SMILES IDX 61 36 82 37 49 38 33 39 34 40 42 41 35 42 36 43 40 44 43 45
REMARK SMILES IDX 37 46 38 47 41 48 39 49 65 50 66 51 74 52 67 53 68 54 72 55
REMARK SMILES IDX 75 56 69 57 70 58 73 59 71 60 50 61 51 62 59 63 52 64 53 65
REMARK SMILES IDX 57 66 60 67 54 68 55 69 58 70 56 71 6 72 7 73 8 74 9 76
REMARK SMILES IDX 10 77 11 78 12 79 13 80 17 81 14 82 16 83 18 84 15 85 19 86
REMARK SMILES IDX 20 87 21 88 22 89 23 90
REMARK H PARENT 3 6 80 24 48 35 7 75
REMARK Flexibility Score: inf
ROOT
ATOM      1  C   UNL A   1      32.203  29.280  24.078  1.00  0.00     0.042 C 
ENDROOT
BRANCH   1   2
ATOM      2  C   UNL A   1      32.622  29.323  25.541  1.00  0.00     0.118 C 
BRANCH   2   3
ATOM      3  N   UNL A   1      32.435  30.634  26.134  1.00  0.00    -0.352 N 
ATOM      4  O   UNL A   1      32.570  32.443  27.399  1.00  0.00    -0.269 OA
ATOM      5  C   UNL A   1      33.124  31.401  27.041  1.00  0.00     0.251 C 
ATOM      6  H   UNL A   1      31.619  31.080  25.810  1.00  0.00     0.163 HD
BRANCH   5   7
ATOM      7  C   UNL A   1      34.461  31.074  27.629  1.00  0.00     0.039 A 
ATOM      8  C   UNL A   1      35.453  31.999  27.940  1.00  0.00     0.014 A 
ATOM      9  C   UNL A   1      34.692  29.729  27.984  1.00  0.00     0.014 A 
ATOM     10  C   UNL A   1      36.656  31.594  28.532  1.00  0.00     0.010 A 
ATOM     11  C   UNL A   1      35.861  29.333  28.654  1.00  0.00     0.010 A 
ATOM     12  C   UNL A   1      36.862  30.267  28.938  1.00  0.00    -0.014 A 
BRANCH  12  13
ATOM     13  C   UNL A   1      38.076  29.917  29.731  1.00  0.00     0.031 A 
ATOM     14  C   UNL A   1      38.275  30.423  31.134  1.00  0.00     0.074 A 
ATOM     15  C   UNL A   1      39.004  29.107  29.179  1.00  0.00     0.049 A 
ATOM     16  N   UNL A   1      39.261  30.187  31.966  1.00  0.00    -0.248 NA
ATOM     17  C   UNL A   1      37.241  31.318  31.673  1.00  0.00     0.031 C 
ATOM     18  C   UNL A   1      38.945  28.571  27.817  1.00  0.00     0.029 A 
ATOM     19  N   UNL A   1      40.162  28.573  29.691  1.00  0.00    -0.354 N 
ATOM     20  C   UNL A   1      38.974  30.911  33.117  1.00  0.00     0.074 A 
ATOM     21  C   UNL A   1      37.738  31.623  32.864  1.00  0.00     0.031 C 
ATOM     22  C   UNL A   1      39.978  27.741  27.622  1.00  0.00     0.029 A 
ATOM     23  C   UNL A   1      40.818  27.741  28.815  1.00  0.00     0.049 A 
ATOM     24  H   UNL A   1      40.490  28.767  30.599  1.00  0.00     0.167 HD
ATOM     25  C   UNL A   1      39.674  30.970  34.277  1.00  0.00     0.037 A 
ATOM     26  C   UNL A   1      41.977  27.067  28.942  1.00  0.00     0.037 A 
ATOM     27  C   UNL A   1      40.899  30.252  34.526  1.00  0.00     0.049 A 
ATOM     28  C   UNL A   1      42.745  27.174  30.229  1.00  0.00     0.074 A 
ATOM     29  C   UNL A   1      41.661  30.219  35.682  1.00  0.00     0.029 A 
ATOM     30  N   UNL A   1      41.550  29.447  33.601  1.00  0.00    -0.354 N 
ATOM     31  N   UNL A   1      42.439  27.830  31.322  1.00  0.00    -0.248 NA
ATOM     32  C   UNL A   1      44.023  26.452  30.300  1.00  0.00     0.031 C 
ATOM     33  C   UNL A   1      42.800  29.445  35.438  1.00  0.00     0.029 A 
ATOM     34  C   UNL A   1      42.718  28.939  34.151  1.00  0.00     0.049 A 
ATOM     35  H   UNL A   1      41.229  29.264  32.688  1.00  0.00     0.167 HD
ATOM     36  C   UNL A   1      43.473  27.586  32.215  1.00  0.00     0.074 A 
ATOM     37  C   UNL A   1      44.403  26.702  31.545  1.00  0.00     0.031 C 
ATOM     38  C   UNL A   1      43.637  28.058  33.475  1.00  0.00     0.037 A 
BRANCH  25  39
ATOM     39  C   UNL A   1      39.146  31.861  35.369  1.00  0.00     0.064 A 
ATOM     40  C   UNL A   1      38.335  31.367  36.403  1.00  0.00     0.173 A 
ATOM     41  C   UNL A   1      39.498  33.220  35.408  1.00  0.00     0.173 A 
ATOM     42  F   UNL A   1      37.963  30.079  36.412  1.00  0.00    -0.203 F 
ATOM     43  C   UNL A   1      37.873  32.206  37.415  1.00  0.00     0.198 A 
ATOM     44  C   UNL A   1      39.061  34.048  36.438  1.00  0.00     0.198 A 
ATOM     45  F   UNL A   1      40.279  33.744  34.451  1.00  0.00    -0.203 F 
ATOM     46  F   UNL A   1      37.059  31.722  38.363  1.00  0.00    -0.200 F 
ATOM     47  C   UNL A   1      38.242  33.543  37.436  1.00  0.00     0.200 A 
ATOM     48  F   UNL A   1      39.431  35.335  36.466  1.00  0.00    -0.200 F 
ATOM     49  F   UNL A   1      37.802  34.346  38.415  1.00  0.00    -0.200 F 
ENDBRANCH  25  39
BRANCH  26  50
ATOM     50  C   UNL A   1      42.487  26.245  27.811  1.00  0.00     0.064 A 
ATOM     51  C   UNL A   1      43.426  26.757  26.904  1.00  0.00     0.173 A 
ATOM     52  C   UNL A   1      42.048  24.926  27.617  1.00  0.00     0.173 A 
ATOM     53  F   UNL A   1      43.861  28.018  27.032  1.00  0.00    -0.203 F 
ATOM     54  C   UNL A   1      43.891  25.987  25.839  1.00  0.00     0.198 A 
ATOM     55  C   UNL A   1      42.541  24.146  26.574  1.00  0.00     0.198 A 
ATOM     56  F   UNL A   1      41.153  24.385  28.458  1.00  0.00    -0.203 F 
ATOM     57  F   UNL A   1      44.752  26.517  24.959  1.00  0.00    -0.200 F 
ATOM     58  C   UNL A   1      43.456  24.681  25.681  1.00  0.00     0.200 A 
ATOM     59  F   UNL A   1      42.133  22.877  26.438  1.00  0.00    -0.200 F 
ATOM     60  F   UNL A   1      43.912  23.939  24.662  1.00  0.00    -0.200 F 
ENDBRANCH  26  50
BRANCH  38  61
ATOM     61  C   UNL A   1      44.853  27.598  34.226  1.00  0.00     0.064 A 
ATOM     62  C   UNL A   1      44.849  26.421  34.992  1.00  0.00     0.173 A 
ATOM     63  C   UNL A   1      46.049  28.331  34.158  1.00  0.00     0.173 A 
ATOM     64  F   UNL A   1      43.729  25.694  35.104  1.00  0.00    -0.203 F 
ATOM     65  C   UNL A   1      45.988  26.014  35.683  1.00  0.00     0.198 A 
ATOM     66  C   UNL A   1      47.193  27.902  34.822  1.00  0.00     0.198 A 
ATOM     67  F   UNL A   1      46.109  29.461  33.437  1.00  0.00    -0.203 F 
ATOM     68  F   UNL A   1      45.943  24.917  36.453  1.00  0.00    -0.200 F 
ATOM     69  C   UNL A   1      47.160  26.749  35.592  1.00  0.00     0.200 A 
ATOM     70  F   UNL A   1      48.329  28.606  34.721  1.00  0.00    -0.200 F 
ATOM     71  F   UNL A   1      48.255  26.351  36.253  1.00  0.00    -0.200 F 
ENDBRANCH  38  61
ENDBRANCH  12  13
ENDBRANCH   5   7
ENDBRANCH   2   3
ENDBRANCH   1   2
BRANCH   1  72
ATOM     72  C   UNL A   1      31.537  27.960  23.654  1.00  0.00     0.117 C 
BRANCH  72  73
ATOM     73  N   UNL A   1      32.216  27.417  22.488  1.00  0.00    -0.356 N 
ATOM     74  C   UNL A   1      33.051  26.370  22.294  1.00  0.00     0.223 C 
ATOM     75  H   UNL A   1      32.028  27.919  21.662  1.00  0.00     0.163 HD
ATOM     76  O   UNL A   1      33.653  26.348  21.214  1.00  0.00    -0.275 OA
BRANCH  74  77
ATOM     77  C   UNL A   1      33.253  25.217  23.275  1.00  0.00     0.092 C 
BRANCH  77  78
ATOM     78  C   UNL A   1      33.613  23.856  22.634  1.00  0.00     0.050 C 
BRANCH  78  79
ATOM     79  C   UNL A   1      33.764  22.661  23.546  1.00  0.00    -0.033 A 
ATOM     80  C   UNL A   1      32.613  21.921  23.879  1.00  0.00     0.005 A 
ATOM     81  C   UNL A   1      34.989  22.242  24.087  1.00  0.00     0.021 A 
ATOM     82  C   UNL A   1      32.661  20.885  24.813  1.00  0.00     0.000 A 
ATOM     83  C   UNL A   1      35.029  21.235  25.060  1.00  0.00     0.016 A 
ATOM     84  Br  UNL A   1      36.656  22.947  23.506  1.00  0.00    -0.051 Br
ATOM     85  C   UNL A   1      33.862  20.573  25.439  1.00  0.00     0.001 A 
ENDBRANCH  78  79
ENDBRANCH  77  78
BRANCH  77  86
ATOM     86  C   UNL A   1      34.007  25.583  24.559  1.00  0.00     0.129 C 
BRANCH  86  87
ATOM     87  C   UNL A   1      33.197  25.316  25.814  1.00  0.00     0.389 C 
ATOM     88  F   UNL A   1      33.681  24.261  26.500  1.00  0.00    -0.171 F 
ATOM     89  F   UNL A   1      33.254  26.392  26.634  1.00  0.00    -0.171 F 
ATOM     90  F   UNL A   1      31.898  25.089  25.543  1.00  0.00    -0.171 F 
ENDBRANCH  86  87
ENDBRANCH  77  86
ENDBRANCH  74  77
ENDBRANCH  72  73
ENDBRANCH   1  72
TORSDOF 14
ENDMDL
MODEL 2
REMARK VINA RESULT:     -11.7      0.650      1.899
REMARK SMILES O=C(NCCCNC(=O)[C@@H](Cc1ccccc1Br)CC(F)(F)F)c1ccc(-c2c3nc(c(-c4c(F)c(F)c(F)c(F)c4F)c4ccc([nH]4)c(-c4c(F)c(F)c(F)c(F)c4F)c4nc(c(-c5c(F)c(F)c(F)c(F)c5F)c5ccc2[nH]5)C=C4)C=C3)cc1
REMARK SMILES IDX 5 1 4 2 3 3 1 4 2 5 24 7 25 8 86 9 26 10 85 11 27 12 28 13
REMARK SMILES IDX 29 14 79 15 30 16 84 17 78 18 80 19 31 20 83 21 77 22 76 23
REMARK SMILES IDX 32 25 64 26 44 27 63 28 45 29 48 30 62 31 81 32 46 33 47 34
REMARK SMILES IDX 61 36 82 37 49 38 33 39 34 40 42 41 35 42 36 43 40 44 43 45
REMARK SMILES IDX 37 46 38 47 41 48 39 49 65 50 66 51 74 52 67 53 68 54 72 55
REMARK SMILES IDX 75 56 69 57 70 58 73 59 71 60 50 61 51 62 59 63 52 64 53 65
REMARK SMILES IDX 57 66 60 67 54 68 55 69 58 70 56 71 6 72 7 73 8 74 9 76
REMARK SMILES IDX 10 77 11 78 12 79 13 80 17 81 14 82 16 83 18 84 15 85 19 86
REMARK SMILES IDX 20 87 21 88 22 89 23 90
REMARK H PARENT 3 6 80 24 48 35 7 75
REMARK Flexibility Score: inf
ROOT
ATOM      1  C   UNL A   1      31.908  29.165  24.232  1.00  0.00     0.042 C 
ENDROOT
BRANCH   1   2
ATOM      2  C   UNL A   1      32.646  29.324  25.555  1.00  0.00     0.118 C 
BRANCH   2   3
ATOM      3  N   UNL A   1      32.468  30.642  26.136  1.00  0.00    -0.352 N 
ATOM      4  O   UNL A   1      32.624  32.466  27.376  1.00  0.00    -0.269 OA
ATOM      5  C   UNL A   1      33.173  31.421  27.020  1.00  0.00     0.251 C 
ATOM      6  H   UNL A   1      31.645  31.082  25.823  1.00  0.00     0.163 HD
BRANCH   5   7
ATOM      7  C   UNL A   1      34.522  31.104  27.585  1.00  0.00     0.039 A 
ATOM      8  C   UNL A   1      35.512  32.037  27.880  1.00  0.00     0.014 A 
ATOM      9  C   UNL A   1      34.770  29.761  27.937  1.00  0.00     0.014 A 
ATOM     10  C   UNL A   1      36.728  31.641  28.451  1.00  0.00     0.010 A 
ATOM     11  C   UNL A   1      35.952  29.374  28.587  1.00  0.00     0.010 A 
ATOM     12  C   UNL A   1      36.950  30.315  28.853  1.00  0.00    -0.014 A 
BRANCH  12  13
ATOM     13  C   UNL A   1      38.181  29.975  29.627  1.00  0.00     0.031 A 
ATOM     14  C   UNL A   1      38.403  30.490  31.022  1.00  0.00     0.074 A 
ATOM     15  C   UNL A   1      39.101  29.164  29.062  1.00  0.00     0.049 A 
ATOM     16  N   UNL A   1      39.406  30.263  31.837  1.00  0.00    -0.248 NA
ATOM     17  C   UNL A   1      37.378  31.385  31.574  1.00  0.00     0.031 C 
ATOM     18  C   UNL A   1      39.018  28.618  27.706  1.00  0.00     0.029 A 
ATOM     19  N   UNL A   1      40.270  28.637  29.556  1.00  0.00    -0.354 N 
ATOM     20  C   UNL A   1      39.138  30.994  32.988  1.00  0.00     0.074 A 
ATOM     21  C   UNL A   1      37.895  31.700  32.754  1.00  0.00     0.031 C 
ATOM     22  C   UNL A   1      40.050  27.790  27.497  1.00  0.00     0.029 A 
ATOM     23  C   UNL A   1      40.913  27.801  28.674  1.00  0.00     0.049 A 
ATOM     24  H   UNL A   1      40.614  28.838  30.456  1.00  0.00     0.167 HD
ATOM     25  C   UNL A   1      39.859  31.063  34.135  1.00  0.00     0.037 A 
ATOM     26  C   UNL A   1      42.075  27.132  28.784  1.00  0.00     0.037 A 
ATOM     27  C   UNL A   1      41.092  30.350  34.366  1.00  0.00     0.049 A 
ATOM     28  C   UNL A   1      42.867  27.250  30.056  1.00  0.00     0.074 A 
ATOM     29  C   UNL A   1      41.874  30.327  35.508  1.00  0.00     0.029 A 
ATOM     30  N   UNL A   1      41.728  29.541  33.434  1.00  0.00    -0.354 N 
ATOM     31  N   UNL A   1      42.580  27.912  31.150  1.00  0.00    -0.248 NA
ATOM     32  C   UNL A   1      44.148  26.532  30.108  1.00  0.00     0.031 C 
ATOM     33  C   UNL A   1      43.011  29.556  35.248  1.00  0.00     0.029 A 
ATOM     34  C   UNL A   1      42.907  29.041  33.966  1.00  0.00     0.049 A 
ATOM     35  H   UNL A   1      41.391  29.351  32.528  1.00  0.00     0.167 HD
ATOM     36  C   UNL A   1      43.630  27.677  32.025  1.00  0.00     0.074 A 
ATOM     37  C   UNL A   1      44.550  26.791  31.343  1.00  0.00     0.031 C 
ATOM     38  C   UNL A   1      43.816  28.158  33.278  1.00  0.00     0.037 A 
BRANCH  25  39
ATOM     39  C   UNL A   1      39.349  31.959  35.230  1.00  0.00     0.064 A 
ATOM     40  C   UNL A   1      39.630  33.334  35.255  1.00  0.00     0.173 A 
ATOM     41  C   UNL A   1      38.526  31.443  36.244  1.00  0.00     0.173 A 
ATOM     42  F   UNL A   1      40.417  33.880  34.316  1.00  0.00    -0.203 F 
ATOM     43  C   UNL A   1      39.132  34.151  36.269  1.00  0.00     0.198 A 
ATOM     44  C   UNL A   1      38.004  32.267  37.237  1.00  0.00     0.198 A 
ATOM     45  F   UNL A   1      38.216  30.138  36.265  1.00  0.00    -0.203 F 
ATOM     46  F   UNL A   1      39.455  35.451  36.299  1.00  0.00    -0.200 F 
ATOM     47  C   UNL A   1      38.314  33.618  37.254  1.00  0.00     0.200 A 
ATOM     48  F   UNL A   1      37.200  31.754  38.179  1.00  0.00    -0.200 F 
ATOM     49  F   UNL A   1      37.829  34.407  38.223  1.00  0.00    -0.200 F 
ENDBRANCH  25  39
BRANCH  26  50
ATOM     50  C   UNL A   1      42.567  26.304  27.649  1.00  0.00     0.064 A 
ATOM     51  C   UNL A   1      42.102  24.996  27.447  1.00  0.00     0.173 A 
ATOM     52  C   UNL A   1      43.511  26.806  26.739  1.00  0.00     0.173 A 
ATOM     53  F   UNL A   1      41.216  24.462  28.299  1.00  0.00    -0.203 F 
ATOM     54  C   UNL A   1      42.574  24.220  26.390  1.00  0.00     0.198 A 
ATOM     55  C   UNL A   1      43.954  26.042  25.663  1.00  0.00     0.198 A 
ATOM     56  F   UNL A   1      43.986  28.052  26.883  1.00  0.00    -0.203 F 
ATOM     57  F   UNL A   1      42.149  22.957  26.248  1.00  0.00    -0.200 F 
ATOM     58  C   UNL A   1      43.492  24.746  25.494  1.00  0.00     0.200 A 
ATOM     59  F   UNL A   1      44.826  26.562  24.788  1.00  0.00    -0.200 F 
ATOM     60  F   UNL A   1      43.938  24.002  24.473  1.00  0.00    -0.200 F 
ENDBRANCH  26  50
BRANCH  38  61
ATOM     61  C   UNL A   1      45.048  27.707  34.009  1.00  0.00     0.064 A 
ATOM     62  C   UNL A   1      45.059  26.542  34.792  1.00  0.00     0.173 A 
ATOM     63  C   UNL A   1      46.243  28.437  33.905  1.00  0.00     0.173 A 
ATOM     64  F   UNL A   1      43.940  25.817  34.939  1.00  0.00    -0.203 F 
ATOM     65  C   UNL A   1      46.211  26.142  35.465  1.00  0.00     0.198 A 
ATOM     66  C   UNL A   1      47.400  28.016  34.551  1.00  0.00     0.198 A 
ATOM     67  F   UNL A   1      46.289  29.556  33.167  1.00  0.00    -0.203 F 
ATOM     68  F   UNL A   1      46.182  25.056  36.251  1.00  0.00    -0.200 F 
ATOM     69  C   UNL A   1      47.382  26.874  35.338  1.00  0.00     0.200 A 
ATOM     70  F   UNL A   1      48.534  28.716  34.415  1.00  0.00    -0.200 F 
ATOM     71  F   UNL A   1      48.491  26.483  35.981  1.00  0.00    -0.200 F 
ENDBRANCH  38  61
ENDBRANCH  12  13
ENDBRANCH   5   7
ENDBRANCH   2   3
ENDBRANCH   1   2
BRANCH   1  72
ATOM     72  C   UNL A   1      31.486  27.720  23.920  1.00  0.00     0.117 C 
BRANCH  72  73
ATOM     73  N   UNL A   1      32.180  27.250  22.730  1.00  0.00    -0.356 N 
ATOM     74  C   UNL A   1      33.083  26.270  22.499  1.00  0.00     0.223 C 
ATOM     75  H   UNL A   1      31.939  27.753  21.919  1.00  0.00     0.163 HD
ATOM     76  O   UNL A   1      33.664  26.312  21.409  1.00  0.00    -0.275 OA
BRANCH  74  77
ATOM     77  C   UNL A   1      33.386  25.116  23.452  1.00  0.00     0.092 C 
BRANCH  77  78
ATOM     78  C   UNL A   1      33.815  23.792  22.775  1.00  0.00     0.050 C 
BRANCH  78  79
ATOM     79  C   UNL A   1      34.699  22.850  23.558  1.00  0.00    -0.033 A 
ATOM     80  C   UNL A   1      36.095  23.012  23.470  1.00  0.00     0.005 A 
ATOM     81  C   UNL A   1      34.212  21.815  24.370  1.00  0.00     0.021 A 
ATOM     82  C   UNL A   1      36.970  22.102  24.065  1.00  0.00     0.000 A 
ATOM     83  C   UNL A   1      35.089  20.875  24.926  1.00  0.00     0.016 A 
ATOM     84  Br  UNL A   1      32.372  21.651  24.822  1.00  0.00    -0.051 Br
ATOM     85  C   UNL A   1      36.465  21.006  24.754  1.00  0.00     0.001 A 
ENDBRANCH  78  79
ENDBRANCH  77  78
BRANCH  77  86
ATOM     86  C   UNL A   1      34.151  25.507  24.722  1.00  0.00     0.129 C 
BRANCH  86  87
ATOM     87  C   UNL A   1      33.351  25.266  25.989  1.00  0.00     0.389 C 
ATOM     88  F   UNL A   1      33.308  26.368  26.764  1.00  0.00    -0.171 F 
ATOM     89  F   UNL A   1      32.075  24.944  25.672  1.00  0.00    -0.171 F 
ATOM     90  F   UNL A   1      33.849  24.250  26.720  1.00  0.00    -0.171 F 
ENDBRANCH  86  87
ENDBRANCH  77  86
ENDBRANCH  74  77
ENDBRANCH  72  73
ENDBRANCH   1  72
TORSDOF 14
ENDMDL
MODEL 3
REMARK VINA RESULT:     -11.6      0.700      7.595
REMARK SMILES O=C(NCCCNC(=O)[C@@H](Cc1ccccc1Br)CC(F)(F)F)c1ccc(-c2c3nc(c(-c4c(F)c(F)c(F)c(F)c4F)c4ccc([nH]4)c(-c4c(F)c(F)c(F)c(F)c4F)c4nc(c(-c5c(F)c(F)c(F)c(F)c5F)c5ccc2[nH]5)C=C4)C=C3)cc1
REMARK SMILES IDX 5 1 4 2 3 3 1 4 2 5 24 7 25 8 86 9 26 10 85 11 27 12 28 13
REMARK SMILES IDX 29 14 79 15 30 16 84 17 78 18 80 19 31 20 83 21 77 22 76 23
REMARK SMILES IDX 32 25 64 26 44 27 63 28 45 29 48 30 62 31 81 32 46 33 47 34
REMARK SMILES IDX 61 36 82 37 49 38 33 39 34 40 42 41 35 42 36 43 40 44 43 45
REMARK SMILES IDX 37 46 38 47 41 48 39 49 65 50 66 51 74 52 67 53 68 54 72 55
REMARK SMILES IDX 75 56 69 57 70 58 73 59 71 60 50 61 51 62 59 63 52 64 53 65
REMARK SMILES IDX 57 66 60 67 54 68 55 69 58 70 56 71 6 72 7 73 8 74 9 76
REMARK SMILES IDX 10 77 11 78 12 79 13 80 17 81 14 82 16 83 18 84 15 85 19 86
REMARK SMILES IDX 20 87 21 88 22 89 23 90
REMARK H PARENT 3 6 80 24 48 35 7 75
REMARK Flexibility Score: inf
ROOT
ATOM      1  C   UNL A   1      32.396  29.232  24.202  1.00  0.00     0.042 C 
ENDROOT
BRANCH   1   2
ATOM      2  C   UNL A   1      32.455  29.338  25.720  1.00  0.00     0.118 C 
BRANCH   2   3
ATOM      3  N   UNL A   1      32.359  30.708  26.186  1.00  0.00    -0.352 N 
ATOM      4  O   UNL A   1      32.627  32.617  27.269  1.00  0.00    -0.269 OA
ATOM      5  C   UNL A   1      33.108  31.513  27.009  1.00  0.00     0.251 C 
ATOM      6  H   UNL A   1      31.569  31.172  25.827  1.00  0.00     0.163 HD
BRANCH   5   7
ATOM      7  C   UNL A   1      34.431  31.159  27.614  1.00  0.00     0.039 A 
ATOM      8  C   UNL A   1      35.435  32.064  27.942  1.00  0.00     0.014 A 
ATOM      9  C   UNL A   1      34.632  29.808  27.967  1.00  0.00     0.014 A 
ATOM     10  C   UNL A   1      36.622  31.634  28.550  1.00  0.00     0.010 A 
ATOM     11  C   UNL A   1      35.783  29.388  28.652  1.00  0.00     0.010 A 
ATOM     12  C   UNL A   1      36.797  30.302  28.953  1.00  0.00    -0.014 A 
BRANCH  12  13
ATOM     13  C   UNL A   1      37.993  29.927  29.763  1.00  0.00     0.031 A 
ATOM     14  C   UNL A   1      39.059  29.014  29.221  1.00  0.00     0.074 A 
ATOM     15  C   UNL A   1      38.128  30.443  31.003  1.00  0.00     0.049 A 
ATOM     16  N   UNL A   1      40.173  28.616  29.787  1.00  0.00    -0.248 NA
ATOM     17  C   UNL A   1      38.847  28.467  27.874  1.00  0.00     0.031 C 
ATOM     18  C   UNL A   1      37.153  31.319  31.657  1.00  0.00     0.029 A 
ATOM     19  N   UNL A   1      39.139  30.332  31.927  1.00  0.00    -0.354 N 
ATOM     20  C   UNL A   1      40.784  27.764  28.875  1.00  0.00     0.074 A 
ATOM     21  C   UNL A   1      39.902  27.677  27.730  1.00  0.00     0.031 C 
ATOM     22  C   UNL A   1      37.636  31.713  32.843  1.00  0.00     0.029 A 
ATOM     23  C   UNL A   1      38.921  31.061  33.072  1.00  0.00     0.049 A 
ATOM     24  H   UNL A   1      39.943  29.782  31.783  1.00  0.00     0.167 HD
ATOM     25  C   UNL A   1      41.975  27.122  28.981  1.00  0.00     0.037 A 
ATOM     26  C   UNL A   1      39.656  31.180  34.193  1.00  0.00     0.037 A 
ATOM     27  C   UNL A   1      42.854  27.221  30.120  1.00  0.00     0.049 A 
ATOM     28  C   UNL A   1      40.957  30.435  34.294  1.00  0.00     0.074 A 
ATOM     29  C   UNL A   1      44.097  26.639  30.304  1.00  0.00     0.029 A 
ATOM     30  N   UNL A   1      42.581  27.943  31.275  1.00  0.00    -0.354 N 
ATOM     31  N   UNL A   1      41.541  29.667  33.406  1.00  0.00    -0.248 NA
ATOM     32  C   UNL A   1      41.700  30.567  35.554  1.00  0.00     0.031 C 
ATOM     33  C   UNL A   1      44.547  26.957  31.590  1.00  0.00     0.029 A 
ATOM     34  C   UNL A   1      43.616  27.793  32.184  1.00  0.00     0.049 A 
ATOM     35  H   UNL A   1      41.769  28.481  31.425  1.00  0.00     0.167 HD
ATOM     36  C   UNL A   1      42.725  29.241  33.990  1.00  0.00     0.074 A 
ATOM     37  C   UNL A   1      42.789  29.855  35.300  1.00  0.00     0.031 C 
ATOM     38  C   UNL A   1      43.670  28.410  33.486  1.00  0.00     0.037 A 
BRANCH  25  39
ATOM     39  C   UNL A   1      42.395  26.232  27.843  1.00  0.00     0.064 A 
ATOM     40  C   UNL A   1      41.940  24.910  27.729  1.00  0.00     0.173 A 
ATOM     41  C   UNL A   1      43.227  26.726  26.826  1.00  0.00     0.173 A 
ATOM     42  F   UNL A   1      41.149  24.384  28.676  1.00  0.00    -0.203 F 
ATOM     43  C   UNL A   1      42.326  24.108  26.657  1.00  0.00     0.198 A 
ATOM     44  C   UNL A   1      43.585  25.933  25.739  1.00  0.00     0.198 A 
ATOM     45  F   UNL A   1      43.684  27.987  26.878  1.00  0.00    -0.203 F 
ATOM     46  F   UNL A   1      41.919  22.833  26.596  1.00  0.00    -0.200 F 
ATOM     47  C   UNL A   1      43.142  24.622  25.660  1.00  0.00     0.200 A 
ATOM     48  F   UNL A   1      44.359  26.437  24.769  1.00  0.00    -0.200 F 
ATOM     49  F   UNL A   1      43.505  23.851  24.625  1.00  0.00    -0.200 F 
ENDBRANCH  25  39
BRANCH  26  50
ATOM     50  C   UNL A   1      39.169  32.027  35.316  1.00  0.00     0.064 A 
ATOM     51  C   UNL A   1      38.413  31.483  36.364  1.00  0.00     0.173 A 
ATOM     52  C   UNL A   1      39.455  33.401  35.365  1.00  0.00     0.173 A 
ATOM     53  F   UNL A   1      38.095  30.181  36.354  1.00  0.00    -0.203 F 
ATOM     54  C   UNL A   1      37.949  32.283  37.407  1.00  0.00     0.198 A 
ATOM     55  C   UNL A   1      39.021  34.191  36.426  1.00  0.00     0.198 A 
ATOM     56  F   UNL A   1      40.177  33.973  34.390  1.00  0.00    -0.203 F 
ATOM     57  F   UNL A   1      37.188  31.746  38.371  1.00  0.00    -0.200 F 
ATOM     58  C   UNL A   1      38.261  33.633  37.442  1.00  0.00     0.200 A 
ATOM     59  F   UNL A   1      39.342  35.491  36.466  1.00  0.00    -0.200 F 
ATOM     60  F   UNL A   1      37.822  34.399  38.451  1.00  0.00    -0.200 F 
ENDBRANCH  26  50
BRANCH  38  61
ATOM     61  C   UNL A   1      44.875  28.145  34.343  1.00  0.00     0.064 A 
ATOM     62  C   UNL A   1      46.007  28.974  34.305  1.00  0.00     0.173 A 
ATOM     63  C   UNL A   1      44.887  27.059  35.234  1.00  0.00     0.173 A 
ATOM     64  F   UNL A   1      46.054  30.014  33.460  1.00  0.00    -0.203 F 
ATOM     65  C   UNL A   1      47.116  28.708  35.106  1.00  0.00     0.198 A 
ATOM     66  C   UNL A   1      45.983  26.818  36.056  1.00  0.00     0.198 A 
ATOM     67  F   UNL A   1      43.830  26.238  35.312  1.00  0.00    -0.203 F 
ATOM     68  F   UNL A   1      48.207  29.481  35.011  1.00  0.00    -0.200 F 
ATOM     69  C   UNL A   1      47.101  27.636  35.985  1.00  0.00     0.200 A 
ATOM     70  F   UNL A   1      45.960  25.790  36.915  1.00  0.00    -0.200 F 
ATOM     71  F   UNL A   1      48.166  27.387  36.758  1.00  0.00    -0.200 F 
ENDBRANCH  38  61
ENDBRANCH  12  13
ENDBRANCH   5   7
ENDBRANCH   2   3
ENDBRANCH   1   2
BRANCH   1  72
ATOM     72  C   UNL A   1      31.594  28.024  23.688  1.00  0.00     0.117 C 
BRANCH  72  73
ATOM     73  N   UNL A   1      32.245  27.465  22.513  1.00  0.00    -0.356 N 
ATOM     74  C   UNL A   1      33.088  26.425  22.315  1.00  0.00     0.223 C 
ATOM     75  H   UNL A   1      32.024  27.946  21.683  1.00  0.00     0.163 HD
ATOM     76  O   UNL A   1      33.656  26.387  21.218  1.00  0.00    -0.275 OA
BRANCH  74  77
ATOM     77  C   UNL A   1      33.337  25.297  23.314  1.00  0.00     0.092 C 
BRANCH  77  78
ATOM     78  C   UNL A   1      33.680  23.923  22.690  1.00  0.00     0.050 C 
BRANCH  78  79
ATOM     79  C   UNL A   1      34.558  22.983  23.484  1.00  0.00    -0.033 A 
ATOM     80  C   UNL A   1      35.955  23.121  23.378  1.00  0.00     0.005 A 
ATOM     81  C   UNL A   1      34.062  21.975  24.325  1.00  0.00     0.021 A 
ATOM     82  C   UNL A   1      36.822  22.209  23.983  1.00  0.00     0.000 A 
ATOM     83  C   UNL A   1      34.930  21.033  24.893  1.00  0.00     0.016 A 
ATOM     84  Br  UNL A   1      32.226  21.853  24.801  1.00  0.00    -0.051 Br
ATOM     85  C   UNL A   1      36.306  21.137  24.703  1.00  0.00     0.001 A 
ENDBRANCH  78  79
ENDBRANCH  77  78
BRANCH  77  86
ATOM     86  C   UNL A   1      34.138  25.696  24.558  1.00  0.00     0.129 C 
BRANCH  86  87
ATOM     87  C   UNL A   1      33.370  25.482  25.849  1.00  0.00     0.389 C 
ATOM     88  F   UNL A   1      33.433  26.566  26.647  1.00  0.00    -0.171 F 
ATOM     89  F   UNL A   1      32.064  25.258  25.573  1.00  0.00    -0.171 F 
ATOM     90  F   UNL A   1      33.821  24.417  26.539  1.00  0.00    -0.171 F 
ENDBRANCH  86  87
ENDBRANCH  77  86
ENDBRANCH  74  77
ENDBRANCH  72  73
ENDBRANCH   1  72
TORSDOF 14
ENDMDL
