MODEL 1
REMARK VINA RESULT:     -13.1      0.000      0.000
REMARK SMILES CC1(C)C(NC(=O)c2cc(F)c(F)cc2C(=O)NCCCNC(=O)c2ccc(-c3c4nc(c(-c5c(F)c(F)c(F)c(F)c5F)c5ccc([nH]5)c(-c5c(F)c(F)c(F)c(F)c5F)c5nc(c(-c6c(F)c(F)c(F)c(F)c6F)c6ccc3[nH]6)C=C5)C=C4)cc2)C1(C)C
REMARK SMILES IDX 20 1 19 2 18 3 16 4 17 5 15 7 8 8 9 9 10 10 14 11 11 12
REMARK SMILES IDX 12 13 13 14 6 15 5 16 7 18 4 19 1 20 2 21 3 22 88 23 89 24
REMARK SMILES IDX 90 25 21 26 22 27 23 28 24 30 25 31 26 32 87 33 27 34 86 35
REMARK SMILES IDX 28 36 29 37 30 38 80 39 31 40 85 41 79 42 81 43 32 44 84 45
REMARK SMILES IDX 78 46 77 47 33 49 65 50 45 51 64 52 46 53 49 54 63 55 82 56
REMARK SMILES IDX 47 57 48 58 62 60 83 61 50 62 34 63 35 64 43 65 36 66 37 67
REMARK SMILES IDX 41 68 44 69 38 70 39 71 42 72 40 73 66 74 67 75 75 76 68 77
REMARK SMILES IDX 69 78 73 79 76 80 70 81 71 82 74 83 72 84 51 85 52 86 60 87
REMARK SMILES IDX 53 88 54 89 58 90 61 91 55 92 56 93 59 94 57 95
REMARK H PARENT 18 6 5 17 22 29 81 48 49 59
REMARK Flexibility Score: inf
ROOT
ATOM      1  C   UNL A   1      31.350  32.112  26.507  1.00  0.00     0.042 C 
ENDROOT
BRANCH   1   2
ATOM      2  C   UNL A   1      31.549  30.674  26.053  1.00  0.00     0.118 C 
BRANCH   2   3
ATOM      3  N   UNL A   1      32.667  29.982  26.652  1.00  0.00    -0.352 N 
ATOM      4  C   UNL A   1      33.430  28.927  26.239  1.00  0.00     0.252 C 
ATOM      5  O   UNL A   1      34.366  28.624  26.987  1.00  0.00    -0.269 OA
ATOM      6  H   UNL A   1      32.930  30.342  27.530  1.00  0.00     0.163 HD
BRANCH   4   7
ATOM      7  C   UNL A   1      33.211  28.067  25.037  1.00  0.00     0.055 A 
ATOM      8  C   UNL A   1      32.427  26.909  24.903  1.00  0.00     0.055 A 
ATOM      9  C   UNL A   1      32.184  26.346  23.631  1.00  0.00     0.057 A 
ATOM     10  C   UNL A   1      32.791  26.876  22.505  1.00  0.00     0.159 A 
ATOM     11  C   UNL A   1      33.806  28.586  23.861  1.00  0.00     0.057 A 
ATOM     12  F   UNL A   1      32.590  26.296  21.315  1.00  0.00    -0.204 F 
ATOM     13  C   UNL A   1      33.608  27.986  22.620  1.00  0.00     0.159 A 
ATOM     14  F   UNL A   1      34.203  28.500  21.536  1.00  0.00    -0.204 F 
BRANCH   8  15
ATOM     15  C   UNL A   1      31.764  26.217  26.014  1.00  0.00     0.252 C 
ATOM     16  N   UNL A   1      32.360  25.081  26.542  1.00  0.00    -0.348 N 
ATOM     17  H   UNL A   1      31.943  24.716  27.355  1.00  0.00     0.164 HD
ATOM     18  O   UNL A   1      30.708  26.659  26.453  1.00  0.00    -0.269 OA
BRANCH  16  19
ATOM     19  C   UNL A   1      33.508  24.367  26.053  1.00  0.00     0.094 C 
ATOM     20  C   UNL A   1      35.565  22.824  26.444  1.00  0.00     0.014 C 
ATOM     21  C   UNL A   1      34.062  23.036  26.524  1.00  0.00    -0.007 C 
ATOM     22  C   UNL A   1      33.471  22.344  27.731  1.00  0.00     0.014 C 
ATOM     23  C   UNL A   1      33.274  23.128  25.204  1.00  0.00    -0.007 C 
ATOM     24  C   UNL A   1      33.953  23.161  23.852  1.00  0.00     0.014 C 
ATOM     25  C   UNL A   1      31.903  22.487  25.125  1.00  0.00     0.014 C 
ENDBRANCH  16  19
ENDBRANCH   8  15
ENDBRANCH   4   7
ENDBRANCH   2   3
ENDBRANCH   1   2
BRANCH   1  26
ATOM     26  C   UNL A   1      32.571  32.760  27.141  1.00  0.00     0.118 C 
BRANCH  26  27
ATOM     27  N   UNL A   1      32.348  34.114  27.630  1.00  0.00    -0.352 N 
ATOM     28  C   UNL A   1      32.983  34.893  28.569  1.00  0.00     0.251 C 
ATOM     29  H   UNL A   1      31.587  34.566  27.198  1.00  0.00     0.163 HD
ATOM     30  O   UNL A   1      32.517  36.000  28.832  1.00  0.00    -0.269 OA
BRANCH  28  31
ATOM     31  C   UNL A   1      34.174  34.423  29.319  1.00  0.00     0.039 A 
ATOM     32  C   UNL A   1      33.978  33.812  30.566  1.00  0.00     0.014 A 
ATOM     33  C   UNL A   1      35.474  34.601  28.856  1.00  0.00     0.014 A 
ATOM     34  C   UNL A   1      35.069  33.307  31.285  1.00  0.00     0.010 A 
ATOM     35  C   UNL A   1      36.542  33.988  29.505  1.00  0.00     0.010 A 
ATOM     36  C   UNL A   1      36.357  33.339  30.733  1.00  0.00    -0.014 A 
BRANCH  36  37
ATOM     37  C   UNL A   1      37.530  32.725  31.415  1.00  0.00     0.031 A 
ATOM     38  C   UNL A   1      38.263  31.576  30.771  1.00  0.00     0.074 A 
ATOM     39  C   UNL A   1      37.875  33.131  32.654  1.00  0.00     0.049 A 
ATOM     40  N   UNL A   1      39.190  30.799  31.273  1.00  0.00    -0.248 NA
ATOM     41  C   UNL A   1      37.871  31.221  29.397  1.00  0.00     0.031 C 
ATOM     42  C   UNL A   1      37.212  34.190  33.416  1.00  0.00     0.029 A 
ATOM     43  N   UNL A   1      38.861  32.685  33.502  1.00  0.00    -0.354 N 
ATOM     44  C   UNL A   1      39.453  29.845  30.299  1.00  0.00     0.074 A 
ATOM     45  C   UNL A   1      38.560  30.108  29.193  1.00  0.00     0.031 C 
ATOM     46  C   UNL A   1      37.824  34.332  34.602  1.00  0.00     0.029 A 
ATOM     47  C   UNL A   1      38.892  33.344  34.707  1.00  0.00     0.049 A 
ATOM     48  H   UNL A   1      39.487  31.962  33.266  1.00  0.00     0.167 HD
ATOM     49  C   UNL A   1      40.376  28.854  30.314  1.00  0.00     0.037 A 
ATOM     50  C   UNL A   1      39.685  33.166  35.782  1.00  0.00     0.037 A 
ATOM     51  C   UNL A   1      41.322  28.648  31.376  1.00  0.00     0.049 A 
ATOM     52  C   UNL A   1      40.744  32.098  35.747  1.00  0.00     0.074 A 
ATOM     53  C   UNL A   1      42.360  27.736  31.437  1.00  0.00     0.029 A 
ATOM     54  N   UNL A   1      41.356  29.376  32.556  1.00  0.00    -0.354 N 
ATOM     55  N   UNL A   1      41.015  31.237  34.797  1.00  0.00    -0.248 NA
ATOM     56  C   UNL A   1      41.608  31.977  36.930  1.00  0.00     0.031 C 
ATOM     57  C   UNL A   1      43.003  27.888  32.668  1.00  0.00     0.029 A 
ATOM     58  C   UNL A   1      42.391  28.925  33.356  1.00  0.00     0.049 A 
ATOM     59  H   UNL A   1      40.737  30.105  32.789  1.00  0.00     0.167 HD
ATOM     60  C   UNL A   1      42.088  30.487  35.256  1.00  0.00     0.074 A 
ATOM     61  C   UNL A   1      42.432  31.004  36.564  1.00  0.00     0.031 C 
ATOM     62  C   UNL A   1      42.727  29.458  34.650  1.00  0.00     0.037 A 
BRANCH  49  63
ATOM     63  C   UNL A   1      40.443  27.930  29.133  1.00  0.00     0.064 A 
ATOM     64  C   UNL A   1      41.232  28.259  28.020  1.00  0.00     0.173 A 
ATOM     65  C   UNL A   1      39.662  26.768  29.064  1.00  0.00     0.173 A 
ATOM     66  F   UNL A   1      41.993  29.363  28.032  1.00  0.00    -0.203 F 
ATOM     67  C   UNL A   1      41.224  27.464  26.877  1.00  0.00     0.198 A 
ATOM     68  C   UNL A   1      39.677  25.961  27.930  1.00  0.00     0.198 A 
ATOM     69  F   UNL A   1      38.898  26.406  30.106  1.00  0.00    -0.203 F 
ATOM     70  F   UNL A   1      41.959  27.816  25.811  1.00  0.00    -0.200 F 
ATOM     71  C   UNL A   1      40.448  26.316  26.834  1.00  0.00     0.200 A 
ATOM     72  F   UNL A   1      38.944  24.840  27.899  1.00  0.00    -0.200 F 
ATOM     73  F   UNL A   1      40.444  25.549  25.735  1.00  0.00    -0.200 F 
ENDBRANCH  49  63
BRANCH  50  74
ATOM     74  C   UNL A   1      39.522  34.043  36.971  1.00  0.00     0.064 A 
ATOM     75  C   UNL A   1      40.129  35.306  37.041  1.00  0.00     0.173 A 
ATOM     76  C   UNL A   1      38.771  33.619  38.077  1.00  0.00     0.173 A 
ATOM     77  F   UNL A   1      40.865  35.755  36.013  1.00  0.00    -0.203 F 
ATOM     78  C   UNL A   1      40.003  36.103  38.176  1.00  0.00     0.198 A 
ATOM     79  C   UNL A   1      38.623  34.429  39.201  1.00  0.00     0.198 A 
ATOM     80  F   UNL A   1      38.157  32.428  38.050  1.00  0.00    -0.203 F 
ATOM     81  F   UNL A   1      40.620  37.292  38.229  1.00  0.00    -0.200 F 
ATOM     82  C   UNL A   1      39.246  35.667  39.253  1.00  0.00     0.200 A 
ATOM     83  F   UNL A   1      37.872  34.013  40.229  1.00  0.00    -0.200 F 
ATOM     84  F   UNL A   1      39.114  36.441  40.339  1.00  0.00    -0.200 F 
ENDBRANCH  50  74
BRANCH  62  85
ATOM     85  C   UNL A   1      43.875  28.825  35.375  1.00  0.00     0.064 A 
ATOM     86  C   UNL A   1      43.645  27.829  36.335  1.00  0.00     0.173 A 
ATOM     87  C   UNL A   1      45.190  29.273  35.189  1.00  0.00     0.173 A 
ATOM     88  F   UNL A   1      42.402  27.375  36.555  1.00  0.00    -0.203 F 
ATOM     89  C   UNL A   1      44.691  27.316  37.098  1.00  0.00     0.198 A 
ATOM     90  C   UNL A   1      46.237  28.739  35.935  1.00  0.00     0.198 A 
ATOM     91  F   UNL A   1      45.459  30.215  34.275  1.00  0.00    -0.203 F 
ATOM     92  F   UNL A   1      44.443  26.392  38.037  1.00  0.00    -0.200 F 
ATOM     93  C   UNL A   1      45.985  27.770  36.896  1.00  0.00     0.200 A 
ATOM     94  F   UNL A   1      47.490  29.164  35.726  1.00  0.00    -0.200 F 
ATOM     95  F   UNL A   1      46.992  27.274  37.628  1.00  0.00    -0.200 F 
ENDBRANCH  62  85
ENDBRANCH  36  37
ENDBRANCH  28  31
ENDBRANCH  26  27
ENDBRANCH   1  26
TORSDOF 12
ENDMDL
MODEL 2
REMARK VINA RESULT:     -13.1      0.163      1.131
REMARK SMILES CC1(C)C(NC(=O)c2cc(F)c(F)cc2C(=O)NCCCNC(=O)c2ccc(-c3c4nc(c(-c5c(F)c(F)c(F)c(F)c5F)c5ccc([nH]5)c(-c5c(F)c(F)c(F)c(F)c5F)c5nc(c(-c6c(F)c(F)c(F)c(F)c6F)c6ccc3[nH]6)C=C5)C=C4)cc2)C1(C)C
REMARK SMILES IDX 20 1 19 2 18 3 16 4 17 5 15 7 8 8 9 9 10 10 14 11 11 12
REMARK SMILES IDX 12 13 13 14 6 15 5 16 7 18 4 19 1 20 2 21 3 22 88 23 89 24
REMARK SMILES IDX 90 25 21 26 22 27 23 28 24 30 25 31 26 32 87 33 27 34 86 35
REMARK SMILES IDX 28 36 29 37 30 38 80 39 31 40 85 41 79 42 81 43 32 44 84 45
REMARK SMILES IDX 78 46 77 47 33 49 65 50 45 51 64 52 46 53 49 54 63 55 82 56
REMARK SMILES IDX 47 57 48 58 62 60 83 61 50 62 34 63 35 64 43 65 36 66 37 67
REMARK SMILES IDX 41 68 44 69 38 70 39 71 42 72 40 73 66 74 67 75 75 76 68 77
REMARK SMILES IDX 69 78 73 79 76 80 70 81 71 82 74 83 72 84 51 85 52 86 60 87
REMARK SMILES IDX 53 88 54 89 58 90 61 91 55 92 56 93 59 94 57 95
REMARK H PARENT 18 6 5 17 22 29 81 48 49 59
REMARK Flexibility Score: inf
ROOT
ATOM      1  C   UNL A   1      31.365  32.057  26.501  1.00  0.00     0.042 C 
ENDROOT
BRANCH   1   2
ATOM      2  C   UNL A   1      31.559  30.610  26.076  1.00  0.00     0.118 C 
BRANCH   2   3
ATOM      3  N   UNL A   1      32.695  29.937  26.661  1.00  0.00    -0.352 N 
ATOM      4  C   UNL A   1      33.469  28.893  26.239  1.00  0.00     0.252 C 
ATOM      5  O   UNL A   1      34.420  28.606  26.975  1.00  0.00    -0.269 OA
ATOM      6  H   UNL A   1      32.965  30.303  27.534  1.00  0.00     0.163 HD
BRANCH   4   7
ATOM      7  C   UNL A   1      33.247  28.027  25.043  1.00  0.00     0.055 A 
ATOM      8  C   UNL A   1      32.469  26.863  24.919  1.00  0.00     0.055 A 
ATOM      9  C   UNL A   1      32.220  26.294  23.651  1.00  0.00     0.057 A 
ATOM     10  C   UNL A   1      32.816  26.823  22.518  1.00  0.00     0.159 A 
ATOM     11  C   UNL A   1      33.830  28.544  23.861  1.00  0.00     0.057 A 
ATOM     12  F   UNL A   1      32.610  26.238  21.332  1.00  0.00    -0.204 F 
ATOM     13  C   UNL A   1      33.627  27.939  22.623  1.00  0.00     0.159 A 
ATOM     14  F   UNL A   1      34.211  28.452  21.533  1.00  0.00    -0.204 F 
BRANCH   8  15
ATOM     15  C   UNL A   1      31.818  26.172  26.037  1.00  0.00     0.252 C 
ATOM     16  N   UNL A   1      32.395  25.011  26.529  1.00  0.00    -0.348 N 
ATOM     17  H   UNL A   1      31.992  24.644  27.348  1.00  0.00     0.164 HD
ATOM     18  O   UNL A   1      30.788  26.636  26.513  1.00  0.00    -0.269 OA
BRANCH  16  19
ATOM     19  C   UNL A   1      33.508  24.273  25.996  1.00  0.00     0.094 C 
ATOM     20  C   UNL A   1      35.594  22.753  26.316  1.00  0.00     0.014 C 
ATOM     21  C   UNL A   1      34.101  22.968  26.494  1.00  0.00    -0.007 C 
ATOM     22  C   UNL A   1      33.602  22.340  27.774  1.00  0.00     0.014 C 
ATOM     23  C   UNL A   1      33.218  22.991  25.232  1.00  0.00    -0.007 C 
ATOM     24  C   UNL A   1      33.798  22.954  23.833  1.00  0.00     0.014 C 
ATOM     25  C   UNL A   1      31.848  22.346  25.285  1.00  0.00     0.014 C 
ENDBRANCH  16  19
ENDBRANCH   8  15
ENDBRANCH   4   7
ENDBRANCH   2   3
ENDBRANCH   1   2
BRANCH   1  26
ATOM     26  C   UNL A   1      32.588  32.713  27.122  1.00  0.00     0.118 C 
BRANCH  26  27
ATOM     27  N   UNL A   1      32.359  34.060  27.627  1.00  0.00    -0.352 N 
ATOM     28  C   UNL A   1      32.992  34.832  28.573  1.00  0.00     0.251 C 
ATOM     29  H   UNL A   1      31.593  34.512  27.204  1.00  0.00     0.163 HD
ATOM     30  O   UNL A   1      32.520  35.933  28.850  1.00  0.00    -0.269 OA
BRANCH  28  31
ATOM     31  C   UNL A   1      34.188  34.361  29.313  1.00  0.00     0.039 A 
ATOM     32  C   UNL A   1      33.998  33.675  30.522  1.00  0.00     0.014 A 
ATOM     33  C   UNL A   1      35.487  34.609  28.881  1.00  0.00     0.014 A 
ATOM     34  C   UNL A   1      35.096  33.168  31.227  1.00  0.00     0.010 A 
ATOM     35  C   UNL A   1      36.568  33.998  29.511  1.00  0.00     0.010 A 
ATOM     36  C   UNL A   1      36.390  33.274  30.697  1.00  0.00    -0.014 A 
BRANCH  36  37
ATOM     37  C   UNL A   1      37.574  32.664  31.362  1.00  0.00     0.031 A 
ATOM     38  C   UNL A   1      38.321  31.539  30.690  1.00  0.00     0.074 A 
ATOM     39  C   UNL A   1      37.918  33.047  32.608  1.00  0.00     0.049 A 
ATOM     40  N   UNL A   1      39.261  30.765  31.172  1.00  0.00    -0.248 NA
ATOM     41  C   UNL A   1      37.929  31.208  29.311  1.00  0.00     0.031 C 
ATOM     42  C   UNL A   1      37.243  34.080  33.394  1.00  0.00     0.029 A 
ATOM     43  N   UNL A   1      38.915  32.598  33.442  1.00  0.00    -0.354 N 
ATOM     44  C   UNL A   1      39.534  29.836  30.177  1.00  0.00     0.074 A 
ATOM     45  C   UNL A   1      38.633  30.110  29.080  1.00  0.00     0.031 C 
ATOM     46  C   UNL A   1      37.858  34.206  34.581  1.00  0.00     0.029 A 
ATOM     47  C   UNL A   1      38.941  33.231  34.661  1.00  0.00     0.049 A 
ATOM     48  H   UNL A   1      39.549  31.890  33.188  1.00  0.00     0.167 HD
ATOM     49  C   UNL A   1      40.471  28.859  30.166  1.00  0.00     0.037 A 
ATOM     50  C   UNL A   1      39.740  33.043  35.729  1.00  0.00     0.037 A 
ATOM     51  C   UNL A   1      41.425  28.644  31.221  1.00  0.00     0.049 A 
ATOM     52  C   UNL A   1      40.815  31.991  35.667  1.00  0.00     0.074 A 
ATOM     53  C   UNL A   1      42.476  27.746  31.258  1.00  0.00     0.029 A 
ATOM     54  N   UNL A   1      41.453  29.347  32.415  1.00  0.00    -0.354 N 
ATOM     55  N   UNL A   1      41.095  31.155  34.698  1.00  0.00    -0.248 NA
ATOM     56  C   UNL A   1      41.686  31.858  36.844  1.00  0.00     0.031 C 
ATOM     57  C   UNL A   1      43.122  27.882  32.490  1.00  0.00     0.029 A 
ATOM     58  C   UNL A   1      42.497  28.894  33.202  1.00  0.00     0.049 A 
ATOM     59  H   UNL A   1      40.825  30.062  32.666  1.00  0.00     0.167 HD
ATOM     60  C   UNL A   1      42.180  30.411  35.136  1.00  0.00     0.074 A 
ATOM     61  C   UNL A   1      42.522  30.904  36.454  1.00  0.00     0.031 C 
ATOM     62  C   UNL A   1      42.831  29.405  34.505  1.00  0.00     0.037 A 
BRANCH  49  63
ATOM     63  C   UNL A   1      40.547  27.962  28.966  1.00  0.00     0.064 A 
ATOM     64  C   UNL A   1      41.348  28.312  27.869  1.00  0.00     0.173 A 
ATOM     65  C   UNL A   1      39.763  26.804  28.864  1.00  0.00     0.173 A 
ATOM     66  F   UNL A   1      42.113  29.413  27.913  1.00  0.00    -0.203 F 
ATOM     67  C   UNL A   1      41.349  27.543  26.708  1.00  0.00     0.198 A 
ATOM     68  C   UNL A   1      39.786  26.022  27.711  1.00  0.00     0.198 A 
ATOM     69  F   UNL A   1      38.987  26.421  29.889  1.00  0.00    -0.203 F 
ATOM     70  F   UNL A   1      42.095  27.916  25.658  1.00  0.00    -0.200 F 
ATOM     71  C   UNL A   1      40.570  26.399  26.631  1.00  0.00     0.200 A 
ATOM     72  F   UNL A   1      39.050  24.905  27.649  1.00  0.00    -0.200 F 
ATOM     73  F   UNL A   1      40.574  25.657  25.515  1.00  0.00    -0.200 F 
ENDBRANCH  49  63
BRANCH  50  74
ATOM     74  C   UNL A   1      39.569  33.891  36.937  1.00  0.00     0.064 A 
ATOM     75  C   UNL A   1      38.792  33.469  38.026  1.00  0.00     0.173 A 
ATOM     76  C   UNL A   1      40.163  35.159  37.013  1.00  0.00     0.173 A 
ATOM     77  F   UNL A   1      38.195  32.268  38.000  1.00  0.00    -0.203 F 
ATOM     78  C   UNL A   1      38.605  34.288  39.138  1.00  0.00     0.198 A 
ATOM     79  C   UNL A   1      39.997  35.966  38.137  1.00  0.00     0.198 A 
ATOM     80  F   UNL A   1      40.929  35.599  36.004  1.00  0.00    -0.203 F 
ATOM     81  F   UNL A   1      37.832  33.873  40.151  1.00  0.00    -0.200 F 
ATOM     82  C   UNL A   1      39.213  35.534  39.194  1.00  0.00     0.200 A 
ATOM     83  F   UNL A   1      40.605  37.159  38.196  1.00  0.00    -0.200 F 
ATOM     84  F   UNL A   1      39.043  36.315  40.269  1.00  0.00    -0.200 F 
ENDBRANCH  50  74
BRANCH  62  85
ATOM     85  C   UNL A   1      43.991  28.773  35.212  1.00  0.00     0.064 A 
ATOM     86  C   UNL A   1      43.782  27.737  36.135  1.00  0.00     0.173 A 
ATOM     87  C   UNL A   1      45.296  29.259  35.050  1.00  0.00     0.173 A 
ATOM     88  F   UNL A   1      42.549  27.245  36.331  1.00  0.00    -0.203 F 
ATOM     89  C   UNL A   1      44.837  27.221  36.883  1.00  0.00     0.198 A 
ATOM     90  C   UNL A   1      46.353  28.723  35.781  1.00  0.00     0.198 A 
ATOM     91  F   UNL A   1      45.546  30.241  34.172  1.00  0.00    -0.203 F 
ATOM     92  F   UNL A   1      44.608  26.258  37.786  1.00  0.00    -0.200 F 
ATOM     93  C   UNL A   1      46.121  27.714  36.704  1.00  0.00     0.200 A 
ATOM     94  F   UNL A   1      47.596  29.186  35.593  1.00  0.00    -0.200 F 
ATOM     95  F   UNL A   1      47.136  27.216  37.423  1.00  0.00    -0.200 F 
ENDBRANCH  62  85
ENDBRANCH  36  37
ENDBRANCH  28  31
ENDBRANCH  26  27
ENDBRANCH   1  26
TORSDOF 12
ENDMDL
MODEL 3
REMARK VINA RESULT:     -13.1      2.206      3.594
REMARK SMILES CC1(C)C(NC(=O)c2cc(F)c(F)cc2C(=O)NCCCNC(=O)c2ccc(-c3c4nc(c(-c5c(F)c(F)c(F)c(F)c5F)c5ccc([nH]5)c(-c5c(F)c(F)c(F)c(F)c5F)c5nc(c(-c6c(F)c(F)c(F)c(F)c6F)c6ccc3[nH]6)C=C5)C=C4)cc2)C1(C)C
REMARK SMILES IDX 20 1 19 2 18 3 16 4 17 5 15 7 8 8 9 9 10 10 14 11 11 12
REMARK SMILES IDX 12 13 13 14 6 15 5 16 7 18 4 19 1 20 2 21 3 22 88 23 89 24
REMARK SMILES IDX 90 25 21 26 22 27 23 28 24 30 25 31 26 32 87 33 27 34 86 35
REMARK SMILES IDX 28 36 29 37 30 38 80 39 31 40 85 41 79 42 81 43 32 44 84 45
REMARK SMILES IDX 78 46 77 47 33 49 65 50 45 51 64 52 46 53 49 54 63 55 82 56
REMARK SMILES IDX 47 57 48 58 62 60 83 61 50 62 34 63 35 64 43 65 36 66 37 67
REMARK SMILES IDX 41 68 44 69 38 70 39 71 42 72 40 73 66 74 67 75 75 76 68 77
REMARK SMILES IDX 69 78 73 79 76 80 70 81 71 82 74 83 72 84 51 85 52 86 60 87
REMARK SMILES IDX 53 88 54 89 58 90 61 91 55 92 56 93 59 94 57 95
REMARK H PARENT 18 6 5 17 22 29 81 48 49 59
REMARK Flexibility Score: inf
ROOT
ATOM      1  C   UNL A   1      33.875  29.197  24.171  1.00  0.00     0.042 C 
ENDROOT
BRANCH   1   2
ATOM      2  C   UNL A   1      33.271  29.102  22.778  1.00  0.00     0.118 C 
BRANCH   2   3
ATOM      3  N   UNL A   1      33.485  27.848  22.092  1.00  0.00    -0.352 N 
ATOM      4  C   UNL A   1      32.964  26.597  22.270  1.00  0.00     0.252 C 
ATOM      5  O   UNL A   1      33.328  25.750  21.447  1.00  0.00    -0.269 OA
ATOM      6  H   UNL A   1      34.131  27.908  21.353  1.00  0.00     0.163 HD
BRANCH   4   7
ATOM      7  C   UNL A   1      32.077  26.134  23.379  1.00  0.00     0.055 A 
ATOM      8  C   UNL A   1      32.422  25.547  24.608  1.00  0.00     0.055 A 
ATOM      9  C   UNL A   1      31.451  25.362  25.616  1.00  0.00     0.057 A 
ATOM     10  C   UNL A   1      30.123  25.671  25.372  1.00  0.00     0.159 A 
ATOM     11  C   UNL A   1      30.712  26.448  23.172  1.00  0.00     0.057 A 
ATOM     12  F   UNL A   1      29.209  25.439  26.322  1.00  0.00    -0.204 F 
ATOM     13  C   UNL A   1      29.752  26.203  24.151  1.00  0.00     0.159 A 
ATOM     14  F   UNL A   1      28.469  26.500  23.907  1.00  0.00    -0.204 F 
BRANCH   8  15
ATOM     15  C   UNL A   1      33.778  25.129  24.981  1.00  0.00     0.252 C 
ATOM     16  N   UNL A   1      34.107  23.784  24.893  1.00  0.00    -0.348 N 
ATOM     17  H   UNL A   1      35.054  23.563  25.043  1.00  0.00     0.164 HD
ATOM     18  O   UNL A   1      34.586  25.971  25.354  1.00  0.00    -0.269 OA
BRANCH  16  19
ATOM     19  C   UNL A   1      33.242  22.671  24.612  1.00  0.00     0.094 C 
ATOM     20  C   UNL A   1      32.865  20.237  23.775  1.00  0.00     0.014 C 
ATOM     21  C   UNL A   1      33.537  21.189  24.750  1.00  0.00    -0.007 C 
ATOM     22  C   UNL A   1      34.925  20.715  25.115  1.00  0.00     0.014 C 
ATOM     23  C   UNL A   1      32.653  21.906  25.787  1.00  0.00    -0.007 C 
ATOM     24  C   UNL A   1      31.141  21.810  25.772  1.00  0.00     0.014 C 
ATOM     25  C   UNL A   1      33.186  22.106  27.191  1.00  0.00     0.014 C 
ENDBRANCH  16  19
ENDBRANCH   8  15
ENDBRANCH   4   7
ENDBRANCH   2   3
ENDBRANCH   1   2
BRANCH   1  26
ATOM     26  C   UNL A   1      32.879  29.066  25.313  1.00  0.00     0.118 C 
BRANCH  26  27
ATOM     27  N   UNL A   1      32.474  30.333  25.906  1.00  0.00    -0.352 N 
ATOM     28  C   UNL A   1      33.038  31.151  26.857  1.00  0.00     0.251 C 
ATOM     29  H   UNL A   1      31.620  30.675  25.555  1.00  0.00     0.163 HD
ATOM     30  O   UNL A   1      32.417  32.147  27.224  1.00  0.00    -0.269 OA
BRANCH  28  31
ATOM     31  C   UNL A   1      34.340  30.846  27.498  1.00  0.00     0.039 A 
ATOM     32  C   UNL A   1      35.277  31.881  27.633  1.00  0.00     0.014 A 
ATOM     33  C   UNL A   1      34.685  29.569  27.932  1.00  0.00     0.014 A 
ATOM     34  C   UNL A   1      36.498  31.650  28.279  1.00  0.00     0.010 A 
ATOM     35  C   UNL A   1      35.839  29.369  28.685  1.00  0.00     0.010 A 
ATOM     36  C   UNL A   1      36.766  30.404  28.864  1.00  0.00    -0.014 A 
BRANCH  36  37
ATOM     37  C   UNL A   1      38.006  30.143  29.646  1.00  0.00     0.031 A 
ATOM     38  C   UNL A   1      39.070  29.229  29.092  1.00  0.00     0.074 A 
ATOM     39  C   UNL A   1      38.133  30.643  30.892  1.00  0.00     0.049 A 
ATOM     40  N   UNL A   1      40.132  28.741  29.683  1.00  0.00    -0.248 NA
ATOM     41  C   UNL A   1      38.895  28.764  27.707  1.00  0.00     0.031 C 
ATOM     42  C   UNL A   1      37.151  31.490  31.570  1.00  0.00     0.029 A 
ATOM     43  N   UNL A   1      39.136  30.494  31.820  1.00  0.00    -0.354 N 
ATOM     44  C   UNL A   1      40.718  27.883  28.761  1.00  0.00     0.074 A 
ATOM     45  C   UNL A   1      39.873  27.879  27.588  1.00  0.00     0.031 C 
ATOM     46  C   UNL A   1      37.610  31.809  32.790  1.00  0.00     0.029 A 
ATOM     47  C   UNL A   1      38.895  31.151  33.002  1.00  0.00     0.049 A 
ATOM     48  H   UNL A   1      39.950  29.967  31.652  1.00  0.00     0.167 HD
ATOM     49  C   UNL A   1      41.870  27.182  28.873  1.00  0.00     0.037 A 
ATOM     50  C   UNL A   1      39.622  31.211  34.135  1.00  0.00     0.037 A 
ATOM     51  C   UNL A   1      42.754  27.255  30.005  1.00  0.00     0.049 A 
ATOM     52  C   UNL A   1      40.931  30.472  34.209  1.00  0.00     0.074 A 
ATOM     53  C   UNL A   1      43.992  26.662  30.168  1.00  0.00     0.029 A 
ATOM     54  N   UNL A   1      42.499  27.980  31.159  1.00  0.00    -0.354 N 
ATOM     55  N   UNL A   1      41.497  29.706  33.309  1.00  0.00    -0.248 NA
ATOM     56  C   UNL A   1      41.703  30.606  35.453  1.00  0.00     0.031 C 
ATOM     57  C   UNL A   1      44.475  27.000  31.435  1.00  0.00     0.029 A 
ATOM     58  C   UNL A   1      43.553  27.838  32.044  1.00  0.00     0.049 A 
ATOM     59  H   UNL A   1      41.690  28.515  31.324  1.00  0.00     0.167 HD
ATOM     60  C   UNL A   1      42.695  29.283  33.866  1.00  0.00     0.074 A 
ATOM     61  C   UNL A   1      42.785  29.890  35.177  1.00  0.00     0.031 C 
ATOM     62  C   UNL A   1      43.633  28.460  33.340  1.00  0.00     0.037 A 
BRANCH  49  63
ATOM     63  C   UNL A   1      42.275  26.297  27.730  1.00  0.00     0.064 A 
ATOM     64  C   UNL A   1      41.783  24.986  27.640  1.00  0.00     0.173 A 
ATOM     65  C   UNL A   1      43.216  26.713  26.777  1.00  0.00     0.173 A 
ATOM     66  F   UNL A   1      40.887  24.537  28.532  1.00  0.00    -0.203 F 
ATOM     67  C   UNL A   1      42.229  24.120  26.645  1.00  0.00     0.198 A 
ATOM     68  C   UNL A   1      43.639  25.853  25.767  1.00  0.00     0.198 A 
ATOM     69  F   UNL A   1      43.709  27.960  26.814  1.00  0.00    -0.203 F 
ATOM     70  F   UNL A   1      41.772  22.861  26.599  1.00  0.00    -0.200 F 
ATOM     71  C   UNL A   1      43.155  24.555  25.709  1.00  0.00     0.200 A 
ATOM     72  F   UNL A   1      44.517  26.283  24.850  1.00  0.00    -0.200 F 
ATOM     73  F   UNL A   1      43.581  23.723  24.749  1.00  0.00    -0.200 F 
ENDBRANCH  49  63
BRANCH  50  74
ATOM     74  C   UNL A   1      39.138  32.024  35.281  1.00  0.00     0.064 A 
ATOM     75  C   UNL A   1      39.414  33.397  35.375  1.00  0.00     0.173 A 
ATOM     76  C   UNL A   1      38.406  31.434  36.321  1.00  0.00     0.173 A 
ATOM     77  F   UNL A   1      40.117  34.008  34.410  1.00  0.00    -0.203 F 
ATOM     78  C   UNL A   1      38.990  34.143  36.472  1.00  0.00     0.198 A 
ATOM     79  C   UNL A   1      37.959  32.187  37.405  1.00  0.00     0.198 A 
ATOM     80  F   UNL A   1      38.102  30.129  36.267  1.00  0.00    -0.203 F 
ATOM     81  F   UNL A   1      39.295  35.445  36.553  1.00  0.00    -0.200 F 
ATOM     82  C   UNL A   1      38.257  33.538  37.484  1.00  0.00     0.200 A 
ATOM     83  F   UNL A   1      37.232  31.603  38.367  1.00  0.00    -0.200 F 
ATOM     84  F   UNL A   1      37.838  34.260  38.532  1.00  0.00    -0.200 F 
ENDBRANCH  50  74
BRANCH  62  85
ATOM     85  C   UNL A   1      44.851  28.173  34.163  1.00  0.00     0.064 A 
ATOM     86  C   UNL A   1      45.998  28.972  34.037  1.00  0.00     0.173 A 
ATOM     87  C   UNL A   1      44.916  27.053  35.003  1.00  0.00     0.173 A 
ATOM     88  F   UNL A   1      45.987  30.050  33.238  1.00  0.00    -0.203 F 
ATOM     89  C   UNL A   1      47.173  28.647  34.709  1.00  0.00     0.198 A 
ATOM     90  C   UNL A   1      46.085  26.746  35.693  1.00  0.00     0.198 A 
ATOM     91  F   UNL A   1      43.842  26.267  35.163  1.00  0.00    -0.203 F 
ATOM     92  F   UNL A   1      48.268  29.402  34.544  1.00  0.00    -0.200 F 
ATOM     93  C   UNL A   1      47.215  27.536  35.537  1.00  0.00     0.200 A 
ATOM     94  F   UNL A   1      46.119  25.683  36.509  1.00  0.00    -0.200 F 
ATOM     95  F   UNL A   1      48.346  27.225  36.185  1.00  0.00    -0.200 F 
ENDBRANCH  62  85
ENDBRANCH  36  37
ENDBRANCH  28  31
ENDBRANCH  26  27
ENDBRANCH   1  26
TORSDOF 12
ENDMDL
