MODEL 1
REMARK VINA RESULT:     -11.9      0.000      0.000
REMARK SMILES C[C@@H]1CN(C(=O)NC(=O)CCCCC(=O)NCCCNC(=O)c2ccc(-c3c4nc(c(-c5c(F)c(F)c(F)c(F)c5F)c5ccc([nH]5)c(-c5c(F)c(F)c(F)c(F)c5F)c5nc(c(-c6c(F)c(F)c(F)c(F)c6F)c6ccc3[nH]6)C=C5)C=C4)cc2)CCO1
REMARK SMILES IDX 14 1 15 2 16 3 13 5 12 6 11 7 10 8 8 9 5 10 6 11 7 12 9 14
REMARK SMILES IDX 4 15 1 16 2 17 3 18 88 19 87 20 86 21 17 22 18 23 19 24
REMARK SMILES IDX 20 25 21 26 22 28 23 29 24 30 85 31 25 32 84 33 26 34 27 35
REMARK SMILES IDX 28 36 78 37 29 38 83 39 77 40 79 41 30 42 82 43 76 44 75 45
REMARK SMILES IDX 31 47 63 48 43 49 62 50 44 51 47 52 61 53 80 54 45 55 46 56
REMARK SMILES IDX 60 58 81 59 48 60 32 61 33 62 41 63 34 64 35 65 39 66 42 67
REMARK SMILES IDX 36 68 37 69 40 70 38 71 64 72 65 73 73 74 66 75 67 76 71 77
REMARK SMILES IDX 74 78 68 79 69 80 72 81 70 82 49 83 50 84 58 85 51 86 52 87
REMARK SMILES IDX 56 88 59 89 53 90 54 91 57 92 55 93
REMARK H PARENT 16 4 7 13 20 27 79 46 47 57
REMARK Flexibility Score: inf
ROOT
ATOM      1  C   UNL A   1      34.034  29.195  26.934  1.00  0.00     0.219 C 
ATOM      2  O   UNL A   1      35.028  29.030  27.641  1.00  0.00    -0.275 OA
ATOM      3  N   UNL A   1      33.243  30.275  27.178  1.00  0.00    -0.356 N 
ATOM      4  H   UNL A   1      33.621  30.944  27.793  1.00  0.00     0.163 HD
ENDROOT
BRANCH   1   5
ATOM      5  C   UNL A   1      33.737  28.287  25.758  1.00  0.00     0.100 C 
BRANCH   5   6
ATOM      6  C   UNL A   1      33.426  26.824  26.039  1.00  0.00     0.010 C 
BRANCH   6   7
ATOM      7  C   UNL A   1      34.407  25.767  25.508  1.00  0.00     0.010 C 
BRANCH   7   8
ATOM      8  C   UNL A   1      33.850  24.559  24.749  1.00  0.00     0.100 C 
BRANCH   8   9
ATOM      9  C   UNL A   1      34.088  24.498  23.259  1.00  0.00     0.227 C 
ATOM     10  C   UNL A   1      32.958  26.410  22.344  1.00  0.00     0.324 C 
ATOM     11  O   UNL A   1      33.775  27.085  21.721  1.00  0.00    -0.248 OA
ATOM     12  N   UNL A   1      33.134  25.058  22.436  1.00  0.00    -0.278 N 
ATOM     13  H   UNL A   1      32.560  24.464  21.899  1.00  0.00     0.174 HD
ATOM     14  O   UNL A   1      35.032  23.870  22.782  1.00  0.00    -0.275 OA
BRANCH  10  15
ATOM     15  N   UNL A   1      31.770  26.945  22.826  1.00  0.00    -0.320 N 
ATOM     16  C   UNL A   1      29.485  30.031  22.819  1.00  0.00     0.040 C 
ATOM     17  C   UNL A   1      30.109  28.772  23.417  1.00  0.00     0.134 C 
ATOM     18  C   UNL A   1      31.321  28.321  22.587  1.00  0.00     0.153 C 
ATOM     19  O   UNL A   1      29.090  27.763  23.407  1.00  0.00    -0.375 OA
ATOM     20  C   UNL A   1      29.578  26.570  24.026  1.00  0.00     0.182 C 
ATOM     21  C   UNL A   1      30.749  25.976  23.251  1.00  0.00     0.150 C 
ENDBRANCH  10  15
ENDBRANCH   8   9
ENDBRANCH   7   8
ENDBRANCH   6   7
ENDBRANCH   5   6
ENDBRANCH   1   5
BRANCH   3  22
ATOM     22  C   UNL A   1      31.928  30.581  26.662  1.00  0.00     0.117 C 
BRANCH  22  23
ATOM     23  C   UNL A   1      31.622  32.059  26.794  1.00  0.00     0.042 C 
BRANCH  23  24
ATOM     24  C   UNL A   1      32.809  32.793  27.392  1.00  0.00     0.118 C 
BRANCH  24  25
ATOM     25  N   UNL A   1      32.512  34.199  27.650  1.00  0.00    -0.352 N 
ATOM     26  C   UNL A   1      33.019  35.041  28.621  1.00  0.00     0.251 C 
ATOM     27  H   UNL A   1      31.855  34.608  27.042  1.00  0.00     0.163 HD
ATOM     28  O   UNL A   1      32.518  36.132  28.824  1.00  0.00    -0.269 OA
BRANCH  26  29
ATOM     29  C   UNL A   1      34.151  34.566  29.445  1.00  0.00     0.039 A 
ATOM     30  C   UNL A   1      33.903  33.991  30.693  1.00  0.00     0.014 A 
ATOM     31  C   UNL A   1      35.444  34.601  28.928  1.00  0.00     0.014 A 
ATOM     32  C   UNL A   1      34.942  33.337  31.361  1.00  0.00     0.010 A 
ATOM     33  C   UNL A   1      36.432  33.832  29.523  1.00  0.00     0.010 A 
ATOM     34  C   UNL A   1      36.195  33.187  30.747  1.00  0.00    -0.014 A 
BRANCH  34  35
ATOM     35  C   UNL A   1      37.282  32.363  31.339  1.00  0.00     0.031 A 
ATOM     36  C   UNL A   1      37.793  32.692  32.718  1.00  0.00     0.074 A 
ATOM     37  C   UNL A   1      37.899  31.421  30.597  1.00  0.00     0.049 A 
ATOM     38  N   UNL A   1      38.854  32.245  33.338  1.00  0.00    -0.248 NA
ATOM     39  C   UNL A   1      37.040  33.704  33.478  1.00  0.00     0.031 C 
ATOM     40  C   UNL A   1      37.561  31.065  29.217  1.00  0.00     0.029 A 
ATOM     41  N   UNL A   1      38.963  30.604  30.893  1.00  0.00    -0.354 N 
ATOM     42  C   UNL A   1      38.927  32.965  34.524  1.00  0.00     0.074 A 
ATOM     43  C   UNL A   1      37.834  33.910  34.517  1.00  0.00     0.031 C 
ATOM     44  C   UNL A   1      38.382  30.089  28.797  1.00  0.00     0.029 A 
ATOM     45  C   UNL A   1      39.336  29.782  29.857  1.00  0.00     0.049 A 
ATOM     46  H   UNL A   1      39.417  30.608  31.767  1.00  0.00     0.167 HD
ATOM     47  C   UNL A   1      39.811  32.831  35.539  1.00  0.00     0.037 A 
ATOM     48  C   UNL A   1      40.343  28.891  29.768  1.00  0.00     0.037 A 
ATOM     49  C   UNL A   1      40.836  31.824  35.583  1.00  0.00     0.049 A 
ATOM     50  C   UNL A   1      41.256  28.700  30.948  1.00  0.00     0.074 A 
ATOM     51  C   UNL A   1      41.696  31.516  36.622  1.00  0.00     0.029 A 
ATOM     52  N   UNL A   1      41.126  30.952  34.546  1.00  0.00    -0.354 N 
ATOM     53  N   UNL A   1      41.261  29.329  32.099  1.00  0.00    -0.248 NA
ATOM     54  C   UNL A   1      42.302  27.676  30.821  1.00  0.00     0.031 C 
ATOM     55  C   UNL A   1      42.529  30.475  36.202  1.00  0.00     0.029 A 
ATOM     56  C   UNL A   1      42.164  30.112  34.916  1.00  0.00     0.049 A 
ATOM     57  H   UNL A   1      40.664  30.931  33.677  1.00  0.00     0.167 HD
ATOM     58  C   UNL A   1      42.292  28.765  32.837  1.00  0.00     0.074 A 
ATOM     59  C   UNL A   1      42.878  27.729  32.012  1.00  0.00     0.031 C 
ATOM     60  C   UNL A   1      42.722  29.080  34.083  1.00  0.00     0.037 A 
BRANCH  47  61
ATOM     61  C   UNL A   1      39.695  33.777  36.698  1.00  0.00     0.064 A 
ATOM     62  C   UNL A   1      40.331  35.027  36.697  1.00  0.00     0.173 A 
ATOM     63  C   UNL A   1      38.902  33.444  37.806  1.00  0.00     0.173 A 
ATOM     64  F   UNL A   1      41.112  35.387  35.668  1.00  0.00    -0.203 F 
ATOM     65  C   UNL A   1      40.199  35.898  37.776  1.00  0.00     0.198 A 
ATOM     66  C   UNL A   1      38.748  34.329  38.869  1.00  0.00     0.198 A 
ATOM     67  F   UNL A   1      38.268  32.262  37.855  1.00  0.00    -0.203 F 
ATOM     68  F   UNL A   1      40.856  37.067  37.773  1.00  0.00    -0.200 F 
ATOM     69  C   UNL A   1      39.402  35.553  38.856  1.00  0.00     0.200 A 
ATOM     70  F   UNL A   1      37.967  34.000  39.908  1.00  0.00    -0.200 F 
ATOM     71  F   UNL A   1      39.269  36.397  39.888  1.00  0.00    -0.200 F 
ENDBRANCH  47  61
BRANCH  48  72
ATOM     72  C   UNL A   1      40.535  28.099  28.524  1.00  0.00     0.064 A 
ATOM     73  C   UNL A   1      39.922  26.847  28.370  1.00  0.00     0.173 A 
ATOM     74  C   UNL A   1      41.345  28.561  27.478  1.00  0.00     0.173 A 
ATOM     75  F   UNL A   1      39.153  26.353  29.350  1.00  0.00    -0.203 F 
ATOM     76  C   UNL A   1      40.134  26.076  27.227  1.00  0.00     0.198 A 
ATOM     77  C   UNL A   1      41.535  27.802  26.325  1.00  0.00     0.198 A 
ATOM     78  F   UNL A   1      41.948  29.756  27.573  1.00  0.00    -0.203 F 
ATOM     79  F   UNL A   1      39.577  24.862  27.129  1.00  0.00    -0.200 F 
ATOM     80  C   UNL A   1      40.938  26.556  26.205  1.00  0.00     0.200 A 
ATOM     81  F   UNL A   1      42.301  28.275  25.332  1.00  0.00    -0.200 F 
ATOM     82  F   UNL A   1      41.143  25.814  25.108  1.00  0.00    -0.200 F 
ENDBRANCH  48  72
BRANCH  60  83
ATOM     83  C   UNL A   1      43.861  28.281  34.639  1.00  0.00     0.064 A 
ATOM     84  C   UNL A   1      43.642  27.073  35.316  1.00  0.00     0.173 A 
ATOM     85  C   UNL A   1      45.184  28.700  34.443  1.00  0.00     0.173 A 
ATOM     86  F   UNL A   1      42.392  26.641  35.540  1.00  0.00    -0.203 F 
ATOM     87  C   UNL A   1      44.711  26.322  35.796  1.00  0.00     0.198 A 
ATOM     88  C   UNL A   1      46.252  27.933  34.901  1.00  0.00     0.198 A 
ATOM     89  F   UNL A   1      45.443  29.846  33.795  1.00  0.00    -0.203 F 
ATOM     90  F   UNL A   1      44.481  25.190  36.474  1.00  0.00    -0.200 F 
ATOM     91  C   UNL A   1      46.014  26.748  35.581  1.00  0.00     0.200 A 
ATOM     92  F   UNL A   1      47.510  28.339  34.682  1.00  0.00    -0.200 F 
ATOM     93  F   UNL A   1      47.042  26.017  36.034  1.00  0.00    -0.200 F 
ENDBRANCH  60  83
ENDBRANCH  34  35
ENDBRANCH  26  29
ENDBRANCH  24  25
ENDBRANCH  23  24
ENDBRANCH  22  23
ENDBRANCH   3  22
TORSDOF 15
ENDMDL
MODEL 2
REMARK VINA RESULT:     -11.8      1.101      2.399
REMARK SMILES C[C@@H]1CN(C(=O)NC(=O)CCCCC(=O)NCCCNC(=O)c2ccc(-c3c4nc(c(-c5c(F)c(F)c(F)c(F)c5F)c5ccc([nH]5)c(-c5c(F)c(F)c(F)c(F)c5F)c5nc(c(-c6c(F)c(F)c(F)c(F)c6F)c6ccc3[nH]6)C=C5)C=C4)cc2)CCO1
REMARK SMILES IDX 14 1 15 2 16 3 13 5 12 6 11 7 10 8 8 9 5 10 6 11 7 12 9 14
REMARK SMILES IDX 4 15 1 16 2 17 3 18 88 19 87 20 86 21 17 22 18 23 19 24
REMARK SMILES IDX 20 25 21 26 22 28 23 29 24 30 85 31 25 32 84 33 26 34 27 35
REMARK SMILES IDX 28 36 78 37 29 38 83 39 77 40 79 41 30 42 82 43 76 44 75 45
REMARK SMILES IDX 31 47 63 48 43 49 62 50 44 51 47 52 61 53 80 54 45 55 46 56
REMARK SMILES IDX 60 58 81 59 48 60 32 61 33 62 41 63 34 64 35 65 39 66 42 67
REMARK SMILES IDX 36 68 37 69 40 70 38 71 64 72 65 73 73 74 66 75 67 76 71 77
REMARK SMILES IDX 74 78 68 79 69 80 72 81 70 82 49 83 50 84 58 85 51 86 52 87
REMARK SMILES IDX 56 88 59 89 53 90 54 91 57 92 55 93
REMARK H PARENT 16 4 7 13 20 27 79 46 47 57
REMARK Flexibility Score: inf
ROOT
ATOM      1  C   UNL A   1      34.088  29.311  26.844  1.00  0.00     0.219 C 
ATOM      2  O   UNL A   1      35.170  29.201  27.419  1.00  0.00    -0.275 OA
ATOM      3  N   UNL A   1      33.321  30.401  27.117  1.00  0.00    -0.356 N 
ATOM      4  H   UNL A   1      33.769  31.114  27.628  1.00  0.00     0.163 HD
ENDROOT
BRANCH   1   5
ATOM      5  C   UNL A   1      33.647  28.321  25.785  1.00  0.00     0.100 C 
BRANCH   5   6
ATOM      6  C   UNL A   1      34.121  26.880  25.904  1.00  0.00     0.010 C 
BRANCH   6   7
ATOM      7  C   UNL A   1      33.060  25.769  25.867  1.00  0.00     0.010 C 
BRANCH   7   8
ATOM      8  C   UNL A   1      31.673  26.054  26.452  1.00  0.00     0.100 C 
BRANCH   8   9
ATOM      9  C   UNL A   1      30.560  25.091  26.113  1.00  0.00     0.227 C 
ATOM     10  C   UNL A   1      29.837  25.693  23.902  1.00  0.00     0.324 C 
ATOM     11  O   UNL A   1      29.939  24.705  23.177  1.00  0.00    -0.248 OA
ATOM     12  N   UNL A   1      29.588  25.524  25.236  1.00  0.00    -0.278 N 
ATOM     13  H   UNL A   1      28.686  25.718  25.581  1.00  0.00     0.174 HD
ATOM     14  O   UNL A   1      30.448  24.008  26.684  1.00  0.00    -0.275 OA
BRANCH  10  15
ATOM     15  N   UNL A   1      29.804  26.984  23.393  1.00  0.00    -0.320 N 
ATOM     16  C   UNL A   1      27.677  30.159  23.018  1.00  0.00     0.040 C 
ATOM     17  C   UNL A   1      28.740  29.147  22.596  1.00  0.00     0.134 C 
ATOM     18  C   UNL A   1      28.631  27.865  23.434  1.00  0.00     0.153 C 
ATOM     19  O   UNL A   1      30.012  29.777  22.804  1.00  0.00    -0.375 OA
ATOM     20  C   UNL A   1      31.063  28.916  22.357  1.00  0.00     0.182 C 
ATOM     21  C   UNL A   1      31.109  27.624  23.166  1.00  0.00     0.150 C 
ENDBRANCH  10  15
ENDBRANCH   8   9
ENDBRANCH   7   8
ENDBRANCH   6   7
ENDBRANCH   5   6
ENDBRANCH   1   5
BRANCH   3  22
ATOM     22  C   UNL A   1      31.944  30.664  26.765  1.00  0.00     0.117 C 
BRANCH  22  23
ATOM     23  C   UNL A   1      31.627  32.141  26.876  1.00  0.00     0.042 C 
BRANCH  23  24
ATOM     24  C   UNL A   1      32.826  32.901  27.416  1.00  0.00     0.118 C 
BRANCH  24  25
ATOM     25  N   UNL A   1      32.515  34.303  27.679  1.00  0.00    -0.352 N 
ATOM     26  C   UNL A   1      33.004  35.143  28.660  1.00  0.00     0.251 C 
ATOM     27  H   UNL A   1      31.860  34.710  27.067  1.00  0.00     0.163 HD
ATOM     28  O   UNL A   1      32.493  36.230  28.864  1.00  0.00    -0.269 OA
BRANCH  26  29
ATOM     29  C   UNL A   1      34.132  34.673  29.493  1.00  0.00     0.039 A 
ATOM     30  C   UNL A   1      33.883  34.168  30.770  1.00  0.00     0.014 A 
ATOM     31  C   UNL A   1      35.418  34.641  28.960  1.00  0.00     0.014 A 
ATOM     32  C   UNL A   1      34.909  33.514  31.458  1.00  0.00     0.010 A 
ATOM     33  C   UNL A   1      36.389  33.871  29.580  1.00  0.00     0.010 A 
ATOM     34  C   UNL A   1      36.148  33.295  30.837  1.00  0.00    -0.014 A 
BRANCH  34  35
ATOM     35  C   UNL A   1      37.217  32.466  31.456  1.00  0.00     0.031 A 
ATOM     36  C   UNL A   1      37.709  32.806  32.839  1.00  0.00     0.074 A 
ATOM     37  C   UNL A   1      37.834  31.508  30.735  1.00  0.00     0.049 A 
ATOM     38  N   UNL A   1      38.756  32.355  33.481  1.00  0.00    -0.248 NA
ATOM     39  C   UNL A   1      36.956  33.835  33.575  1.00  0.00     0.031 C 
ATOM     40  C   UNL A   1      37.514  31.138  29.355  1.00  0.00     0.029 A 
ATOM     41  N   UNL A   1      38.884  30.683  31.059  1.00  0.00    -0.354 N 
ATOM     42  C   UNL A   1      38.818  33.089  34.659  1.00  0.00     0.074 A 
ATOM     43  C   UNL A   1      37.736  34.045  34.623  1.00  0.00     0.031 C 
ATOM     44  C   UNL A   1      38.330  30.148  28.960  1.00  0.00     0.029 A 
ATOM     45  C   UNL A   1      39.263  29.843  30.039  1.00  0.00     0.049 A 
ATOM     46  H   UNL A   1      39.324  30.692  31.939  1.00  0.00     0.167 HD
ATOM     47  C   UNL A   1      39.685  32.957  35.690  1.00  0.00     0.037 A 
ATOM     48  C   UNL A   1      40.261  28.940  29.976  1.00  0.00     0.037 A 
ATOM     49  C   UNL A   1      40.697  31.940  35.763  1.00  0.00     0.049 A 
ATOM     50  C   UNL A   1      41.154  28.754  31.173  1.00  0.00     0.074 A 
ATOM     51  C   UNL A   1      41.538  31.635  36.818  1.00  0.00     0.029 A 
ATOM     52  N   UNL A   1      40.994  31.051  34.741  1.00  0.00    -0.354 N 
ATOM     53  N   UNL A   1      41.148  29.397  32.316  1.00  0.00    -0.248 NA
ATOM     54  C   UNL A   1      42.190  27.716  31.075  1.00  0.00     0.031 C 
ATOM     55  C   UNL A   1      42.365  30.579  36.424  1.00  0.00     0.029 A 
ATOM     56  C   UNL A   1      42.016  30.205  35.137  1.00  0.00     0.049 A 
ATOM     57  H   UNL A   1      40.545  31.025  33.865  1.00  0.00     0.167 HD
ATOM     58  C   UNL A   1      42.161  28.830  33.077  1.00  0.00     0.074 A 
ATOM     59  C   UNL A   1      42.748  27.777  32.275  1.00  0.00     0.031 C 
ATOM     60  C   UNL A   1      42.575  29.156  34.325  1.00  0.00     0.037 A 
BRANCH  47  61
ATOM     61  C   UNL A   1      39.562  33.919  36.835  1.00  0.00     0.064 A 
ATOM     62  C   UNL A   1      38.832  33.601  37.990  1.00  0.00     0.173 A 
ATOM     63  C   UNL A   1      40.219  35.157  36.794  1.00  0.00     0.173 A 
ATOM     64  F   UNL A   1      38.174  32.435  38.074  1.00  0.00    -0.203 F 
ATOM     65  C   UNL A   1      38.742  34.499  39.050  1.00  0.00     0.198 A 
ATOM     66  C   UNL A   1      40.152  36.040  37.867  1.00  0.00     0.198 A 
ATOM     67  F   UNL A   1      40.935  35.508  35.714  1.00  0.00    -0.203 F 
ATOM     68  F   UNL A   1      37.998  34.193  40.123  1.00  0.00    -0.200 F 
ATOM     69  C   UNL A   1      39.407  35.714  38.992  1.00  0.00     0.200 A 
ATOM     70  F   UNL A   1      40.806  37.210  37.816  1.00  0.00    -0.200 F 
ATOM     71  F   UNL A   1      39.327  36.572  40.018  1.00  0.00    -0.200 F 
ENDBRANCH  47  61
BRANCH  48  72
ATOM     72  C   UNL A   1      40.464  28.130  28.746  1.00  0.00     0.064 A 
ATOM     73  C   UNL A   1      41.267  28.605  27.699  1.00  0.00     0.173 A 
ATOM     74  C   UNL A   1      39.847  26.883  28.580  1.00  0.00     0.173 A 
ATOM     75  F   UNL A   1      41.863  29.802  27.803  1.00  0.00    -0.203 F 
ATOM     76  C   UNL A   1      41.424  27.874  26.522  1.00  0.00     0.198 A 
ATOM     77  C   UNL A   1      40.027  26.140  27.414  1.00  0.00     0.198 A 
ATOM     78  F   UNL A   1      39.074  26.380  29.554  1.00  0.00    -0.203 F 
ATOM     79  F   UNL A   1      42.157  28.375  25.519  1.00  0.00    -0.200 F 
ATOM     80  C   UNL A   1      40.806  26.641  26.382  1.00  0.00     0.200 A 
ATOM     81  F   UNL A   1      39.439  24.942  27.288  1.00  0.00    -0.200 F 
ATOM     82  F   UNL A   1      40.956  25.939  25.250  1.00  0.00    -0.200 F 
ENDBRANCH  48  72
BRANCH  60  83
ATOM     83  C   UNL A   1      43.695  28.351  34.909  1.00  0.00     0.064 A 
ATOM     84  C   UNL A   1      45.030  28.766  34.793  1.00  0.00     0.173 A 
ATOM     85  C   UNL A   1      43.426  27.184  35.639  1.00  0.00     0.173 A 
ATOM     86  F   UNL A   1      45.336  29.867  34.092  1.00  0.00    -0.203 F 
ATOM     87  C   UNL A   1      46.058  28.028  35.372  1.00  0.00     0.198 A 
ATOM     88  C   UNL A   1      44.454  26.463  36.239  1.00  0.00     0.198 A 
ATOM     89  F   UNL A   1      42.164  26.752  35.783  1.00  0.00    -0.203 F 
ATOM     90  F   UNL A   1      47.330  28.419  35.218  1.00  0.00    -0.200 F 
ATOM     91  C   UNL A   1      45.769  26.882  36.100  1.00  0.00     0.200 A 
ATOM     92  F   UNL A   1      44.173  25.364  36.952  1.00  0.00    -0.200 F 
ATOM     93  F   UNL A   1      46.760  26.179  36.666  1.00  0.00    -0.200 F 
ENDBRANCH  60  83
ENDBRANCH  34  35
ENDBRANCH  26  29
ENDBRANCH  24  25
ENDBRANCH  23  24
ENDBRANCH  22  23
ENDBRANCH   3  22
TORSDOF 15
ENDMDL
MODEL 3
REMARK VINA RESULT:     -11.7      1.872      7.878
REMARK SMILES C[C@@H]1CN(C(=O)NC(=O)CCCCC(=O)NCCCNC(=O)c2ccc(-c3c4nc(c(-c5c(F)c(F)c(F)c(F)c5F)c5ccc([nH]5)c(-c5c(F)c(F)c(F)c(F)c5F)c5nc(c(-c6c(F)c(F)c(F)c(F)c6F)c6ccc3[nH]6)C=C5)C=C4)cc2)CCO1
REMARK SMILES IDX 14 1 15 2 16 3 13 5 12 6 11 7 10 8 8 9 5 10 6 11 7 12 9 14
REMARK SMILES IDX 4 15 1 16 2 17 3 18 88 19 87 20 86 21 17 22 18 23 19 24
REMARK SMILES IDX 20 25 21 26 22 28 23 29 24 30 85 31 25 32 84 33 26 34 27 35
REMARK SMILES IDX 28 36 78 37 29 38 83 39 77 40 79 41 30 42 82 43 76 44 75 45
REMARK SMILES IDX 31 47 63 48 43 49 62 50 44 51 47 52 61 53 80 54 45 55 46 56
REMARK SMILES IDX 60 58 81 59 48 60 32 61 33 62 41 63 34 64 35 65 39 66 42 67
REMARK SMILES IDX 36 68 37 69 40 70 38 71 64 72 65 73 73 74 66 75 67 76 71 77
REMARK SMILES IDX 74 78 68 79 69 80 72 81 70 82 49 83 50 84 58 85 51 86 52 87
REMARK SMILES IDX 56 88 59 89 53 90 54 91 57 92 55 93
REMARK H PARENT 16 4 7 13 20 27 79 46 47 57
REMARK Flexibility Score: inf
ROOT
ATOM      1  C   UNL A   1      31.668  24.843  26.531  1.00  0.00     0.219 C 
ATOM      2  O   UNL A   1      31.292  23.928  27.263  1.00  0.00    -0.275 OA
ATOM      3  N   UNL A   1      31.332  26.117  26.870  1.00  0.00    -0.356 N 
ATOM      4  H   UNL A   1      30.958  26.229  27.774  1.00  0.00     0.163 HD
ENDROOT
BRANCH   1   5
ATOM      5  C   UNL A   1      32.564  24.587  25.336  1.00  0.00     0.100 C 
BRANCH   5   6
ATOM      6  C   UNL A   1      32.209  23.439  24.403  1.00  0.00     0.010 C 
BRANCH   6   7
ATOM      7  C   UNL A   1      31.386  23.762  23.146  1.00  0.00     0.010 C 
BRANCH   7   8
ATOM      8  C   UNL A   1      31.003  25.219  22.870  1.00  0.00     0.100 C 
BRANCH   8   9
ATOM      9  C   UNL A   1      32.020  26.089  22.172  1.00  0.00     0.227 C 
ATOM     10  C   UNL A   1      31.232  28.344  22.438  1.00  0.00     0.324 C 
ATOM     11  O   UNL A   1      32.113  29.001  22.990  1.00  0.00    -0.248 OA
ATOM     12  N   UNL A   1      31.581  27.286  21.645  1.00  0.00    -0.278 N 
ATOM     13  H   UNL A   1      31.516  27.381  20.667  1.00  0.00     0.174 HD
ATOM     14  O   UNL A   1      33.169  25.702  21.968  1.00  0.00    -0.275 OA
BRANCH  10  15
ATOM     15  N   UNL A   1      29.898  28.730  22.457  1.00  0.00    -0.320 N 
ATOM     16  C   UNL A   1      26.431  27.973  23.920  1.00  0.00     0.040 C 
ATOM     17  C   UNL A   1      27.405  28.472  22.856  1.00  0.00     0.134 C 
ATOM     18  C   UNL A   1      28.836  28.017  23.175  1.00  0.00     0.153 C 
ATOM     19  O   UNL A   1      27.320  29.904  22.860  1.00  0.00    -0.375 OA
ATOM     20  C   UNL A   1      28.152  30.446  21.830  1.00  0.00     0.182 C 
ATOM     21  C   UNL A   1      29.622  30.122  22.071  1.00  0.00     0.150 C 
ENDBRANCH  10  15
ENDBRANCH   8   9
ENDBRANCH   7   8
ENDBRANCH   6   7
ENDBRANCH   5   6
ENDBRANCH   1   5
BRANCH   3  22
ATOM     22  C   UNL A   1      31.447  27.331  26.094  1.00  0.00     0.117 C 
BRANCH  22  23
ATOM     23  C   UNL A   1      31.756  28.518  26.982  1.00  0.00     0.042 C 
BRANCH  23  24
ATOM     24  C   UNL A   1      32.740  29.450  26.297  1.00  0.00     0.118 C 
BRANCH  24  25
ATOM     25  N   UNL A   1      32.446  30.855  26.565  1.00  0.00    -0.352 N 
ATOM     26  C   UNL A   1      33.185  31.790  27.261  1.00  0.00     0.251 C 
ATOM     27  H   UNL A   1      31.595  31.184  26.195  1.00  0.00     0.163 HD
ATOM     28  O   UNL A   1      32.704  32.867  27.563  1.00  0.00    -0.269 OA
BRANCH  26  29
ATOM     29  C   UNL A   1      34.560  31.436  27.676  1.00  0.00     0.039 A 
ATOM     30  C   UNL A   1      35.510  32.444  27.849  1.00  0.00     0.014 A 
ATOM     31  C   UNL A   1      34.867  30.114  27.990  1.00  0.00     0.014 A 
ATOM     32  C   UNL A   1      36.728  32.135  28.462  1.00  0.00     0.010 A 
ATOM     33  C   UNL A   1      36.011  29.840  28.723  1.00  0.00     0.010 A 
ATOM     34  C   UNL A   1      36.957  30.847  28.971  1.00  0.00    -0.014 A 
BRANCH  34  35
ATOM     35  C   UNL A   1      38.163  30.508  29.772  1.00  0.00     0.031 A 
ATOM     36  C   UNL A   1      39.173  29.538  29.216  1.00  0.00     0.074 A 
ATOM     37  C   UNL A   1      38.283  30.955  31.039  1.00  0.00     0.049 A 
ATOM     38  N   UNL A   1      40.177  28.951  29.815  1.00  0.00    -0.248 NA
ATOM     39  C   UNL A   1      38.994  29.129  27.813  1.00  0.00     0.031 C 
ATOM     40  C   UNL A   1      37.331  31.829  31.729  1.00  0.00     0.029 A 
ATOM     41  N   UNL A   1      39.249  30.713  31.986  1.00  0.00    -0.354 N 
ATOM     42  C   UNL A   1      40.702  28.064  28.884  1.00  0.00     0.074 A 
ATOM     43  C   UNL A   1      39.881  28.153  27.698  1.00  0.00     0.031 C 
ATOM     44  C   UNL A   1      37.771  32.068  32.975  1.00  0.00     0.029 A 
ATOM     45  C   UNL A   1      39.010  31.329  33.191  1.00  0.00     0.049 A 
ATOM     46  H   UNL A   1      40.039  30.151  31.816  1.00  0.00     0.167 HD
ATOM     47  C   UNL A   1      41.789  27.266  28.999  1.00  0.00     0.037 A 
ATOM     48  C   UNL A   1      39.704  31.289  34.345  1.00  0.00     0.037 A 
ATOM     49  C   UNL A   1      42.659  27.253  30.143  1.00  0.00     0.049 A 
ATOM     50  C   UNL A   1      40.959  30.462  34.414  1.00  0.00     0.074 A 
ATOM     51  C   UNL A   1      43.858  26.584  30.306  1.00  0.00     0.029 A 
ATOM     52  N   UNL A   1      42.427  27.958  31.314  1.00  0.00    -0.354 N 
ATOM     53  N   UNL A   1      41.493  29.692  33.496  1.00  0.00    -0.248 NA
ATOM     54  C   UNL A   1      41.711  30.498  35.676  1.00  0.00     0.031 C 
ATOM     55  C   UNL A   1      44.338  26.859  31.590  1.00  0.00     0.029 A 
ATOM     56  C   UNL A   1      43.456  27.728  32.211  1.00  0.00     0.049 A 
ATOM     57  H   UNL A   1      41.648  28.536  31.482  1.00  0.00     0.167 HD
ATOM     58  C   UNL A   1      42.648  29.171  34.061  1.00  0.00     0.074 A 
ATOM     59  C   UNL A   1      42.750  29.727  35.394  1.00  0.00     0.031 C 
ATOM     60  C   UNL A   1      43.542  28.303  33.528  1.00  0.00     0.037 A 
BRANCH  47  61
ATOM     61  C   UNL A   1      42.116  26.358  27.849  1.00  0.00     0.064 A 
ATOM     62  C   UNL A   1      43.046  26.722  26.865  1.00  0.00     0.173 A 
ATOM     63  C   UNL A   1      41.523  25.091  27.757  1.00  0.00     0.173 A 
ATOM     64  F   UNL A   1      43.631  27.929  26.900  1.00  0.00    -0.203 F 
ATOM     65  C   UNL A   1      43.350  25.860  25.813  1.00  0.00     0.198 A 
ATOM     66  C   UNL A   1      41.851  24.220  26.721  1.00  0.00     0.198 A 
ATOM     67  F   UNL A   1      40.630  24.692  28.676  1.00  0.00    -0.203 F 
ATOM     68  F   UNL A   1      44.205  26.250  24.857  1.00  0.00    -0.200 F 
ATOM     69  C   UNL A   1      42.759  24.608  25.747  1.00  0.00     0.200 A 
ATOM     70  F   UNL A   1      41.288  23.004  26.664  1.00  0.00    -0.200 F 
ATOM     71  F   UNL A   1      43.060  23.777  24.740  1.00  0.00    -0.200 F 
ENDBRANCH  47  61
BRANCH  48  72
ATOM     72  C   UNL A   1      39.241  32.065  35.526  1.00  0.00     0.064 A 
ATOM     73  C   UNL A   1      39.620  33.404  35.697  1.00  0.00     0.173 A 
ATOM     74  C   UNL A   1      38.433  31.485  36.513  1.00  0.00     0.173 A 
ATOM     75  F   UNL A   1      40.408  33.998  34.789  1.00  0.00    -0.203 F 
ATOM     76  C   UNL A   1      39.230  34.125  36.825  1.00  0.00     0.198 A 
ATOM     77  C   UNL A   1      38.021  32.215  37.627  1.00  0.00     0.198 A 
ATOM     78  F   UNL A   1      38.037  30.209  36.393  1.00  0.00    -0.203 F 
ATOM     79  F   UNL A   1      39.649  35.387  36.987  1.00  0.00    -0.200 F 
ATOM     80  C   UNL A   1      38.428  33.531  37.787  1.00  0.00     0.200 A 
ATOM     81  F   UNL A   1      37.234  31.641  38.548  1.00  0.00    -0.200 F 
ATOM     82  F   UNL A   1      38.055  34.224  38.871  1.00  0.00    -0.200 F 
ENDBRANCH  48  72
BRANCH  60  83
ATOM     83  C   UNL A   1      44.719  27.923  34.374  1.00  0.00     0.064 A 
ATOM     84  C   UNL A   1      45.894  28.687  34.376  1.00  0.00     0.173 A 
ATOM     85  C   UNL A   1      44.648  26.816  35.232  1.00  0.00     0.173 A 
ATOM     86  F   UNL A   1      46.012  29.746  33.560  1.00  0.00    -0.203 F 
ATOM     87  C   UNL A   1      46.966  28.345  35.194  1.00  0.00     0.198 A 
ATOM     88  C   UNL A   1      45.712  26.491  36.069  1.00  0.00     0.198 A 
ATOM     89  F   UNL A   1      43.541  26.058  35.270  1.00  0.00    -0.203 F 
ATOM     90  F   UNL A   1      48.095  29.065  35.154  1.00  0.00    -0.200 F 
ATOM     91  C   UNL A   1      46.871  27.252  36.045  1.00  0.00     0.200 A 
ATOM     92  F   UNL A   1      45.614  25.444  36.899  1.00  0.00    -0.200 F 
ATOM     93  F   UNL A   1      47.900  26.930  36.841  1.00  0.00    -0.200 F 
ENDBRANCH  60  83
ENDBRANCH  34  35
ENDBRANCH  26  29
ENDBRANCH  24  25
ENDBRANCH  23  24
ENDBRANCH  22  23
ENDBRANCH   3  22
TORSDOF 15
ENDMDL
