MODEL 1
REMARK VINA RESULT:     -13.2      0.000      0.000
REMARK SMILES CC(C)C[C@H](C(=O)NCCCNC(=O)c1ccc(-c2c3nc(c(-c4c(F)c(F)c(F)c(F)c4F)c4ccc([nH]4)c(-c4c(F)c(F)c(F)c(F)c4F)c4nc(c(-c5c(F)c(F)c(F)c(F)c5F)c5ccc2[nH]5)C=C4)C=C3)cc1)N1C(=O)/C(=C2\C(=O)Nc3ccc(Br)cc32)SC1=S
REMARK SMILES IDX 10 1 9 2 8 3 6 4 7 5 5 7 4 8 2 9 1 10 3 11 78 12 79 13 94 14
REMARK SMILES IDX 80 15 81 16 93 17 95 18 82 19 83 20 92 21 84 22 85 23 86 24
REMARK SMILES IDX 91 25 87 27 89 28 88 29 90 30 11 31 12 32 13 33 14 35 15 36
REMARK SMILES IDX 16 37 77 38 17 39 76 40 18 41 19 42 20 43 70 44 21 45 75 46
REMARK SMILES IDX 69 47 71 48 22 49 74 50 68 51 67 52 23 54 55 55 35 56 54 57
REMARK SMILES IDX 36 58 39 59 53 60 72 61 37 62 38 63 52 65 73 66 40 67 24 68
REMARK SMILES IDX 25 69 33 70 26 71 27 72 31 73 34 74 28 75 29 76 32 77 30 78
REMARK SMILES IDX 56 79 57 80 65 81 58 82 59 83 63 84 66 85 60 86 61 87 64 88
REMARK SMILES IDX 62 89 41 90 42 91 50 92 43 93 44 94 48 95 51 96 45 97 46 98
REMARK SMILES IDX 49 99 47 100
REMARK H PARENT 8 6 85 26 12 34 71 53 39 64
REMARK Flexibility Score: inf
ROOT
ATOM      1  C   UNL A   1      31.403  32.112  26.613  1.00  0.00     0.042 C 
ENDROOT
BRANCH   1   2
ATOM      2  C   UNL A   1      31.609  30.827  25.819  1.00  0.00     0.117 C 
BRANCH   2   3
ATOM      3  N   UNL A   1      31.551  29.661  26.677  1.00  0.00    -0.354 N 
ATOM      4  C   UNL A   1      31.298  28.349  26.425  1.00  0.00     0.243 C 
ATOM      5  O   UNL A   1      31.486  27.601  27.392  1.00  0.00    -0.273 OA
ATOM      6  H   UNL A   1      31.730  29.856  27.625  1.00  0.00     0.163 HD
BRANCH   4   7
ATOM      7  C   UNL A   1      30.954  27.791  25.004  1.00  0.00     0.181 C 
BRANCH   7   8
ATOM      8  C   UNL A   1      30.570  28.976  24.078  1.00  0.00     0.038 C 
BRANCH   8   9
ATOM      9  C   UNL A   1      29.670  28.814  22.845  1.00  0.00    -0.015 C 
ATOM     10  C   UNL A   1      28.279  28.263  23.126  1.00  0.00     0.007 C 
ATOM     11  C   UNL A   1      29.528  30.197  22.181  1.00  0.00     0.007 C 
ENDBRANCH   8   9
ENDBRANCH   7   8
BRANCH   7  12
ATOM     12  N   UNL A   1      31.935  26.796  24.522  1.00  0.00    -0.280 N 
ATOM     13  C   UNL A   1      31.485  25.503  24.324  1.00  0.00     0.267 C 
ATOM     14  C   UNL A   1      33.257  26.994  24.195  1.00  0.00     0.149 C 
ATOM     15  O   UNL A   1      30.337  25.191  24.052  1.00  0.00    -0.268 OA
ATOM     16  C   UNL A   1      32.629  24.546  24.337  1.00  0.00     0.093 C 
ATOM     17  S   UNL A   1      34.015  25.423  23.807  1.00  0.00    -0.053 SA
ATOM     18  S   UNL A   1      34.138  28.406  24.232  1.00  0.00    -0.052 S 
ATOM     19  C   UNL A   1      32.553  23.289  24.808  1.00  0.00     0.069 C 
ATOM     20  C   UNL A   1      31.279  22.794  25.474  1.00  0.00     0.257 C 
ATOM     21  C   UNL A   1      33.512  22.160  24.896  1.00  0.00     0.013 A 
ATOM     22  O   UNL A   1      30.356  23.436  25.928  1.00  0.00    -0.269 OA
ATOM     23  N   UNL A   1      31.463  21.446  25.665  1.00  0.00    -0.321 N 
ATOM     24  C   UNL A   1      32.762  21.070  25.376  1.00  0.00     0.049 A 
ATOM     25  C   UNL A   1      34.869  21.981  24.670  1.00  0.00     0.026 A 
ATOM     26  H   UNL A   1      30.760  20.826  25.969  1.00  0.00     0.170 HD
ATOM     27  C   UNL A   1      33.278  19.812  25.613  1.00  0.00     0.028 A 
ATOM     28  C   UNL A   1      35.413  20.704  24.915  1.00  0.00     0.018 A 
ATOM     29  C   UNL A   1      34.632  19.633  25.376  1.00  0.00     0.018 A 
ATOM     30  Br  UNL A   1      37.246  20.347  24.625  1.00  0.00    -0.051 Br
ENDBRANCH   7  12
ENDBRANCH   4   7
ENDBRANCH   2   3
ENDBRANCH   1   2
BRANCH   1  31
ATOM     31  C   UNL A   1      32.679  32.676  27.229  1.00  0.00     0.118 C 
BRANCH  31  32
ATOM     32  N   UNL A   1      32.513  34.063  27.625  1.00  0.00    -0.352 N 
ATOM     33  C   UNL A   1      33.074  34.752  28.674  1.00  0.00     0.251 C 
ATOM     34  H   UNL A   1      31.908  34.590  27.056  1.00  0.00     0.163 HD
ATOM     35  O   UNL A   1      32.608  35.843  28.994  1.00  0.00    -0.269 OA
BRANCH  33  36
ATOM     36  C   UNL A   1      34.218  34.200  29.438  1.00  0.00     0.039 A 
ATOM     37  C   UNL A   1      35.516  34.430  28.965  1.00  0.00     0.014 A 
ATOM     38  C   UNL A   1      34.027  33.387  30.558  1.00  0.00     0.014 A 
ATOM     39  C   UNL A   1      36.615  33.884  29.636  1.00  0.00     0.010 A 
ATOM     40  C   UNL A   1      35.123  32.897  31.267  1.00  0.00     0.010 A 
ATOM     41  C   UNL A   1      36.425  33.126  30.802  1.00  0.00    -0.014 A 
BRANCH  41  42
ATOM     42  C   UNL A   1      37.570  32.505  31.514  1.00  0.00     0.031 A 
ATOM     43  C   UNL A   1      38.402  31.466  30.824  1.00  0.00     0.074 A 
ATOM     44  C   UNL A   1      37.820  32.821  32.797  1.00  0.00     0.049 A 
ATOM     45  N   UNL A   1      39.356  30.717  31.310  1.00  0.00    -0.248 NA
ATOM     46  C   UNL A   1      38.078  31.195  29.416  1.00  0.00     0.031 C 
ATOM     47  C   UNL A   1      37.027  33.752  33.589  1.00  0.00     0.029 A 
ATOM     48  N   UNL A   1      38.808  32.408  33.654  1.00  0.00    -0.354 N 
ATOM     49  C   UNL A   1      39.683  29.826  30.300  1.00  0.00     0.074 A 
ATOM     50  C   UNL A   1      38.843  30.144  29.166  1.00  0.00     0.031 C 
ATOM     51  C   UNL A   1      37.611  33.911  34.788  1.00  0.00     0.029 A 
ATOM     52  C   UNL A   1      38.790  33.057  34.864  1.00  0.00     0.049 A 
ATOM     53  H   UNL A   1      39.467  31.713  33.423  1.00  0.00     0.167 HD
ATOM     54  C   UNL A   1      40.582  28.814  30.336  1.00  0.00     0.037 A 
ATOM     55  C   UNL A   1      39.637  32.978  35.908  1.00  0.00     0.037 A 
ATOM     56  C   UNL A   1      41.444  28.542  31.455  1.00  0.00     0.049 A 
ATOM     57  C   UNL A   1      40.746  31.964  35.859  1.00  0.00     0.074 A 
ATOM     58  C   UNL A   1      42.400  27.551  31.592  1.00  0.00     0.029 A 
ATOM     59  N   UNL A   1      41.464  29.281  32.630  1.00  0.00    -0.354 N 
ATOM     60  N   UNL A   1      41.042  31.116  34.905  1.00  0.00    -0.248 NA
ATOM     61  C   UNL A   1      41.613  31.865  37.042  1.00  0.00     0.031 C 
ATOM     62  C   UNL A   1      42.984  27.679  32.859  1.00  0.00     0.029 A 
ATOM     63  C   UNL A   1      42.417  28.771  33.496  1.00  0.00     0.049 A 
ATOM     64  H   UNL A   1      40.885  30.055  32.820  1.00  0.00     0.167 HD
ATOM     65  C   UNL A   1      42.107  30.365  35.377  1.00  0.00     0.074 A 
ATOM     66  C   UNL A   1      42.442  30.892  36.686  1.00  0.00     0.031 C 
ATOM     67  C   UNL A   1      42.731  29.315  34.792  1.00  0.00     0.037 A 
BRANCH  54  68
ATOM     68  C   UNL A   1      40.623  27.898  29.150  1.00  0.00     0.064 A 
ATOM     69  C   UNL A   1      41.487  28.116  28.068  1.00  0.00     0.173 A 
ATOM     70  C   UNL A   1      39.755  26.796  29.085  1.00  0.00     0.173 A 
ATOM     71  F   UNL A   1      42.320  29.166  28.071  1.00  0.00    -0.203 F 
ATOM     72  C   UNL A   1      41.453  27.289  26.947  1.00  0.00     0.198 A 
ATOM     73  C   UNL A   1      39.744  25.955  27.977  1.00  0.00     0.198 A 
ATOM     74  F   UNL A   1      38.908  26.543  30.095  1.00  0.00    -0.203 F 
ATOM     75  F   UNL A   1      42.240  27.556  25.896  1.00  0.00    -0.200 F 
ATOM     76  C   UNL A   1      40.583  26.209  26.904  1.00  0.00     0.200 A 
ATOM     77  F   UNL A   1      38.908  24.909  27.941  1.00  0.00    -0.200 F 
ATOM     78  F   UNL A   1      40.544  25.421  25.820  1.00  0.00    -0.200 F 
ENDBRANCH  54  68
BRANCH  55  79
ATOM     79  C   UNL A   1      39.491  33.909  37.059  1.00  0.00     0.064 A 
ATOM     80  C   UNL A   1      38.783  33.513  38.205  1.00  0.00     0.173 A 
ATOM     81  C   UNL A   1      40.078  35.182  37.068  1.00  0.00     0.173 A 
ATOM     82  F   UNL A   1      38.185  32.312  38.239  1.00  0.00    -0.203 F 
ATOM     83  C   UNL A   1      38.667  34.353  39.310  1.00  0.00     0.198 A 
ATOM     84  C   UNL A   1      39.986  36.010  38.185  1.00  0.00     0.198 A 
ATOM     85  F   UNL A   1      40.770  35.609  36.002  1.00  0.00    -0.203 F 
ATOM     86  F   UNL A   1      37.961  33.959  40.379  1.00  0.00    -0.200 F 
ATOM     87  C   UNL A   1      39.278  35.597  39.303  1.00  0.00     0.200 A 
ATOM     88  F   UNL A   1      40.594  37.205  38.183  1.00  0.00    -0.200 F 
ATOM     89  F   UNL A   1      39.183  36.398  40.374  1.00  0.00    -0.200 F 
ENDBRANCH  55  79
BRANCH  67  90
ATOM     90  C   UNL A   1      43.832  28.656  35.566  1.00  0.00     0.064 A 
ATOM     91  C   UNL A   1      43.564  27.602  36.451  1.00  0.00     0.173 A 
ATOM     92  C   UNL A   1      45.167  29.031  35.366  1.00  0.00     0.173 A 
ATOM     93  F   UNL A   1      42.300  27.218  36.682  1.00  0.00    -0.203 F 
ATOM     94  C   UNL A   1      44.598  26.950  37.117  1.00  0.00     0.198 A 
ATOM     95  C   UNL A   1      46.200  28.364  36.020  1.00  0.00     0.198 A 
ATOM     96  F   UNL A   1      45.470  30.032  34.526  1.00  0.00    -0.203 F 
ATOM     97  F   UNL A   1      44.320  25.960  37.976  1.00  0.00    -0.200 F 
ATOM     98  C   UNL A   1      45.914  27.326  36.894  1.00  0.00     0.200 A 
ATOM     99  F   UNL A   1      47.472  28.723  35.799  1.00  0.00    -0.200 F 
ATOM    100  F   UNL A   1      46.910  26.690  37.527  1.00  0.00    -0.200 F 
ENDBRANCH  67  90
ENDBRANCH  41  42
ENDBRANCH  33  36
ENDBRANCH  31  32
ENDBRANCH   1  31
TORSDOF 13
ENDMDL
MODEL 2
REMARK VINA RESULT:     -13.2      3.584      8.487
REMARK SMILES CC(C)C[C@H](C(=O)NCCCNC(=O)c1ccc(-c2c3nc(c(-c4c(F)c(F)c(F)c(F)c4F)c4ccc([nH]4)c(-c4c(F)c(F)c(F)c(F)c4F)c4nc(c(-c5c(F)c(F)c(F)c(F)c5F)c5ccc2[nH]5)C=C4)C=C3)cc1)N1C(=O)/C(=C2\C(=O)Nc3ccc(Br)cc32)SC1=S
REMARK SMILES IDX 10 1 9 2 8 3 6 4 7 5 5 7 4 8 2 9 1 10 3 11 78 12 79 13 94 14
REMARK SMILES IDX 80 15 81 16 93 17 95 18 82 19 83 20 92 21 84 22 85 23 86 24
REMARK SMILES IDX 91 25 87 27 89 28 88 29 90 30 11 31 12 32 13 33 14 35 15 36
REMARK SMILES IDX 16 37 77 38 17 39 76 40 18 41 19 42 20 43 70 44 21 45 75 46
REMARK SMILES IDX 69 47 71 48 22 49 74 50 68 51 67 52 23 54 55 55 35 56 54 57
REMARK SMILES IDX 36 58 39 59 53 60 72 61 37 62 38 63 52 65 73 66 40 67 24 68
REMARK SMILES IDX 25 69 33 70 26 71 27 72 31 73 34 74 28 75 29 76 32 77 30 78
REMARK SMILES IDX 56 79 57 80 65 81 58 82 59 83 63 84 66 85 60 86 61 87 64 88
REMARK SMILES IDX 62 89 41 90 42 91 50 92 43 93 44 94 48 95 51 96 45 97 46 98
REMARK SMILES IDX 49 99 47 100
REMARK H PARENT 8 6 85 26 12 34 71 53 39 64
REMARK Flexibility Score: inf
ROOT
ATOM      1  C   UNL A   1      33.332  27.795  26.879  1.00  0.00     0.042 C 
ENDROOT
BRANCH   1   2
ATOM      2  C   UNL A   1      31.832  27.992  26.698  1.00  0.00     0.117 C 
BRANCH   2   3
ATOM      3  N   UNL A   1      31.541  29.232  26.009  1.00  0.00    -0.354 N 
ATOM      4  C   UNL A   1      30.922  29.503  24.829  1.00  0.00     0.243 C 
ATOM      5  O   UNL A   1      30.713  30.705  24.629  1.00  0.00    -0.273 OA
ATOM      6  H   UNL A   1      31.852  30.035  26.488  1.00  0.00     0.163 HD
BRANCH   4   7
ATOM      7  C   UNL A   1      30.367  28.398  23.870  1.00  0.00     0.181 C 
BRANCH   7   8
ATOM      8  C   UNL A   1      29.647  29.083  22.677  1.00  0.00     0.038 C 
BRANCH   8   9
ATOM      9  C   UNL A   1      28.119  29.212  22.588  1.00  0.00    -0.015 C 
ATOM     10  C   UNL A   1      27.334  28.228  23.443  1.00  0.00     0.007 C 
ATOM     11  C   UNL A   1      27.743  30.645  23.013  1.00  0.00     0.007 C 
ENDBRANCH   8   9
ENDBRANCH   7   8
BRANCH   7  12
ATOM     12  N   UNL A   1      31.348  27.328  23.593  1.00  0.00    -0.280 N 
ATOM     13  C   UNL A   1      30.996  26.036  23.939  1.00  0.00     0.267 C 
ATOM     14  C   UNL A   1      32.578  27.439  22.985  1.00  0.00     0.149 C 
ATOM     15  O   UNL A   1      29.854  25.611  24.003  1.00  0.00    -0.268 OA
ATOM     16  C   UNL A   1      32.212  25.183  24.076  1.00  0.00     0.093 C 
ATOM     17  S   UNL A   1      33.409  25.857  23.034  1.00  0.00    -0.053 SA
ATOM     18  S   UNL A   1      33.317  28.798  22.372  1.00  0.00    -0.052 S 
ATOM     19  C   UNL A   1      32.330  24.176  24.958  1.00  0.00     0.069 C 
ATOM     20  C   UNL A   1      31.229  23.911  25.972  1.00  0.00     0.257 C 
ATOM     21  C   UNL A   1      33.392  23.184  25.257  1.00  0.00     0.013 A 
ATOM     22  O   UNL A   1      30.333  24.643  26.334  1.00  0.00    -0.269 OA
ATOM     23  N   UNL A   1      31.565  22.726  26.582  1.00  0.00    -0.321 N 
ATOM     24  C   UNL A   1      32.832  22.313  26.210  1.00  0.00     0.049 A 
ATOM     25  C   UNL A   1      34.707  22.980  24.865  1.00  0.00     0.026 A 
ATOM     26  H   UNL A   1      30.981  22.234  27.202  1.00  0.00     0.170 HD
ATOM     27  C   UNL A   1      33.495  21.240  26.771  1.00  0.00     0.028 A 
ATOM     28  C   UNL A   1      35.400  21.892  25.435  1.00  0.00     0.018 A 
ATOM     29  C   UNL A   1      34.805  21.031  26.371  1.00  0.00     0.018 A 
ATOM     30  Br  UNL A   1      37.190  21.513  24.961  1.00  0.00    -0.051 Br
ENDBRANCH   7  12
ENDBRANCH   4   7
ENDBRANCH   2   3
ENDBRANCH   1   2
BRANCH   1  31
ATOM     31  C   UNL A   1      34.186  28.895  26.258  1.00  0.00     0.118 C 
BRANCH  31  32
ATOM     32  N   UNL A   1      34.029  30.155  26.962  1.00  0.00    -0.352 N 
ATOM     33  C   UNL A   1      34.800  30.712  27.953  1.00  0.00     0.251 C 
ATOM     34  H   UNL A   1      33.252  30.693  26.687  1.00  0.00     0.163 HD
ATOM     35  O   UNL A   1      34.357  31.659  28.600  1.00  0.00    -0.269 OA
BRANCH  33  36
ATOM     36  C   UNL A   1      36.149  30.186  28.271  1.00  0.00     0.039 A 
ATOM     37  C   UNL A   1      36.356  29.567  29.510  1.00  0.00     0.014 A 
ATOM     38  C   UNL A   1      37.231  30.372  27.404  1.00  0.00     0.014 A 
ATOM     39  C   UNL A   1      37.627  29.100  29.859  1.00  0.00     0.010 A 
ATOM     40  C   UNL A   1      38.483  29.849  27.722  1.00  0.00     0.010 A 
ATOM     41  C   UNL A   1      38.697  29.226  28.958  1.00  0.00    -0.014 A 
BRANCH  41  42
ATOM     42  C   UNL A   1      40.064  28.773  29.317  1.00  0.00     0.031 A 
ATOM     43  C   UNL A   1      40.886  29.574  30.280  1.00  0.00     0.074 A 
ATOM     44  C   UNL A   1      40.592  27.685  28.727  1.00  0.00     0.049 A 
ATOM     45  N   UNL A   1      42.139  29.421  30.623  1.00  0.00    -0.248 NA
ATOM     46  C   UNL A   1      40.228  30.734  30.897  1.00  0.00     0.031 C 
ATOM     47  C   UNL A   1      39.916  26.881  27.717  1.00  0.00     0.029 A 
ATOM     48  N   UNL A   1      41.803  27.064  28.895  1.00  0.00    -0.354 N 
ATOM     49  C   UNL A   1      42.445  30.514  31.419  1.00  0.00     0.074 A 
ATOM     50  C   UNL A   1      41.240  31.308  31.530  1.00  0.00     0.031 C 
ATOM     51  C   UNL A   1      40.683  25.820  27.420  1.00  0.00     0.029 A 
ATOM     52  C   UNL A   1      41.922  25.896  28.183  1.00  0.00     0.049 A 
ATOM     53  H   UNL A   1      42.517  27.420  29.472  1.00  0.00     0.167 HD
ATOM     54  C   UNL A   1      43.636  30.835  31.977  1.00  0.00     0.037 A 
ATOM     55  C   UNL A   1      42.916  24.986  28.160  1.00  0.00     0.037 A 
ATOM     56  C   UNL A   1      44.812  30.008  31.896  1.00  0.00     0.049 A 
ATOM     57  C   UNL A   1      44.173  25.276  28.932  1.00  0.00     0.074 A 
ATOM     58  C   UNL A   1      46.066  30.232  32.436  1.00  0.00     0.029 A 
ATOM     59  N   UNL A   1      44.868  28.785  31.245  1.00  0.00    -0.354 N 
ATOM     60  N   UNL A   1      44.461  26.317  29.673  1.00  0.00    -0.248 NA
ATOM     61  C   UNL A   1      45.259  24.290  28.834  1.00  0.00     0.031 C 
ATOM     62  C   UNL A   1      46.888  29.151  32.092  1.00  0.00     0.029 A 
ATOM     63  C   UNL A   1      46.135  28.239  31.370  1.00  0.00     0.049 A 
ATOM     64  H   UNL A   1      44.118  28.365  30.763  1.00  0.00     0.167 HD
ATOM     65  C   UNL A   1      45.763  26.130  30.109  1.00  0.00     0.074 A 
ATOM     66  C   UNL A   1      46.196  24.847  29.591  1.00  0.00     0.031 C 
ATOM     67  C   UNL A   1      46.540  26.959  30.846  1.00  0.00     0.037 A 
BRANCH  54  68
ATOM     68  C   UNL A   1      43.730  32.164  32.662  1.00  0.00     0.064 A 
ATOM     69  C   UNL A   1      43.463  32.319  34.030  1.00  0.00     0.173 A 
ATOM     70  C   UNL A   1      44.064  33.312  31.925  1.00  0.00     0.173 A 
ATOM     71  F   UNL A   1      43.117  31.258  34.774  1.00  0.00    -0.203 F 
ATOM     72  C   UNL A   1      43.488  33.579  34.626  1.00  0.00     0.198 A 
ATOM     73  C   UNL A   1      44.117  34.563  32.529  1.00  0.00     0.198 A 
ATOM     74  F   UNL A   1      44.330  33.218  30.613  1.00  0.00    -0.203 F 
ATOM     75  F   UNL A   1      43.163  33.711  35.919  1.00  0.00    -0.200 F 
ATOM     76  C   UNL A   1      43.816  34.698  33.876  1.00  0.00     0.200 A 
ATOM     77  F   UNL A   1      44.441  35.643  31.805  1.00  0.00    -0.200 F 
ATOM     78  F   UNL A   1      43.829  35.910  34.449  1.00  0.00    -0.200 F 
ENDBRANCH  54  68
BRANCH  55  79
ATOM     79  C   UNL A   1      42.742  23.710  27.417  1.00  0.00     0.064 A 
ATOM     80  C   UNL A   1      43.251  23.573  26.116  1.00  0.00     0.173 A 
ATOM     81  C   UNL A   1      42.112  22.595  27.987  1.00  0.00     0.173 A 
ATOM     82  F   UNL A   1      43.844  24.616  25.517  1.00  0.00    -0.203 F 
ATOM     83  C   UNL A   1      43.134  22.373  25.417  1.00  0.00     0.198 A 
ATOM     84  C   UNL A   1      42.021  21.387  27.298  1.00  0.00     0.198 A 
ATOM     85  F   UNL A   1      41.612  22.669  29.229  1.00  0.00    -0.203 F 
ATOM     86  F   UNL A   1      43.604  22.281  24.165  1.00  0.00    -0.200 F 
ATOM     87  C   UNL A   1      42.528  21.278  26.012  1.00  0.00     0.200 A 
ATOM     88  F   UNL A   1      41.452  20.324  27.884  1.00  0.00    -0.200 F 
ATOM     89  F   UNL A   1      42.433  20.118  25.347  1.00  0.00    -0.200 F 
ENDBRANCH  55  79
BRANCH  67  90
ATOM     90  C   UNL A   1      47.942  26.513  31.127  1.00  0.00     0.064 A 
ATOM     91  C   UNL A   1      48.245  25.744  32.258  1.00  0.00     0.173 A 
ATOM     92  C   UNL A   1      48.974  26.795  30.220  1.00  0.00     0.173 A 
ATOM     93  F   UNL A   1      47.291  25.460  33.158  1.00  0.00    -0.203 F 
ATOM     94  C   UNL A   1      49.537  25.276  32.478  1.00  0.00     0.198 A 
ATOM     95  C   UNL A   1      50.261  26.310  30.434  1.00  0.00     0.198 A 
ATOM     96  F   UNL A   1      48.730  27.525  29.122  1.00  0.00    -0.203 F 
ATOM     97  F   UNL A   1      49.812  24.562  33.577  1.00  0.00    -0.200 F 
ATOM     98  C   UNL A   1      50.542  25.553  31.562  1.00  0.00     0.200 A 
ATOM     99  F   UNL A   1      51.230  26.571  29.545  1.00  0.00    -0.200 F 
ATOM    100  F   UNL A   1      51.783  25.093  31.769  1.00  0.00    -0.200 F 
ENDBRANCH  67  90
ENDBRANCH  41  42
ENDBRANCH  33  36
ENDBRANCH  31  32
ENDBRANCH   1  31
TORSDOF 13
ENDMDL
MODEL 3
REMARK VINA RESULT:     -13.0      1.318      2.249
REMARK SMILES CC(C)C[C@H](C(=O)NCCCNC(=O)c1ccc(-c2c3nc(c(-c4c(F)c(F)c(F)c(F)c4F)c4ccc([nH]4)c(-c4c(F)c(F)c(F)c(F)c4F)c4nc(c(-c5c(F)c(F)c(F)c(F)c5F)c5ccc2[nH]5)C=C4)C=C3)cc1)N1C(=O)/C(=C2\C(=O)Nc3ccc(Br)cc32)SC1=S
REMARK SMILES IDX 10 1 9 2 8 3 6 4 7 5 5 7 4 8 2 9 1 10 3 11 78 12 79 13 94 14
REMARK SMILES IDX 80 15 81 16 93 17 95 18 82 19 83 20 92 21 84 22 85 23 86 24
REMARK SMILES IDX 91 25 87 27 89 28 88 29 90 30 11 31 12 32 13 33 14 35 15 36
REMARK SMILES IDX 16 37 77 38 17 39 76 40 18 41 19 42 20 43 70 44 21 45 75 46
REMARK SMILES IDX 69 47 71 48 22 49 74 50 68 51 67 52 23 54 55 55 35 56 54 57
REMARK SMILES IDX 36 58 39 59 53 60 72 61 37 62 38 63 52 65 73 66 40 67 24 68
REMARK SMILES IDX 25 69 33 70 26 71 27 72 31 73 34 74 28 75 29 76 32 77 30 78
REMARK SMILES IDX 56 79 57 80 65 81 58 82 59 83 63 84 66 85 60 86 61 87 64 88
REMARK SMILES IDX 62 89 41 90 42 91 50 92 43 93 44 94 48 95 51 96 45 97 46 98
REMARK SMILES IDX 49 99 47 100
REMARK H PARENT 8 6 85 26 12 34 71 53 39 64
REMARK Flexibility Score: inf
ROOT
ATOM      1  C   UNL A   1      31.629  32.139  26.804  1.00  0.00     0.042 C 
ENDROOT
BRANCH   1   2
ATOM      2  C   UNL A   1      31.776  30.624  26.877  1.00  0.00     0.117 C 
BRANCH   2   3
ATOM      3  N   UNL A   1      32.501  30.107  25.735  1.00  0.00    -0.354 N 
ATOM      4  C   UNL A   1      32.144  29.273  24.722  1.00  0.00     0.243 C 
ATOM      5  O   UNL A   1      32.990  29.171  23.826  1.00  0.00    -0.273 OA
ATOM      6  H   UNL A   1      33.433  30.420  25.682  1.00  0.00     0.163 HD
BRANCH   4   7
ATOM      7  C   UNL A   1      30.728  28.617  24.600  1.00  0.00     0.181 C 
BRANCH   7   8
ATOM      8  C   UNL A   1      30.053  29.118  23.295  1.00  0.00     0.038 C 
BRANCH   8   9
ATOM      9  C   UNL A   1      28.828  30.044  23.292  1.00  0.00    -0.015 C 
ATOM     10  C   UNL A   1      29.083  31.459  23.794  1.00  0.00     0.007 C 
ATOM     11  C   UNL A   1      28.299  30.121  21.847  1.00  0.00     0.007 C 
ENDBRANCH   8   9
ENDBRANCH   7   8
BRANCH   7  12
ATOM     12  N   UNL A   1      30.736  27.168  24.889  1.00  0.00    -0.280 N 
ATOM     13  C   UNL A   1      31.821  26.663  25.584  1.00  0.00     0.267 C 
ATOM     14  C   UNL A   1      29.770  26.236  24.588  1.00  0.00     0.149 C 
ATOM     15  O   UNL A   1      32.510  27.296  26.369  1.00  0.00    -0.268 OA
ATOM     16  C   UNL A   1      31.944  25.194  25.363  1.00  0.00     0.093 C 
ATOM     17  S   UNL A   1      30.356  24.608  25.036  1.00  0.00    -0.053 SA
ATOM     18  S   UNL A   1      28.307  26.461  23.828  1.00  0.00    -0.052 S 
ATOM     19  C   UNL A   1      33.114  24.536  25.311  1.00  0.00     0.069 C 
ATOM     20  C   UNL A   1      34.428  25.299  25.373  1.00  0.00     0.257 C 
ATOM     21  C   UNL A   1      33.492  23.110  25.145  1.00  0.00     0.013 A 
ATOM     22  O   UNL A   1      34.635  26.478  25.179  1.00  0.00    -0.269 OA
ATOM     23  N   UNL A   1      35.407  24.341  25.486  1.00  0.00    -0.321 N 
ATOM     24  C   UNL A   1      34.888  23.071  25.314  1.00  0.00     0.049 A 
ATOM     25  C   UNL A   1      32.828  21.930  24.841  1.00  0.00     0.026 A 
ATOM     26  H   UNL A   1      36.355  24.534  25.667  1.00  0.00     0.170 HD
ATOM     27  C   UNL A   1      35.653  21.925  25.230  1.00  0.00     0.028 A 
ATOM     28  C   UNL A   1      33.596  20.752  24.743  1.00  0.00     0.018 A 
ATOM     29  C   UNL A   1      34.986  20.745  24.937  1.00  0.00     0.018 A 
ATOM     30  Br  UNL A   1      32.792  19.088  24.351  1.00  0.00    -0.051 Br
ENDBRANCH   7  12
ENDBRANCH   4   7
ENDBRANCH   2   3
ENDBRANCH   1   2
BRANCH   1  31
ATOM     31  C   UNL A   1      32.915  32.906  27.095  1.00  0.00     0.118 C 
BRANCH  31  32
ATOM     32  N   UNL A   1      32.641  34.237  27.606  1.00  0.00    -0.352 N 
ATOM     33  C   UNL A   1      33.104  34.857  28.741  1.00  0.00     0.251 C 
ATOM     34  H   UNL A   1      32.031  34.777  27.054  1.00  0.00     0.163 HD
ATOM     35  O   UNL A   1      32.553  35.884  29.132  1.00  0.00    -0.269 OA
BRANCH  33  36
ATOM     36  C   UNL A   1      34.243  34.307  29.513  1.00  0.00     0.039 A 
ATOM     37  C   UNL A   1      35.546  34.613  29.101  1.00  0.00     0.014 A 
ATOM     38  C   UNL A   1      34.047  33.424  30.579  1.00  0.00     0.014 A 
ATOM     39  C   UNL A   1      36.643  34.072  29.779  1.00  0.00     0.010 A 
ATOM     40  C   UNL A   1      35.138  32.937  31.298  1.00  0.00     0.010 A 
ATOM     41  C   UNL A   1      36.444  33.241  30.893  1.00  0.00    -0.014 A 
BRANCH  41  42
ATOM     42  C   UNL A   1      37.588  32.624  31.610  1.00  0.00     0.031 A 
ATOM     43  C   UNL A   1      38.422  31.583  30.926  1.00  0.00     0.074 A 
ATOM     44  C   UNL A   1      37.836  32.946  32.892  1.00  0.00     0.049 A 
ATOM     45  N   UNL A   1      39.376  30.837  31.417  1.00  0.00    -0.248 NA
ATOM     46  C   UNL A   1      38.100  31.305  29.519  1.00  0.00     0.031 C 
ATOM     47  C   UNL A   1      37.041  33.881  33.678  1.00  0.00     0.029 A 
ATOM     48  N   UNL A   1      38.823  32.539  33.752  1.00  0.00    -0.354 N 
ATOM     49  C   UNL A   1      39.705  29.941  30.411  1.00  0.00     0.074 A 
ATOM     50  C   UNL A   1      38.867  30.254  29.274  1.00  0.00     0.031 C 
ATOM     51  C   UNL A   1      37.624  34.046  34.877  1.00  0.00     0.029 A 
ATOM     52  C   UNL A   1      38.803  33.194  34.959  1.00  0.00     0.049 A 
ATOM     53  H   UNL A   1      39.483  31.843  33.525  1.00  0.00     0.167 HD
ATOM     54  C   UNL A   1      40.605  28.930  30.453  1.00  0.00     0.037 A 
ATOM     55  C   UNL A   1      39.649  33.121  36.005  1.00  0.00     0.037 A 
ATOM     56  C   UNL A   1      41.466  28.664  31.576  1.00  0.00     0.049 A 
ATOM     57  C   UNL A   1      40.759  32.107  35.962  1.00  0.00     0.074 A 
ATOM     58  C   UNL A   1      42.422  27.675  31.718  1.00  0.00     0.029 A 
ATOM     59  N   UNL A   1      41.483  29.409  32.746  1.00  0.00    -0.354 N 
ATOM     60  N   UNL A   1      41.056  31.254  35.013  1.00  0.00    -0.248 NA
ATOM     61  C   UNL A   1      41.624  32.014  37.146  1.00  0.00     0.031 C 
ATOM     62  C   UNL A   1      43.004  27.809  32.985  1.00  0.00     0.029 A 
ATOM     63  C   UNL A   1      42.435  28.904  33.617  1.00  0.00     0.049 A 
ATOM     64  H   UNL A   1      40.903  30.183  32.932  1.00  0.00     0.167 HD
ATOM     65  C   UNL A   1      42.122  30.507  35.489  1.00  0.00     0.074 A 
ATOM     66  C   UNL A   1      42.454  31.040  36.796  1.00  0.00     0.031 C 
ATOM     67  C   UNL A   1      42.747  29.454  34.910  1.00  0.00     0.037 A 
BRANCH  54  68
ATOM     68  C   UNL A   1      40.648  28.008  29.272  1.00  0.00     0.064 A 
ATOM     69  C   UNL A   1      39.787  26.908  29.153  1.00  0.00     0.173 A 
ATOM     70  C   UNL A   1      41.594  28.215  28.255  1.00  0.00     0.173 A 
ATOM     71  F   UNL A   1      38.881  26.654  30.108  1.00  0.00    -0.203 F 
ATOM     72  C   UNL A   1      39.898  26.026  28.079  1.00  0.00     0.198 A 
ATOM     73  C   UNL A   1      41.682  27.350  27.170  1.00  0.00     0.198 A 
ATOM     74  F   UNL A   1      42.441  29.254  28.321  1.00  0.00    -0.203 F 
ATOM     75  F   UNL A   1      39.110  24.944  28.021  1.00  0.00    -0.200 F 
ATOM     76  C   UNL A   1      40.843  26.249  27.089  1.00  0.00     0.200 A 
ATOM     77  F   UNL A   1      42.591  27.570  26.210  1.00  0.00    -0.200 F 
ATOM     78  F   UNL A   1      40.955  25.393  26.063  1.00  0.00    -0.200 F 
ENDBRANCH  54  68
BRANCH  55  79
ATOM     79  C   UNL A   1      39.500  34.056  37.151  1.00  0.00     0.064 A 
ATOM     80  C   UNL A   1      38.784  33.668  38.294  1.00  0.00     0.173 A 
ATOM     81  C   UNL A   1      40.093  35.327  37.158  1.00  0.00     0.173 A 
ATOM     82  F   UNL A   1      38.179  32.471  38.329  1.00  0.00    -0.203 F 
ATOM     83  C   UNL A   1      38.665  34.514  39.395  1.00  0.00     0.198 A 
ATOM     84  C   UNL A   1      39.999  36.160  38.271  1.00  0.00     0.198 A 
ATOM     85  F   UNL A   1      40.794  35.746  36.095  1.00  0.00    -0.203 F 
ATOM     86  F   UNL A   1      37.951  34.127  40.461  1.00  0.00    -0.200 F 
ATOM     87  C   UNL A   1      39.282  35.755  39.387  1.00  0.00     0.200 A 
ATOM     88  F   UNL A   1      40.613  37.351  38.268  1.00  0.00    -0.200 F 
ATOM     89  F   UNL A   1      39.185  36.560  40.454  1.00  0.00    -0.200 F 
ENDBRANCH  55  79
BRANCH  67  90
ATOM     90  C   UNL A   1      43.847  28.799  35.689  1.00  0.00     0.064 A 
ATOM     91  C   UNL A   1      45.179  29.212  35.548  1.00  0.00     0.173 A 
ATOM     92  C   UNL A   1      43.557  27.806  36.635  1.00  0.00     0.173 A 
ATOM     93  F   UNL A   1      45.505  30.151  34.648  1.00  0.00    -0.203 F 
ATOM     94  C   UNL A   1      46.187  28.646  36.324  1.00  0.00     0.198 A 
ATOM     95  C   UNL A   1      44.565  27.255  37.421  1.00  0.00     0.198 A 
ATOM     96  F   UNL A   1      42.296  27.383  36.806  1.00  0.00    -0.203 F 
ATOM     97  F   UNL A   1      47.458  29.037  36.158  1.00  0.00    -0.200 F 
ATOM     98  C   UNL A   1      45.877  27.674  37.264  1.00  0.00     0.200 A 
ATOM     99  F   UNL A   1      44.264  26.321  38.335  1.00  0.00    -0.200 F 
ATOM    100  F   UNL A   1      46.847  27.137  38.018  1.00  0.00    -0.200 F 
ENDBRANCH  67  90
ENDBRANCH  41  42
ENDBRANCH  33  36
ENDBRANCH  31  32
ENDBRANCH   1  31
TORSDOF 13
ENDMDL
