MODEL 1
REMARK VINA RESULT:     -13.4      0.000      0.000
REMARK SMILES O=C(NCCCNC(=O)c1ccc(-c2c3nc(c(-c4c(F)c(F)c(F)c(F)c4F)c4ccc([nH]4)c(-c4c(F)c(F)c(F)c(F)c4F)c4nc(c(-c5c(F)c(F)c(F)c(F)c5F)c5ccc2[nH]5)C=C4)C=C3)cc1)c1ccc(NC(=O)c2cc(F)cc(Br)c2)cc1
REMARK SMILES IDX 5 1 4 2 3 3 1 4 2 5 73 7 74 8 89 9 75 10 88 11 76 12 77 13
REMARK SMILES IDX 78 14 79 16 80 17 81 18 87 19 82 20 85 21 83 22 84 23 86 24
REMARK SMILES IDX 6 25 7 26 8 27 9 29 10 30 11 31 72 32 12 33 71 34 13 35
REMARK SMILES IDX 14 36 15 37 65 38 16 39 70 40 64 41 66 42 17 43 69 44 63 45
REMARK SMILES IDX 62 46 18 48 50 49 30 50 49 51 31 52 34 53 48 54 67 55 32 56
REMARK SMILES IDX 33 57 47 59 68 60 35 61 19 62 20 63 28 64 21 65 22 66 26 67
REMARK SMILES IDX 29 68 23 69 24 70 27 71 25 72 51 73 52 74 60 75 53 76 54 77
REMARK SMILES IDX 58 78 61 79 55 80 56 81 59 82 57 83 36 84 37 85 45 86 38 87
REMARK SMILES IDX 39 88 43 89 46 90 40 91 41 92 44 93 42 94
REMARK H PARENT 3 6 77 15 7 28 66 47 34 58
REMARK Flexibility Score: inf
ROOT
ATOM      1  C   UNL A   1      33.582  29.098  23.907  1.00  0.00     0.042 C 
ENDROOT
BRANCH   1   2
ATOM      2  C   UNL A   1      32.383  28.739  23.053  1.00  0.00     0.118 C 
BRANCH   2   3
ATOM      3  N   UNL A   1      32.712  27.836  21.954  1.00  0.00    -0.352 N 
ATOM      4  O   UNL A   1      33.430  25.938  20.964  1.00  0.00    -0.269 OA
ATOM      5  C   UNL A   1      33.029  26.497  21.980  1.00  0.00     0.251 C 
ATOM      6  H   UNL A   1      32.708  28.247  21.060  1.00  0.00     0.163 HD
BRANCH   5   7
ATOM      7  C   UNL A   1      32.898  25.734  23.241  1.00  0.00     0.039 A 
ATOM      8  C   UNL A   1      31.685  25.147  23.573  1.00  0.00     0.016 A 
ATOM      9  C   UNL A   1      33.976  25.627  24.121  1.00  0.00     0.016 A 
ATOM     10  C   UNL A   1      31.495  24.621  24.841  1.00  0.00     0.027 A 
ATOM     11  C   UNL A   1      33.808  24.968  25.349  1.00  0.00     0.027 A 
ATOM     12  C   UNL A   1      32.559  24.448  25.719  1.00  0.00     0.041 A 
BRANCH  12  13
ATOM     13  N   UNL A   1      32.455  23.784  26.957  1.00  0.00    -0.322 N 
ATOM     14  C   UNL A   1      32.938  22.572  27.415  1.00  0.00     0.255 C 
ATOM     15  H   UNL A   1      31.936  24.281  27.630  1.00  0.00     0.170 HD
ATOM     16  O   UNL A   1      32.593  22.148  28.516  1.00  0.00    -0.269 OA
BRANCH  14  17
ATOM     17  C   UNL A   1      33.864  21.747  26.617  1.00  0.00     0.044 A 
ATOM     18  C   UNL A   1      33.320  20.752  25.800  1.00  0.00     0.053 A 
ATOM     19  C   UNL A   1      35.241  22.016  26.596  1.00  0.00     0.029 A 
ATOM     20  C   UNL A   1      34.148  20.096  24.898  1.00  0.00     0.125 A 
ATOM     21  C   UNL A   1      36.042  21.366  25.655  1.00  0.00     0.021 A 
ATOM     22  F   UNL A   1      33.624  19.183  24.070  1.00  0.00    -0.207 F 
ATOM     23  C   UNL A   1      35.499  20.410  24.797  1.00  0.00     0.055 A 
ATOM     24  Br  UNL A   1      37.851  21.876  25.458  1.00  0.00    -0.051 Br
ENDBRANCH  14  17
ENDBRANCH  12  13
ENDBRANCH   5   7
ENDBRANCH   2   3
ENDBRANCH   1   2
BRANCH   1  25
ATOM     25  C   UNL A   1      33.310  28.995  25.394  1.00  0.00     0.118 C 
BRANCH  25  26
ATOM     26  N   UNL A   1      32.729  30.212  25.951  1.00  0.00    -0.352 N 
ATOM     27  C   UNL A   1      33.189  31.026  26.959  1.00  0.00     0.251 C 
ATOM     28  H   UNL A   1      31.880  30.494  25.541  1.00  0.00     0.163 HD
ATOM     29  O   UNL A   1      32.479  31.922  27.406  1.00  0.00    -0.269 OA
BRANCH  27  30
ATOM     30  C   UNL A   1      34.532  30.793  27.530  1.00  0.00     0.039 A 
ATOM     31  C   UNL A   1      35.419  31.866  27.660  1.00  0.00     0.014 A 
ATOM     32  C   UNL A   1      34.897  29.523  27.974  1.00  0.00     0.014 A 
ATOM     33  C   UNL A   1      36.631  31.681  28.330  1.00  0.00     0.010 A 
ATOM     34  C   UNL A   1      36.044  29.366  28.737  1.00  0.00     0.010 A 
ATOM     35  C   UNL A   1      36.926  30.442  28.920  1.00  0.00    -0.014 A 
BRANCH  35  36
ATOM     36  C   UNL A   1      38.156  30.208  29.717  1.00  0.00     0.031 A 
ATOM     37  C   UNL A   1      39.210  29.279  29.180  1.00  0.00     0.074 A 
ATOM     38  C   UNL A   1      38.271  30.720  30.957  1.00  0.00     0.049 A 
ATOM     39  N   UNL A   1      40.242  28.753  29.788  1.00  0.00    -0.248 NA
ATOM     40  C   UNL A   1      39.049  28.849  27.782  1.00  0.00     0.031 C 
ATOM     41  C   UNL A   1      37.303  31.607  31.605  1.00  0.00     0.029 A 
ATOM     42  N   UNL A   1      39.247  30.544  31.906  1.00  0.00    -0.354 N 
ATOM     43  C   UNL A   1      40.822  27.896  28.861  1.00  0.00     0.074 A 
ATOM     44  C   UNL A   1      40.003  27.938  27.670  1.00  0.00     0.031 C 
ATOM     45  C   UNL A   1      37.745  31.914  32.836  1.00  0.00     0.029 A 
ATOM     46  C   UNL A   1      38.996  31.205  33.083  1.00  0.00     0.049 A 
ATOM     47  H   UNL A   1      40.050  29.995  31.757  1.00  0.00     0.167 HD
ATOM     48  C   UNL A   1      41.949  27.156  28.988  1.00  0.00     0.037 A 
ATOM     49  C   UNL A   1      39.691  31.222  34.236  1.00  0.00     0.037 A 
ATOM     50  C   UNL A   1      42.787  27.159  30.155  1.00  0.00     0.049 A 
ATOM     51  C   UNL A   1      40.949  30.405  34.347  1.00  0.00     0.074 A 
ATOM     52  C   UNL A   1      43.981  26.492  30.364  1.00  0.00     0.029 A 
ATOM     53  N   UNL A   1      42.522  27.881  31.310  1.00  0.00    -0.354 N 
ATOM     54  N   UNL A   1      41.506  29.619  33.458  1.00  0.00    -0.248 NA
ATOM     55  C   UNL A   1      41.674  30.476  35.624  1.00  0.00     0.031 C 
ATOM     56  C   UNL A   1      44.425  26.789  31.657  1.00  0.00     0.029 A 
ATOM     57  C   UNL A   1      43.528  27.672  32.238  1.00  0.00     0.049 A 
ATOM     58  H   UNL A   1      41.736  28.457  31.449  1.00  0.00     0.167 HD
ATOM     59  C   UNL A   1      42.660  29.128  34.052  1.00  0.00     0.074 A 
ATOM     60  C   UNL A   1      42.726  29.707  35.378  1.00  0.00     0.031 C 
ATOM     61  C   UNL A   1      43.584  28.278  33.543  1.00  0.00     0.037 A 
BRANCH  48  62
ATOM     62  C   UNL A   1      42.332  26.286  27.827  1.00  0.00     0.064 A 
ATOM     63  C   UNL A   1      43.274  26.703  26.875  1.00  0.00     0.173 A 
ATOM     64  C   UNL A   1      41.751  25.019  27.664  1.00  0.00     0.173 A 
ATOM     65  F   UNL A   1      43.846  27.913  26.975  1.00  0.00    -0.203 F 
ATOM     66  C   UNL A   1      43.592  25.900  25.781  1.00  0.00     0.198 A 
ATOM     67  C   UNL A   1      42.094  24.206  26.587  1.00  0.00     0.198 A 
ATOM     68  F   UNL A   1      40.847  24.571  28.548  1.00  0.00    -0.203 F 
ATOM     69  F   UNL A   1      44.448  26.347  24.852  1.00  0.00    -0.200 F 
ATOM     70  C   UNL A   1      43.006  24.652  25.641  1.00  0.00     0.200 A 
ATOM     71  F   UNL A   1      41.534  22.996  26.458  1.00  0.00    -0.200 F 
ATOM     72  F   UNL A   1      43.310  23.883  24.588  1.00  0.00    -0.200 F 
ENDBRANCH  48  62
BRANCH  49  73
ATOM     73  C   UNL A   1      39.228  32.067  35.366  1.00  0.00     0.064 A 
ATOM     74  C   UNL A   1      38.436  31.518  36.384  1.00  0.00     0.173 A 
ATOM     75  C   UNL A   1      39.572  33.422  35.462  1.00  0.00     0.173 A 
ATOM     76  F   UNL A   1      38.065  30.231  36.324  1.00  0.00    -0.203 F 
ATOM     77  C   UNL A   1      37.993  32.298  37.451  1.00  0.00     0.198 A 
ATOM     78  C   UNL A   1      39.147  34.196  36.541  1.00  0.00     0.198 A 
ATOM     79  F   UNL A   1      40.332  33.991  34.516  1.00  0.00    -0.203 F 
ATOM     80  F   UNL A   1      37.208  31.758  38.392  1.00  0.00    -0.200 F 
ATOM     81  C   UNL A   1      38.354  33.635  37.531  1.00  0.00     0.200 A 
ATOM     82  F   UNL A   1      39.509  35.483  36.623  1.00  0.00    -0.200 F 
ATOM     83  F   UNL A   1      37.934  34.383  38.560  1.00  0.00    -0.200 F 
ENDBRANCH  49  73
BRANCH  61  84
ATOM     84  C   UNL A   1      44.774  27.963  34.399  1.00  0.00     0.064 A 
ATOM     85  C   UNL A   1      45.923  28.764  34.386  1.00  0.00     0.173 A 
ATOM     86  C   UNL A   1      44.737  26.875  35.284  1.00  0.00     0.173 A 
ATOM     87  F   UNL A   1      46.010  29.807  33.545  1.00  0.00    -0.203 F 
ATOM     88  C   UNL A   1      47.001  28.480  35.220  1.00  0.00     0.198 A 
ATOM     89  C   UNL A   1      45.805  26.606  36.132  1.00  0.00     0.198 A 
ATOM     90  F   UNL A   1      43.655  26.082  35.335  1.00  0.00    -0.203 F 
ATOM     91  F   UNL A   1      48.104  29.237  35.169  1.00  0.00    -0.200 F 
ATOM     92  C   UNL A   1      46.938  27.406  36.097  1.00  0.00     0.200 A 
ATOM     93  F   UNL A   1      45.739  25.576  36.987  1.00  0.00    -0.200 F 
ATOM     94  F   UNL A   1      47.972  27.140  36.907  1.00  0.00    -0.200 F 
ENDBRANCH  61  84
ENDBRANCH  35  36
ENDBRANCH  27  30
ENDBRANCH  25  26
ENDBRANCH   1  25
TORSDOF 12
ENDMDL
MODEL 2
REMARK VINA RESULT:     -13.3      2.100      3.448
REMARK SMILES O=C(NCCCNC(=O)c1ccc(-c2c3nc(c(-c4c(F)c(F)c(F)c(F)c4F)c4ccc([nH]4)c(-c4c(F)c(F)c(F)c(F)c4F)c4nc(c(-c5c(F)c(F)c(F)c(F)c5F)c5ccc2[nH]5)C=C4)C=C3)cc1)c1ccc(NC(=O)c2cc(F)cc(Br)c2)cc1
REMARK SMILES IDX 5 1 4 2 3 3 1 4 2 5 73 7 74 8 89 9 75 10 88 11 76 12 77 13
REMARK SMILES IDX 78 14 79 16 80 17 81 18 87 19 82 20 85 21 83 22 84 23 86 24
REMARK SMILES IDX 6 25 7 26 8 27 9 29 10 30 11 31 72 32 12 33 71 34 13 35
REMARK SMILES IDX 14 36 15 37 65 38 16 39 70 40 64 41 66 42 17 43 69 44 63 45
REMARK SMILES IDX 62 46 18 48 50 49 30 50 49 51 31 52 34 53 48 54 67 55 32 56
REMARK SMILES IDX 33 57 47 59 68 60 35 61 19 62 20 63 28 64 21 65 22 66 26 67
REMARK SMILES IDX 29 68 23 69 24 70 27 71 25 72 51 73 52 74 60 75 53 76 54 77
REMARK SMILES IDX 58 78 61 79 55 80 56 81 59 82 57 83 36 84 37 85 45 86 38 87
REMARK SMILES IDX 39 88 43 89 46 90 40 91 41 92 44 93 42 94
REMARK H PARENT 3 6 77 15 7 28 66 47 34 58
REMARK Flexibility Score: inf
ROOT
ATOM      1  C   UNL A   1      31.785  31.903  26.557  1.00  0.00     0.042 C 
ENDROOT
BRANCH   1   2
ATOM      2  C   UNL A   1      32.178  30.481  26.215  1.00  0.00     0.118 C 
BRANCH   2   3
ATOM      3  N   UNL A   1      31.989  29.552  27.325  1.00  0.00    -0.352 N 
ATOM      4  O   UNL A   1      31.550  27.584  28.340  1.00  0.00    -0.269 OA
ATOM      5  C   UNL A   1      31.858  28.182  27.314  1.00  0.00     0.251 C 
ATOM      6  H   UNL A   1      31.949  29.968  28.216  1.00  0.00     0.163 HD
BRANCH   5   7
ATOM      7  C   UNL A   1      32.074  27.433  26.057  1.00  0.00     0.039 A 
ATOM      8  C   UNL A   1      33.365  27.137  25.640  1.00  0.00     0.016 A 
ATOM      9  C   UNL A   1      30.993  27.048  25.264  1.00  0.00     0.016 A 
ATOM     10  C   UNL A   1      33.583  26.631  24.368  1.00  0.00     0.027 A 
ATOM     11  C   UNL A   1      31.223  26.409  24.035  1.00  0.00     0.027 A 
ATOM     12  C   UNL A   1      32.530  26.186  23.577  1.00  0.00     0.041 A 
BRANCH  12  13
ATOM     13  N   UNL A   1      32.699  25.526  22.344  1.00  0.00    -0.322 N 
ATOM     14  C   UNL A   1      33.200  24.283  22.006  1.00  0.00     0.255 C 
ATOM     15  H   UNL A   1      32.401  26.055  21.569  1.00  0.00     0.170 HD
ATOM     16  O   UNL A   1      33.367  23.986  20.825  1.00  0.00    -0.269 OA
BRANCH  14  17
ATOM     17  C   UNL A   1      33.557  23.279  23.027  1.00  0.00     0.044 A 
ATOM     18  C   UNL A   1      32.570  22.377  23.434  1.00  0.00     0.053 A 
ATOM     19  C   UNL A   1      34.871  23.163  23.503  1.00  0.00     0.029 A 
ATOM     20  C   UNL A   1      32.930  21.306  24.243  1.00  0.00     0.125 A 
ATOM     21  C   UNL A   1      35.212  22.059  24.286  1.00  0.00     0.021 A 
ATOM     22  F   UNL A   1      32.003  20.404  24.589  1.00  0.00    -0.207 F 
ATOM     23  C   UNL A   1      34.247  21.122  24.653  1.00  0.00     0.055 A 
ATOM     24  Br  UNL A   1      37.021  21.765  24.748  1.00  0.00    -0.051 Br
ENDBRANCH  14  17
ENDBRANCH  12  13
ENDBRANCH   5   7
ENDBRANCH   2   3
ENDBRANCH   1   2
BRANCH   1  25
ATOM     25  C   UNL A   1      32.829  32.632  27.378  1.00  0.00     0.118 C 
BRANCH  25  26
ATOM     26  N   UNL A   1      32.475  34.024  27.641  1.00  0.00    -0.352 N 
ATOM     27  C   UNL A   1      32.985  34.902  28.567  1.00  0.00     0.251 C 
ATOM     28  H   UNL A   1      31.765  34.388  27.066  1.00  0.00     0.163 HD
ATOM     29  O   UNL A   1      32.447  35.990  28.753  1.00  0.00    -0.269 OA
BRANCH  27  30
ATOM     30  C   UNL A   1      34.165  34.515  29.368  1.00  0.00     0.039 A 
ATOM     31  C   UNL A   1      33.983  33.944  30.630  1.00  0.00     0.014 A 
ATOM     32  C   UNL A   1      35.450  34.677  28.850  1.00  0.00     0.014 A 
ATOM     33  C   UNL A   1      35.086  33.445  31.327  1.00  0.00     0.010 A 
ATOM     34  C   UNL A   1      36.527  34.081  29.487  1.00  0.00     0.010 A 
ATOM     35  C   UNL A   1      36.358  33.461  30.736  1.00  0.00    -0.014 A 
BRANCH  35  36
ATOM     36  C   UNL A   1      37.552  32.870  31.388  1.00  0.00     0.031 A 
ATOM     37  C   UNL A   1      38.266  31.731  30.715  1.00  0.00     0.074 A 
ATOM     38  C   UNL A   1      37.918  33.265  32.623  1.00  0.00     0.049 A 
ATOM     39  N   UNL A   1      39.175  30.921  31.193  1.00  0.00    -0.248 NA
ATOM     40  C   UNL A   1      37.863  31.436  29.331  1.00  0.00     0.031 C 
ATOM     41  C   UNL A   1      37.286  34.335  33.396  1.00  0.00     0.029 A 
ATOM     42  N   UNL A   1      38.899  32.788  33.456  1.00  0.00    -0.354 N 
ATOM     43  C   UNL A   1      39.416  29.996  30.185  1.00  0.00     0.074 A 
ATOM     44  C   UNL A   1      38.527  30.316  29.090  1.00  0.00     0.031 C 
ATOM     45  C   UNL A   1      37.910  34.448  34.581  1.00  0.00     0.029 A 
ATOM     46  C   UNL A   1      38.947  33.424  34.671  1.00  0.00     0.049 A 
ATOM     47  H   UNL A   1      39.510  32.058  33.206  1.00  0.00     0.167 HD
ATOM     48  C   UNL A   1      40.313  28.981  30.168  1.00  0.00     0.037 A 
ATOM     49  C   UNL A   1      39.729  33.195  35.744  1.00  0.00     0.037 A 
ATOM     50  C   UNL A   1      41.231  28.701  31.238  1.00  0.00     0.049 A 
ATOM     51  C   UNL A   1      40.729  32.074  35.695  1.00  0.00     0.074 A 
ATOM     52  C   UNL A   1      42.219  27.735  31.299  1.00  0.00     0.029 A 
ATOM     53  N   UNL A   1      41.279  29.401  32.435  1.00  0.00    -0.354 N 
ATOM     54  N   UNL A   1      40.970  31.221  34.729  1.00  0.00    -0.248 NA
ATOM     55  C   UNL A   1      41.567  31.883  36.888  1.00  0.00     0.031 C 
ATOM     56  C   UNL A   1      42.849  27.834  32.544  1.00  0.00     0.029 A 
ATOM     57  C   UNL A   1      42.277  28.886  33.244  1.00  0.00     0.049 A 
ATOM     58  H   UNL A   1      40.690  30.154  32.674  1.00  0.00     0.167 HD
ATOM     59  C   UNL A   1      42.005  30.414  35.181  1.00  0.00     0.074 A 
ATOM     60  C   UNL A   1      42.349  30.881  36.509  1.00  0.00     0.031 C 
ATOM     61  C   UNL A   1      42.617  29.382  34.552  1.00  0.00     0.037 A 
BRANCH  48  62
ATOM     62  C   UNL A   1      40.338  28.108  28.949  1.00  0.00     0.064 A 
ATOM     63  C   UNL A   1      39.612  26.909  28.888  1.00  0.00     0.173 A 
ATOM     64  C   UNL A   1      41.097  28.473  27.827  1.00  0.00     0.173 A 
ATOM     65  F   UNL A   1      38.884  26.505  29.941  1.00  0.00    -0.203 F 
ATOM     66  C   UNL A   1      39.676  26.088  27.764  1.00  0.00     0.198 A 
ATOM     67  C   UNL A   1      41.133  27.666  26.693  1.00  0.00     0.198 A 
ATOM     68  F   UNL A   1      41.807  29.611  27.832  1.00  0.00    -0.203 F 
ATOM     69  F   UNL A   1      39.023  24.918  27.755  1.00  0.00    -0.200 F 
ATOM     70  C   UNL A   1      40.431  26.470  26.667  1.00  0.00     0.200 A 
ATOM     71  F   UNL A   1      41.856  28.040  25.629  1.00  0.00    -0.200 F 
ATOM     72  F   UNL A   1      40.493  25.679  25.588  1.00  0.00    -0.200 F 
ENDBRANCH  48  62
BRANCH  49  73
ATOM     73  C   UNL A   1      39.617  34.067  36.940  1.00  0.00     0.064 A 
ATOM     74  C   UNL A   1      38.821  33.680  38.028  1.00  0.00     0.173 A 
ATOM     75  C   UNL A   1      40.302  35.285  37.031  1.00  0.00     0.173 A 
ATOM     76  F   UNL A   1      38.131  32.532  37.977  1.00  0.00    -0.203 F 
ATOM     77  C   UNL A   1      38.706  34.488  39.158  1.00  0.00     0.198 A 
ATOM     78  C   UNL A   1      40.204  36.082  38.171  1.00  0.00     0.198 A 
ATOM     79  F   UNL A   1      41.080  35.696  36.019  1.00  0.00    -0.203 F 
ATOM     80  F   UNL A   1      37.912  34.111  40.169  1.00  0.00    -0.200 F 
ATOM     81  C   UNL A   1      39.402  35.685  39.230  1.00  0.00     0.200 A 
ATOM     82  F   UNL A   1      40.889  37.231  38.243  1.00  0.00    -0.200 F 
ATOM     83  F   UNL A   1      39.297  36.458  40.320  1.00  0.00    -0.200 F 
ENDBRANCH  49  73
BRANCH  61  84
ATOM     84  C   UNL A   1      43.758  28.721  35.266  1.00  0.00     0.064 A 
ATOM     85  C   UNL A   1      45.081  29.149  35.094  1.00  0.00     0.173 A 
ATOM     86  C   UNL A   1      43.512  27.682  36.175  1.00  0.00     0.173 A 
ATOM     87  F   UNL A   1      45.366  30.129  34.222  1.00  0.00    -0.203 F 
ATOM     88  C   UNL A   1      46.121  28.549  35.798  1.00  0.00     0.198 A 
ATOM     89  C   UNL A   1      44.550  27.101  36.895  1.00  0.00     0.198 A 
ATOM     90  F   UNL A   1      42.260  27.242  36.376  1.00  0.00    -0.203 F 
ATOM     91  F   UNL A   1      47.384  28.949  35.596  1.00  0.00    -0.200 F 
ATOM     92  C   UNL A   1      45.854  27.532  36.704  1.00  0.00     0.200 A 
ATOM     93  F   UNL A   1      44.289  26.126  37.777  1.00  0.00    -0.200 F 
ATOM     94  F   UNL A   1      46.856  26.963  37.389  1.00  0.00    -0.200 F 
ENDBRANCH  61  84
ENDBRANCH  35  36
ENDBRANCH  27  30
ENDBRANCH  25  26
ENDBRANCH   1  25
TORSDOF 12
ENDMDL
MODEL 3
REMARK VINA RESULT:     -13.3      2.086      3.423
REMARK SMILES O=C(NCCCNC(=O)c1ccc(-c2c3nc(c(-c4c(F)c(F)c(F)c(F)c4F)c4ccc([nH]4)c(-c4c(F)c(F)c(F)c(F)c4F)c4nc(c(-c5c(F)c(F)c(F)c(F)c5F)c5ccc2[nH]5)C=C4)C=C3)cc1)c1ccc(NC(=O)c2cc(F)cc(Br)c2)cc1
REMARK SMILES IDX 5 1 4 2 3 3 1 4 2 5 73 7 74 8 89 9 75 10 88 11 76 12 77 13
REMARK SMILES IDX 78 14 79 16 80 17 81 18 87 19 82 20 85 21 83 22 84 23 86 24
REMARK SMILES IDX 6 25 7 26 8 27 9 29 10 30 11 31 72 32 12 33 71 34 13 35
REMARK SMILES IDX 14 36 15 37 65 38 16 39 70 40 64 41 66 42 17 43 69 44 63 45
REMARK SMILES IDX 62 46 18 48 50 49 30 50 49 51 31 52 34 53 48 54 67 55 32 56
REMARK SMILES IDX 33 57 47 59 68 60 35 61 19 62 20 63 28 64 21 65 22 66 26 67
REMARK SMILES IDX 29 68 23 69 24 70 27 71 25 72 51 73 52 74 60 75 53 76 54 77
REMARK SMILES IDX 58 78 61 79 55 80 56 81 59 82 57 83 36 84 37 85 45 86 38 87
REMARK SMILES IDX 39 88 43 89 46 90 40 91 41 92 44 93 42 94
REMARK H PARENT 3 6 77 15 7 28 66 47 34 58
REMARK Flexibility Score: inf
ROOT
ATOM      1  C   UNL A   1      31.794  31.852  26.568  1.00  0.00     0.042 C 
ENDROOT
BRANCH   1   2
ATOM      2  C   UNL A   1      32.185  30.428  26.231  1.00  0.00     0.118 C 
BRANCH   2   3
ATOM      3  N   UNL A   1      32.042  29.512  27.359  1.00  0.00    -0.352 N 
ATOM      4  O   UNL A   1      31.668  27.551  28.414  1.00  0.00    -0.269 OA
ATOM      5  C   UNL A   1      31.940  28.140  27.372  1.00  0.00     0.251 C 
ATOM      6  H   UNL A   1      32.013  29.942  28.245  1.00  0.00     0.163 HD
BRANCH   5   7
ATOM      7  C   UNL A   1      32.144  27.376  26.122  1.00  0.00     0.039 A 
ATOM      8  C   UNL A   1      33.431  27.090  25.687  1.00  0.00     0.016 A 
ATOM      9  C   UNL A   1      31.053  26.967  25.353  1.00  0.00     0.016 A 
ATOM     10  C   UNL A   1      33.633  26.568  24.419  1.00  0.00     0.027 A 
ATOM     11  C   UNL A   1      31.271  26.313  24.129  1.00  0.00     0.027 A 
ATOM     12  C   UNL A   1      32.572  26.100  23.652  1.00  0.00     0.041 A 
BRANCH  12  13
ATOM     13  N   UNL A   1      32.728  25.425  22.425  1.00  0.00    -0.322 N 
ATOM     14  C   UNL A   1      33.217  24.174  22.099  1.00  0.00     0.255 C 
ATOM     15  H   UNL A   1      32.429  25.947  21.646  1.00  0.00     0.170 HD
ATOM     16  O   UNL A   1      33.375  23.863  20.920  1.00  0.00    -0.269 OA
BRANCH  14  17
ATOM     17  C   UNL A   1      33.573  23.179  23.128  1.00  0.00     0.044 A 
ATOM     18  C   UNL A   1      32.590  22.271  23.530  1.00  0.00     0.053 A 
ATOM     19  C   UNL A   1      34.883  23.078  23.617  1.00  0.00     0.029 A 
ATOM     20  C   UNL A   1      32.951  21.208  24.349  1.00  0.00     0.125 A 
ATOM     21  C   UNL A   1      35.226  21.981  24.410  1.00  0.00     0.021 A 
ATOM     22  F   UNL A   1      32.029  20.299  24.690  1.00  0.00    -0.207 F 
ATOM     23  C   UNL A   1      34.266  21.038  24.772  1.00  0.00     0.055 A 
ATOM     24  Br  UNL A   1      37.033  21.705  24.892  1.00  0.00    -0.051 Br
ENDBRANCH  14  17
ENDBRANCH  12  13
ENDBRANCH   5   7
ENDBRANCH   2   3
ENDBRANCH   1   2
BRANCH   1  25
ATOM     25  C   UNL A   1      32.834  32.579  27.395  1.00  0.00     0.118 C 
BRANCH  25  26
ATOM     26  N   UNL A   1      32.490  33.977  27.638  1.00  0.00    -0.352 N 
ATOM     27  C   UNL A   1      33.007  34.864  28.552  1.00  0.00     0.251 C 
ATOM     28  H   UNL A   1      31.782  34.339  27.058  1.00  0.00     0.163 HD
ATOM     29  O   UNL A   1      32.478  35.959  28.721  1.00  0.00    -0.269 OA
BRANCH  27  30
ATOM     30  C   UNL A   1      34.184  34.480  29.357  1.00  0.00     0.039 A 
ATOM     31  C   UNL A   1      33.998  33.914  30.622  1.00  0.00     0.014 A 
ATOM     32  C   UNL A   1      35.471  34.640  28.843  1.00  0.00     0.014 A 
ATOM     33  C   UNL A   1      35.098  33.418  31.324  1.00  0.00     0.010 A 
ATOM     34  C   UNL A   1      36.545  34.045  29.486  1.00  0.00     0.010 A 
ATOM     35  C   UNL A   1      36.372  33.431  30.737  1.00  0.00    -0.014 A 
BRANCH  35  36
ATOM     36  C   UNL A   1      37.564  32.842  31.395  1.00  0.00     0.031 A 
ATOM     37  C   UNL A   1      38.278  31.698  30.730  1.00  0.00     0.074 A 
ATOM     38  C   UNL A   1      37.927  33.243  32.629  1.00  0.00     0.049 A 
ATOM     39  N   UNL A   1      39.185  30.890  31.214  1.00  0.00    -0.248 NA
ATOM     40  C   UNL A   1      37.878  31.397  29.346  1.00  0.00     0.031 C 
ATOM     41  C   UNL A   1      37.295  34.318  33.395  1.00  0.00     0.029 A 
ATOM     42  N   UNL A   1      38.905  32.769  33.467  1.00  0.00    -0.354 N 
ATOM     43  C   UNL A   1      39.427  29.959  30.212  1.00  0.00     0.074 A 
ATOM     44  C   UNL A   1      38.541  30.275  29.113  1.00  0.00     0.031 C 
ATOM     45  C   UNL A   1      37.916  34.436  34.581  1.00  0.00     0.029 A 
ATOM     46  C   UNL A   1      38.951  33.412  34.679  1.00  0.00     0.049 A 
ATOM     47  H   UNL A   1      39.516  32.037  33.222  1.00  0.00     0.167 HD
ATOM     48  C   UNL A   1      40.323  28.943  30.203  1.00  0.00     0.037 A 
ATOM     49  C   UNL A   1      39.730  33.187  35.755  1.00  0.00     0.037 A 
ATOM     50  C   UNL A   1      41.238  28.668  31.277  1.00  0.00     0.049 A 
ATOM     51  C   UNL A   1      40.729  32.065  35.714  1.00  0.00     0.074 A 
ATOM     52  C   UNL A   1      42.225  27.701  31.345  1.00  0.00     0.029 A 
ATOM     53  N   UNL A   1      41.284  29.374  32.470  1.00  0.00    -0.354 N 
ATOM     54  N   UNL A   1      40.972  31.207  34.754  1.00  0.00    -0.248 NA
ATOM     55  C   UNL A   1      41.564  31.879  36.910  1.00  0.00     0.031 C 
ATOM     56  C   UNL A   1      42.851  27.805  32.592  1.00  0.00     0.029 A 
ATOM     57  C   UNL A   1      42.279  28.862  33.284  1.00  0.00     0.049 A 
ATOM     58  H   UNL A   1      40.695  30.129  32.704  1.00  0.00     0.167 HD
ATOM     59  C   UNL A   1      42.004  30.401  35.213  1.00  0.00     0.074 A 
ATOM     60  C   UNL A   1      42.345  30.874  36.539  1.00  0.00     0.031 C 
ATOM     61  C   UNL A   1      42.617  29.365  34.591  1.00  0.00     0.037 A 
BRANCH  48  62
ATOM     62  C   UNL A   1      40.350  28.063  28.989  1.00  0.00     0.064 A 
ATOM     63  C   UNL A   1      41.101  28.402  27.852  1.00  0.00     0.173 A 
ATOM     64  C   UNL A   1      39.619  26.867  28.959  1.00  0.00     0.173 A 
ATOM     65  F   UNL A   1      41.804  29.544  27.823  1.00  0.00    -0.203 F 
ATOM     66  C   UNL A   1      41.087  27.594  26.717  1.00  0.00     0.198 A 
ATOM     67  C   UNL A   1      39.632  26.046  27.835  1.00  0.00     0.198 A 
ATOM     68  F   UNL A   1      38.887  26.495  30.021  1.00  0.00    -0.203 F 
ATOM     69  F   UNL A   1      41.761  27.971  25.622  1.00  0.00    -0.200 F 
ATOM     70  C   UNL A   1      40.357  26.416  26.711  1.00  0.00     0.200 A 
ATOM     71  F   UNL A   1      38.934  24.902  27.833  1.00  0.00    -0.200 F 
ATOM     72  F   UNL A   1      40.342  25.642  25.618  1.00  0.00    -0.200 F 
ENDBRANCH  48  62
BRANCH  49  73
ATOM     73  C   UNL A   1      39.616  34.066  36.946  1.00  0.00     0.064 A 
ATOM     74  C   UNL A   1      38.820  33.684  38.036  1.00  0.00     0.173 A 
ATOM     75  C   UNL A   1      40.300  35.286  37.030  1.00  0.00     0.173 A 
ATOM     76  F   UNL A   1      38.132  32.534  37.991  1.00  0.00    -0.203 F 
ATOM     77  C   UNL A   1      38.703  34.498  39.161  1.00  0.00     0.198 A 
ATOM     78  C   UNL A   1      40.200  36.088  38.166  1.00  0.00     0.198 A 
ATOM     79  F   UNL A   1      41.077  35.692  36.016  1.00  0.00    -0.203 F 
ATOM     80  F   UNL A   1      37.909  34.125  40.174  1.00  0.00    -0.200 F 
ATOM     81  C   UNL A   1      39.398  35.696  39.227  1.00  0.00     0.200 A 
ATOM     82  F   UNL A   1      40.882  37.239  38.232  1.00  0.00    -0.200 F 
ATOM     83  F   UNL A   1      39.290  36.475  40.312  1.00  0.00    -0.200 F 
ENDBRANCH  49  73
BRANCH  61  84
ATOM     84  C   UNL A   1      43.755  28.706  35.311  1.00  0.00     0.064 A 
ATOM     85  C   UNL A   1      43.547  27.644  36.201  1.00  0.00     0.173 A 
ATOM     86  C   UNL A   1      45.075  29.109  35.059  1.00  0.00     0.173 A 
ATOM     87  F   UNL A   1      42.300  27.235  36.484  1.00  0.00    -0.203 F 
ATOM     88  C   UNL A   1      44.620  27.017  36.826  1.00  0.00     0.198 A 
ATOM     89  C   UNL A   1      46.147  28.466  35.668  1.00  0.00     0.198 A 
ATOM     90  F   UNL A   1      45.323  30.118  34.211  1.00  0.00    -0.203 F 
ATOM     91  F   UNL A   1      44.400  26.026  37.700  1.00  0.00    -0.200 F 
ATOM     92  C   UNL A   1      45.919  27.423  36.554  1.00  0.00     0.200 A 
ATOM     93  F   UNL A   1      47.401  28.852  35.395  1.00  0.00    -0.200 F 
ATOM     94  F   UNL A   1      46.953  26.811  37.149  1.00  0.00    -0.200 F 
ENDBRANCH  61  84
ENDBRANCH  35  36
ENDBRANCH  27  30
ENDBRANCH  25  26
ENDBRANCH   1  25
TORSDOF 12
ENDMDL
