MODEL 1
REMARK VINA RESULT:     -11.6      0.000      0.000
REMARK SMILES C/C(C(=O)NCCCNC(=O)c1ccc(-c2c3nc(c(-c4c(F)c(F)c(F)c(F)c4F)c4ccc([nH]4)c(-c4c(F)c(F)c(F)c(F)c4F)c4nc(c(-c5c(F)c(F)c(F)c(F)c5F)c5ccc2[nH]5)C=C4)C=C3)cc1)=C(\C)C(=O)NCc1cscc1C
REMARK SMILES IDX 6 1 5 2 3 3 4 4 2 6 1 7 75 8 76 9 77 10 78 11 79 12 80 14
REMARK SMILES IDX 81 15 82 16 85 17 83 18 84 19 86 20 7 21 8 22 9 23 10 24
REMARK SMILES IDX 11 26 12 27 13 28 74 29 14 30 73 31 15 32 16 33 17 34 67 35
REMARK SMILES IDX 18 36 72 37 66 38 68 39 19 40 71 41 65 42 64 43 20 45 52 46
REMARK SMILES IDX 32 47 51 48 33 49 36 50 50 51 69 52 34 53 35 54 49 56 70 57
REMARK SMILES IDX 37 58 21 59 22 60 30 61 23 62 24 63 28 64 31 65 25 66 26 67
REMARK SMILES IDX 29 68 27 69 53 70 54 71 62 72 55 73 56 74 60 75 63 76 57 77
REMARK SMILES IDX 58 78 61 79 59 80 38 81 39 82 47 83 40 84 41 85 45 86 48 87
REMARK SMILES IDX 42 88 43 89 46 90 44 91
REMARK H PARENT 5 5 79 13 9 25 68 44 36 55
REMARK Flexibility Score: inf
ROOT
ATOM      1  C   UNL A   1      31.523  30.863  26.021  1.00  0.00     0.118 C 
ENDROOT
BRANCH   1   2
ATOM      2  N   UNL A   1      31.462  29.850  27.063  1.00  0.00    -0.352 N 
ATOM      3  C   UNL A   1      31.917  28.565  27.133  1.00  0.00     0.247 C 
ATOM      4  O   UNL A   1      31.420  27.822  27.979  1.00  0.00    -0.270 OA
ATOM      5  H   UNL A   1      31.004  30.151  27.880  1.00  0.00     0.163 HD
BRANCH   3   6
ATOM      6  C   UNL A   1      32.931  28.043  26.164  1.00  0.00     0.022 C 
ATOM      7  C   UNL A   1      34.377  28.275  26.497  1.00  0.00     0.051 C 
ATOM      8  C   UNL A   1      32.555  27.524  24.962  1.00  0.00     0.022 C 
ATOM      9  C   UNL A   1      33.590  27.025  23.998  1.00  0.00     0.051 C 
BRANCH   8  10
ATOM     10  C   UNL A   1      31.108  27.286  24.632  1.00  0.00     0.247 C 
ATOM     11  O   UNL A   1      30.440  28.172  24.097  1.00  0.00    -0.270 OA
ATOM     12  N   UNL A   1      30.447  26.144  24.957  1.00  0.00    -0.348 N 
ATOM     13  H   UNL A   1      29.574  26.082  24.509  1.00  0.00     0.164 HD
BRANCH  12  14
ATOM     14  C   UNL A   1      30.709  24.991  25.800  1.00  0.00     0.153 C 
BRANCH  14  15
ATOM     15  C   UNL A   1      31.514  24.019  24.969  1.00  0.00    -0.015 A 
ATOM     16  C   UNL A   1      31.038  23.394  23.828  1.00  0.00     0.070 A 
ATOM     17  C   UNL A   1      32.889  23.624  25.223  1.00  0.00    -0.035 A 
ATOM     18  S   UNL A   1      32.206  22.442  23.032  1.00  0.00    -0.152 S 
ATOM     19  C   UNL A   1      33.368  22.795  24.223  1.00  0.00     0.068 A 
ATOM     20  C   UNL A   1      33.730  24.043  26.385  1.00  0.00     0.045 C 
ENDBRANCH  14  15
ENDBRANCH  12  14
ENDBRANCH   8  10
ENDBRANCH   3   6
ENDBRANCH   1   2
BRANCH   1  21
ATOM     21  C   UNL A   1      31.357  32.264  26.622  1.00  0.00     0.042 C 
BRANCH  21  22
ATOM     22  C   UNL A   1      32.664  32.879  27.125  1.00  0.00     0.118 C 
BRANCH  22  23
ATOM     23  N   UNL A   1      32.472  34.227  27.637  1.00  0.00    -0.352 N 
ATOM     24  C   UNL A   1      33.058  34.859  28.705  1.00  0.00     0.251 C 
ATOM     25  H   UNL A   1      31.820  34.771  27.138  1.00  0.00     0.163 HD
ATOM     26  O   UNL A   1      32.591  35.921  29.108  1.00  0.00    -0.269 OA
BRANCH  24  27
ATOM     27  C   UNL A   1      34.238  34.278  29.389  1.00  0.00     0.039 A 
ATOM     28  C   UNL A   1      34.035  33.529  30.553  1.00  0.00     0.014 A 
ATOM     29  C   UNL A   1      35.539  34.518  28.938  1.00  0.00     0.014 A 
ATOM     30  C   UNL A   1      35.126  32.982  31.234  1.00  0.00     0.010 A 
ATOM     31  C   UNL A   1      36.623  33.919  29.582  1.00  0.00     0.010 A 
ATOM     32  C   UNL A   1      36.428  33.151  30.739  1.00  0.00    -0.014 A 
BRANCH  32  33
ATOM     33  C   UNL A   1      37.594  32.527  31.417  1.00  0.00     0.031 A 
ATOM     34  C   UNL A   1      38.321  31.375  30.780  1.00  0.00     0.074 A 
ATOM     35  C   UNL A   1      37.954  32.951  32.644  1.00  0.00     0.049 A 
ATOM     36  N   UNL A   1      39.310  30.657  31.249  1.00  0.00    -0.248 NA
ATOM     37  C   UNL A   1      37.856  30.959  29.449  1.00  0.00     0.031 C 
ATOM     38  C   UNL A   1      37.296  34.023  33.391  1.00  0.00     0.029 A 
ATOM     39  N   UNL A   1      38.948  32.519  33.486  1.00  0.00    -0.354 N 
ATOM     40  C   UNL A   1      39.570  29.692  30.284  1.00  0.00     0.074 A 
ATOM     41  C   UNL A   1      38.606  29.891  29.221  1.00  0.00     0.031 C 
ATOM     42  C   UNL A   1      37.910  34.174  34.574  1.00  0.00     0.029 A 
ATOM     43  C   UNL A   1      38.981  33.188  34.684  1.00  0.00     0.049 A 
ATOM     44  H   UNL A   1      39.578  31.800  33.252  1.00  0.00     0.167 HD
ATOM     45  C   UNL A   1      40.533  28.741  30.277  1.00  0.00     0.037 A 
ATOM     46  C   UNL A   1      39.778  33.020  35.757  1.00  0.00     0.037 A 
ATOM     47  C   UNL A   1      41.508  28.565  31.323  1.00  0.00     0.049 A 
ATOM     48  C   UNL A   1      40.851  31.969  35.720  1.00  0.00     0.074 A 
ATOM     49  C   UNL A   1      42.577  27.687  31.369  1.00  0.00     0.029 A 
ATOM     50  N   UNL A   1      41.527  29.281  32.511  1.00  0.00    -0.354 N 
ATOM     51  N   UNL A   1      41.139  31.115  34.768  1.00  0.00    -0.248 NA
ATOM     52  C   UNL A   1      41.716  31.862  36.903  1.00  0.00     0.031 C 
ATOM     53  C   UNL A   1      43.213  27.837  32.607  1.00  0.00     0.029 A 
ATOM     54  C   UNL A   1      42.572  28.843  33.312  1.00  0.00     0.049 A 
ATOM     55  H   UNL A   1      40.892  29.993  32.752  1.00  0.00     0.167 HD
ATOM     56  C   UNL A   1      42.224  30.382  35.226  1.00  0.00     0.074 A 
ATOM     57  C   UNL A   1      42.556  30.904  36.537  1.00  0.00     0.031 C 
ATOM     58  C   UNL A   1      42.886  29.368  34.617  1.00  0.00     0.037 A 
BRANCH  45  59
ATOM     59  C   UNL A   1      40.577  27.807  29.100  1.00  0.00     0.064 A 
ATOM     60  C   UNL A   1      41.427  28.034  28.007  1.00  0.00     0.173 A 
ATOM     61  C   UNL A   1      39.772  26.657  29.076  1.00  0.00     0.173 A 
ATOM     62  F   UNL A   1      42.211  29.122  27.978  1.00  0.00    -0.203 F 
ATOM     63  C   UNL A   1      41.442  27.167  26.917  1.00  0.00     0.198 A 
ATOM     64  C   UNL A   1      39.813  25.776  27.997  1.00  0.00     0.198 A 
ATOM     65  F   UNL A   1      38.947  26.386  30.098  1.00  0.00    -0.203 F 
ATOM     66  F   UNL A   1      42.222  27.435  25.861  1.00  0.00    -0.200 F 
ATOM     67  C   UNL A   1      40.640  26.037  26.916  1.00  0.00     0.200 A 
ATOM     68  F   UNL A   1      39.047  24.677  28.004  1.00  0.00    -0.200 F 
ATOM     69  F   UNL A   1      40.657  25.202  25.867  1.00  0.00    -0.200 F 
ENDBRANCH  45  59
BRANCH  46  70
ATOM     70  C   UNL A   1      39.599  33.893  36.945  1.00  0.00     0.064 A 
ATOM     71  C   UNL A   1      40.172  35.171  36.991  1.00  0.00     0.173 A 
ATOM     72  C   UNL A   1      38.827  33.482  38.041  1.00  0.00     0.173 A 
ATOM     73  F   UNL A   1      40.933  35.600  35.975  1.00  0.00    -0.203 F 
ATOM     74  C   UNL A   1      39.985  36.003  38.094  1.00  0.00     0.198 A 
ATOM     75  C   UNL A   1      38.621  34.324  39.132  1.00  0.00     0.198 A 
ATOM     76  F   UNL A   1      38.253  32.269  38.041  1.00  0.00    -0.203 F 
ATOM     77  F   UNL A   1      40.568  37.209  38.127  1.00  0.00    -0.200 F 
ATOM     78  C   UNL A   1      39.205  35.581  39.160  1.00  0.00     0.200 A 
ATOM     79  F   UNL A   1      37.853  33.919  40.152  1.00  0.00    -0.200 F 
ATOM     80  F   UNL A   1      39.014  36.387  40.213  1.00  0.00    -0.200 F 
ENDBRANCH  46  70
BRANCH  58  81
ATOM     81  C   UNL A   1      44.047  28.766  35.352  1.00  0.00     0.064 A 
ATOM     82  C   UNL A   1      43.877  27.687  36.233  1.00  0.00     0.173 A 
ATOM     83  C   UNL A   1      45.349  29.247  35.145  1.00  0.00     0.173 A 
ATOM     84  F   UNL A   1      42.651  27.201  36.477  1.00  0.00    -0.203 F 
ATOM     85  C   UNL A   1      44.967  27.127  36.896  1.00  0.00     0.198 A 
ATOM     86  C   UNL A   1      46.439  28.667  35.788  1.00  0.00     0.198 A 
ATOM     87  F   UNL A   1      45.565  30.274  34.309  1.00  0.00    -0.203 F 
ATOM     88  F   UNL A   1      44.776  26.126  37.766  1.00  0.00    -0.200 F 
ATOM     89  C   UNL A   1      46.246  27.613  36.668  1.00  0.00     0.200 A 
ATOM     90  F   UNL A   1      47.675  29.130  35.558  1.00  0.00    -0.200 F 
ATOM     91  F   UNL A   1      47.293  27.068  37.302  1.00  0.00    -0.200 F 
ENDBRANCH  58  81
ENDBRANCH  32  33
ENDBRANCH  24  27
ENDBRANCH  22  23
ENDBRANCH  21  22
ENDBRANCH   1  21
TORSDOF 13
ENDMDL
MODEL 2
REMARK VINA RESULT:     -11.5      0.139      1.989
REMARK SMILES C/C(C(=O)NCCCNC(=O)c1ccc(-c2c3nc(c(-c4c(F)c(F)c(F)c(F)c4F)c4ccc([nH]4)c(-c4c(F)c(F)c(F)c(F)c4F)c4nc(c(-c5c(F)c(F)c(F)c(F)c5F)c5ccc2[nH]5)C=C4)C=C3)cc1)=C(\C)C(=O)NCc1cscc1C
REMARK SMILES IDX 6 1 5 2 3 3 4 4 2 6 1 7 75 8 76 9 77 10 78 11 79 12 80 14
REMARK SMILES IDX 81 15 82 16 85 17 83 18 84 19 86 20 7 21 8 22 9 23 10 24
REMARK SMILES IDX 11 26 12 27 13 28 74 29 14 30 73 31 15 32 16 33 17 34 67 35
REMARK SMILES IDX 18 36 72 37 66 38 68 39 19 40 71 41 65 42 64 43 20 45 52 46
REMARK SMILES IDX 32 47 51 48 33 49 36 50 50 51 69 52 34 53 35 54 49 56 70 57
REMARK SMILES IDX 37 58 21 59 22 60 30 61 23 62 24 63 28 64 31 65 25 66 26 67
REMARK SMILES IDX 29 68 27 69 53 70 54 71 62 72 55 73 56 74 60 75 63 76 57 77
REMARK SMILES IDX 58 78 61 79 59 80 38 81 39 82 47 83 40 84 41 85 45 86 48 87
REMARK SMILES IDX 42 88 43 89 46 90 44 91
REMARK H PARENT 5 5 79 13 9 25 68 44 36 55
REMARK Flexibility Score: inf
ROOT
ATOM      1  C   UNL A   1      31.446  30.839  25.932  1.00  0.00     0.118 C 
ENDROOT
BRANCH   1   2
ATOM      2  N   UNL A   1      31.404  29.853  27.001  1.00  0.00    -0.352 N 
ATOM      3  C   UNL A   1      31.888  28.582  27.107  1.00  0.00     0.247 C 
ATOM      4  O   UNL A   1      31.405  27.850  27.972  1.00  0.00    -0.270 OA
ATOM      5  H   UNL A   1      30.936  30.166  27.808  1.00  0.00     0.163 HD
BRANCH   3   6
ATOM      6  C   UNL A   1      32.918  28.058  26.157  1.00  0.00     0.022 C 
ATOM      7  C   UNL A   1      34.358  28.311  26.501  1.00  0.00     0.051 C 
ATOM      8  C   UNL A   1      32.560  27.516  24.959  1.00  0.00     0.022 C 
ATOM      9  C   UNL A   1      33.611  27.015  24.014  1.00  0.00     0.051 C 
BRANCH   8  10
ATOM     10  C   UNL A   1      31.120  27.256  24.618  1.00  0.00     0.247 C 
ATOM     11  O   UNL A   1      30.449  28.123  24.056  1.00  0.00    -0.270 OA
ATOM     12  N   UNL A   1      30.466  26.115  24.962  1.00  0.00    -0.348 N 
ATOM     13  H   UNL A   1      29.599  26.034  24.505  1.00  0.00     0.164 HD
BRANCH  12  14
ATOM     14  C   UNL A   1      30.730  24.984  25.834  1.00  0.00     0.153 C 
BRANCH  14  15
ATOM     15  C   UNL A   1      31.521  23.985  25.022  1.00  0.00    -0.015 A 
ATOM     16  C   UNL A   1      31.028  23.327  23.908  1.00  0.00     0.070 A 
ATOM     17  C   UNL A   1      32.898  23.593  25.270  1.00  0.00    -0.035 A 
ATOM     18  S   UNL A   1      32.182  22.347  23.126  1.00  0.00    -0.152 S 
ATOM     19  C   UNL A   1      33.362  22.733  24.290  1.00  0.00     0.068 A 
ATOM     20  C   UNL A   1      33.756  24.045  26.407  1.00  0.00     0.045 C 
ENDBRANCH  14  15
ENDBRANCH  12  14
ENDBRANCH   8  10
ENDBRANCH   3   6
ENDBRANCH   1   2
BRANCH   1  21
ATOM     21  C   UNL A   1      31.311  32.257  26.501  1.00  0.00     0.042 C 
BRANCH  21  22
ATOM     22  C   UNL A   1      32.561  32.752  27.230  1.00  0.00     0.118 C 
BRANCH  22  23
ATOM     23  N   UNL A   1      32.446  34.147  27.626  1.00  0.00    -0.352 N 
ATOM     24  C   UNL A   1      33.087  34.840  28.623  1.00  0.00     0.251 C 
ATOM     25  H   UNL A   1      31.809  34.677  27.095  1.00  0.00     0.163 HD
ATOM     26  O   UNL A   1      32.681  35.954  28.940  1.00  0.00    -0.269 OA
BRANCH  24  27
ATOM     27  C   UNL A   1      34.254  34.262  29.331  1.00  0.00     0.039 A 
ATOM     28  C   UNL A   1      34.026  33.482  30.470  1.00  0.00     0.014 A 
ATOM     29  C   UNL A   1      35.565  34.534  28.929  1.00  0.00     0.014 A 
ATOM     30  C   UNL A   1      35.104  32.937  31.174  1.00  0.00     0.010 A 
ATOM     31  C   UNL A   1      36.638  33.938  29.594  1.00  0.00     0.010 A 
ATOM     32  C   UNL A   1      36.418  33.139  30.726  1.00  0.00    -0.014 A 
BRANCH  32  33
ATOM     33  C   UNL A   1      37.572  32.518  31.427  1.00  0.00     0.031 A 
ATOM     34  C   UNL A   1      38.306  31.359  30.811  1.00  0.00     0.074 A 
ATOM     35  C   UNL A   1      37.915  32.952  32.655  1.00  0.00     0.049 A 
ATOM     36  N   UNL A   1      39.286  30.642  31.302  1.00  0.00    -0.248 NA
ATOM     37  C   UNL A   1      37.859  30.931  29.478  1.00  0.00     0.031 C 
ATOM     38  C   UNL A   1      37.249  34.033  33.382  1.00  0.00     0.029 A 
ATOM     39  N   UNL A   1      38.896  32.526  33.516  1.00  0.00    -0.354 N 
ATOM     40  C   UNL A   1      39.557  29.668  30.350  1.00  0.00     0.074 A 
ATOM     41  C   UNL A   1      38.609  29.859  29.271  1.00  0.00     0.031 C 
ATOM     42  C   UNL A   1      37.846  34.194  34.573  1.00  0.00     0.029 A 
ATOM     43  C   UNL A   1      38.913  33.206  34.709  1.00  0.00     0.049 A 
ATOM     44  H   UNL A   1      39.527  31.803  33.298  1.00  0.00     0.167 HD
ATOM     45  C   UNL A   1      40.518  28.714  30.367  1.00  0.00     0.037 A 
ATOM     46  C   UNL A   1      39.693  33.046  35.794  1.00  0.00     0.037 A 
ATOM     47  C   UNL A   1      41.477  28.545  31.428  1.00  0.00     0.049 A 
ATOM     48  C   UNL A   1      40.763  31.992  35.783  1.00  0.00     0.074 A 
ATOM     49  C   UNL A   1      42.542  27.665  31.499  1.00  0.00     0.029 A 
ATOM     50  N   UNL A   1      41.480  29.272  32.610  1.00  0.00    -0.354 N 
ATOM     51  N   UNL A   1      41.063  31.128  34.844  1.00  0.00    -0.248 NA
ATOM     52  C   UNL A   1      41.610  31.893  36.980  1.00  0.00     0.031 C 
ATOM     53  C   UNL A   1      43.160  27.825  32.744  1.00  0.00     0.029 A 
ATOM     54  C   UNL A   1      42.512  28.839  33.430  1.00  0.00     0.049 A 
ATOM     55  H   UNL A   1      40.843  29.988  32.834  1.00  0.00     0.167 HD
ATOM     56  C   UNL A   1      42.139  30.397  35.325  1.00  0.00     0.074 A 
ATOM     57  C   UNL A   1      42.453  30.930  36.635  1.00  0.00     0.031 C 
ATOM     58  C   UNL A   1      42.808  29.376  34.735  1.00  0.00     0.037 A 
BRANCH  45  59
ATOM     59  C   UNL A   1      40.576  27.769  29.199  1.00  0.00     0.064 A 
ATOM     60  C   UNL A   1      39.753  26.635  29.124  1.00  0.00     0.173 A 
ATOM     61  C   UNL A   1      41.453  28.014  28.130  1.00  0.00     0.173 A 
ATOM     62  F   UNL A   1      38.903  26.351  30.121  1.00  0.00    -0.203 F 
ATOM     63  C   UNL A   1      39.832  25.762  28.042  1.00  0.00     0.198 A 
ATOM     64  C   UNL A   1      41.507  27.155  27.035  1.00  0.00     0.198 A 
ATOM     65  F   UNL A   1      42.256  29.089  28.146  1.00  0.00    -0.203 F 
ATOM     66  F   UNL A   1      39.075  24.656  28.019  1.00  0.00    -0.200 F 
ATOM     67  C   UNL A   1      40.704  26.025  26.996  1.00  0.00     0.200 A 
ATOM     68  F   UNL A   1      42.340  27.418  26.020  1.00  0.00    -0.200 F 
ATOM     69  F   UNL A   1      40.778  25.184  25.955  1.00  0.00    -0.200 F 
ENDBRANCH  45  59
BRANCH  46  70
ATOM     70  C   UNL A   1      39.499  33.931  36.971  1.00  0.00     0.064 A 
ATOM     71  C   UNL A   1      38.741  33.508  38.071  1.00  0.00     0.173 A 
ATOM     72  C   UNL A   1      40.092  35.201  37.033  1.00  0.00     0.173 A 
ATOM     73  F   UNL A   1      38.140  32.311  38.049  1.00  0.00    -0.203 F 
ATOM     74  C   UNL A   1      38.577  34.327  39.188  1.00  0.00     0.198 A 
ATOM     75  C   UNL A   1      39.947  36.007  38.160  1.00  0.00     0.198 A 
ATOM     76  F   UNL A   1      40.831  35.647  36.007  1.00  0.00    -0.203 F 
ATOM     77  F   UNL A   1      37.823  33.912  40.215  1.00  0.00    -0.200 F 
ATOM     78  C   UNL A   1      39.186  35.572  39.234  1.00  0.00     0.200 A 
ATOM     79  F   UNL A   1      40.550  37.203  38.207  1.00  0.00    -0.200 F 
ATOM     80  F   UNL A   1      39.039  36.352  40.313  1.00  0.00    -0.200 F 
ENDBRANCH  46  70
BRANCH  58  81
ATOM     81  C   UNL A   1      43.955  28.777  35.493  1.00  0.00     0.064 A 
ATOM     82  C   UNL A   1      45.267  29.245  35.327  1.00  0.00     0.173 A 
ATOM     83  C   UNL A   1      43.736  27.749  36.423  1.00  0.00     0.173 A 
ATOM     84  F   UNL A   1      45.532  30.214  34.439  1.00  0.00    -0.203 F 
ATOM     85  C   UNL A   1      46.321  28.690  36.050  1.00  0.00     0.198 A 
ATOM     86  C   UNL A   1      44.787  27.217  37.164  1.00  0.00     0.198 A 
ATOM     87  F   UNL A   1      42.499  27.270  36.621  1.00  0.00    -0.203 F 
ATOM     88  F   UNL A   1      47.573  29.122  35.845  1.00  0.00    -0.200 F 
ATOM     89  C   UNL A   1      46.079  27.682  36.973  1.00  0.00     0.200 A 
ATOM     90  F   UNL A   1      44.549  26.251  38.063  1.00  0.00    -0.200 F 
ATOM     91  F   UNL A   1      47.093  27.155  37.672  1.00  0.00    -0.200 F 
ENDBRANCH  58  81
ENDBRANCH  32  33
ENDBRANCH  24  27
ENDBRANCH  22  23
ENDBRANCH  21  22
ENDBRANCH   1  21
TORSDOF 13
ENDMDL
MODEL 3
REMARK VINA RESULT:     -11.5      6.064     11.320
REMARK SMILES C/C(C(=O)NCCCNC(=O)c1ccc(-c2c3nc(c(-c4c(F)c(F)c(F)c(F)c4F)c4ccc([nH]4)c(-c4c(F)c(F)c(F)c(F)c4F)c4nc(c(-c5c(F)c(F)c(F)c(F)c5F)c5ccc2[nH]5)C=C4)C=C3)cc1)=C(\C)C(=O)NCc1cscc1C
REMARK SMILES IDX 6 1 5 2 3 3 4 4 2 6 1 7 75 8 76 9 77 10 78 11 79 12 80 14
REMARK SMILES IDX 81 15 82 16 85 17 83 18 84 19 86 20 7 21 8 22 9 23 10 24
REMARK SMILES IDX 11 26 12 27 13 28 74 29 14 30 73 31 15 32 16 33 17 34 67 35
REMARK SMILES IDX 18 36 72 37 66 38 68 39 19 40 71 41 65 42 64 43 20 45 52 46
REMARK SMILES IDX 32 47 51 48 33 49 36 50 50 51 69 52 34 53 35 54 49 56 70 57
REMARK SMILES IDX 37 58 21 59 22 60 30 61 23 62 24 63 28 64 31 65 25 66 26 67
REMARK SMILES IDX 29 68 27 69 53 70 54 71 62 72 55 73 56 74 60 75 63 76 57 77
REMARK SMILES IDX 58 78 61 79 59 80 38 81 39 82 47 83 40 84 41 85 45 86 48 87
REMARK SMILES IDX 42 88 43 89 46 90 44 91
REMARK H PARENT 5 5 79 13 9 25 68 44 36 55
REMARK Flexibility Score: inf
ROOT
ATOM      1  C   UNL A   1      37.060  20.435  25.001  1.00  0.00     0.118 C 
ENDROOT
BRANCH   1   2
ATOM      2  N   UNL A   1      37.125  21.493  24.004  1.00  0.00    -0.352 N 
ATOM      3  C   UNL A   1      36.456  22.674  23.863  1.00  0.00     0.247 C 
ATOM      4  O   UNL A   1      36.443  23.201  22.751  1.00  0.00    -0.270 OA
ATOM      5  H   UNL A   1      37.783  21.324  23.292  1.00  0.00     0.163 HD
BRANCH   3   6
ATOM      6  C   UNL A   1      35.692  23.277  25.000  1.00  0.00     0.022 C 
ATOM      7  C   UNL A   1      36.480  24.054  26.016  1.00  0.00     0.051 C 
ATOM      8  C   UNL A   1      34.371  23.002  25.186  1.00  0.00     0.022 C 
ATOM      9  C   UNL A   1      33.631  23.602  26.344  1.00  0.00     0.051 C 
BRANCH   8  10
ATOM     10  C   UNL A   1      33.583  22.230  24.166  1.00  0.00     0.247 C 
ATOM     11  O   UNL A   1      33.486  21.005  24.252  1.00  0.00    -0.270 OA
ATOM     12  N   UNL A   1      33.006  22.806  23.078  1.00  0.00    -0.348 N 
ATOM     13  H   UNL A   1      32.383  22.196  22.624  1.00  0.00     0.164 HD
BRANCH  12  14
ATOM     14  C   UNL A   1      33.078  24.099  22.421  1.00  0.00     0.153 C 
BRANCH  14  15
ATOM     15  C   UNL A   1      32.111  25.008  23.143  1.00  0.00    -0.015 A 
ATOM     16  C   UNL A   1      30.736  24.845  23.130  1.00  0.00     0.070 A 
ATOM     17  C   UNL A   1      32.475  26.150  23.963  1.00  0.00    -0.035 A 
ATOM     18  S   UNL A   1      29.907  25.951  24.128  1.00  0.00    -0.152 S 
ATOM     19  C   UNL A   1      31.364  26.715  24.564  1.00  0.00     0.068 A 
ATOM     20  C   UNL A   1      33.857  26.679  24.182  1.00  0.00     0.045 C 
ENDBRANCH  14  15
ENDBRANCH  12  14
ENDBRANCH   8  10
ENDBRANCH   3   6
ENDBRANCH   1   2
BRANCH   1  21
ATOM     21  C   UNL A   1      38.334  19.581  24.964  1.00  0.00     0.042 C 
BRANCH  21  22
ATOM     22  C   UNL A   1      39.291  19.850  26.126  1.00  0.00     0.118 C 
BRANCH  22  23
ATOM     23  N   UNL A   1      40.447  18.968  26.096  1.00  0.00    -0.352 N 
ATOM     24  C   UNL A   1      41.788  19.265  26.101  1.00  0.00     0.251 C 
ATOM     25  H   UNL A   1      40.235  18.007  26.069  1.00  0.00     0.163 HD
ATOM     26  O   UNL A   1      42.602  18.384  25.843  1.00  0.00    -0.269 OA
BRANCH  24  27
ATOM     27  C   UNL A   1      42.269  20.634  26.404  1.00  0.00     0.039 A 
ATOM     28  C   UNL A   1      42.597  21.478  25.337  1.00  0.00     0.014 A 
ATOM     29  C   UNL A   1      42.465  21.070  27.717  1.00  0.00     0.014 A 
ATOM     30  C   UNL A   1      43.073  22.769  25.585  1.00  0.00     0.010 A 
ATOM     31  C   UNL A   1      42.879  22.380  27.965  1.00  0.00     0.010 A 
ATOM     32  C   UNL A   1      43.193  23.240  26.902  1.00  0.00    -0.014 A 
BRANCH  32  33
ATOM     33  C   UNL A   1      43.639  24.629  27.183  1.00  0.00     0.031 A 
ATOM     34  C   UNL A   1      42.666  25.655  27.694  1.00  0.00     0.074 A 
ATOM     35  C   UNL A   1      44.908  24.987  26.907  1.00  0.00     0.049 A 
ATOM     36  N   UNL A   1      42.852  26.931  27.927  1.00  0.00    -0.248 NA
ATOM     37  C   UNL A   1      41.295  25.191  27.951  1.00  0.00     0.031 C 
ATOM     38  C   UNL A   1      45.934  24.099  26.359  1.00  0.00     0.029 A 
ATOM     39  N   UNL A   1      45.547  26.196  27.033  1.00  0.00    -0.354 N 
ATOM     40  C   UNL A   1      41.620  27.425  28.335  1.00  0.00     0.074 A 
ATOM     41  C   UNL A   1      40.684  26.320  28.277  1.00  0.00     0.031 C 
ATOM     42  C   UNL A   1      47.075  24.788  26.206  1.00  0.00     0.029 A 
ATOM     43  C   UNL A   1      46.853  26.173  26.612  1.00  0.00     0.049 A 
ATOM     44  H   UNL A   1      45.110  27.001  27.392  1.00  0.00     0.167 HD
ATOM     45  C   UNL A   1      41.302  28.678  28.738  1.00  0.00     0.037 A 
ATOM     46  C   UNL A   1      47.768  27.159  26.549  1.00  0.00     0.037 A 
ATOM     47  C   UNL A   1      42.242  29.766  28.821  1.00  0.00     0.049 A 
ATOM     48  C   UNL A   1      47.398  28.538  27.016  1.00  0.00     0.074 A 
ATOM     49  C   UNL A   1      42.038  31.049  29.298  1.00  0.00     0.029 A 
ATOM     50  N   UNL A   1      43.566  29.698  28.411  1.00  0.00    -0.354 N 
ATOM     51  N   UNL A   1      46.251  28.974  27.476  1.00  0.00    -0.248 NA
ATOM     52  C   UNL A   1      48.452  29.561  26.963  1.00  0.00     0.031 C 
ATOM     53  C   UNL A   1      43.226  31.772  29.131  1.00  0.00     0.029 A 
ATOM     54  C   UNL A   1      44.184  30.926  28.597  1.00  0.00     0.049 A 
ATOM     55  H   UNL A   1      44.002  28.896  28.042  1.00  0.00     0.167 HD
ATOM     56  C   UNL A   1      46.446  30.313  27.783  1.00  0.00     0.074 A 
ATOM     57  C   UNL A   1      47.829  30.615  27.474  1.00  0.00     0.031 C 
ATOM     58  C   UNL A   1      45.560  31.212  28.277  1.00  0.00     0.037 A 
BRANCH  45  59
ATOM     59  C   UNL A   1      39.871  28.944  29.113  1.00  0.00     0.064 A 
ATOM     60  C   UNL A   1      39.412  28.790  30.431  1.00  0.00     0.173 A 
ATOM     61  C   UNL A   1      38.952  29.379  28.146  1.00  0.00     0.173 A 
ATOM     62  F   UNL A   1      40.248  28.370  31.392  1.00  0.00    -0.203 F 
ATOM     63  C   UNL A   1      38.079  29.025  30.758  1.00  0.00     0.198 A 
ATOM     64  C   UNL A   1      37.626  29.642  28.484  1.00  0.00     0.198 A 
ATOM     65  F   UNL A   1      39.339  29.551  26.873  1.00  0.00    -0.203 F 
ATOM     66  F   UNL A   1      37.652  28.819  32.011  1.00  0.00    -0.200 F 
ATOM     67  C   UNL A   1      37.189  29.456  29.786  1.00  0.00     0.200 A 
ATOM     68  F   UNL A   1      36.771  30.072  27.546  1.00  0.00    -0.200 F 
ATOM     69  F   UNL A   1      35.906  29.683  30.102  1.00  0.00    -0.200 F 
ENDBRANCH  45  59
BRANCH  46  70
ATOM     70  C   UNL A   1      49.133  26.859  26.045  1.00  0.00     0.064 A 
ATOM     71  C   UNL A   1      50.122  26.359  26.901  1.00  0.00     0.173 A 
ATOM     72  C   UNL A   1      49.464  27.036  24.693  1.00  0.00     0.173 A 
ATOM     73  F   UNL A   1      49.857  26.191  28.204  1.00  0.00    -0.203 F 
ATOM     74  C   UNL A   1      51.396  26.053  26.425  1.00  0.00     0.198 A 
ATOM     75  C   UNL A   1      50.731  26.707  24.215  1.00  0.00     0.198 A 
ATOM     76  F   UNL A   1      48.549  27.506  23.833  1.00  0.00    -0.203 F 
ATOM     77  F   UNL A   1      52.334  25.604  27.270  1.00  0.00    -0.200 F 
ATOM     78  C   UNL A   1      51.697  26.221  25.082  1.00  0.00     0.200 A 
ATOM     79  F   UNL A   1      51.012  26.855  22.913  1.00  0.00    -0.200 F 
ATOM     80  F   UNL A   1      52.918  25.914  24.623  1.00  0.00    -0.200 F 
ENDBRANCH  46  70
BRANCH  58  81
ATOM     81  C   UNL A   1      46.061  32.604  28.529  1.00  0.00     0.064 A 
ATOM     82  C   UNL A   1      46.656  32.960  29.749  1.00  0.00     0.173 A 
ATOM     83  C   UNL A   1      45.979  33.583  27.527  1.00  0.00     0.173 A 
ATOM     84  F   UNL A   1      46.743  32.065  30.744  1.00  0.00    -0.203 F 
ATOM     85  C   UNL A   1      47.132  34.251  29.962  1.00  0.00     0.198 A 
ATOM     86  C   UNL A   1      46.481  34.865  27.734  1.00  0.00     0.198 A 
ATOM     87  F   UNL A   1      45.423  33.292  26.341  1.00  0.00    -0.203 F 
ATOM     88  F   UNL A   1      47.657  34.582  31.150  1.00  0.00    -0.200 F 
ATOM     89  C   UNL A   1      47.050  35.200  28.953  1.00  0.00     0.200 A 
ATOM     90  F   UNL A   1      46.412  35.776  26.754  1.00  0.00    -0.200 F 
ATOM     91  F   UNL A   1      47.515  36.439  29.159  1.00  0.00    -0.200 F 
ENDBRANCH  58  81
ENDBRANCH  32  33
ENDBRANCH  24  27
ENDBRANCH  22  23
ENDBRANCH  21  22
ENDBRANCH   1  21
TORSDOF 13
ENDMDL
