MODEL 1
REMARK VINA RESULT:     -14.3      0.000      0.000
REMARK SMILES Cc1ccc(S(=O)(=O)N(C)c2cccc(C)c2C)cc1C(=O)NCCCNC(=O)c1ccc(-c2c3nc(c(-c4c(F)c(F)c(F)c(F)c4F)c4ccc([nH]4)c(-c4c(F)c(F)c(F)c(F)c4F)c4nc(c(-c5c(F)c(F)c(F)c(F)c5F)c5ccc2[nH]5)C=C4)C=C3)cc1
REMARK SMILES IDX 24 1 23 2 21 3 22 4 20 6 1 7 2 8 3 9 4 10 19 11 5 12 6 13
REMARK SMILES IDX 7 14 8 15 9 16 10 17 11 18 12 19 17 20 13 21 15 22 18 23
REMARK SMILES IDX 14 24 16 25 25 26 26 27 27 28 28 29 29 31 30 32 31 33 92 34
REMARK SMILES IDX 32 35 91 36 33 37 34 38 35 39 85 40 36 41 90 42 84 43 86 44
REMARK SMILES IDX 37 45 89 46 83 47 82 48 38 50 70 51 50 52 69 53 51 54 54 55
REMARK SMILES IDX 68 56 87 57 52 58 53 59 67 61 88 62 55 63 39 64 40 65 48 66
REMARK SMILES IDX 41 67 42 68 46 69 49 70 43 71 44 72 47 73 45 74 71 75 72 76
REMARK SMILES IDX 80 77 73 78 74 79 78 80 81 81 75 82 76 83 79 84 77 85 56 86
REMARK SMILES IDX 57 87 65 88 58 89 59 90 63 91 66 92 60 93 61 94 64 95 62 96
REMARK H PARENT 23 5 27 30 86 49 54 60
REMARK Flexibility Score: inf
ROOT
ATOM      1  C   UNL A   1      34.159  29.503  27.253  1.00  0.00     0.118 C 
ENDROOT
BRANCH   1   2
ATOM      2  N   UNL A   1      32.939  28.765  27.531  1.00  0.00    -0.352 N 
ATOM      3  C   UNL A   1      32.218  27.781  26.905  1.00  0.00     0.251 C 
ATOM      4  O   UNL A   1      31.166  27.488  27.487  1.00  0.00    -0.269 OA
ATOM      5  H   UNL A   1      32.528  29.041  28.382  1.00  0.00     0.163 HD
BRANCH   3   6
ATOM      6  C   UNL A   1      32.595  26.967  25.689  1.00  0.00     0.044 A 
ATOM      7  C   UNL A   1      33.240  28.766  23.921  1.00  0.00     0.045 C 
ATOM      8  C   UNL A   1      33.114  27.372  24.438  1.00  0.00    -0.038 A 
ATOM      9  C   UNL A   1      33.485  26.399  23.486  1.00  0.00     0.005 A 
ATOM     10  C   UNL A   1      33.241  25.054  23.696  1.00  0.00     0.022 A 
ATOM     11  C   UNL A   1      32.305  25.580  25.851  1.00  0.00     0.036 A 
ATOM     12  C   UNL A   1      32.617  24.642  24.869  1.00  0.00     0.088 A 
BRANCH  12  13
ATOM     13  S   UNL A   1      32.338  22.892  24.974  1.00  0.00     0.264 S 
ATOM     14  O   UNL A   1      30.971  22.758  25.452  1.00  0.00    -0.201 OA
ATOM     15  O   UNL A   1      32.716  22.387  23.669  1.00  0.00    -0.201 OA
BRANCH  13  16
ATOM     16  N   UNL A   1      33.370  22.172  26.147  1.00  0.00    -0.269 N 
ATOM     17  C   UNL A   1      33.096  22.528  27.564  1.00  0.00     0.164 C 
BRANCH  16  18
ATOM     18  C   UNL A   1      34.798  22.298  25.815  1.00  0.00     0.055 A 
ATOM     19  C   UNL A   1      35.511  23.457  26.176  1.00  0.00     0.027 A 
ATOM     20  C   UNL A   1      35.516  21.181  25.328  1.00  0.00    -0.024 A 
ATOM     21  C   UNL A   1      36.884  23.554  25.989  1.00  0.00     0.002 A 
ATOM     22  C   UNL A   1      36.927  21.268  25.187  1.00  0.00    -0.046 A 
ATOM     23  C   UNL A   1      34.790  19.898  25.008  1.00  0.00     0.047 C 
ATOM     24  C   UNL A   1      37.588  22.467  25.499  1.00  0.00     0.004 A 
ATOM     25  C   UNL A   1      37.765  20.107  24.719  1.00  0.00     0.044 C 
ENDBRANCH  16  18
ENDBRANCH  13  16
ENDBRANCH  12  13
ENDBRANCH   3   6
ENDBRANCH   1   2
BRANCH   1  26
ATOM     26  C   UNL A   1      34.011  30.959  27.693  1.00  0.00     0.042 C 
BRANCH  26  27
ATOM     27  C   UNL A   1      35.298  31.744  27.844  1.00  0.00     0.118 C 
BRANCH  27  28
ATOM     28  N   UNL A   1      35.656  31.999  29.241  1.00  0.00    -0.352 N 
ATOM     29  C   UNL A   1      36.368  31.189  30.110  1.00  0.00     0.251 C 
ATOM     30  H   UNL A   1      35.350  32.859  29.611  1.00  0.00     0.163 HD
ATOM     31  O   UNL A   1      36.629  31.546  31.251  1.00  0.00    -0.269 OA
BRANCH  29  32
ATOM     32  C   UNL A   1      36.934  29.940  29.561  1.00  0.00     0.039 A 
ATOM     33  C   UNL A   1      37.293  28.967  30.496  1.00  0.00     0.014 A 
ATOM     34  C   UNL A   1      37.493  29.962  28.287  1.00  0.00     0.014 A 
ATOM     35  C   UNL A   1      38.439  28.216  30.268  1.00  0.00     0.010 A 
ATOM     36  C   UNL A   1      38.692  29.302  28.109  1.00  0.00     0.010 A 
ATOM     37  C   UNL A   1      39.201  28.495  29.135  1.00  0.00    -0.014 A 
BRANCH  37  38
ATOM     38  C   UNL A   1      40.554  27.990  28.954  1.00  0.00     0.031 A 
ATOM     39  C   UNL A   1      40.728  26.571  28.599  1.00  0.00     0.074 A 
ATOM     40  C   UNL A   1      41.636  28.786  29.103  1.00  0.00     0.049 A 
ATOM     41  N   UNL A   1      41.780  25.880  28.875  1.00  0.00    -0.248 NA
ATOM     42  C   UNL A   1      39.679  25.798  27.952  1.00  0.00     0.031 C 
ATOM     43  C   UNL A   1      43.019  28.459  28.761  1.00  0.00     0.029 A 
ATOM     44  N   UNL A   1      41.731  30.009  29.788  1.00  0.00    -0.354 N 
ATOM     45  C   UNL A   1      41.664  24.669  28.236  1.00  0.00     0.074 A 
ATOM     46  C   UNL A   1      40.310  24.642  27.733  1.00  0.00     0.031 C 
ATOM     47  C   UNL A   1      43.841  29.245  29.473  1.00  0.00     0.029 A 
ATOM     48  C   UNL A   1      43.023  30.022  30.380  1.00  0.00     0.049 A 
ATOM     49  H   UNL A   1      41.044  30.712  29.845  1.00  0.00     0.167 HD
ATOM     50  C   UNL A   1      42.771  23.882  28.111  1.00  0.00     0.037 A 
ATOM     51  C   UNL A   1      43.175  30.085  31.737  1.00  0.00     0.037 A 
ATOM     52  C   UNL A   1      43.919  24.466  28.811  1.00  0.00     0.049 A 
ATOM     53  C   UNL A   1      43.809  28.855  32.347  1.00  0.00     0.074 A 
ATOM     54  C   UNL A   1      45.010  25.225  28.415  1.00  0.00     0.029 A 
ATOM     55  N   UNL A   1      43.875  24.565  30.191  1.00  0.00    -0.354 N 
ATOM     56  N   UNL A   1      44.229  27.824  31.669  1.00  0.00    -0.248 NA
ATOM     57  C   UNL A   1      43.900  28.648  33.792  1.00  0.00     0.031 C 
ATOM     58  C   UNL A   1      45.621  25.773  29.581  1.00  0.00     0.029 A 
ATOM     59  C   UNL A   1      44.910  25.338  30.685  1.00  0.00     0.049 A 
ATOM     60  H   UNL A   1      43.190  24.136  30.753  1.00  0.00     0.167 HD
ATOM     61  C   UNL A   1      44.571  26.819  32.536  1.00  0.00     0.074 A 
ATOM     62  C   UNL A   1      44.335  27.381  33.854  1.00  0.00     0.031 C 
ATOM     63  C   UNL A   1      44.979  25.584  32.118  1.00  0.00     0.037 A 
BRANCH  50  64
ATOM     64  C   UNL A   1      42.878  22.720  27.147  1.00  0.00     0.064 A 
ATOM     65  C   UNL A   1      42.127  21.543  27.357  1.00  0.00     0.173 A 
ATOM     66  C   UNL A   1      43.740  22.669  26.033  1.00  0.00     0.173 A 
ATOM     67  F   UNL A   1      41.176  21.479  28.296  1.00  0.00    -0.203 F 
ATOM     68  C   UNL A   1      42.326  20.381  26.606  1.00  0.00     0.198 A 
ATOM     69  C   UNL A   1      43.987  21.490  25.323  1.00  0.00     0.198 A 
ATOM     70  F   UNL A   1      44.316  23.773  25.544  1.00  0.00    -0.203 F 
ATOM     71  F   UNL A   1      41.586  19.292  26.859  1.00  0.00    -0.200 F 
ATOM     72  C   UNL A   1      43.288  20.339  25.619  1.00  0.00     0.200 A 
ATOM     73  F   UNL A   1      44.903  21.484  24.345  1.00  0.00    -0.200 F 
ATOM     74  F   UNL A   1      43.517  19.211  24.934  1.00  0.00    -0.200 F 
ENDBRANCH  50  64
BRANCH  51  75
ATOM     75  C   UNL A   1      42.113  30.915  32.366  1.00  0.00     0.064 A 
ATOM     76  C   UNL A   1      42.199  32.309  32.175  1.00  0.00     0.173 A 
ATOM     77  C   UNL A   1      40.858  30.370  32.654  1.00  0.00     0.173 A 
ATOM     78  F   UNL A   1      43.391  32.881  31.938  1.00  0.00    -0.203 F 
ATOM     79  C   UNL A   1      41.050  33.077  32.030  1.00  0.00     0.198 A 
ATOM     80  C   UNL A   1      39.713  31.157  32.559  1.00  0.00     0.198 A 
ATOM     81  F   UNL A   1      40.720  29.055  32.874  1.00  0.00    -0.203 F 
ATOM     82  F   UNL A   1      41.147  34.355  31.635  1.00  0.00    -0.200 F 
ATOM     83  C   UNL A   1      39.806  32.488  32.176  1.00  0.00     0.200 A 
ATOM     84  F   UNL A   1      38.509  30.595  32.732  1.00  0.00    -0.200 F 
ATOM     85  F   UNL A   1      38.699  33.187  31.892  1.00  0.00    -0.200 F 
ENDBRANCH  51  75
BRANCH  63  86
ATOM     86  C   UNL A   1      45.439  24.498  33.059  1.00  0.00     0.064 A 
ATOM     87  C   UNL A   1      44.596  23.454  33.477  1.00  0.00     0.173 A 
ATOM     88  C   UNL A   1      46.719  24.518  33.655  1.00  0.00     0.173 A 
ATOM     89  F   UNL A   1      43.311  23.406  33.094  1.00  0.00    -0.203 F 
ATOM     90  C   UNL A   1      45.040  22.438  34.326  1.00  0.00     0.198 A 
ATOM     91  C   UNL A   1      47.142  23.536  34.549  1.00  0.00     0.198 A 
ATOM     92  F   UNL A   1      47.614  25.477  33.379  1.00  0.00    -0.203 F 
ATOM     93  F   UNL A   1      44.224  21.416  34.623  1.00  0.00    -0.200 F 
ATOM     94  C   UNL A   1      46.313  22.478  34.862  1.00  0.00     0.200 A 
ATOM     95  F   UNL A   1      48.362  23.618  35.097  1.00  0.00    -0.200 F 
ATOM     96  F   UNL A   1      46.737  21.509  35.683  1.00  0.00    -0.200 F 
ENDBRANCH  63  86
ENDBRANCH  37  38
ENDBRANCH  29  32
ENDBRANCH  27  28
ENDBRANCH  26  27
ENDBRANCH   1  26
TORSDOF 13
ENDMDL
MODEL 2
REMARK VINA RESULT:     -14.2      1.209      2.067
REMARK SMILES Cc1ccc(S(=O)(=O)N(C)c2cccc(C)c2C)cc1C(=O)NCCCNC(=O)c1ccc(-c2c3nc(c(-c4c(F)c(F)c(F)c(F)c4F)c4ccc([nH]4)c(-c4c(F)c(F)c(F)c(F)c4F)c4nc(c(-c5c(F)c(F)c(F)c(F)c5F)c5ccc2[nH]5)C=C4)C=C3)cc1
REMARK SMILES IDX 24 1 23 2 21 3 22 4 20 6 1 7 2 8 3 9 4 10 19 11 5 12 6 13
REMARK SMILES IDX 7 14 8 15 9 16 10 17 11 18 12 19 17 20 13 21 15 22 18 23
REMARK SMILES IDX 14 24 16 25 25 26 26 27 27 28 28 29 29 31 30 32 31 33 92 34
REMARK SMILES IDX 32 35 91 36 33 37 34 38 35 39 85 40 36 41 90 42 84 43 86 44
REMARK SMILES IDX 37 45 89 46 83 47 82 48 38 50 70 51 50 52 69 53 51 54 54 55
REMARK SMILES IDX 68 56 87 57 52 58 53 59 67 61 88 62 55 63 39 64 40 65 48 66
REMARK SMILES IDX 41 67 42 68 46 69 49 70 43 71 44 72 47 73 45 74 71 75 72 76
REMARK SMILES IDX 80 77 73 78 74 79 78 80 81 81 75 82 76 83 79 84 77 85 56 86
REMARK SMILES IDX 57 87 65 88 58 89 59 90 63 91 66 92 60 93 61 94 64 95 62 96
REMARK H PARENT 23 5 27 30 86 49 54 60
REMARK Flexibility Score: inf
ROOT
ATOM      1  C   UNL A   1      33.090  29.815  26.052  1.00  0.00     0.118 C 
ENDROOT
BRANCH   1   2
ATOM      2  N   UNL A   1      33.655  29.608  24.730  1.00  0.00    -0.352 N 
ATOM      3  C   UNL A   1      33.509  28.680  23.731  1.00  0.00     0.251 C 
ATOM      4  O   UNL A   1      34.267  28.862  22.769  1.00  0.00    -0.269 OA
ATOM      5  H   UNL A   1      34.304  30.309  24.493  1.00  0.00     0.163 HD
BRANCH   3   6
ATOM      6  C   UNL A   1      32.497  27.564  23.622  1.00  0.00     0.044 A 
ATOM      7  C   UNL A   1      30.208  28.790  23.816  1.00  0.00     0.045 C 
ATOM      8  C   UNL A   1      31.085  27.607  23.571  1.00  0.00    -0.038 A 
ATOM      9  C   UNL A   1      30.355  26.418  23.363  1.00  0.00     0.005 A 
ATOM     10  C   UNL A   1      30.979  25.185  23.329  1.00  0.00     0.022 A 
ATOM     11  C   UNL A   1      33.105  26.274  23.638  1.00  0.00     0.036 A 
ATOM     12  C   UNL A   1      32.358  25.105  23.501  1.00  0.00     0.088 A 
BRANCH  12  13
ATOM     13  S   UNL A   1      33.006  23.453  23.471  1.00  0.00     0.264 S 
ATOM     14  O   UNL A   1      31.858  22.605  23.194  1.00  0.00    -0.201 OA
ATOM     15  O   UNL A   1      34.116  23.518  22.540  1.00  0.00    -0.201 OA
BRANCH  13  16
ATOM     16  N   UNL A   1      33.624  23.003  25.012  1.00  0.00    -0.269 N 
ATOM     17  C   UNL A   1      33.202  23.851  26.157  1.00  0.00     0.164 C 
BRANCH  16  18
ATOM     18  C   UNL A   1      35.077  22.771  25.006  1.00  0.00     0.055 A 
ATOM     19  C   UNL A   1      35.964  23.819  25.314  1.00  0.00     0.027 A 
ATOM     20  C   UNL A   1      35.586  21.455  24.902  1.00  0.00    -0.024 A 
ATOM     21  C   UNL A   1      37.331  23.602  25.439  1.00  0.00     0.002 A 
ATOM     22  C   UNL A   1      36.977  21.232  25.082  1.00  0.00    -0.046 A 
ATOM     23  C   UNL A   1      34.649  20.301  24.651  1.00  0.00     0.047 C 
ATOM     24  C   UNL A   1      37.834  22.317  25.325  1.00  0.00     0.004 A 
ATOM     25  C   UNL A   1      37.587  19.855  25.033  1.00  0.00     0.044 C 
ENDBRANCH  16  18
ENDBRANCH  13  16
ENDBRANCH  12  13
ENDBRANCH   3   6
ENDBRANCH   1   2
BRANCH   1  26
ATOM     26  C   UNL A   1      33.944  30.803  26.846  1.00  0.00     0.042 C 
BRANCH  26  27
ATOM     27  C   UNL A   1      34.054  30.544  28.335  1.00  0.00     0.118 C 
BRANCH  27  28
ATOM     28  N   UNL A   1      34.991  31.446  29.008  1.00  0.00    -0.352 N 
ATOM     29  C   UNL A   1      36.294  31.195  29.404  1.00  0.00     0.251 C 
ATOM     30  H   UNL A   1      34.651  32.349  29.204  1.00  0.00     0.163 HD
ATOM     31  O   UNL A   1      36.983  32.060  29.929  1.00  0.00    -0.269 OA
BRANCH  29  32
ATOM     32  C   UNL A   1      36.875  29.888  29.033  1.00  0.00     0.039 A 
ATOM     33  C   UNL A   1      37.274  29.072  30.093  1.00  0.00     0.014 A 
ATOM     34  C   UNL A   1      37.407  29.731  27.757  1.00  0.00     0.014 A 
ATOM     35  C   UNL A   1      38.431  28.316  29.953  1.00  0.00     0.010 A 
ATOM     36  C   UNL A   1      38.616  29.074  27.651  1.00  0.00     0.010 A 
ATOM     37  C   UNL A   1      39.164  28.437  28.773  1.00  0.00    -0.014 A 
BRANCH  37  38
ATOM     38  C   UNL A   1      40.523  27.936  28.637  1.00  0.00     0.031 A 
ATOM     39  C   UNL A   1      40.713  26.506  28.339  1.00  0.00     0.074 A 
ATOM     40  C   UNL A   1      41.597  28.744  28.777  1.00  0.00     0.049 A 
ATOM     41  N   UNL A   1      41.763  25.833  28.661  1.00  0.00    -0.248 NA
ATOM     42  C   UNL A   1      39.681  25.702  27.700  1.00  0.00     0.031 C 
ATOM     43  C   UNL A   1      42.988  28.415  28.475  1.00  0.00     0.029 A 
ATOM     44  N   UNL A   1      41.671  29.993  29.418  1.00  0.00    -0.354 N 
ATOM     45  C   UNL A   1      41.668  24.598  28.065  1.00  0.00     0.074 A 
ATOM     46  C   UNL A   1      40.324  24.544  27.537  1.00  0.00     0.031 C 
ATOM     47  C   UNL A   1      43.792  29.232  29.173  1.00  0.00     0.029 A 
ATOM     48  C   UNL A   1      42.950  30.036  30.035  1.00  0.00     0.049 A 
ATOM     49  H   UNL A   1      40.978  30.692  29.435  1.00  0.00     0.167 HD
ATOM     50  C   UNL A   1      42.782  23.815  27.990  1.00  0.00     0.037 A 
ATOM     51  C   UNL A   1      43.076  30.150  31.390  1.00  0.00     0.037 A 
ATOM     52  C   UNL A   1      43.912  24.433  28.691  1.00  0.00     0.049 A 
ATOM     53  C   UNL A   1      43.705  28.949  32.058  1.00  0.00     0.074 A 
ATOM     54  C   UNL A   1      45.006  25.184  28.287  1.00  0.00     0.029 A 
ATOM     55  N   UNL A   1      43.840  24.582  30.064  1.00  0.00    -0.354 N 
ATOM     56  N   UNL A   1      44.145  27.896  31.427  1.00  0.00    -0.248 NA
ATOM     57  C   UNL A   1      43.769  28.796  33.511  1.00  0.00     0.031 C 
ATOM     58  C   UNL A   1      45.590  25.779  29.444  1.00  0.00     0.029 A 
ATOM     59  C   UNL A   1      44.861  25.381  30.550  1.00  0.00     0.049 A 
ATOM     60  H   UNL A   1      43.147  24.170  30.629  1.00  0.00     0.167 HD
ATOM     61  C   UNL A   1      44.476  26.926  32.337  1.00  0.00     0.074 A 
ATOM     62  C   UNL A   1      44.211  27.535  33.629  1.00  0.00     0.031 C 
ATOM     63  C   UNL A   1      44.900  25.679  31.973  1.00  0.00     0.037 A 
BRANCH  50  64
ATOM     64  C   UNL A   1      42.915  22.619  27.072  1.00  0.00     0.064 A 
ATOM     65  C   UNL A   1      42.169  21.445  27.312  1.00  0.00     0.173 A 
ATOM     66  C   UNL A   1      43.798  22.534  25.977  1.00  0.00     0.173 A 
ATOM     67  F   UNL A   1      41.201  21.408  28.236  1.00  0.00    -0.203 F 
ATOM     68  C   UNL A   1      42.390  20.257  26.609  1.00  0.00     0.198 A 
ATOM     69  C   UNL A   1      44.067  21.331  25.316  1.00  0.00     0.198 A 
ATOM     70  F   UNL A   1      44.375  23.623  25.458  1.00  0.00    -0.203 F 
ATOM     71  F   UNL A   1      41.653  19.172  26.889  1.00  0.00    -0.200 F 
ATOM     72  C   UNL A   1      43.371  20.186  25.642  1.00  0.00     0.200 A 
ATOM     73  F   UNL A   1      45.001  21.296  24.356  1.00  0.00    -0.200 F 
ATOM     74  F   UNL A   1      43.621  19.036  25.004  1.00  0.00    -0.200 F 
ENDBRANCH  50  64
BRANCH  51  75
ATOM     75  C   UNL A   1      41.996  30.996  31.968  1.00  0.00     0.064 A 
ATOM     76  C   UNL A   1      40.940  30.322  32.616  1.00  0.00     0.173 A 
ATOM     77  C   UNL A   1      42.245  32.323  32.329  1.00  0.00     0.173 A 
ATOM     78  F   UNL A   1      40.638  29.060  32.272  1.00  0.00    -0.203 F 
ATOM     79  C   UNL A   1      40.334  30.870  33.740  1.00  0.00     0.198 A 
ATOM     80  C   UNL A   1      41.595  32.886  33.425  1.00  0.00     0.198 A 
ATOM     81  F   UNL A   1      43.217  33.023  31.726  1.00  0.00    -0.203 F 
ATOM     82  F   UNL A   1      39.488  30.129  34.470  1.00  0.00    -0.200 F 
ATOM     83  C   UNL A   1      40.698  32.134  34.171  1.00  0.00     0.200 A 
ATOM     84  F   UNL A   1      41.923  34.122  33.824  1.00  0.00    -0.200 F 
ATOM     85  F   UNL A   1      40.227  32.604  35.334  1.00  0.00    -0.200 F 
ENDBRANCH  51  75
BRANCH  63  86
ATOM     86  C   UNL A   1      45.348  24.633  32.963  1.00  0.00     0.064 A 
ATOM     87  C   UNL A   1      46.632  24.635  33.536  1.00  0.00     0.173 A 
ATOM     88  C   UNL A   1      44.535  23.530  33.305  1.00  0.00     0.173 A 
ATOM     89  F   UNL A   1      47.547  25.549  33.180  1.00  0.00    -0.203 F 
ATOM     90  C   UNL A   1      47.026  23.678  34.474  1.00  0.00     0.198 A 
ATOM     91  C   UNL A   1      44.952  22.542  34.195  1.00  0.00     0.198 A 
ATOM     92  F   UNL A   1      43.301  23.378  32.803  1.00  0.00    -0.203 F 
ATOM     93  F   UNL A   1      48.230  23.776  35.056  1.00  0.00    -0.200 F 
ATOM     94  C   UNL A   1      46.187  22.631  34.804  1.00  0.00     0.200 A 
ATOM     95  F   UNL A   1      44.143  21.508  34.466  1.00  0.00    -0.200 F 
ATOM     96  F   UNL A   1      46.568  21.709  35.696  1.00  0.00    -0.200 F 
ENDBRANCH  63  86
ENDBRANCH  37  38
ENDBRANCH  29  32
ENDBRANCH  27  28
ENDBRANCH  26  27
ENDBRANCH   1  26
TORSDOF 13
ENDMDL
MODEL 3
REMARK VINA RESULT:     -14.1      3.871     10.011
REMARK SMILES Cc1ccc(S(=O)(=O)N(C)c2cccc(C)c2C)cc1C(=O)NCCCNC(=O)c1ccc(-c2c3nc(c(-c4c(F)c(F)c(F)c(F)c4F)c4ccc([nH]4)c(-c4c(F)c(F)c(F)c(F)c4F)c4nc(c(-c5c(F)c(F)c(F)c(F)c5F)c5ccc2[nH]5)C=C4)C=C3)cc1
REMARK SMILES IDX 24 1 23 2 21 3 22 4 20 6 1 7 2 8 3 9 4 10 19 11 5 12 6 13
REMARK SMILES IDX 7 14 8 15 9 16 10 17 11 18 12 19 17 20 13 21 15 22 18 23
REMARK SMILES IDX 14 24 16 25 25 26 26 27 27 28 28 29 29 31 30 32 31 33 92 34
REMARK SMILES IDX 32 35 91 36 33 37 34 38 35 39 85 40 36 41 90 42 84 43 86 44
REMARK SMILES IDX 37 45 89 46 83 47 82 48 38 50 70 51 50 52 69 53 51 54 54 55
REMARK SMILES IDX 68 56 87 57 52 58 53 59 67 61 88 62 55 63 39 64 40 65 48 66
REMARK SMILES IDX 41 67 42 68 46 69 49 70 43 71 44 72 47 73 45 74 71 75 72 76
REMARK SMILES IDX 80 77 73 78 74 79 78 80 81 81 75 82 76 83 79 84 77 85 56 86
REMARK SMILES IDX 57 87 65 88 58 89 59 90 63 91 66 92 60 93 61 94 64 95 62 96
REMARK H PARENT 23 5 27 30 86 49 54 60
REMARK Flexibility Score: inf
ROOT
ATOM      1  C   UNL A   1      37.860  23.288  25.817  1.00  0.00     0.118 C 
ENDROOT
BRANCH   1   2
ATOM      2  N   UNL A   1      37.285  23.158  24.490  1.00  0.00    -0.352 N 
ATOM      3  C   UNL A   1      36.021  23.186  23.957  1.00  0.00     0.251 C 
ATOM      4  O   UNL A   1      35.989  22.953  22.741  1.00  0.00    -0.269 OA
ATOM      5  H   UNL A   1      37.974  23.013  23.802  1.00  0.00     0.163 HD
BRANCH   3   6
ATOM      6  C   UNL A   1      34.722  23.558  24.632  1.00  0.00     0.044 A 
ATOM      7  C   UNL A   1      34.653  22.011  26.724  1.00  0.00     0.045 C 
ATOM      8  C   UNL A   1      34.168  23.125  25.858  1.00  0.00    -0.038 A 
ATOM      9  C   UNL A   1      32.970  23.703  26.328  1.00  0.00     0.005 A 
ATOM     10  C   UNL A   1      32.253  24.602  25.560  1.00  0.00     0.022 A 
ATOM     11  C   UNL A   1      33.931  24.443  23.841  1.00  0.00     0.036 A 
ATOM     12  C   UNL A   1      32.715  24.950  24.295  1.00  0.00     0.088 A 
BRANCH  12  13
ATOM     13  S   UNL A   1      31.666  26.082  23.417  1.00  0.00     0.264 S 
ATOM     14  O   UNL A   1      31.530  25.512  22.087  1.00  0.00    -0.201 OA
ATOM     15  O   UNL A   1      30.508  26.239  24.274  1.00  0.00    -0.201 OA
BRANCH  13  16
ATOM     16  N   UNL A   1      32.421  27.619  23.248  1.00  0.00    -0.269 N 
ATOM     17  C   UNL A   1      33.624  27.663  22.377  1.00  0.00     0.164 C 
BRANCH  16  18
ATOM     18  C   UNL A   1      32.650  28.294  24.536  1.00  0.00     0.055 A 
ATOM     19  C   UNL A   1      33.796  28.001  25.297  1.00  0.00     0.027 A 
ATOM     20  C   UNL A   1      31.841  29.391  24.915  1.00  0.00    -0.024 A 
ATOM     21  C   UNL A   1      34.104  28.710  26.452  1.00  0.00     0.002 A 
ATOM     22  C   UNL A   1      32.188  30.144  26.069  1.00  0.00    -0.046 A 
ATOM     23  C   UNL A   1      30.650  29.778  24.075  1.00  0.00     0.047 C 
ATOM     24  C   UNL A   1      33.305  29.775  26.834  1.00  0.00     0.004 A 
ATOM     25  C   UNL A   1      31.404  31.352  26.510  1.00  0.00     0.044 C 
ENDBRANCH  16  18
ENDBRANCH  13  16
ENDBRANCH  12  13
ENDBRANCH   3   6
ENDBRANCH   1   2
BRANCH   1  26
ATOM     26  C   UNL A   1      39.051  22.343  25.975  1.00  0.00     0.042 C 
BRANCH  26  27
ATOM     27  C   UNL A   1      39.981  22.630  27.136  1.00  0.00     0.118 C 
BRANCH  27  28
ATOM     28  N   UNL A   1      41.273  23.178  26.716  1.00  0.00    -0.352 N 
ATOM     29  C   UNL A   1      41.618  24.503  26.505  1.00  0.00     0.251 C 
ATOM     30  H   UNL A   1      41.988  22.519  26.564  1.00  0.00     0.163 HD
ATOM     31  O   UNL A   1      42.756  24.825  26.188  1.00  0.00    -0.269 OA
BRANCH  29  32
ATOM     32  C   UNL A   1      40.603  25.527  26.824  1.00  0.00     0.039 A 
ATOM     33  C   UNL A   1      40.779  26.773  26.220  1.00  0.00     0.014 A 
ATOM     34  C   UNL A   1      39.852  25.385  27.987  1.00  0.00     0.014 A 
ATOM     35  C   UNL A   1      40.476  27.915  26.950  1.00  0.00     0.010 A 
ATOM     36  C   UNL A   1      39.657  26.512  28.757  1.00  0.00     0.010 A 
ATOM     37  C   UNL A   1      40.046  27.767  28.268  1.00  0.00    -0.014 A 
BRANCH  37  38
ATOM     38  C   UNL A   1      39.989  28.877  29.206  1.00  0.00     0.031 A 
ATOM     39  C   UNL A   1      38.941  29.896  29.021  1.00  0.00     0.074 A 
ATOM     40  C   UNL A   1      40.866  28.990  30.229  1.00  0.00     0.049 A 
ATOM     41  N   UNL A   1      39.043  31.118  29.414  1.00  0.00    -0.248 NA
ATOM     42  C   UNL A   1      37.706  29.617  28.304  1.00  0.00     0.031 C 
ATOM     43  C   UNL A   1      40.798  29.935  31.342  1.00  0.00     0.029 A 
ATOM     44  N   UNL A   1      42.127  28.386  30.367  1.00  0.00    -0.354 N 
ATOM     45  C   UNL A   1      37.818  31.717  29.240  1.00  0.00     0.074 A 
ATOM     46  C   UNL A   1      37.042  30.761  28.484  1.00  0.00     0.031 C 
ATOM     47  C   UNL A   1      42.027  30.091  31.857  1.00  0.00     0.029 A 
ATOM     48  C   UNL A   1      42.946  29.345  31.022  1.00  0.00     0.049 A 
ATOM     49  H   UNL A   1      42.388  27.484  30.070  1.00  0.00     0.167 HD
ATOM     50  C   UNL A   1      37.572  32.906  29.860  1.00  0.00     0.037 A 
ATOM     51  C   UNL A   1      44.063  29.849  30.417  1.00  0.00     0.037 A 
ATOM     52  C   UNL A   1      38.766  33.399  30.554  1.00  0.00     0.049 A 
ATOM     53  C   UNL A   1      43.991  31.330  30.118  1.00  0.00     0.074 A 
ATOM     54  C   UNL A   1      39.206  33.359  31.869  1.00  0.00     0.029 A 
ATOM     55  N   UNL A   1      39.866  33.768  29.801  1.00  0.00    -0.354 N 
ATOM     56  N   UNL A   1      42.989  32.102  30.434  1.00  0.00    -0.248 NA
ATOM     57  C   UNL A   1      45.001  32.024  29.320  1.00  0.00     0.031 C 
ATOM     58  C   UNL A   1      40.586  33.717  31.889  1.00  0.00     0.029 A 
ATOM     59  C   UNL A   1      40.981  33.987  30.591  1.00  0.00     0.049 A 
ATOM     60  H   UNL A   1      39.857  33.864  28.821  1.00  0.00     0.167 HD
ATOM     61  C   UNL A   1      43.163  33.332  29.855  1.00  0.00     0.074 A 
ATOM     62  C   UNL A   1      44.433  33.228  29.158  1.00  0.00     0.031 C 
ATOM     63  C   UNL A   1      42.239  34.334  29.947  1.00  0.00     0.037 A 
BRANCH  50  64
ATOM     64  C   UNL A   1      36.188  33.491  30.050  1.00  0.00     0.064 A 
ATOM     65  C   UNL A   1      35.456  33.972  28.944  1.00  0.00     0.173 A 
ATOM     66  C   UNL A   1      35.547  33.664  31.293  1.00  0.00     0.173 A 
ATOM     67  F   UNL A   1      35.873  33.769  27.688  1.00  0.00    -0.203 F 
ATOM     68  C   UNL A   1      34.261  34.684  29.086  1.00  0.00     0.198 A 
ATOM     69  C   UNL A   1      34.387  34.431  31.443  1.00  0.00     0.198 A 
ATOM     70  F   UNL A   1      35.975  33.038  32.394  1.00  0.00    -0.203 F 
ATOM     71  F   UNL A   1      33.616  35.122  27.995  1.00  0.00    -0.200 F 
ATOM     72  C   UNL A   1      33.750  34.954  30.338  1.00  0.00     0.200 A 
ATOM     73  F   UNL A   1      33.890  34.651  32.668  1.00  0.00    -0.200 F 
ATOM     74  F   UNL A   1      32.634  35.680  30.478  1.00  0.00    -0.200 F 
ENDBRANCH  50  64
BRANCH  51  75
ATOM     75  C   UNL A   1      44.732  28.826  29.569  1.00  0.00     0.064 A 
ATOM     76  C   UNL A   1      44.491  28.894  28.182  1.00  0.00     0.173 A 
ATOM     77  C   UNL A   1      45.905  28.199  30.000  1.00  0.00     0.173 A 
ATOM     78  F   UNL A   1      43.357  29.450  27.724  1.00  0.00    -0.203 F 
ATOM     79  C   UNL A   1      45.492  28.575  27.272  1.00  0.00     0.198 A 
ATOM     80  C   UNL A   1      46.884  27.833  29.079  1.00  0.00     0.198 A 
ATOM     81  F   UNL A   1      46.174  28.078  31.308  1.00  0.00    -0.203 F 
ATOM     82  F   UNL A   1      45.323  28.850  25.970  1.00  0.00    -0.200 F 
ATOM     83  C   UNL A   1      46.706  28.090  27.726  1.00  0.00     0.200 A 
ATOM     84  F   UNL A   1      48.048  27.332  29.515  1.00  0.00    -0.200 F 
ATOM     85  F   UNL A   1      47.721  27.923  26.868  1.00  0.00    -0.200 F 
ENDBRANCH  51  75
BRANCH  63  86
ATOM     86  C   UNL A   1      42.456  35.718  29.387  1.00  0.00     0.064 A 
ATOM     87  C   UNL A   1      41.936  36.120  28.144  1.00  0.00     0.173 A 
ATOM     88  C   UNL A   1      43.276  36.667  30.036  1.00  0.00     0.173 A 
ATOM     89  F   UNL A   1      41.261  35.260  27.366  1.00  0.00    -0.203 F 
ATOM     90  C   UNL A   1      42.118  37.413  27.649  1.00  0.00     0.198 A 
ATOM     91  C   UNL A   1      43.507  37.937  29.511  1.00  0.00     0.198 A 
ATOM     92  F   UNL A   1      43.869  36.405  31.209  1.00  0.00    -0.203 F 
ATOM     93  F   UNL A   1      41.528  37.773  26.500  1.00  0.00    -0.200 F 
ATOM     94  C   UNL A   1      42.903  38.322  28.331  1.00  0.00     0.200 A 
ATOM     95  F   UNL A   1      44.311  38.788  30.163  1.00  0.00    -0.200 F 
ATOM     96  F   UNL A   1      43.085  39.559  27.852  1.00  0.00    -0.200 F 
ENDBRANCH  63  86
ENDBRANCH  37  38
ENDBRANCH  29  32
ENDBRANCH  27  28
ENDBRANCH  26  27
ENDBRANCH   1  26
TORSDOF 13
ENDMDL
