MODEL 1
REMARK VINA RESULT:     -12.4      0.000      0.000
REMARK SMILES O=C(NCCCNC(=O)[C@@H]1C[NH2+]CCN1C(=O)N[C@@H]1CCOC1)c1ccc(-c2c3nc(c(-c4c(F)c(F)c(F)c(F)c4F)c4ccc([nH]4)c(-c4c(F)c(F)c(F)c(F)c4F)c4nc(c(-c5c(F)c(F)c(F)c(F)c5F)c5ccc2[nH]5)C=C4)C=C3)cc1
REMARK SMILES IDX 5 1 4 2 3 3 1 4 2 5 24 7 25 8 86 9 26 10 85 11 27 12 28 13
REMARK SMILES IDX 29 14 79 15 30 16 84 17 78 18 80 19 31 20 83 21 77 22 76 23
REMARK SMILES IDX 32 25 64 26 44 27 63 28 45 29 48 30 62 31 81 32 46 33 47 34
REMARK SMILES IDX 61 36 82 37 49 38 33 39 34 40 42 41 35 42 36 43 40 44 43 45
REMARK SMILES IDX 37 46 38 47 41 48 39 49 65 50 66 51 74 52 67 53 68 54 72 55
REMARK SMILES IDX 75 56 69 57 70 58 73 59 71 60 50 61 51 62 59 63 52 64 53 65
REMARK SMILES IDX 57 66 60 67 54 68 55 69 58 70 56 71 6 72 7 73 8 74 9 76
REMARK SMILES IDX 10 77 11 78 15 79 12 80 14 81 13 82 16 85 17 86 18 87 19 89
REMARK SMILES IDX 20 90 23 91 21 92 22 93
REMARK H PARENT 3 6 80 24 48 35 7 75 12 83 12 84 18 88
REMARK Flexibility Score: inf
ROOT
ATOM      1  C   UNL A   1      31.382  31.754  26.543  1.00  0.00     0.042 C 
ENDROOT
BRANCH   1   2
ATOM      2  C   UNL A   1      32.618  32.490  27.044  1.00  0.00     0.118 C 
BRANCH   2   3
ATOM      3  N   UNL A   1      32.391  33.830  27.547  1.00  0.00    -0.352 N 
ATOM      4  O   UNL A   1      32.767  35.636  28.855  1.00  0.00    -0.269 OA
ATOM      5  C   UNL A   1      33.114  34.513  28.498  1.00  0.00     0.251 C 
ATOM      6  H   UNL A   1      31.623  34.312  27.160  1.00  0.00     0.163 HD
BRANCH   5   7
ATOM      7  C   UNL A   1      34.304  33.884  29.117  1.00  0.00     0.039 A 
ATOM      8  C   UNL A   1      34.167  32.863  30.059  1.00  0.00     0.014 A 
ATOM      9  C   UNL A   1      35.578  34.310  28.726  1.00  0.00     0.014 A 
ATOM     10  C   UNL A   1      35.301  32.332  30.676  1.00  0.00     0.010 A 
ATOM     11  C   UNL A   1      36.717  33.745  29.314  1.00  0.00     0.010 A 
ATOM     12  C   UNL A   1      36.589  32.764  30.310  1.00  0.00    -0.014 A 
BRANCH  12  13
ATOM     13  C   UNL A   1      37.783  32.133  30.936  1.00  0.00     0.031 A 
ATOM     14  C   UNL A   1      38.244  32.517  32.316  1.00  0.00     0.074 A 
ATOM     15  C   UNL A   1      38.448  31.180  30.254  1.00  0.00     0.049 A 
ATOM     16  N   UNL A   1      39.236  32.031  33.022  1.00  0.00    -0.248 NA
ATOM     17  C   UNL A   1      37.500  33.590  32.991  1.00  0.00     0.031 C 
ATOM     18  C   UNL A   1      38.124  30.742  28.896  1.00  0.00     0.029 A 
ATOM     19  N   UNL A   1      39.522  30.402  30.608  1.00  0.00    -0.354 N 
ATOM     20  C   UNL A   1      39.233  32.732  34.222  1.00  0.00     0.074 A 
ATOM     21  C   UNL A   1      38.165  33.706  34.134  1.00  0.00     0.031 C 
ATOM     22  C   UNL A   1      38.961  29.755  28.542  1.00  0.00     0.029 A 
ATOM     23  C   UNL A   1      39.904  29.516  29.630  1.00  0.00     0.049 A 
ATOM     24  H   UNL A   1      39.975  30.472  31.479  1.00  0.00     0.167 HD
ATOM     25  C   UNL A   1      40.038  32.567  35.302  1.00  0.00     0.037 A 
ATOM     26  C   UNL A   1      40.906  28.618  29.605  1.00  0.00     0.037 A 
ATOM     27  C   UNL A   1      41.105  31.600  35.388  1.00  0.00     0.049 A 
ATOM     28  C   UNL A   1      41.787  28.463  30.814  1.00  0.00     0.074 A 
ATOM     29  C   UNL A   1      41.962  31.352  36.447  1.00  0.00     0.029 A 
ATOM     30  N   UNL A   1      41.464  30.724  34.374  1.00  0.00    -0.354 N 
ATOM     31  N   UNL A   1      41.744  29.104  31.957  1.00  0.00    -0.248 NA
ATOM     32  C   UNL A   1      42.853  27.455  30.731  1.00  0.00     0.031 C 
ATOM     33  C   UNL A   1      42.865  30.355  36.061  1.00  0.00     0.029 A 
ATOM     34  C   UNL A   1      42.539  29.945  34.779  1.00  0.00     0.049 A 
ATOM     35  H   UNL A   1      41.022  30.664  33.498  1.00  0.00     0.167 HD
ATOM     36  C   UNL A   1      42.765  28.571  32.731  1.00  0.00     0.074 A 
ATOM     37  C   UNL A   1      43.389  27.530  31.940  1.00  0.00     0.031 C 
ATOM     38  C   UNL A   1      43.158  28.919  33.980  1.00  0.00     0.037 A 
BRANCH  25  39
ATOM     39  C   UNL A   1      39.799  33.450  36.494  1.00  0.00     0.064 A 
ATOM     40  C   UNL A   1      40.432  34.697  36.618  1.00  0.00     0.173 A 
ATOM     41  C   UNL A   1      38.874  33.084  37.484  1.00  0.00     0.173 A 
ATOM     42  F   UNL A   1      41.330  35.092  35.704  1.00  0.00    -0.203 F 
ATOM     43  C   UNL A   1      40.158  35.536  37.697  1.00  0.00     0.198 A 
ATOM     44  C   UNL A   1      38.584  33.937  38.546  1.00  0.00     0.198 A 
ATOM     45  F   UNL A   1      38.234  31.907  37.408  1.00  0.00    -0.203 F 
ATOM     46  F   UNL A   1      40.797  36.709  37.811  1.00  0.00    -0.200 F 
ATOM     47  C   UNL A   1      39.228  35.159  38.654  1.00  0.00     0.200 A 
ATOM     48  F   UNL A   1      37.674  33.578  39.462  1.00  0.00    -0.200 F 
ATOM     49  F   UNL A   1      38.955  35.974  39.682  1.00  0.00    -0.200 F 
ENDBRANCH  25  39
BRANCH  26  50
ATOM     50  C   UNL A   1      41.130  27.793  28.390  1.00  0.00     0.064 A 
ATOM     51  C   UNL A   1      40.480  26.563  28.215  1.00  0.00     0.173 A 
ATOM     52  C   UNL A   1      42.007  28.218  27.379  1.00  0.00     0.173 A 
ATOM     53  F   UNL A   1      39.649  26.105  29.162  1.00  0.00    -0.203 F 
ATOM     54  C   UNL A   1      40.715  25.780  27.087  1.00  0.00     0.198 A 
ATOM     55  C   UNL A   1      42.215  27.449  26.236  1.00  0.00     0.198 A 
ATOM     56  F   UNL A   1      42.650  29.388  27.497  1.00  0.00    -0.203 F 
ATOM     57  F   UNL A   1      40.121  24.585  26.968  1.00  0.00    -0.200 F 
ATOM     58  C   UNL A   1      41.577  26.226  26.096  1.00  0.00     0.200 A 
ATOM     59  F   UNL A   1      43.036  27.893  25.276  1.00  0.00    -0.200 F 
ATOM     60  F   UNL A   1      41.799  25.474  25.009  1.00  0.00    -0.200 F 
ENDBRANCH  26  50
BRANCH  38  61
ATOM     61  C   UNL A   1      44.309  28.154  34.568  1.00  0.00     0.064 A 
ATOM     62  C   UNL A   1      45.633  28.596  34.425  1.00  0.00     0.173 A 
ATOM     63  C   UNL A   1      44.086  26.968  35.283  1.00  0.00     0.173 A 
ATOM     64  F   UNL A   1      45.900  29.717  33.736  1.00  0.00    -0.203 F 
ATOM     65  C   UNL A   1      46.695  27.858  34.942  1.00  0.00     0.198 A 
ATOM     66  C   UNL A   1      45.149  26.248  35.825  1.00  0.00     0.198 A 
ATOM     67  F   UNL A   1      42.840  26.504  35.455  1.00  0.00    -0.203 F 
ATOM     68  F   UNL A   1      47.955  28.268  34.739  1.00  0.00    -0.200 F 
ATOM     69  C   UNL A   1      46.452  26.687  35.644  1.00  0.00     0.200 A 
ATOM     70  F   UNL A   1      44.912  25.122  36.513  1.00  0.00    -0.200 F 
ATOM     71  F   UNL A   1      47.475  25.976  36.137  1.00  0.00    -0.200 F 
ENDBRANCH  38  61
ENDBRANCH  12  13
ENDBRANCH   5   7
ENDBRANCH   2   3
ENDBRANCH   1   2
BRANCH   1  72
ATOM     72  C   UNL A   1      31.501  30.484  25.695  1.00  0.00     0.117 C 
BRANCH  72  73
ATOM     73  N   UNL A   1      31.805  29.211  26.320  1.00  0.00    -0.354 N 
ATOM     74  C   UNL A   1      31.705  27.922  25.888  1.00  0.00     0.248 C 
ATOM     75  H   UNL A   1      32.151  29.295  27.237  1.00  0.00     0.163 HD
ATOM     76  O   UNL A   1      32.487  27.117  26.410  1.00  0.00    -0.272 OA
BRANCH  74  77
ATOM     77  C   UNL A   1      30.795  27.440  24.752  1.00  0.00     0.231 C 
ATOM     78  C   UNL A   1      30.192  26.073  25.216  1.00  0.00     0.296 C 
ATOM     79  N   UNL A   1      31.388  27.511  23.418  1.00  0.00    -0.302 N 
ATOM     80  N   UNL A   1      30.014  25.026  24.201  1.00  0.00    -0.343 N 
ATOM     81  C   UNL A   1      31.462  26.256  22.639  1.00  0.00     0.183 C 
ATOM     82  C   UNL A   1      31.245  24.956  23.417  1.00  0.00     0.282 C 
ATOM     83  H   UNL A   1      29.229  25.260  23.593  1.00  0.00     0.346 HD
ATOM     84  H   UNL A   1      29.821  24.128  24.644  1.00  0.00     0.346 HD
BRANCH  79  85
ATOM     85  C   UNL A   1      31.609  28.645  22.698  1.00  0.00     0.318 C 
ATOM     86  O   UNL A   1      32.762  28.935  22.344  1.00  0.00    -0.249 OA
ATOM     87  N   UNL A   1      30.717  29.558  22.315  1.00  0.00    -0.333 N 
ATOM     88  H   UNL A   1      31.221  30.214  21.782  1.00  0.00     0.165 HD
BRANCH  87  89
ATOM     89  C   UNL A   1      29.326  30.042  22.320  1.00  0.00     0.112 C 
ATOM     90  C   UNL A   1      29.015  31.393  22.927  1.00  0.00     0.056 C 
ATOM     91  C   UNL A   1      28.171  29.141  22.709  1.00  0.00     0.185 C 
ATOM     92  C   UNL A   1      27.607  31.263  23.472  1.00  0.00     0.162 C 
ATOM     93  O   UNL A   1      27.075  30.019  23.008  1.00  0.00    -0.379 OA
ENDBRANCH  87  89
ENDBRANCH  79  85
ENDBRANCH  74  77
ENDBRANCH  72  73
ENDBRANCH   1  72
TORSDOF 12
ENDMDL
MODEL 2
REMARK VINA RESULT:     -12.3      5.865     11.293
REMARK SMILES O=C(NCCCNC(=O)[C@@H]1C[NH2+]CCN1C(=O)N[C@@H]1CCOC1)c1ccc(-c2c3nc(c(-c4c(F)c(F)c(F)c(F)c4F)c4ccc([nH]4)c(-c4c(F)c(F)c(F)c(F)c4F)c4nc(c(-c5c(F)c(F)c(F)c(F)c5F)c5ccc2[nH]5)C=C4)C=C3)cc1
REMARK SMILES IDX 5 1 4 2 3 3 1 4 2 5 24 7 25 8 86 9 26 10 85 11 27 12 28 13
REMARK SMILES IDX 29 14 79 15 30 16 84 17 78 18 80 19 31 20 83 21 77 22 76 23
REMARK SMILES IDX 32 25 64 26 44 27 63 28 45 29 48 30 62 31 81 32 46 33 47 34
REMARK SMILES IDX 61 36 82 37 49 38 33 39 34 40 42 41 35 42 36 43 40 44 43 45
REMARK SMILES IDX 37 46 38 47 41 48 39 49 65 50 66 51 74 52 67 53 68 54 72 55
REMARK SMILES IDX 75 56 69 57 70 58 73 59 71 60 50 61 51 62 59 63 52 64 53 65
REMARK SMILES IDX 57 66 60 67 54 68 55 69 58 70 56 71 6 72 7 73 8 74 9 76
REMARK SMILES IDX 10 77 11 78 15 79 12 80 14 81 13 82 16 85 17 86 18 87 19 89
REMARK SMILES IDX 20 90 23 91 21 92 22 93
REMARK H PARENT 3 6 80 24 48 35 7 75 12 83 12 84 18 88
REMARK Flexibility Score: inf
ROOT
ATOM      1  C   UNL A   1      37.905  19.671  24.918  1.00  0.00     0.042 C 
ENDROOT
BRANCH   1   2
ATOM      2  C   UNL A   1      39.104  20.082  25.765  1.00  0.00     0.118 C 
BRANCH   2   3
ATOM      3  N   UNL A   1      40.199  19.134  25.805  1.00  0.00    -0.352 N 
ATOM      4  O   UNL A   1      42.347  18.470  26.045  1.00  0.00    -0.269 OA
ATOM      5  C   UNL A   1      41.522  19.378  26.097  1.00  0.00     0.251 C 
ATOM      6  H   UNL A   1      39.968  18.199  25.598  1.00  0.00     0.163 HD
BRANCH   5   7
ATOM      7  C   UNL A   1      41.961  20.748  26.451  1.00  0.00     0.039 A 
ATOM      8  C   UNL A   1      42.188  21.107  27.781  1.00  0.00     0.014 A 
ATOM      9  C   UNL A   1      42.173  21.679  25.428  1.00  0.00     0.014 A 
ATOM     10  C   UNL A   1      42.538  22.422  28.094  1.00  0.00     0.010 A 
ATOM     11  C   UNL A   1      42.567  22.986  25.741  1.00  0.00     0.010 A 
ATOM     12  C   UNL A   1      42.734  23.377  27.079  1.00  0.00    -0.014 A 
BRANCH  12  13
ATOM     13  C   UNL A   1      43.171  24.753  27.437  1.00  0.00     0.031 A 
ATOM     14  C   UNL A   1      44.580  25.220  27.191  1.00  0.00     0.074 A 
ATOM     15  C   UNL A   1      42.273  25.603  27.972  1.00  0.00     0.049 A 
ATOM     16  N   UNL A   1      45.110  26.401  27.403  1.00  0.00    -0.248 NA
ATOM     17  C   UNL A   1      45.522  24.234  26.642  1.00  0.00     0.031 C 
ATOM     18  C   UNL A   1      40.886  25.264  28.293  1.00  0.00     0.029 A 
ATOM     19  N   UNL A   1      42.384  26.923  28.331  1.00  0.00    -0.354 N 
ATOM     20  C   UNL A   1      46.439  26.303  27.010  1.00  0.00     0.074 A 
ATOM     21  C   UNL A   1      46.648  24.934  26.584  1.00  0.00     0.031 C 
ATOM     22  C   UNL A   1      40.267  26.353  28.772  1.00  0.00     0.029 A 
ATOM     23  C   UNL A   1      41.220  27.456  28.830  1.00  0.00     0.049 A 
ATOM     24  H   UNL A   1      43.217  27.439  28.239  1.00  0.00     0.167 HD
ATOM     25  C   UNL A   1      47.392  27.269  26.993  1.00  0.00     0.037 A 
ATOM     26  C   UNL A   1      40.950  28.692  29.293  1.00  0.00     0.037 A 
ATOM     27  C   UNL A   1      47.185  28.630  27.421  1.00  0.00     0.049 A 
ATOM     28  C   UNL A   1      42.029  29.739  29.269  1.00  0.00     0.074 A 
ATOM     29  C   UNL A   1      48.087  29.681  27.426  1.00  0.00     0.029 A 
ATOM     30  N   UNL A   1      45.993  29.130  27.926  1.00  0.00    -0.354 N 
ATOM     31  N   UNL A   1      43.268  29.642  28.854  1.00  0.00    -0.248 NA
ATOM     32  C   UNL A   1      41.668  31.071  29.772  1.00  0.00     0.031 C 
ATOM     33  C   UNL A   1      47.456  30.805  27.970  1.00  0.00     0.029 A 
ATOM     34  C   UNL A   1      46.144  30.469  28.258  1.00  0.00     0.049 A 
ATOM     35  H   UNL A   1      45.165  28.612  28.033  1.00  0.00     0.167 HD
ATOM     36  C   UNL A   1      43.831  30.897  29.035  1.00  0.00     0.074 A 
ATOM     37  C   UNL A   1      42.787  31.750  29.565  1.00  0.00     0.031 C 
ATOM     38  C   UNL A   1      45.100  31.305  28.794  1.00  0.00     0.037 A 
BRANCH  25  39
ATOM     39  C   UNL A   1      48.757  26.896  26.488  1.00  0.00     0.064 A 
ATOM     40  C   UNL A   1      49.724  26.339  27.339  1.00  0.00     0.173 A 
ATOM     41  C   UNL A   1      49.078  27.025  25.128  1.00  0.00     0.173 A 
ATOM     42  F   UNL A   1      49.471  26.200  28.649  1.00  0.00    -0.203 F 
ATOM     43  C   UNL A   1      50.966  25.940  26.849  1.00  0.00     0.198 A 
ATOM     44  C   UNL A   1      50.311  26.600  24.638  1.00  0.00     0.198 A 
ATOM     45  F   UNL A   1      48.187  27.543  24.269  1.00  0.00    -0.203 F 
ATOM     46  F   UNL A   1      51.885  25.439  27.687  1.00  0.00    -0.200 F 
ATOM     47  C   UNL A   1      51.255  26.063  25.499  1.00  0.00     0.200 A 
ATOM     48  F   UNL A   1      50.583  26.706  23.330  1.00  0.00    -0.200 F 
ATOM     49  F   UNL A   1      52.445  25.664  25.027  1.00  0.00    -0.200 F 
ENDBRANCH  25  39
BRANCH  26  50
ATOM     50  C   UNL A   1      39.597  29.004  29.820  1.00  0.00     0.064 A 
ATOM     51  C   UNL A   1      39.253  28.730  31.151  1.00  0.00     0.173 A 
ATOM     52  C   UNL A   1      38.616  29.580  28.997  1.00  0.00     0.173 A 
ATOM     53  F   UNL A   1      40.149  28.162  31.971  1.00  0.00    -0.203 F 
ATOM     54  C   UNL A   1      37.973  28.998  31.632  1.00  0.00     0.198 A 
ATOM     55  C   UNL A   1      37.347  29.878  29.489  1.00  0.00     0.198 A 
ATOM     56  F   UNL A   1      38.896  29.864  27.717  1.00  0.00    -0.203 F 
ATOM     57  F   UNL A   1      37.654  28.679  32.893  1.00  0.00    -0.200 F 
ATOM     58  C   UNL A   1      37.024  29.577  30.804  1.00  0.00     0.200 A 
ATOM     59  F   UNL A   1      36.440  30.452  28.689  1.00  0.00    -0.200 F 
ATOM     60  F   UNL A   1      35.795  29.839  31.269  1.00  0.00    -0.200 F 
ENDBRANCH  26  50
BRANCH  38  61
ATOM     61  C   UNL A   1      45.420  32.742  29.091  1.00  0.00     0.064 A 
ATOM     62  C   UNL A   1      45.915  33.140  30.342  1.00  0.00     0.173 A 
ATOM     63  C   UNL A   1      45.230  33.732  28.115  1.00  0.00     0.173 A 
ATOM     64  F   UNL A   1      46.099  32.233  31.314  1.00  0.00    -0.203 F 
ATOM     65  C   UNL A   1      46.172  34.481  30.619  1.00  0.00     0.198 A 
ATOM     66  C   UNL A   1      45.516  35.069  28.386  1.00  0.00     0.198 A 
ATOM     67  F   UNL A   1      44.764  33.405  26.901  1.00  0.00    -0.203 F 
ATOM     68  F   UNL A   1      46.585  34.844  31.841  1.00  0.00    -0.200 F 
ATOM     69  C   UNL A   1      45.975  35.443  29.640  1.00  0.00     0.200 A 
ATOM     70  F   UNL A   1      45.337  35.996  27.435  1.00  0.00    -0.200 F 
ATOM     71  F   UNL A   1      46.218  36.733  29.908  1.00  0.00    -0.200 F 
ENDBRANCH  38  61
ENDBRANCH  12  13
ENDBRANCH   5   7
ENDBRANCH   2   3
ENDBRANCH   1   2
BRANCH   1  72
ATOM     72  C   UNL A   1      36.563  20.400  25.032  1.00  0.00     0.117 C 
BRANCH  72  73
ATOM     73  N   UNL A   1      36.423  21.759  24.546  1.00  0.00    -0.354 N 
ATOM     74  C   UNL A   1      35.337  22.527  24.247  1.00  0.00     0.248 C 
ATOM     75  H   UNL A   1      37.282  22.217  24.402  1.00  0.00     0.163 HD
ATOM     76  O   UNL A   1      35.496  23.750  24.352  1.00  0.00    -0.272 OA
BRANCH  74  77
ATOM     77  C   UNL A   1      33.941  21.989  23.911  1.00  0.00     0.231 C 
ATOM     78  C   UNL A   1      33.395  22.869  22.738  1.00  0.00     0.296 C 
ATOM     79  N   UNL A   1      33.073  21.769  25.066  1.00  0.00    -0.302 N 
ATOM     80  N   UNL A   1      31.964  23.200  22.742  1.00  0.00    -0.343 N 
ATOM     81  C   UNL A   1      31.776  22.479  25.086  1.00  0.00     0.183 C 
ATOM     82  C   UNL A   1      31.612  23.631  24.092  1.00  0.00     0.282 C 
ATOM     83  H   UNL A   1      31.417  22.377  22.487  1.00  0.00     0.346 HD
ATOM     84  H   UNL A   1      31.766  23.937  22.067  1.00  0.00     0.346 HD
BRANCH  79  85
ATOM     85  C   UNL A   1      33.190  20.766  25.978  1.00  0.00     0.318 C 
ATOM     86  O   UNL A   1      33.405  21.038  27.169  1.00  0.00    -0.249 OA
ATOM     87  N   UNL A   1      33.129  19.452  25.762  1.00  0.00    -0.333 N 
ATOM     88  H   UNL A   1      33.214  19.034  26.649  1.00  0.00     0.165 HD
BRANCH  87  89
ATOM     89  C   UNL A   1      32.993  18.336  24.812  1.00  0.00     0.112 C 
ATOM     90  C   UNL A   1      34.145  17.369  24.638  1.00  0.00     0.056 C 
ATOM     91  C   UNL A   1      32.410  18.535  23.427  1.00  0.00     0.185 C 
ATOM     92  C   UNL A   1      34.052  16.906  23.197  1.00  0.00     0.162 C 
ATOM     93  O   UNL A   1      32.815  17.388  22.665  1.00  0.00    -0.379 OA
ENDBRANCH  87  89
ENDBRANCH  79  85
ENDBRANCH  74  77
ENDBRANCH  72  73
ENDBRANCH   1  72
TORSDOF 12
ENDMDL
MODEL 3
REMARK VINA RESULT:     -12.3      0.178      1.270
REMARK SMILES O=C(NCCCNC(=O)[C@@H]1C[NH2+]CCN1C(=O)N[C@@H]1CCOC1)c1ccc(-c2c3nc(c(-c4c(F)c(F)c(F)c(F)c4F)c4ccc([nH]4)c(-c4c(F)c(F)c(F)c(F)c4F)c4nc(c(-c5c(F)c(F)c(F)c(F)c5F)c5ccc2[nH]5)C=C4)C=C3)cc1
REMARK SMILES IDX 5 1 4 2 3 3 1 4 2 5 24 7 25 8 86 9 26 10 85 11 27 12 28 13
REMARK SMILES IDX 29 14 79 15 30 16 84 17 78 18 80 19 31 20 83 21 77 22 76 23
REMARK SMILES IDX 32 25 64 26 44 27 63 28 45 29 48 30 62 31 81 32 46 33 47 34
REMARK SMILES IDX 61 36 82 37 49 38 33 39 34 40 42 41 35 42 36 43 40 44 43 45
REMARK SMILES IDX 37 46 38 47 41 48 39 49 65 50 66 51 74 52 67 53 68 54 72 55
REMARK SMILES IDX 75 56 69 57 70 58 73 59 71 60 50 61 51 62 59 63 52 64 53 65
REMARK SMILES IDX 57 66 60 67 54 68 55 69 58 70 56 71 6 72 7 73 8 74 9 76
REMARK SMILES IDX 10 77 11 78 15 79 12 80 14 81 13 82 16 85 17 86 18 87 19 89
REMARK SMILES IDX 20 90 23 91 21 92 22 93
REMARK H PARENT 3 6 80 24 48 35 7 75 12 83 12 84 18 88
REMARK Flexibility Score: inf
ROOT
ATOM      1  C   UNL A   1      31.403  31.811  26.598  1.00  0.00     0.042 C 
ENDROOT
BRANCH   1   2
ATOM      2  C   UNL A   1      32.632  32.446  27.238  1.00  0.00     0.118 C 
BRANCH   2   3
ATOM      3  N   UNL A   1      32.493  33.837  27.620  1.00  0.00    -0.352 N 
ATOM      4  O   UNL A   1      33.008  35.731  28.743  1.00  0.00    -0.269 OA
ATOM      5  C   UNL A   1      33.282  34.562  28.483  1.00  0.00     0.251 C 
ATOM      6  H   UNL A   1      31.741  34.324  27.211  1.00  0.00     0.163 HD
BRANCH   5   7
ATOM      7  C   UNL A   1      34.456  33.926  29.126  1.00  0.00     0.039 A 
ATOM      8  C   UNL A   1      35.755  34.273  28.749  1.00  0.00     0.014 A 
ATOM      9  C   UNL A   1      34.248  32.984  30.139  1.00  0.00     0.014 A 
ATOM     10  C   UNL A   1      36.843  33.611  29.322  1.00  0.00     0.010 A 
ATOM     11  C   UNL A   1      35.342  32.353  30.744  1.00  0.00     0.010 A 
ATOM     12  C   UNL A   1      36.651  32.645  30.327  1.00  0.00    -0.014 A 
BRANCH  12  13
ATOM     13  C   UNL A   1      37.831  32.004  30.968  1.00  0.00     0.031 A 
ATOM     14  C   UNL A   1      38.268  32.372  32.361  1.00  0.00     0.074 A 
ATOM     15  C   UNL A   1      38.505  31.056  30.289  1.00  0.00     0.049 A 
ATOM     16  N   UNL A   1      39.245  31.876  33.080  1.00  0.00    -0.248 NA
ATOM     17  C   UNL A   1      37.515  33.441  33.033  1.00  0.00     0.031 C 
ATOM     18  C   UNL A   1      38.206  30.633  28.920  1.00  0.00     0.029 A 
ATOM     19  N   UNL A   1      39.570  30.271  30.654  1.00  0.00    -0.354 N 
ATOM     20  C   UNL A   1      39.223  32.563  34.287  1.00  0.00     0.074 A 
ATOM     21  C   UNL A   1      38.159  33.542  34.189  1.00  0.00     0.031 C 
ATOM     22  C   UNL A   1      39.046  29.647  28.571  1.00  0.00     0.029 A 
ATOM     23  C   UNL A   1      39.968  29.394  29.674  1.00  0.00     0.049 A 
ATOM     24  H   UNL A   1      40.008  30.330  31.534  1.00  0.00     0.167 HD
ATOM     25  C   UNL A   1      40.007  32.385  35.379  1.00  0.00     0.037 A 
ATOM     26  C   UNL A   1      40.967  28.492  29.658  1.00  0.00     0.037 A 
ATOM     27  C   UNL A   1      41.069  31.414  35.475  1.00  0.00     0.049 A 
ATOM     28  C   UNL A   1      41.825  28.322  30.881  1.00  0.00     0.074 A 
ATOM     29  C   UNL A   1      41.906  31.151  36.547  1.00  0.00     0.029 A 
ATOM     30  N   UNL A   1      41.444  30.547  34.459  1.00  0.00    -0.354 N 
ATOM     31  N   UNL A   1      41.763  28.951  32.030  1.00  0.00    -0.248 NA
ATOM     32  C   UNL A   1      42.889  27.311  30.807  1.00  0.00     0.031 C 
ATOM     33  C   UNL A   1      42.813  30.155  36.167  1.00  0.00     0.029 A 
ATOM     34  C   UNL A   1      42.509  29.760  34.875  1.00  0.00     0.049 A 
ATOM     35  H   UNL A   1      41.018  30.497  33.574  1.00  0.00     0.167 HD
ATOM     36  C   UNL A   1      42.768  28.407  32.817  1.00  0.00     0.074 A 
ATOM     37  C   UNL A   1      43.403  27.372  32.027  1.00  0.00     0.031 C 
ATOM     38  C   UNL A   1      43.139  28.740  34.076  1.00  0.00     0.037 A 
BRANCH  25  39
ATOM     39  C   UNL A   1      39.749  33.256  36.576  1.00  0.00     0.064 A 
ATOM     40  C   UNL A   1      40.405  34.486  36.739  1.00  0.00     0.173 A 
ATOM     41  C   UNL A   1      38.784  32.897  37.529  1.00  0.00     0.173 A 
ATOM     42  F   UNL A   1      41.342  34.874  35.860  1.00  0.00    -0.203 F 
ATOM     43  C   UNL A   1      40.114  35.316  37.821  1.00  0.00     0.198 A 
ATOM     44  C   UNL A   1      38.478  33.742  38.594  1.00  0.00     0.198 A 
ATOM     45  F   UNL A   1      38.121  31.736  37.416  1.00  0.00    -0.203 F 
ATOM     46  F   UNL A   1      40.776  36.472  37.972  1.00  0.00    -0.200 F 
ATOM     47  C   UNL A   1      39.146  34.947  38.741  1.00  0.00     0.200 A 
ATOM     48  F   UNL A   1      37.531  33.391  39.475  1.00  0.00    -0.200 F 
ATOM     49  F   UNL A   1      38.858  35.754  39.772  1.00  0.00    -0.200 F 
ENDBRANCH  25  39
BRANCH  26  50
ATOM     50  C   UNL A   1      41.211  27.680  28.438  1.00  0.00     0.064 A 
ATOM     51  C   UNL A   1      42.124  28.094  27.458  1.00  0.00     0.173 A 
ATOM     52  C   UNL A   1      40.527  26.473  28.225  1.00  0.00     0.173 A 
ATOM     53  F   UNL A   1      42.787  29.250  27.607  1.00  0.00    -0.203 F 
ATOM     54  C   UNL A   1      42.328  27.343  26.303  1.00  0.00     0.198 A 
ATOM     55  C   UNL A   1      40.757  25.707  27.085  1.00  0.00     0.198 A 
ATOM     56  F   UNL A   1      39.646  26.031  29.134  1.00  0.00    -0.203 F 
ATOM     57  F   UNL A   1      43.167  27.787  25.358  1.00  0.00    -0.200 F 
ATOM     58  C   UNL A   1      41.649  26.148  26.119  1.00  0.00     0.200 A 
ATOM     59  F   UNL A   1      40.110  24.545  26.921  1.00  0.00    -0.200 F 
ATOM     60  F   UNL A   1      41.849  25.424  25.010  1.00  0.00    -0.200 F 
ENDBRANCH  26  50
BRANCH  38  61
ATOM     61  C   UNL A   1      44.277  27.966  34.678  1.00  0.00     0.064 A 
ATOM     62  C   UNL A   1      45.602  28.416  34.582  1.00  0.00     0.173 A 
ATOM     63  C   UNL A   1      44.039  26.761  35.356  1.00  0.00     0.173 A 
ATOM     64  F   UNL A   1      45.883  29.554  33.929  1.00  0.00    -0.203 F 
ATOM     65  C   UNL A   1      46.653  27.670  35.110  1.00  0.00     0.198 A 
ATOM     66  C   UNL A   1      45.090  26.032  35.910  1.00  0.00     0.198 A 
ATOM     67  F   UNL A   1      42.790  26.289  35.481  1.00  0.00    -0.203 F 
ATOM     68  F   UNL A   1      47.916  28.089  34.953  1.00  0.00    -0.200 F 
ATOM     69  C   UNL A   1      46.396  26.480  35.777  1.00  0.00     0.200 A 
ATOM     70  F   UNL A   1      44.839  24.889  36.563  1.00  0.00    -0.200 F 
ATOM     71  F   UNL A   1      47.407  25.761  36.280  1.00  0.00    -0.200 F 
ENDBRANCH  38  61
ENDBRANCH  12  13
ENDBRANCH   5   7
ENDBRANCH   2   3
ENDBRANCH   1   2
BRANCH   1  72
ATOM     72  C   UNL A   1      31.514  30.540  25.752  1.00  0.00     0.117 C 
BRANCH  72  73
ATOM     73  N   UNL A   1      31.847  29.272  26.372  1.00  0.00    -0.354 N 
ATOM     74  C   UNL A   1      31.765  27.982  25.941  1.00  0.00     0.248 C 
ATOM     75  H   UNL A   1      32.202  29.362  27.286  1.00  0.00     0.163 HD
ATOM     76  O   UNL A   1      32.567  27.190  26.453  1.00  0.00    -0.272 OA
BRANCH  74  77
ATOM     77  C   UNL A   1      30.851  27.484  24.815  1.00  0.00     0.231 C 
ATOM     78  C   UNL A   1      30.251  26.122  25.298  1.00  0.00     0.296 C 
ATOM     79  N   UNL A   1      31.438  27.539  23.477  1.00  0.00    -0.302 N 
ATOM     80  N   UNL A   1      30.071  25.062  24.297  1.00  0.00    -0.343 N 
ATOM     81  C   UNL A   1      31.510  26.275  22.714  1.00  0.00     0.183 C 
ATOM     82  C   UNL A   1      31.298  24.984  23.509  1.00  0.00     0.282 C 
ATOM     83  H   UNL A   1      29.282  25.287  23.691  1.00  0.00     0.346 HD
ATOM     84  H   UNL A   1      29.880  24.170  24.752  1.00  0.00     0.346 HD
BRANCH  79  85
ATOM     85  C   UNL A   1      31.654  28.664  22.743  1.00  0.00     0.318 C 
ATOM     86  O   UNL A   1      32.806  28.952  22.382  1.00  0.00    -0.249 OA
ATOM     87  N   UNL A   1      30.759  29.570  22.349  1.00  0.00    -0.333 N 
ATOM     88  H   UNL A   1      31.261  30.220  21.806  1.00  0.00     0.165 HD
BRANCH  87  89
ATOM     89  C   UNL A   1      29.367  30.050  22.352  1.00  0.00     0.112 C 
ATOM     90  C   UNL A   1      29.054  31.406  22.948  1.00  0.00     0.056 C 
ATOM     91  C   UNL A   1      28.215  29.151  22.749  1.00  0.00     0.185 C 
ATOM     92  C   UNL A   1      27.647  31.277  23.495  1.00  0.00     0.162 C 
ATOM     93  O   UNL A   1      27.117  30.029  23.042  1.00  0.00    -0.379 OA
ENDBRANCH  87  89
ENDBRANCH  79  85
ENDBRANCH  74  77
ENDBRANCH  72  73
ENDBRANCH   1  72
TORSDOF 12
ENDMDL
