MODEL 1
REMARK VINA RESULT:     -12.6      0.000      0.000
REMARK SMILES COC(=O)CNC(=O)N1[C@@H](C(=O)NCCCNC(=O)c2ccc(-c3c4nc(c(-c5c(F)c(F)c(F)c(F)c5F)c5ccc([nH]5)c(-c5c(F)c(F)c(F)c(F)c5F)c5nc(c(-c6c(F)c(F)c(F)c(F)c6F)c6ccc3[nH]6)C=C5)C=C4)cc2)CC[C@@H]2CCCC[C@H]21
REMARK SMILES IDX 14 1 13 2 11 3 12 4 10 6 9 7 90 8 83 9 85 10 89 11 84 12
REMARK SMILES IDX 86 13 88 14 87 15 7 16 6 17 8 19 5 20 3 21 4 22 2 23 1 24
REMARK SMILES IDX 15 25 16 26 17 27 18 28 19 30 20 31 21 32 82 33 22 34 81 35
REMARK SMILES IDX 23 36 24 37 25 38 75 39 26 40 80 41 74 42 76 43 27 44 79 45
REMARK SMILES IDX 73 46 72 47 28 49 60 50 40 51 59 52 41 53 44 54 58 55 77 56
REMARK SMILES IDX 42 57 43 58 57 60 78 61 45 62 29 63 30 64 38 65 31 66 32 67
REMARK SMILES IDX 36 68 39 69 33 70 34 71 37 72 35 73 61 74 62 75 70 76 63 77
REMARK SMILES IDX 64 78 68 79 71 80 65 81 66 82 69 83 67 84 46 85 47 86 55 87
REMARK SMILES IDX 48 88 49 89 53 90 56 91 50 92 51 93 54 94 52 95
REMARK H PARENT 13 5 6 18 17 29 76 48 44 59
REMARK Flexibility Score: inf
ROOT
ATOM      1  C   UNL A   1      31.788  30.684  26.313  1.00  0.00     0.117 C 
ENDROOT
BRANCH   1   2
ATOM      2  N   UNL A   1      31.255  30.380  24.997  1.00  0.00    -0.354 N 
ATOM      3  C   UNL A   1      30.979  29.176  24.428  1.00  0.00     0.242 C 
ATOM      4  O   UNL A   1      30.722  29.167  23.220  1.00  0.00    -0.273 OA
ATOM      5  H   UNL A   1      31.064  31.162  24.432  1.00  0.00     0.163 HD
BRANCH   3   6
ATOM      6  C   UNL A   1      31.100  27.852  25.214  1.00  0.00     0.176 C 
ATOM      7  N   UNL A   1      32.414  27.160  25.162  1.00  0.00    -0.310 N 
ATOM      8  C   UNL A   1      32.418  25.748  25.646  1.00  0.00     0.091 C 
ATOM      9  C   UNL A   1      29.941  26.984  24.677  1.00  0.00     0.036 C 
ATOM     10  C   UNL A   1      31.304  24.912  24.976  1.00  0.00     0.012 C 
ATOM     11  C   UNL A   1      33.763  24.992  25.575  1.00  0.00     0.025 C 
ATOM     12  C   UNL A   1      29.943  25.567  25.210  1.00  0.00     0.008 C 
ATOM     13  C   UNL A   1      31.257  23.465  25.494  1.00  0.00     0.006 C 
ATOM     14  C   UNL A   1      33.674  23.577  26.137  1.00  0.00     0.002 C 
ATOM     15  C   UNL A   1      32.609  22.772  25.409  1.00  0.00     0.000 C 
BRANCH   7  16
ATOM     16  C   UNL A   1      33.609  27.789  24.920  1.00  0.00     0.318 C 
ATOM     17  N   UNL A   1      34.158  27.880  23.699  1.00  0.00    -0.327 N 
ATOM     18  H   UNL A   1      35.123  28.069  23.736  1.00  0.00     0.166 HD
ATOM     19  O   UNL A   1      34.304  28.254  25.827  1.00  0.00    -0.249 OA
BRANCH  17  20
ATOM     20  C   UNL A   1      33.666  27.765  22.332  1.00  0.00     0.240 C 
BRANCH  20  21
ATOM     21  C   UNL A   1      32.960  26.451  22.031  1.00  0.00     0.325 C 
ATOM     22  O   UNL A   1      31.785  26.382  21.684  1.00  0.00    -0.250 OA
BRANCH  21  23
ATOM     23  O   UNL A   1      33.833  25.406  22.018  1.00  0.00    -0.468 OA
ATOM     24  C   UNL A   1      33.201  24.125  21.999  1.00  0.00     0.282 C 
ENDBRANCH  21  23
ENDBRANCH  20  21
ENDBRANCH  17  20
ENDBRANCH   7  16
ENDBRANCH   3   6
ENDBRANCH   1   2
BRANCH   1  25
ATOM     25  C   UNL A   1      31.487  32.125  26.691  1.00  0.00     0.042 C 
BRANCH  25  26
ATOM     26  C   UNL A   1      32.661  32.823  27.357  1.00  0.00     0.118 C 
BRANCH  26  27
ATOM     27  N   UNL A   1      32.389  34.225  27.639  1.00  0.00    -0.352 N 
ATOM     28  C   UNL A   1      32.957  35.042  28.583  1.00  0.00     0.251 C 
ATOM     29  H   UNL A   1      31.699  34.646  27.074  1.00  0.00     0.163 HD
ATOM     30  O   UNL A   1      32.481  36.148  28.821  1.00  0.00    -0.269 OA
BRANCH  28  31
ATOM     31  C   UNL A   1      34.137  34.566  29.330  1.00  0.00     0.039 A 
ATOM     32  C   UNL A   1      33.958  34.015  30.601  1.00  0.00     0.014 A 
ATOM     33  C   UNL A   1      35.410  34.631  28.757  1.00  0.00     0.014 A 
ATOM     34  C   UNL A   1      35.052  33.463  31.268  1.00  0.00     0.010 A 
ATOM     35  C   UNL A   1      36.477  33.997  29.381  1.00  0.00     0.010 A 
ATOM     36  C   UNL A   1      36.311  33.413  30.645  1.00  0.00    -0.014 A 
BRANCH  36  37
ATOM     37  C   UNL A   1      37.473  32.762  31.298  1.00  0.00     0.031 A 
ATOM     38  C   UNL A   1      38.149  31.598  30.630  1.00  0.00     0.074 A 
ATOM     39  C   UNL A   1      37.862  33.163  32.524  1.00  0.00     0.049 A 
ATOM     40  N   UNL A   1      39.106  30.826  31.079  1.00  0.00    -0.248 NA
ATOM     41  C   UNL A   1      37.665  31.231  29.289  1.00  0.00     0.031 C 
ATOM     42  C   UNL A   1      37.249  34.248  33.295  1.00  0.00     0.029 A 
ATOM     43  N   UNL A   1      38.855  32.693  33.347  1.00  0.00    -0.354 N 
ATOM     44  C   UNL A   1      39.317  29.875  30.091  1.00  0.00     0.074 A 
ATOM     45  C   UNL A   1      38.359  30.131  29.040  1.00  0.00     0.031 C 
ATOM     46  C   UNL A   1      37.889  34.368  34.470  1.00  0.00     0.029 A 
ATOM     47  C   UNL A   1      38.923  33.343  34.557  1.00  0.00     0.049 A 
ATOM     48  H   UNL A   1      39.462  31.960  33.095  1.00  0.00     0.167 HD
ATOM     49  C   UNL A   1      40.245  28.889  30.056  1.00  0.00     0.037 A 
ATOM     50  C   UNL A   1      39.717  33.121  35.621  1.00  0.00     0.037 A 
ATOM     51  C   UNL A   1      41.219  28.663  31.090  1.00  0.00     0.049 A 
ATOM     52  C   UNL A   1      40.740  32.017  35.554  1.00  0.00     0.074 A 
ATOM     53  C   UNL A   1      42.251  27.742  31.114  1.00  0.00     0.029 A 
ATOM     54  N   UNL A   1      41.278  29.363  32.287  1.00  0.00    -0.354 N 
ATOM     55  N   UNL A   1      40.985  31.176  34.580  1.00  0.00    -0.248 NA
ATOM     56  C   UNL A   1      41.600  31.836  36.732  1.00  0.00     0.031 C 
ATOM     57  C   UNL A   1      42.897  27.843  32.348  1.00  0.00     0.029 A 
ATOM     58  C   UNL A   1      42.311  28.871  33.069  1.00  0.00     0.049 A 
ATOM     59  H   UNL A   1      40.675  30.098  32.542  1.00  0.00     0.167 HD
ATOM     60  C   UNL A   1      42.046  30.390  35.012  1.00  0.00     0.074 A 
ATOM     61  C   UNL A   1      42.406  30.864  36.331  1.00  0.00     0.031 C 
ATOM     62  C   UNL A   1      42.664  29.365  34.374  1.00  0.00     0.037 A 
BRANCH  49  63
ATOM     63  C   UNL A   1      40.257  27.977  28.865  1.00  0.00     0.064 A 
ATOM     64  C   UNL A   1      40.983  28.284  27.704  1.00  0.00     0.173 A 
ATOM     65  C   UNL A   1      39.581  26.748  28.908  1.00  0.00     0.173 A 
ATOM     66  F   UNL A   1      41.636  29.452  27.606  1.00  0.00    -0.203 F 
ATOM     67  C   UNL A   1      41.015  27.405  26.625  1.00  0.00     0.198 A 
ATOM     68  C   UNL A   1      39.643  25.856  27.840  1.00  0.00     0.198 A 
ATOM     69  F   UNL A   1      38.876  26.400  29.995  1.00  0.00    -0.203 F 
ATOM     70  F   UNL A   1      41.682  27.739  25.511  1.00  0.00    -0.200 F 
ATOM     71  C   UNL A   1      40.355  26.189  26.697  1.00  0.00     0.200 A 
ATOM     72  F   UNL A   1      39.017  24.674  27.919  1.00  0.00    -0.200 F 
ATOM     73  F   UNL A   1      40.403  25.336  25.664  1.00  0.00    -0.200 F 
ENDBRANCH  49  63
BRANCH  50  74
ATOM     74  C   UNL A   1      39.581  33.957  36.845  1.00  0.00     0.064 A 
ATOM     75  C   UNL A   1      38.806  33.530  37.933  1.00  0.00     0.173 A 
ATOM     76  C   UNL A   1      40.202  35.212  36.942  1.00  0.00     0.173 A 
ATOM     77  F   UNL A   1      38.176  32.347  37.882  1.00  0.00    -0.203 F 
ATOM     78  C   UNL A   1      38.631  34.337  39.054  1.00  0.00     0.198 A 
ATOM     79  C   UNL A   1      40.054  36.004  38.078  1.00  0.00     0.198 A 
ATOM     80  F   UNL A   1      40.960  35.667  35.934  1.00  0.00    -0.203 F 
ATOM     81  F   UNL A   1      37.835  33.930  40.051  1.00  0.00    -0.200 F 
ATOM     82  C   UNL A   1      39.258  35.571  39.128  1.00  0.00     0.200 A 
ATOM     83  F   UNL A   1      40.676  37.188  38.153  1.00  0.00    -0.200 F 
ATOM     84  F   UNL A   1      39.087  36.349  40.206  1.00  0.00    -0.200 F 
ENDBRANCH  50  74
BRANCH  62  85
ATOM     85  C   UNL A   1      43.825  28.716  35.070  1.00  0.00     0.064 A 
ATOM     86  C   UNL A   1      45.133  29.204  34.940  1.00  0.00     0.173 A 
ATOM     87  C   UNL A   1      43.614  27.620  35.923  1.00  0.00     0.173 A 
ATOM     88  F   UNL A   1      45.389  30.240  34.126  1.00  0.00    -0.203 F 
ATOM     89  C   UNL A   1      46.191  28.606  35.620  1.00  0.00     0.198 A 
ATOM     90  C   UNL A   1      44.669  27.047  36.627  1.00  0.00     0.198 A 
ATOM     91  F   UNL A   1      42.381  27.119  36.089  1.00  0.00    -0.203 F 
ATOM     92  F   UNL A   1      47.439  29.060  35.444  1.00  0.00    -0.200 F 
ATOM     93  C   UNL A   1      45.956  27.535  36.470  1.00  0.00     0.200 A 
ATOM     94  F   UNL A   1      44.437  26.024  37.461  1.00  0.00    -0.200 F 
ATOM     95  F   UNL A   1      46.975  26.970  37.134  1.00  0.00    -0.200 F 
ENDBRANCH  62  85
ENDBRANCH  36  37
ENDBRANCH  28  31
ENDBRANCH  26  27
ENDBRANCH  25  26
ENDBRANCH   1  25
TORSDOF 14
ENDMDL
MODEL 2
REMARK VINA RESULT:     -12.6      1.192      2.386
REMARK SMILES COC(=O)CNC(=O)N1[C@@H](C(=O)NCCCNC(=O)c2ccc(-c3c4nc(c(-c5c(F)c(F)c(F)c(F)c5F)c5ccc([nH]5)c(-c5c(F)c(F)c(F)c(F)c5F)c5nc(c(-c6c(F)c(F)c(F)c(F)c6F)c6ccc3[nH]6)C=C5)C=C4)cc2)CC[C@@H]2CCCC[C@H]21
REMARK SMILES IDX 14 1 13 2 11 3 12 4 10 6 9 7 90 8 83 9 85 10 89 11 84 12
REMARK SMILES IDX 86 13 88 14 87 15 7 16 6 17 8 19 5 20 3 21 4 22 2 23 1 24
REMARK SMILES IDX 15 25 16 26 17 27 18 28 19 30 20 31 21 32 82 33 22 34 81 35
REMARK SMILES IDX 23 36 24 37 25 38 75 39 26 40 80 41 74 42 76 43 27 44 79 45
REMARK SMILES IDX 73 46 72 47 28 49 60 50 40 51 59 52 41 53 44 54 58 55 77 56
REMARK SMILES IDX 42 57 43 58 57 60 78 61 45 62 29 63 30 64 38 65 31 66 32 67
REMARK SMILES IDX 36 68 39 69 33 70 34 71 37 72 35 73 61 74 62 75 70 76 63 77
REMARK SMILES IDX 64 78 68 79 71 80 65 81 66 82 69 83 67 84 46 85 47 86 55 87
REMARK SMILES IDX 48 88 49 89 53 90 56 91 50 92 51 93 54 94 52 95
REMARK H PARENT 13 5 6 18 17 29 76 48 44 59
REMARK Flexibility Score: inf
ROOT
ATOM      1  C   UNL A   1      31.844  30.694  26.063  1.00  0.00     0.117 C 
ENDROOT
BRANCH   1   2
ATOM      2  N   UNL A   1      31.476  29.608  26.954  1.00  0.00    -0.354 N 
ATOM      3  C   UNL A   1      31.664  28.269  26.814  1.00  0.00     0.242 C 
ATOM      4  O   UNL A   1      31.081  27.529  27.614  1.00  0.00    -0.273 OA
ATOM      5  H   UNL A   1      31.023  29.882  27.783  1.00  0.00     0.163 HD
BRANCH   3   6
ATOM      6  C   UNL A   1      32.466  27.672  25.637  1.00  0.00     0.176 C 
ATOM      7  N   UNL A   1      31.697  26.903  24.625  1.00  0.00    -0.310 N 
ATOM      8  C   UNL A   1      32.513  26.074  23.688  1.00  0.00     0.091 C 
ATOM      9  C   UNL A   1      33.573  26.835  26.316  1.00  0.00     0.036 C 
ATOM     10  C   UNL A   1      33.516  25.177  24.448  1.00  0.00     0.012 C 
ATOM     11  C   UNL A   1      31.740  25.238  22.645  1.00  0.00     0.025 C 
ATOM     12  C   UNL A   1      34.411  26.032  25.345  1.00  0.00     0.008 C 
ATOM     13  C   UNL A   1      34.402  24.349  23.504  1.00  0.00     0.006 C 
ATOM     14  C   UNL A   1      32.664  24.468  21.707  1.00  0.00     0.002 C 
ATOM     15  C   UNL A   1      33.590  23.554  22.492  1.00  0.00     0.000 C 
BRANCH   7  16
ATOM     16  C   UNL A   1      30.360  27.082  24.370  1.00  0.00     0.318 C 
ATOM     17  N   UNL A   1      29.871  28.163  23.743  1.00  0.00    -0.327 N 
ATOM     18  H   UNL A   1      28.910  28.290  23.913  1.00  0.00     0.166 HD
ATOM     19  O   UNL A   1      29.502  26.291  24.767  1.00  0.00    -0.249 OA
BRANCH  17  20
ATOM     20  C   UNL A   1      30.423  29.193  22.872  1.00  0.00     0.240 C 
BRANCH  20  21
ATOM     21  C   UNL A   1      29.380  30.097  22.232  1.00  0.00     0.325 C 
ATOM     22  O   UNL A   1      28.720  29.773  21.251  1.00  0.00    -0.250 OA
BRANCH  21  23
ATOM     23  O   UNL A   1      29.153  31.209  22.985  1.00  0.00    -0.468 OA
ATOM     24  C   UNL A   1      27.820  31.306  23.485  1.00  0.00     0.282 C 
ENDBRANCH  21  23
ENDBRANCH  20  21
ENDBRANCH  17  20
ENDBRANCH   7  16
ENDBRANCH   3   6
ENDBRANCH   1   2
BRANCH   1  25
ATOM     25  C   UNL A   1      31.473  32.035  26.675  1.00  0.00     0.042 C 
BRANCH  25  26
ATOM     26  C   UNL A   1      32.640  32.713  27.374  1.00  0.00     0.118 C 
BRANCH  26  27
ATOM     27  N   UNL A   1      32.394  34.126  27.625  1.00  0.00    -0.352 N 
ATOM     28  C   UNL A   1      32.981  34.954  28.547  1.00  0.00     0.251 C 
ATOM     29  H   UNL A   1      31.710  34.546  27.054  1.00  0.00     0.163 HD
ATOM     30  O   UNL A   1      32.526  36.073  28.763  1.00  0.00    -0.269 OA
BRANCH  28  31
ATOM     31  C   UNL A   1      34.156  34.474  29.300  1.00  0.00     0.039 A 
ATOM     32  C   UNL A   1      33.966  33.892  30.555  1.00  0.00     0.014 A 
ATOM     33  C   UNL A   1      35.436  34.567  28.747  1.00  0.00     0.014 A 
ATOM     34  C   UNL A   1      35.057  33.336  31.224  1.00  0.00     0.010 A 
ATOM     35  C   UNL A   1      36.501  33.931  29.371  1.00  0.00     0.010 A 
ATOM     36  C   UNL A   1      36.325  33.315  30.619  1.00  0.00    -0.014 A 
BRANCH  36  37
ATOM     37  C   UNL A   1      37.485  32.662  31.273  1.00  0.00     0.031 A 
ATOM     38  C   UNL A   1      38.172  31.509  30.596  1.00  0.00     0.074 A 
ATOM     39  C   UNL A   1      37.862  33.050  32.507  1.00  0.00     0.049 A 
ATOM     40  N   UNL A   1      39.129  30.737  31.043  1.00  0.00    -0.248 NA
ATOM     41  C   UNL A   1      37.700  31.156  29.247  1.00  0.00     0.031 C 
ATOM     42  C   UNL A   1      37.238  34.122  33.285  1.00  0.00     0.029 A 
ATOM     43  N   UNL A   1      38.851  32.575  33.332  1.00  0.00    -0.354 N 
ATOM     44  C   UNL A   1      39.353  29.799  30.045  1.00  0.00     0.074 A 
ATOM     45  C   UNL A   1      38.402  30.063  28.990  1.00  0.00     0.031 C 
ATOM     46  C   UNL A   1      37.867  34.231  34.467  1.00  0.00     0.029 A 
ATOM     47  C   UNL A   1      38.906  33.210  34.550  1.00  0.00     0.049 A 
ATOM     48  H   UNL A   1      39.463  31.848  33.075  1.00  0.00     0.167 HD
ATOM     49  C   UNL A   1      40.286  28.818  30.005  1.00  0.00     0.037 A 
ATOM     50  C   UNL A   1      39.693  32.979  35.618  1.00  0.00     0.037 A 
ATOM     51  C   UNL A   1      41.253  28.585  31.045  1.00  0.00     0.049 A 
ATOM     52  C   UNL A   1      40.722  31.881  35.545  1.00  0.00     0.074 A 
ATOM     53  C   UNL A   1      42.290  27.669  31.065  1.00  0.00     0.029 A 
ATOM     54  N   UNL A   1      41.299  29.270  32.250  1.00  0.00    -0.354 N 
ATOM     55  N   UNL A   1      40.980  31.053  34.563  1.00  0.00    -0.248 NA
ATOM     56  C   UNL A   1      41.574  31.690  36.727  1.00  0.00     0.031 C 
ATOM     57  C   UNL A   1      42.926  27.758  32.306  1.00  0.00     0.029 A 
ATOM     58  C   UNL A   1      42.329  28.774  33.034  1.00  0.00     0.049 A 
ATOM     59  H   UNL A   1      40.690  29.999  32.510  1.00  0.00     0.167 HD
ATOM     60  C   UNL A   1      42.041  30.267  34.993  1.00  0.00     0.074 A 
ATOM     61  C   UNL A   1      42.388  30.727  36.321  1.00  0.00     0.031 C 
ATOM     62  C   UNL A   1      42.669  29.254  34.348  1.00  0.00     0.037 A 
BRANCH  49  63
ATOM     63  C   UNL A   1      40.312  27.921  28.803  1.00  0.00     0.064 A 
ATOM     64  C   UNL A   1      41.060  28.238  27.659  1.00  0.00     0.173 A 
ATOM     65  C   UNL A   1      39.628  26.696  28.820  1.00  0.00     0.173 A 
ATOM     66  F   UNL A   1      41.723  29.402  27.587  1.00  0.00    -0.203 F 
ATOM     67  C   UNL A   1      41.105  27.372  26.569  1.00  0.00     0.198 A 
ATOM     68  C   UNL A   1      39.702  25.817  27.742  1.00  0.00     0.198 A 
ATOM     69  F   UNL A   1      38.902  26.340  29.890  1.00  0.00    -0.203 F 
ATOM     70  F   UNL A   1      41.792  27.715  25.471  1.00  0.00    -0.200 F 
ATOM     71  C   UNL A   1      40.435  26.159  26.616  1.00  0.00     0.200 A 
ATOM     72  F   UNL A   1      39.067  24.638  27.796  1.00  0.00    -0.200 F 
ATOM     73  F   UNL A   1      40.495  25.319  25.573  1.00  0.00    -0.200 F 
ENDBRANCH  49  63
BRANCH  50  74
ATOM     74  C   UNL A   1      39.543  33.800  36.850  1.00  0.00     0.064 A 
ATOM     75  C   UNL A   1      38.750  33.362  37.920  1.00  0.00     0.173 A 
ATOM     76  C   UNL A   1      40.169  35.050  36.973  1.00  0.00     0.173 A 
ATOM     77  F   UNL A   1      38.115  32.183  37.844  1.00  0.00    -0.203 F 
ATOM     78  C   UNL A   1      38.562  34.155  39.050  1.00  0.00     0.198 A 
ATOM     79  C   UNL A   1      40.008  35.827  38.118  1.00  0.00     0.198 A 
ATOM     80  F   UNL A   1      40.945  35.514  35.983  1.00  0.00    -0.203 F 
ATOM     81  F   UNL A   1      37.749  33.739  40.030  1.00  0.00    -0.200 F 
ATOM     82  C   UNL A   1      39.195  35.385  39.150  1.00  0.00     0.200 A 
ATOM     83  F   UNL A   1      40.635  37.007  38.217  1.00  0.00    -0.200 F 
ATOM     84  F   UNL A   1      39.012  36.149  40.235  1.00  0.00    -0.200 F 
ENDBRANCH  50  74
BRANCH  62  85
ATOM     85  C   UNL A   1      43.828  28.602  35.046  1.00  0.00     0.064 A 
ATOM     86  C   UNL A   1      43.658  27.481  35.871  1.00  0.00     0.173 A 
ATOM     87  C   UNL A   1      45.133  29.075  34.840  1.00  0.00     0.173 A 
ATOM     88  F   UNL A   1      42.429  26.998  36.110  1.00  0.00    -0.203 F 
ATOM     89  C   UNL A   1      44.751  26.872  36.483  1.00  0.00     0.198 A 
ATOM     90  C   UNL A   1      46.226  28.443  35.427  1.00  0.00     0.198 A 
ATOM     91  F   UNL A   1      45.352  30.140  34.054  1.00  0.00    -0.203 F 
ATOM     92  F   UNL A   1      44.560  25.831  37.305  1.00  0.00    -0.200 F 
ATOM     93  C   UNL A   1      46.033  27.347  36.252  1.00  0.00     0.200 A 
ATOM     94  F   UNL A   1      47.465  28.893  35.188  1.00  0.00    -0.200 F 
ATOM     95  F   UNL A   1      47.084  26.750  36.832  1.00  0.00    -0.200 F 
ENDBRANCH  62  85
ENDBRANCH  36  37
ENDBRANCH  28  31
ENDBRANCH  26  27
ENDBRANCH  25  26
ENDBRANCH   1  25
TORSDOF 14
ENDMDL
MODEL 3
REMARK VINA RESULT:     -12.5      5.868     11.211
REMARK SMILES COC(=O)CNC(=O)N1[C@@H](C(=O)NCCCNC(=O)c2ccc(-c3c4nc(c(-c5c(F)c(F)c(F)c(F)c5F)c5ccc([nH]5)c(-c5c(F)c(F)c(F)c(F)c5F)c5nc(c(-c6c(F)c(F)c(F)c(F)c6F)c6ccc3[nH]6)C=C5)C=C4)cc2)CC[C@@H]2CCCC[C@H]21
REMARK SMILES IDX 14 1 13 2 11 3 12 4 10 6 9 7 90 8 83 9 85 10 89 11 84 12
REMARK SMILES IDX 86 13 88 14 87 15 7 16 6 17 8 19 5 20 3 21 4 22 2 23 1 24
REMARK SMILES IDX 15 25 16 26 17 27 18 28 19 30 20 31 21 32 82 33 22 34 81 35
REMARK SMILES IDX 23 36 24 37 25 38 75 39 26 40 80 41 74 42 76 43 27 44 79 45
REMARK SMILES IDX 73 46 72 47 28 49 60 50 40 51 59 52 41 53 44 54 58 55 77 56
REMARK SMILES IDX 42 57 43 58 57 60 78 61 45 62 29 63 30 64 38 65 31 66 32 67
REMARK SMILES IDX 36 68 39 69 33 70 34 71 37 72 35 73 61 74 62 75 70 76 63 77
REMARK SMILES IDX 64 78 68 79 71 80 65 81 66 82 69 83 67 84 46 85 47 86 55 87
REMARK SMILES IDX 48 88 49 89 53 90 56 91 50 92 51 93 54 94 52 95
REMARK H PARENT 13 5 6 18 17 29 76 48 44 59
REMARK Flexibility Score: inf
ROOT
ATOM      1  C   UNL A   1      37.116  20.745  24.937  1.00  0.00     0.117 C 
ENDROOT
BRANCH   1   2
ATOM      2  N   UNL A   1      35.774  20.201  25.039  1.00  0.00    -0.354 N 
ATOM      3  C   UNL A   1      34.579  20.770  24.727  1.00  0.00     0.242 C 
ATOM      4  O   UNL A   1      33.557  20.180  25.093  1.00  0.00    -0.273 OA
ATOM      5  H   UNL A   1      35.720  19.282  25.386  1.00  0.00     0.163 HD
BRANCH   3   6
ATOM      6  C   UNL A   1      34.484  22.158  24.055  1.00  0.00     0.176 C 
ATOM      7  N   UNL A   1      34.437  23.337  24.959  1.00  0.00    -0.310 N 
ATOM      8  C   UNL A   1      34.025  24.622  24.319  1.00  0.00     0.091 C 
ATOM      9  C   UNL A   1      33.246  22.053  23.138  1.00  0.00     0.036 C 
ATOM     10  C   UNL A   1      32.714  24.465  23.516  1.00  0.00     0.012 C 
ATOM     11  C   UNL A   1      33.936  25.859  25.239  1.00  0.00     0.025 C 
ATOM     12  C   UNL A   1      32.868  23.359  22.472  1.00  0.00     0.008 C 
ATOM     13  C   UNL A   1      32.294  25.763  22.809  1.00  0.00     0.006 C 
ATOM     14  C   UNL A   1      33.557  27.129  24.484  1.00  0.00     0.002 C 
ATOM     15  C   UNL A   1      32.233  26.950  23.759  1.00  0.00     0.000 C 
BRANCH   7  16
ATOM     16  C   UNL A   1      34.948  23.356  26.232  1.00  0.00     0.318 C 
ATOM     17  N   UNL A   1      34.210  23.101  27.323  1.00  0.00    -0.327 N 
ATOM     18  H   UNL A   1      34.623  23.451  28.145  1.00  0.00     0.166 HD
ATOM     19  O   UNL A   1      36.113  23.683  26.470  1.00  0.00    -0.249 OA
BRANCH  17  20
ATOM     20  C   UNL A   1      32.941  22.430  27.581  1.00  0.00     0.240 C 
BRANCH  20  21
ATOM     21  C   UNL A   1      31.772  22.971  26.772  1.00  0.00     0.325 C 
ATOM     22  O   UNL A   1      31.156  22.301  25.950  1.00  0.00    -0.250 OA
BRANCH  21  23
ATOM     23  O   UNL A   1      31.394  24.206  27.204  1.00  0.00    -0.468 OA
ATOM     24  C   UNL A   1      30.491  24.875  26.323  1.00  0.00     0.282 C 
ENDBRANCH  21  23
ENDBRANCH  20  21
ENDBRANCH  17  20
ENDBRANCH   7  16
ENDBRANCH   3   6
ENDBRANCH   1   2
BRANCH   1  25
ATOM     25  C   UNL A   1      38.150  19.634  25.025  1.00  0.00     0.042 C 
BRANCH  25  26
ATOM     26  C   UNL A   1      39.419  20.058  25.746  1.00  0.00     0.118 C 
BRANCH  26  27
ATOM     27  N   UNL A   1      40.376  18.969  25.876  1.00  0.00    -0.352 N 
ATOM     28  C   UNL A   1      41.731  19.031  26.080  1.00  0.00     0.251 C 
ATOM     29  H   UNL A   1      39.999  18.061  25.807  1.00  0.00     0.163 HD
ATOM     30  O   UNL A   1      42.426  18.024  25.975  1.00  0.00    -0.269 OA
BRANCH  28  31
ATOM     31  C   UNL A   1      42.352  20.329  26.404  1.00  0.00     0.039 A 
ATOM     32  C   UNL A   1      42.963  21.061  25.384  1.00  0.00     0.014 A 
ATOM     33  C   UNL A   1      42.294  20.835  27.705  1.00  0.00     0.014 A 
ATOM     34  C   UNL A   1      43.455  22.338  25.659  1.00  0.00     0.010 A 
ATOM     35  C   UNL A   1      42.697  22.141  27.953  1.00  0.00     0.010 A 
ATOM     36  C   UNL A   1      43.288  22.903  26.934  1.00  0.00    -0.014 A 
BRANCH  36  37
ATOM     37  C   UNL A   1      43.731  24.288  27.232  1.00  0.00     0.031 A 
ATOM     38  C   UNL A   1      42.734  25.302  27.719  1.00  0.00     0.074 A 
ATOM     39  C   UNL A   1      45.004  24.650  26.984  1.00  0.00     0.049 A 
ATOM     40  N   UNL A   1      42.892  26.583  27.933  1.00  0.00    -0.248 NA
ATOM     41  C   UNL A   1      41.366  24.818  27.970  1.00  0.00     0.031 C 
ATOM     42  C   UNL A   1      46.050  23.768  26.461  1.00  0.00     0.029 A 
ATOM     43  N   UNL A   1      45.633  25.863  27.121  1.00  0.00    -0.354 N 
ATOM     44  C   UNL A   1      41.645  27.057  28.317  1.00  0.00     0.074 A 
ATOM     45  C   UNL A   1      40.728  25.942  28.260  1.00  0.00     0.031 C 
ATOM     46  C   UNL A   1      47.192  24.465  26.336  1.00  0.00     0.029 A 
ATOM     47  C   UNL A   1      46.949  25.851  26.723  1.00  0.00     0.049 A 
ATOM     48  H   UNL A   1      45.184  26.666  27.471  1.00  0.00     0.167 HD
ATOM     49  C   UNL A   1      41.303  28.309  28.704  1.00  0.00     0.037 A 
ATOM     50  C   UNL A   1      47.850  26.849  26.659  1.00  0.00     0.037 A 
ATOM     51  C   UNL A   1      42.231  29.406  28.793  1.00  0.00     0.049 A 
ATOM     52  C   UNL A   1      47.441  28.232  27.097  1.00  0.00     0.074 A 
ATOM     53  C   UNL A   1      42.001  30.691  29.249  1.00  0.00     0.029 A 
ATOM     54  N   UNL A   1      43.563  29.346  28.412  1.00  0.00    -0.354 N 
ATOM     55  N   UNL A   1      46.280  28.650  27.537  1.00  0.00    -0.248 NA
ATOM     56  C   UNL A   1      48.470  29.279  27.034  1.00  0.00     0.031 C 
ATOM     57  C   UNL A   1      43.178  31.427  29.089  1.00  0.00     0.029 A 
ATOM     58  C   UNL A   1      44.160  30.584  28.595  1.00  0.00     0.049 A 
ATOM     59  H   UNL A   1      44.017  28.545  28.064  1.00  0.00     0.167 HD
ATOM     60  C   UNL A   1      46.446  29.997  27.834  1.00  0.00     0.074 A 
ATOM     61  C   UNL A   1      47.825  30.322  27.537  1.00  0.00     0.031 C 
ATOM     62  C   UNL A   1      45.538  30.885  28.308  1.00  0.00     0.037 A 
BRANCH  49  63
ATOM     63  C   UNL A   1      39.870  28.567  29.063  1.00  0.00     0.064 A 
ATOM     64  C   UNL A   1      39.382  28.358  30.362  1.00  0.00     0.173 A 
ATOM     65  C   UNL A   1      38.984  29.089  28.108  1.00  0.00     0.173 A 
ATOM     66  F   UNL A   1      40.184  27.849  31.310  1.00  0.00    -0.203 F 
ATOM     67  C   UNL A   1      38.059  28.643  30.686  1.00  0.00     0.198 A 
ATOM     68  C   UNL A   1      37.669  29.404  28.443  1.00  0.00     0.198 A 
ATOM     69  F   UNL A   1      39.398  29.313  26.852  1.00  0.00    -0.203 F 
ATOM     70  F   UNL A   1      37.605  28.396  31.923  1.00  0.00    -0.200 F 
ATOM     71  C   UNL A   1      37.207  29.175  29.731  1.00  0.00     0.200 A 
ATOM     72  F   UNL A   1      36.853  29.934  27.522  1.00  0.00    -0.200 F 
ATOM     73  F   UNL A   1      35.938  29.466  30.049  1.00  0.00    -0.200 F 
ENDBRANCH  49  63
BRANCH  50  74
ATOM     74  C   UNL A   1      49.227  26.585  26.163  1.00  0.00     0.064 A 
ATOM     75  C   UNL A   1      50.221  26.082  27.015  1.00  0.00     0.173 A 
ATOM     76  C   UNL A   1      49.586  26.854  24.833  1.00  0.00     0.173 A 
ATOM     77  F   UNL A   1      49.934  25.827  28.300  1.00  0.00    -0.203 F 
ATOM     78  C   UNL A   1      51.526  25.889  26.566  1.00  0.00     0.198 A 
ATOM     79  C   UNL A   1      50.882  26.628  24.376  1.00  0.00     0.198 A 
ATOM     80  F   UNL A   1      48.673  27.329  23.973  1.00  0.00    -0.203 F 
ATOM     81  F   UNL A   1      52.469  25.467  27.418  1.00  0.00    -0.200 F 
ATOM     82  C   UNL A   1      51.854  26.158  25.246  1.00  0.00     0.200 A 
ATOM     83  F   UNL A   1      51.191  26.873  23.095  1.00  0.00    -0.200 F 
ATOM     84  F   UNL A   1      53.109  25.975  24.815  1.00  0.00    -0.200 F 
ENDBRANCH  50  74
BRANCH  62  85
ATOM     85  C   UNL A   1      46.014  32.283  28.581  1.00  0.00     0.064 A 
ATOM     86  C   UNL A   1      46.576  32.645  29.814  1.00  0.00     0.173 A 
ATOM     87  C   UNL A   1      45.953  33.259  27.574  1.00  0.00     0.173 A 
ATOM     88  F   UNL A   1      46.644  31.752  30.814  1.00  0.00    -0.203 F 
ATOM     89  C   UNL A   1      47.040  33.939  30.035  1.00  0.00     0.198 A 
ATOM     90  C   UNL A   1      46.449  34.542  27.789  1.00  0.00     0.198 A 
ATOM     91  F   UNL A   1      45.431  32.963  26.375  1.00  0.00    -0.203 F 
ATOM     92  F   UNL A   1      47.531  34.275  31.236  1.00  0.00    -0.200 F 
ATOM     93  C   UNL A   1      46.985  34.882  29.020  1.00  0.00     0.200 A 
ATOM     94  F   UNL A   1      46.411  35.446  26.800  1.00  0.00    -0.200 F 
ATOM     95  F   UNL A   1      47.445  36.124  29.232  1.00  0.00    -0.200 F 
ENDBRANCH  62  85
ENDBRANCH  36  37
ENDBRANCH  28  31
ENDBRANCH  26  27
ENDBRANCH  25  26
ENDBRANCH   1  25
TORSDOF 14
ENDMDL
