MODEL 1
REMARK VINA RESULT:     -13.2      0.000      0.000
REMARK SMILES CC1(C)C[C@@H]([C@H](CCNC(=O)c2ccccc2C(=O)NCCCNC(=O)c2ccc(-c3c4nc(c(-c5c(F)c(F)c(F)c(F)c5F)c5ccc([nH]5)c(-c5c(F)c(F)c(F)c(F)c5F)c5nc(c(-c6c(F)c(F)c(F)c(F)c6F)c6ccc3[nH]6)C=C5)C=C4)cc2)c2ccccc2)CCO1
REMARK SMILES IDX 18 1 19 2 20 3 17 5 12 6 13 7 14 8 16 9 15 10 10 11 9 12
REMARK SMILES IDX 11 14 8 15 7 16 6 17 5 18 1 19 2 20 3 21 4 22 98 23 97 24
REMARK SMILES IDX 96 25 90 26 91 27 95 28 92 29 94 30 93 31 21 32 22 33 23 34
REMARK SMILES IDX 24 35 25 36 26 38 27 39 28 40 89 41 29 42 88 43 30 44 31 45
REMARK SMILES IDX 32 46 82 47 33 48 87 49 81 50 83 51 34 52 86 53 80 54 79 55
REMARK SMILES IDX 35 57 67 58 47 59 66 60 48 61 51 62 65 63 84 64 49 65 50 66
REMARK SMILES IDX 64 68 85 69 52 70 36 71 37 72 45 73 38 74 39 75 43 76 46 77
REMARK SMILES IDX 40 78 41 79 44 80 42 81 68 82 69 83 77 84 70 85 71 86 75 87
REMARK SMILES IDX 78 88 72 89 73 90 76 91 74 92 53 93 54 94 62 95 55 96 56 97
REMARK SMILES IDX 60 98 63 99 57 100 58 101 61 102 59 103
REMARK H PARENT 20 4 9 13 24 37 83 56 51 67
REMARK Flexibility Score: inf
ROOT
ATOM      1  C   UNL A   1      32.780  28.524  25.779  1.00  0.00     0.252 C 
ATOM      2  O   UNL A   1      33.898  28.053  25.984  1.00  0.00    -0.269 OA
ATOM      3  N   UNL A   1      32.569  29.845  26.071  1.00  0.00    -0.352 N 
ATOM      4  H   UNL A   1      33.343  30.315  26.456  1.00  0.00     0.163 HD
ENDROOT
BRANCH   1   5
ATOM      5  C   UNL A   1      31.713  27.627  25.276  1.00  0.00     0.052 A 
ATOM      6  C   UNL A   1      31.360  27.426  23.937  1.00  0.00     0.052 A 
ATOM      7  C   UNL A   1      30.256  26.608  23.626  1.00  0.00     0.014 A 
ATOM      8  C   UNL A   1      29.571  25.919  24.626  1.00  0.00     0.001 A 
ATOM      9  C   UNL A   1      31.040  26.891  26.271  1.00  0.00     0.014 A 
ATOM     10  C   UNL A   1      29.983  26.038  25.947  1.00  0.00     0.001 A 
BRANCH   6  11
ATOM     11  C   UNL A   1      32.042  27.996  22.761  1.00  0.00     0.252 C 
ATOM     12  N   UNL A   1      32.817  27.228  21.933  1.00  0.00    -0.352 N 
ATOM     13  H   UNL A   1      33.138  27.678  21.118  1.00  0.00     0.163 HD
ATOM     14  O   UNL A   1      31.861  29.182  22.492  1.00  0.00    -0.269 OA
BRANCH  12  15
ATOM     15  C   UNL A   1      33.233  25.847  22.085  1.00  0.00     0.117 C 
BRANCH  15  16
ATOM     16  C   UNL A   1      34.029  25.569  23.353  1.00  0.00     0.030 C 
BRANCH  16  17
ATOM     17  C   UNL A   1      34.305  24.098  23.800  1.00  0.00     0.024 C 
BRANCH  17  18
ATOM     18  C   UNL A   1      35.795  23.654  24.028  1.00  0.00     0.002 C 
ATOM     19  C   UNL A   1      34.580  20.421  24.816  1.00  0.00     0.042 C 
ATOM     20  C   UNL A   1      35.907  21.187  24.918  1.00  0.00     0.063 C 
ATOM     21  C   UNL A   1      37.018  20.120  24.917  1.00  0.00     0.042 C 
ATOM     22  C   UNL A   1      36.048  22.158  23.731  1.00  0.00     0.039 C 
ATOM     23  O   UNL A   1      35.937  21.878  26.173  1.00  0.00    -0.376 OA
ATOM     24  C   UNL A   1      36.886  22.938  26.232  1.00  0.00     0.161 C 
ATOM     25  C   UNL A   1      36.491  24.099  25.321  1.00  0.00     0.033 C 
ENDBRANCH  17  18
BRANCH  17  26
ATOM     26  C   UNL A   1      33.235  23.698  24.821  1.00  0.00    -0.045 A 
ATOM     27  C   UNL A   1      33.301  23.971  26.193  1.00  0.00     0.004 A 
ATOM     28  C   UNL A   1      32.088  23.026  24.357  1.00  0.00     0.004 A 
ATOM     29  C   UNL A   1      32.329  23.503  27.081  1.00  0.00     0.000 A 
ATOM     30  C   UNL A   1      31.099  22.580  25.239  1.00  0.00     0.000 A 
ATOM     31  C   UNL A   1      31.232  22.799  26.606  1.00  0.00     0.000 A 
ENDBRANCH  17  26
ENDBRANCH  16  17
ENDBRANCH  15  16
ENDBRANCH  12  15
ENDBRANCH   6  11
ENDBRANCH   1   5
BRANCH   3  32
ATOM     32  C   UNL A   1      31.382  30.657  25.900  1.00  0.00     0.118 C 
BRANCH  32  33
ATOM     33  C   UNL A   1      31.339  31.878  26.800  1.00  0.00     0.042 C 
BRANCH  33  34
ATOM     34  C   UNL A   1      32.460  32.886  26.577  1.00  0.00     0.118 C 
BRANCH  34  35
ATOM     35  N   UNL A   1      32.613  33.872  27.641  1.00  0.00    -0.352 N 
ATOM     36  C   UNL A   1      33.579  34.032  28.605  1.00  0.00     0.251 C 
ATOM     37  H   UNL A   1      31.895  34.544  27.674  1.00  0.00     0.163 HD
ATOM     38  O   UNL A   1      33.442  34.908  29.455  1.00  0.00    -0.269 OA
BRANCH  36  39
ATOM     39  C   UNL A   1      34.724  33.111  28.719  1.00  0.00     0.039 A 
ATOM     40  C   UNL A   1      36.001  33.662  28.564  1.00  0.00     0.014 A 
ATOM     41  C   UNL A   1      34.578  31.776  29.084  1.00  0.00     0.014 A 
ATOM     42  C   UNL A   1      37.115  32.938  28.967  1.00  0.00     0.010 A 
ATOM     43  C   UNL A   1      35.668  31.104  29.613  1.00  0.00     0.010 A 
ATOM     44  C   UNL A   1      36.936  31.700  29.596  1.00  0.00    -0.014 A 
BRANCH  44  45
ATOM     45  C   UNL A   1      38.059  31.053  30.304  1.00  0.00     0.031 A 
ATOM     46  C   UNL A   1      38.320  31.382  31.738  1.00  0.00     0.074 A 
ATOM     47  C   UNL A   1      38.874  30.234  29.609  1.00  0.00     0.049 A 
ATOM     48  N   UNL A   1      39.290  30.979  32.514  1.00  0.00    -0.248 NA
ATOM     49  C   UNL A   1      37.388  32.325  32.377  1.00  0.00     0.031 C 
ATOM     50  C   UNL A   1      38.741  29.916  28.183  1.00  0.00     0.029 A 
ATOM     51  N   UNL A   1      39.971  29.515  30.003  1.00  0.00    -0.354 N 
ATOM     52  C   UNL A   1      39.101  31.640  33.718  1.00  0.00     0.074 A 
ATOM     53  C   UNL A   1      37.963  32.517  33.552  1.00  0.00     0.031 C 
ATOM     54  C   UNL A   1      39.681  29.023  27.839  1.00  0.00     0.029 A 
ATOM     55  C   UNL A   1      40.507  28.738  29.004  1.00  0.00     0.049 A 
ATOM     56  H   UNL A   1      40.341  29.552  30.915  1.00  0.00     0.167 HD
ATOM     57  C   UNL A   1      39.802  31.503  34.868  1.00  0.00     0.037 A 
ATOM     58  C   UNL A   1      41.545  27.883  29.040  1.00  0.00     0.037 A 
ATOM     59  C   UNL A   1      40.908  30.596  35.015  1.00  0.00     0.049 A 
ATOM     60  C   UNL A   1      42.271  27.705  30.343  1.00  0.00     0.074 A 
ATOM     61  C   UNL A   1      41.675  30.338  36.135  1.00  0.00     0.029 A 
ATOM     62  N   UNL A   1      41.396  29.787  33.996  1.00  0.00    -0.354 N 
ATOM     63  N   UNL A   1      42.057  28.298  31.493  1.00  0.00    -0.248 NA
ATOM     64  C   UNL A   1      43.375  26.739  30.358  1.00  0.00     0.031 C 
ATOM     65  C   UNL A   1      42.642  29.387  35.787  1.00  0.00     0.029 A 
ATOM     66  C   UNL A   1      42.455  29.027  34.461  1.00  0.00     0.049 A 
ATOM     67  H   UNL A   1      41.040  29.758  33.079  1.00  0.00     0.167 HD
ATOM     68  C   UNL A   1      42.982  27.764  32.376  1.00  0.00     0.074 A 
ATOM     69  C   UNL A   1      43.750  26.785  31.629  1.00  0.00     0.031 C 
ATOM     70  C   UNL A   1      43.185  28.055  33.685  1.00  0.00     0.037 A 
BRANCH  57  71
ATOM     71  C   UNL A   1      39.376  32.352  36.029  1.00  0.00     0.064 A 
ATOM     72  C   UNL A   1      39.953  33.609  36.269  1.00  0.00     0.173 A 
ATOM     73  C   UNL A   1      38.415  31.888  36.939  1.00  0.00     0.173 A 
ATOM     74  F   UNL A   1      40.894  34.090  35.442  1.00  0.00    -0.203 F 
ATOM     75  C   UNL A   1      39.620  34.347  37.402  1.00  0.00     0.198 A 
ATOM     76  C   UNL A   1      38.061  32.643  38.054  1.00  0.00     0.198 A 
ATOM     77  F   UNL A   1      37.834  30.692  36.758  1.00  0.00    -0.203 F 
ATOM     78  F   UNL A   1      40.242  35.508  37.650  1.00  0.00    -0.200 F 
ATOM     79  C   UNL A   1      38.673  33.864  38.293  1.00  0.00     0.200 A 
ATOM     80  F   UNL A   1      37.141  32.178  38.911  1.00  0.00    -0.200 F 
ATOM     81  F   UNL A   1      38.363  34.568  39.390  1.00  0.00    -0.200 F 
ENDBRANCH  57  71
BRANCH  58  82
ATOM     82  C   UNL A   1      41.903  27.095  27.832  1.00  0.00     0.064 A 
ATOM     83  C   UNL A   1      42.828  27.593  26.902  1.00  0.00     0.173 A 
ATOM     84  C   UNL A   1      41.361  25.824  27.593  1.00  0.00     0.173 A 
ATOM     85  F   UNL A   1      43.365  28.809  27.080  1.00  0.00    -0.203 F 
ATOM     86  C   UNL A   1      43.185  26.858  25.774  1.00  0.00     0.198 A 
ATOM     87  C   UNL A   1      41.736  25.080  26.475  1.00  0.00     0.198 A 
ATOM     88  F   UNL A   1      40.481  25.297  28.455  1.00  0.00    -0.203 F 
ATOM     89  F   UNL A   1      44.046  27.374  24.885  1.00  0.00    -0.200 F 
ATOM     90  C   UNL A   1      42.644  25.599  25.564  1.00  0.00     0.200 A 
ATOM     91  F   UNL A   1      41.222  23.856  26.283  1.00  0.00    -0.200 F 
ATOM     92  F   UNL A   1      42.993  24.888  24.482  1.00  0.00    -0.200 F 
ENDBRANCH  58  82
BRANCH  70  93
ATOM     93  C   UNL A   1      44.257  27.283  34.389  1.00  0.00     0.064 A 
ATOM     94  C   UNL A   1      45.569  27.767  34.475  1.00  0.00     0.173 A 
ATOM     95  C   UNL A   1      43.954  26.067  35.019  1.00  0.00     0.173 A 
ATOM     96  F   UNL A   1      45.907  28.917  33.872  1.00  0.00    -0.203 F 
ATOM     97  C   UNL A   1      46.549  27.049  35.154  1.00  0.00     0.198 A 
ATOM     98  C   UNL A   1      44.929  25.366  35.719  1.00  0.00     0.198 A 
ATOM     99  F   UNL A   1      42.710  25.569  34.965  1.00  0.00    -0.203 F 
ATOM    100  F   UNL A   1      47.807  27.507  35.192  1.00  0.00    -0.200 F 
ATOM    101  C   UNL A   1      46.227  25.853  35.781  1.00  0.00     0.200 A 
ATOM    102  F   UNL A   1      44.616  24.216  36.332  1.00  0.00    -0.200 F 
ATOM    103  F   UNL A   1      47.169  25.168  36.440  1.00  0.00    -0.200 F 
ENDBRANCH  70  93
ENDBRANCH  44  45
ENDBRANCH  36  39
ENDBRANCH  34  35
ENDBRANCH  33  34
ENDBRANCH  32  33
ENDBRANCH   3  32
TORSDOF 16
ENDMDL
MODEL 2
REMARK VINA RESULT:     -13.2      1.289      2.483
REMARK SMILES CC1(C)C[C@@H]([C@H](CCNC(=O)c2ccccc2C(=O)NCCCNC(=O)c2ccc(-c3c4nc(c(-c5c(F)c(F)c(F)c(F)c5F)c5ccc([nH]5)c(-c5c(F)c(F)c(F)c(F)c5F)c5nc(c(-c6c(F)c(F)c(F)c(F)c6F)c6ccc3[nH]6)C=C5)C=C4)cc2)c2ccccc2)CCO1
REMARK SMILES IDX 18 1 19 2 20 3 17 5 12 6 13 7 14 8 16 9 15 10 10 11 9 12
REMARK SMILES IDX 11 14 8 15 7 16 6 17 5 18 1 19 2 20 3 21 4 22 98 23 97 24
REMARK SMILES IDX 96 25 90 26 91 27 95 28 92 29 94 30 93 31 21 32 22 33 23 34
REMARK SMILES IDX 24 35 25 36 26 38 27 39 28 40 89 41 29 42 88 43 30 44 31 45
REMARK SMILES IDX 32 46 82 47 33 48 87 49 81 50 83 51 34 52 86 53 80 54 79 55
REMARK SMILES IDX 35 57 67 58 47 59 66 60 48 61 51 62 65 63 84 64 49 65 50 66
REMARK SMILES IDX 64 68 85 69 52 70 36 71 37 72 45 73 38 74 39 75 43 76 46 77
REMARK SMILES IDX 40 78 41 79 44 80 42 81 68 82 69 83 77 84 70 85 71 86 75 87
REMARK SMILES IDX 78 88 72 89 73 90 76 91 74 92 53 93 54 94 62 95 55 96 56 97
REMARK SMILES IDX 60 98 63 99 57 100 58 101 61 102 59 103
REMARK H PARENT 20 4 9 13 24 37 83 56 51 67
REMARK Flexibility Score: inf
ROOT
ATOM      1  C   UNL A   1      33.477  26.979  25.445  1.00  0.00     0.252 C 
ATOM      2  O   UNL A   1      34.229  26.264  26.107  1.00  0.00    -0.269 OA
ATOM      3  N   UNL A   1      33.762  28.316  25.361  1.00  0.00    -0.352 N 
ATOM      4  H   UNL A   1      34.552  28.607  25.872  1.00  0.00     0.163 HD
ENDROOT
BRANCH   1   5
ATOM      5  C   UNL A   1      32.282  26.366  24.820  1.00  0.00     0.052 A 
ATOM      6  C   UNL A   1      32.178  25.905  23.503  1.00  0.00     0.052 A 
ATOM      7  C   UNL A   1      30.940  25.431  23.029  1.00  0.00     0.014 A 
ATOM      8  C   UNL A   1      29.841  25.325  23.879  1.00  0.00     0.001 A 
ATOM      9  C   UNL A   1      31.177  26.211  25.679  1.00  0.00     0.014 A 
ATOM     10  C   UNL A   1      29.969  25.687  25.214  1.00  0.00     0.001 A 
BRANCH   6  11
ATOM     11  C   UNL A   1      33.267  25.853  22.509  1.00  0.00     0.252 C 
ATOM     12  N   UNL A   1      33.870  24.674  22.158  1.00  0.00    -0.352 N 
ATOM     13  H   UNL A   1      34.507  24.733  21.410  1.00  0.00     0.163 HD
ATOM     14  O   UNL A   1      33.600  26.894  21.946  1.00  0.00    -0.269 OA
BRANCH  12  15
ATOM     15  C   UNL A   1      33.703  23.352  22.732  1.00  0.00     0.117 C 
BRANCH  15  16
ATOM     16  C   UNL A   1      34.916  22.847  23.501  1.00  0.00     0.030 C 
BRANCH  16  17
ATOM     17  C   UNL A   1      35.019  23.076  25.043  1.00  0.00     0.024 C 
BRANCH  17  18
ATOM     18  C   UNL A   1      33.886  22.492  25.961  1.00  0.00     0.002 C 
ATOM     19  C   UNL A   1      34.448  19.344  24.437  1.00  0.00     0.042 C 
ATOM     20  C   UNL A   1      33.401  19.983  25.360  1.00  0.00     0.063 C 
ATOM     21  C   UNL A   1      32.752  18.824  26.140  1.00  0.00     0.042 C 
ATOM     22  C   UNL A   1      34.076  20.996  26.303  1.00  0.00     0.039 C 
ATOM     23  O   UNL A   1      32.398  20.605  24.547  1.00  0.00    -0.376 OA
ATOM     24  C   UNL A   1      31.610  21.573  25.233  1.00  0.00     0.161 C 
ATOM     25  C   UNL A   1      32.429  22.808  25.601  1.00  0.00     0.033 C 
ENDBRANCH  17  18
BRANCH  17  26
ATOM     26  C   UNL A   1      36.485  22.909  25.456  1.00  0.00    -0.045 A 
ATOM     27  C   UNL A   1      37.250  21.757  25.230  1.00  0.00     0.004 A 
ATOM     28  C   UNL A   1      37.128  23.990  26.088  1.00  0.00     0.004 A 
ATOM     29  C   UNL A   1      38.558  21.640  25.709  1.00  0.00     0.000 A 
ATOM     30  C   UNL A   1      38.446  23.887  26.545  1.00  0.00     0.000 A 
ATOM     31  C   UNL A   1      39.154  22.702  26.375  1.00  0.00     0.000 A 
ENDBRANCH  17  26
ENDBRANCH  16  17
ENDBRANCH  15  16
ENDBRANCH  12  15
ENDBRANCH   6  11
ENDBRANCH   1   5
BRANCH   3  32
ATOM     32  C   UNL A   1      33.081  29.367  24.634  1.00  0.00     0.118 C 
BRANCH  32  33
ATOM     33  C   UNL A   1      31.947  30.012  25.408  1.00  0.00     0.042 C 
BRANCH  33  34
ATOM     34  C   UNL A   1      32.230  30.262  26.885  1.00  0.00     0.118 C 
BRANCH  34  35
ATOM     35  N   UNL A   1      32.408  31.665  27.241  1.00  0.00    -0.352 N 
ATOM     36  C   UNL A   1      33.512  32.368  27.659  1.00  0.00     0.251 C 
ATOM     37  H   UNL A   1      31.589  32.206  27.170  1.00  0.00     0.163 HD
ATOM     38  O   UNL A   1      33.389  33.546  27.983  1.00  0.00    -0.269 OA
BRANCH  36  39
ATOM     39  C   UNL A   1      34.823  31.720  27.840  1.00  0.00     0.039 A 
ATOM     40  C   UNL A   1      35.930  32.561  28.006  1.00  0.00     0.014 A 
ATOM     41  C   UNL A   1      34.967  30.342  27.967  1.00  0.00     0.014 A 
ATOM     42  C   UNL A   1      37.121  32.039  28.490  1.00  0.00     0.010 A 
ATOM     43  C   UNL A   1      36.105  29.840  28.578  1.00  0.00     0.010 A 
ATOM     44  C   UNL A   1      37.173  30.696  28.883  1.00  0.00    -0.014 A 
BRANCH  44  45
ATOM     45  C   UNL A   1      38.311  30.193  29.678  1.00  0.00     0.031 A 
ATOM     46  C   UNL A   1      38.471  30.624  31.099  1.00  0.00     0.074 A 
ATOM     47  C   UNL A   1      39.226  29.411  29.071  1.00  0.00     0.049 A 
ATOM     48  N   UNL A   1      39.434  30.354  31.940  1.00  0.00    -0.248 NA
ATOM     49  C   UNL A   1      37.431  31.516  31.637  1.00  0.00     0.031 C 
ATOM     50  C   UNL A   1      39.192  29.002  27.662  1.00  0.00     0.029 A 
ATOM     51  N   UNL A   1      40.360  28.816  29.555  1.00  0.00    -0.354 N 
ATOM     52  C   UNL A   1      39.129  31.064  33.092  1.00  0.00     0.074 A 
ATOM     53  C   UNL A   1      37.930  31.825  32.823  1.00  0.00     0.031 C 
ATOM     54  C   UNL A   1      40.221  28.177  27.415  1.00  0.00     0.029 A 
ATOM     55  C   UNL A   1      41.009  28.034  28.631  1.00  0.00     0.049 A 
ATOM     56  H   UNL A   1      40.681  28.938  30.479  1.00  0.00     0.167 HD
ATOM     57  C   UNL A   1      39.782  31.055  34.278  1.00  0.00     0.037 A 
ATOM     58  C   UNL A   1      42.114  27.277  28.764  1.00  0.00     0.037 A 
ATOM     59  C   UNL A   1      40.953  30.260  34.529  1.00  0.00     0.049 A 
ATOM     60  C   UNL A   1      42.788  27.239  30.107  1.00  0.00     0.074 A 
ATOM     61  C   UNL A   1      41.683  30.135  35.695  1.00  0.00     0.029 A 
ATOM     62  N   UNL A   1      41.558  29.440  33.584  1.00  0.00    -0.354 N 
ATOM     63  N   UNL A   1      42.467  27.875  31.208  1.00  0.00    -0.248 NA
ATOM     64  C   UNL A   1      43.969  26.377  30.229  1.00  0.00     0.031 C 
ATOM     65  C   UNL A   1      42.745  29.255  35.449  1.00  0.00     0.029 A 
ATOM     66  C   UNL A   1      42.654  28.805  34.140  1.00  0.00     0.049 A 
ATOM     67  H   UNL A   1      41.252  29.328  32.655  1.00  0.00     0.167 HD
ATOM     68  C   UNL A   1      43.390  27.477  32.162  1.00  0.00     0.074 A 
ATOM     69  C   UNL A   1      44.275  26.530  31.510  1.00  0.00     0.031 C 
ATOM     70  C   UNL A   1      43.503  27.859  33.458  1.00  0.00     0.037 A 
BRANCH  57  71
ATOM     71  C   UNL A   1      39.228  31.928  35.365  1.00  0.00     0.064 A 
ATOM     72  C   UNL A   1      39.544  33.294  35.442  1.00  0.00     0.173 A 
ATOM     73  C   UNL A   1      38.410  31.387  36.368  1.00  0.00     0.173 A 
ATOM     74  F   UNL A   1      40.341  33.856  34.520  1.00  0.00    -0.203 F 
ATOM     75  C   UNL A   1      39.103  34.073  36.508  1.00  0.00     0.198 A 
ATOM     76  C   UNL A   1      37.944  32.178  37.415  1.00  0.00     0.198 A 
ATOM     77  F   UNL A   1      38.079  30.087  36.344  1.00  0.00    -0.203 F 
ATOM     78  F   UNL A   1      39.483  35.355  36.600  1.00  0.00    -0.200 F 
ATOM     79  C   UNL A   1      38.302  33.516  37.493  1.00  0.00     0.200 A 
ATOM     80  F   UNL A   1      37.165  31.639  38.364  1.00  0.00    -0.200 F 
ATOM     81  F   UNL A   1      37.889  34.263  38.526  1.00  0.00    -0.200 F 
ENDBRANCH  57  71
BRANCH  58  82
ATOM     82  C   UNL A   1      42.598  26.457  27.624  1.00  0.00     0.064 A 
ATOM     83  C   UNL A   1      43.509  26.987  26.698  1.00  0.00     0.173 A 
ATOM     84  C   UNL A   1      42.191  25.127  27.447  1.00  0.00     0.173 A 
ATOM     85  F   UNL A   1      43.919  28.258  26.817  1.00  0.00    -0.203 F 
ATOM     86  C   UNL A   1      43.983  26.223  25.634  1.00  0.00     0.198 A 
ATOM     87  C   UNL A   1      42.683  24.356  26.395  1.00  0.00     0.198 A 
ATOM     88  F   UNL A   1      41.330  24.569  28.309  1.00  0.00    -0.203 F 
ATOM     89  F   UNL A   1      44.829  26.766  24.746  1.00  0.00    -0.200 F 
ATOM     90  C   UNL A   1      43.575  24.906  25.486  1.00  0.00     0.200 A 
ATOM     91  F   UNL A   1      42.298  23.079  26.263  1.00  0.00    -0.200 F 
ATOM     92  F   UNL A   1      44.037  24.169  24.466  1.00  0.00    -0.200 F 
ENDBRANCH  58  82
BRANCH  70  93
ATOM     93  C   UNL A   1      44.602  27.227  34.254  1.00  0.00     0.064 A 
ATOM     94  C   UNL A   1      44.410  26.014  34.930  1.00  0.00     0.173 A 
ATOM     95  C   UNL A   1      45.870  27.822  34.304  1.00  0.00     0.173 A 
ATOM     96  F   UNL A   1      43.207  25.420  34.923  1.00  0.00    -0.203 F 
ATOM     97  C   UNL A   1      45.448  25.427  35.646  1.00  0.00     0.198 A 
ATOM     98  C   UNL A   1      46.912  27.219  34.999  1.00  0.00     0.198 A 
ATOM     99  F   UNL A   1      46.099  28.981  33.669  1.00  0.00    -0.203 F 
ATOM    100  F   UNL A   1      45.235  24.288  36.319  1.00  0.00    -0.200 F 
ATOM    101  C   UNL A   1      46.700  26.026  35.674  1.00  0.00     0.200 A 
ATOM    102  F   UNL A   1      48.124  27.792  35.018  1.00  0.00    -0.200 F 
ATOM    103  F   UNL A   1      47.700  25.455  36.357  1.00  0.00    -0.200 F 
ENDBRANCH  70  93
ENDBRANCH  44  45
ENDBRANCH  36  39
ENDBRANCH  34  35
ENDBRANCH  33  34
ENDBRANCH  32  33
ENDBRANCH   3  32
TORSDOF 16
ENDMDL
MODEL 3
REMARK VINA RESULT:     -13.2      1.121      2.326
REMARK SMILES CC1(C)C[C@@H]([C@H](CCNC(=O)c2ccccc2C(=O)NCCCNC(=O)c2ccc(-c3c4nc(c(-c5c(F)c(F)c(F)c(F)c5F)c5ccc([nH]5)c(-c5c(F)c(F)c(F)c(F)c5F)c5nc(c(-c6c(F)c(F)c(F)c(F)c6F)c6ccc3[nH]6)C=C5)C=C4)cc2)c2ccccc2)CCO1
REMARK SMILES IDX 18 1 19 2 20 3 17 5 12 6 13 7 14 8 16 9 15 10 10 11 9 12
REMARK SMILES IDX 11 14 8 15 7 16 6 17 5 18 1 19 2 20 3 21 4 22 98 23 97 24
REMARK SMILES IDX 96 25 90 26 91 27 95 28 92 29 94 30 93 31 21 32 22 33 23 34
REMARK SMILES IDX 24 35 25 36 26 38 27 39 28 40 89 41 29 42 88 43 30 44 31 45
REMARK SMILES IDX 32 46 82 47 33 48 87 49 81 50 83 51 34 52 86 53 80 54 79 55
REMARK SMILES IDX 35 57 67 58 47 59 66 60 48 61 51 62 65 63 84 64 49 65 50 66
REMARK SMILES IDX 64 68 85 69 52 70 36 71 37 72 45 73 38 74 39 75 43 76 46 77
REMARK SMILES IDX 40 78 41 79 44 80 42 81 68 82 69 83 77 84 70 85 71 86 75 87
REMARK SMILES IDX 78 88 72 89 73 90 76 91 74 92 53 93 54 94 62 95 55 96 56 97
REMARK SMILES IDX 60 98 63 99 57 100 58 101 61 102 59 103
REMARK H PARENT 20 4 9 13 24 37 83 56 51 67
REMARK Flexibility Score: inf
ROOT
ATOM      1  C   UNL A   1      33.141  27.798  25.751  1.00  0.00     0.252 C 
ATOM      2  O   UNL A   1      34.078  27.041  26.005  1.00  0.00    -0.269 OA
ATOM      3  N   UNL A   1      33.301  29.134  26.007  1.00  0.00    -0.352 N 
ATOM      4  H   UNL A   1      34.165  29.381  26.408  1.00  0.00     0.163 HD
ENDROOT
BRANCH   1   5
ATOM      5  C   UNL A   1      31.881  27.218  25.232  1.00  0.00     0.052 A 
ATOM      6  C   UNL A   1      31.419  27.282  23.913  1.00  0.00     0.052 A 
ATOM      7  C   UNL A   1      30.149  26.760  23.596  1.00  0.00     0.014 A 
ATOM      8  C   UNL A   1      29.389  26.096  24.556  1.00  0.00     0.001 A 
ATOM      9  C   UNL A   1      31.121  26.506  26.181  1.00  0.00     0.014 A 
ATOM     10  C   UNL A   1      29.889  25.942  25.843  1.00  0.00     0.001 A 
BRANCH   6  11
ATOM     11  C   UNL A   1      32.142  27.857  22.763  1.00  0.00     0.252 C 
ATOM     12  N   UNL A   1      32.908  27.083  21.932  1.00  0.00    -0.352 N 
ATOM     13  H   UNL A   1      33.259  27.541  21.134  1.00  0.00     0.163 HD
ATOM     14  O   UNL A   1      32.005  29.054  22.519  1.00  0.00    -0.269 OA
BRANCH  12  15
ATOM     15  C   UNL A   1      33.277  25.686  22.059  1.00  0.00     0.117 C 
BRANCH  15  16
ATOM     16  C   UNL A   1      34.205  25.388  23.229  1.00  0.00     0.030 C 
BRANCH  16  17
ATOM     17  C   UNL A   1      34.451  23.912  23.678  1.00  0.00     0.024 C 
BRANCH  17  18
ATOM     18  C   UNL A   1      35.933  23.432  23.888  1.00  0.00     0.002 C 
ATOM     19  C   UNL A   1      34.642  20.285  24.876  1.00  0.00     0.042 C 
ATOM     20  C   UNL A   1      35.995  21.011  24.901  1.00  0.00     0.063 C 
ATOM     21  C   UNL A   1      37.072  19.911  24.924  1.00  0.00     0.042 C 
ATOM     22  C   UNL A   1      36.131  21.915  23.662  1.00  0.00     0.039 C 
ATOM     23  O   UNL A   1      36.084  21.764  26.117  1.00  0.00    -0.376 OA
ATOM     24  C   UNL A   1      37.066  22.795  26.094  1.00  0.00     0.161 C 
ATOM     25  C   UNL A   1      36.680  23.920  25.136  1.00  0.00     0.033 C 
ENDBRANCH  17  18
BRANCH  17  26
ATOM     26  C   UNL A   1      33.385  23.543  24.716  1.00  0.00    -0.045 A 
ATOM     27  C   UNL A   1      33.518  23.737  26.097  1.00  0.00     0.004 A 
ATOM     28  C   UNL A   1      32.174  22.988  24.262  1.00  0.00     0.004 A 
ATOM     29  C   UNL A   1      32.541  23.299  26.996  1.00  0.00     0.000 A 
ATOM     30  C   UNL A   1      31.182  22.573  25.156  1.00  0.00     0.000 A 
ATOM     31  C   UNL A   1      31.376  22.708  26.527  1.00  0.00     0.000 A 
ENDBRANCH  17  26
ENDBRANCH  16  17
ENDBRANCH  15  16
ENDBRANCH  12  15
ENDBRANCH   6  11
ENDBRANCH   1   5
BRANCH   3  32
ATOM     32  C   UNL A   1      32.393  30.239  25.777  1.00  0.00     0.118 C 
BRANCH  32  33
ATOM     33  C   UNL A   1      32.092  31.054  27.021  1.00  0.00     0.042 C 
BRANCH  33  34
ATOM     34  C   UNL A   1      33.170  32.057  27.414  1.00  0.00     0.118 C 
BRANCH  34  35
ATOM     35  N   UNL A   1      32.689  33.416  27.628  1.00  0.00    -0.352 N 
ATOM     36  C   UNL A   1      33.151  34.433  28.429  1.00  0.00     0.251 C 
ATOM     37  H   UNL A   1      31.888  33.648  27.105  1.00  0.00     0.163 HD
ATOM     38  O   UNL A   1      32.515  35.481  28.500  1.00  0.00    -0.269 OA
BRANCH  36  39
ATOM     39  C   UNL A   1      34.331  34.264  29.296  1.00  0.00     0.039 A 
ATOM     40  C   UNL A   1      34.124  33.653  30.538  1.00  0.00     0.014 A 
ATOM     41  C   UNL A   1      35.620  34.575  28.876  1.00  0.00     0.014 A 
ATOM     42  C   UNL A   1      35.210  33.179  31.260  1.00  0.00     0.010 A 
ATOM     43  C   UNL A   1      36.695  33.986  29.522  1.00  0.00     0.010 A 
ATOM     44  C   UNL A   1      36.490  33.247  30.695  1.00  0.00    -0.014 A 
BRANCH  44  45
ATOM     45  C   UNL A   1      37.609  32.487  31.287  1.00  0.00     0.031 A 
ATOM     46  C   UNL A   1      38.080  32.815  32.667  1.00  0.00     0.074 A 
ATOM     47  C   UNL A   1      38.234  31.563  30.531  1.00  0.00     0.049 A 
ATOM     48  N   UNL A   1      39.086  32.318  33.336  1.00  0.00    -0.248 NA
ATOM     49  C   UNL A   1      37.348  33.876  33.377  1.00  0.00     0.031 C 
ATOM     50  C   UNL A   1      37.891  31.230  29.143  1.00  0.00     0.029 A 
ATOM     51  N   UNL A   1      39.281  30.728  30.816  1.00  0.00    -0.354 N 
ATOM     52  C   UNL A   1      39.124  33.024  34.529  1.00  0.00     0.074 A 
ATOM     53  C   UNL A   1      38.082  34.025  34.468  1.00  0.00     0.031 C 
ATOM     54  C   UNL A   1      38.673  30.224  28.722  1.00  0.00     0.029 A 
ATOM     55  C   UNL A   1      39.597  29.871  29.790  1.00  0.00     0.049 A 
ATOM     56  H   UNL A   1      39.762  30.741  31.676  1.00  0.00     0.167 HD
ATOM     57  C   UNL A   1      39.940  32.830  35.591  1.00  0.00     0.037 A 
ATOM     58  C   UNL A   1      40.527  28.899  29.733  1.00  0.00     0.037 A 
ATOM     59  C   UNL A   1      40.944  31.803  35.638  1.00  0.00     0.049 A 
ATOM     60  C   UNL A   1      41.382  28.666  30.946  1.00  0.00     0.074 A 
ATOM     61  C   UNL A   1      41.808  31.481  36.667  1.00  0.00     0.029 A 
ATOM     62  N   UNL A   1      41.207  30.919  34.599  1.00  0.00    -0.354 N 
ATOM     63  N   UNL A   1      41.381  29.306  32.091  1.00  0.00    -0.248 NA
ATOM     64  C   UNL A   1      42.362  27.577  30.865  1.00  0.00     0.031 C 
ATOM     65  C   UNL A   1      42.610  30.415  36.241  1.00  0.00     0.029 A 
ATOM     66  C   UNL A   1      42.221  30.050  34.961  1.00  0.00     0.049 A 
ATOM     67  H   UNL A   1      40.741  30.912  33.732  1.00  0.00     0.167 HD
ATOM     68  C   UNL A   1      42.340  28.687  32.876  1.00  0.00     0.074 A 
ATOM     69  C   UNL A   1      42.893  27.608  32.079  1.00  0.00     0.031 C 
ATOM     70  C   UNL A   1      42.734  28.981  34.140  1.00  0.00     0.037 A 
BRANCH  57  71
ATOM     71  C   UNL A   1      39.760  33.750  36.762  1.00  0.00     0.064 A 
ATOM     72  C   UNL A   1      38.920  33.416  37.836  1.00  0.00     0.173 A 
ATOM     73  C   UNL A   1      40.396  34.999  36.793  1.00  0.00     0.173 A 
ATOM     74  F   UNL A   1      38.269  32.242  37.845  1.00  0.00    -0.203 F 
ATOM     75  C   UNL A   1      38.685  34.316  38.872  1.00  0.00     0.198 A 
ATOM     76  C   UNL A   1      40.184  35.885  37.847  1.00  0.00     0.198 A 
ATOM     77  F   UNL A   1      41.208  35.371  35.792  1.00  0.00    -0.203 F 
ATOM     78  F   UNL A   1      37.818  34.004  39.845  1.00  0.00    -0.200 F 
ATOM     79  C   UNL A   1      39.319  35.550  38.877  1.00  0.00     0.200 A 
ATOM     80  F   UNL A   1      40.802  37.075  37.854  1.00  0.00    -0.200 F 
ATOM     81  F   UNL A   1      39.082  36.422  39.867  1.00  0.00    -0.200 F 
ENDBRANCH  57  71
BRANCH  58  82
ATOM     82  C   UNL A   1      40.641  28.048  28.521  1.00  0.00     0.064 A 
ATOM     83  C   UNL A   1      39.969  26.819  28.444  1.00  0.00     0.173 A 
ATOM     84  C   UNL A   1      41.392  28.449  27.406  1.00  0.00     0.173 A 
ATOM     85  F   UNL A   1      39.249  26.385  29.489  1.00  0.00    -0.203 F 
ATOM     86  C   UNL A   1      40.055  26.019  27.307  1.00  0.00     0.198 A 
ATOM     87  C   UNL A   1      41.459  27.659  26.260  1.00  0.00     0.198 A 
ATOM     88  F   UNL A   1      42.045  29.620  27.423  1.00  0.00    -0.203 F 
ATOM     89  F   UNL A   1      39.429  24.834  27.275  1.00  0.00    -0.200 F 
ATOM     90  C   UNL A   1      40.794  26.442  26.213  1.00  0.00     0.200 A 
ATOM     91  F   UNL A   1      42.162  28.077  25.198  1.00  0.00    -0.200 F 
ATOM     92  F   UNL A   1      40.871  25.675  25.116  1.00  0.00    -0.200 F 
ENDBRANCH  58  82
BRANCH  70  93
ATOM     93  C   UNL A   1      43.789  28.104  34.739  1.00  0.00     0.064 A 
ATOM     94  C   UNL A   1      43.459  26.920  35.412  1.00  0.00     0.173 A 
ATOM     95  C   UNL A   1      45.145  28.434  34.598  1.00  0.00     0.173 A 
ATOM     96  F   UNL A   1      42.174  26.576  35.584  1.00  0.00    -0.203 F 
ATOM     97  C   UNL A   1      44.453  26.103  35.942  1.00  0.00     0.198 A 
ATOM     98  C   UNL A   1      46.136  27.601  35.106  1.00  0.00     0.198 A 
ATOM     99  F   UNL A   1      45.505  29.555  33.958  1.00  0.00    -0.203 F 
ATOM    100  F   UNL A   1      44.117  24.995  36.617  1.00  0.00    -0.200 F 
ATOM    101  C   UNL A   1      45.790  26.440  35.782  1.00  0.00     0.200 A 
ATOM    102  F   UNL A   1      47.427  27.922  34.944  1.00  0.00    -0.200 F 
ATOM    103  F   UNL A   1      46.745  25.648  36.287  1.00  0.00    -0.200 F 
ENDBRANCH  70  93
ENDBRANCH  44  45
ENDBRANCH  36  39
ENDBRANCH  34  35
ENDBRANCH  33  34
ENDBRANCH  32  33
ENDBRANCH   3  32
TORSDOF 16
ENDMDL
