MODEL 1
REMARK VINA RESULT:     -13.2      0.000      0.000
REMARK SMILES Cc1ccccc1Sc1cncc(C(=O)NCCCNC(=O)c2ccc(-c3c4nc(c(-c5c(F)c(F)c(F)c(F)c5F)c5ccc([nH]5)c(-c5c(F)c(F)c(F)c(F)c5F)c5nc(c(-c6c(F)c(F)c(F)c(F)c6F)c6ccc3[nH]6)C=C5)C=C4)cc2)n1
REMARK SMILES IDX 18 1 17 2 16 3 14 4 15 5 13 7 9 8 10 9 86 10 11 11 12 12
REMARK SMILES IDX 8 13 7 14 1 15 2 16 3 17 4 18 6 19 5 20 19 21 20 22 21 23
REMARK SMILES IDX 22 25 23 26 24 27 85 28 25 29 84 30 26 31 27 32 28 33 78 34
REMARK SMILES IDX 29 35 83 36 77 37 79 38 30 39 82 40 76 41 75 42 31 44 63 45
REMARK SMILES IDX 43 46 62 47 44 48 47 49 61 50 80 51 45 52 46 53 60 55 81 56
REMARK SMILES IDX 48 57 32 58 33 59 41 60 34 61 35 62 39 63 42 64 36 65 37 66
REMARK SMILES IDX 40 67 38 68 64 69 65 70 73 71 66 72 67 73 71 74 74 75 68 76
REMARK SMILES IDX 69 77 72 78 70 79 49 80 50 81 58 82 51 83 52 84 56 85 59 86
REMARK SMILES IDX 53 87 54 88 57 89 55 90
REMARK H PARENT 16 6 20 24 79 43 47 54
REMARK Flexibility Score: inf
ROOT
ATOM      1  C   UNL A   1      32.085  30.637  26.344  1.00  0.00     0.042 C 
ENDROOT
BRANCH   1   2
ATOM      2  C   UNL A   1      31.954  29.578  25.250  1.00  0.00     0.118 C 
BRANCH   2   3
ATOM      3  N   UNL A   1      33.056  29.635  24.293  1.00  0.00    -0.351 N 
ATOM      4  C   UNL A   1      33.577  28.639  23.492  1.00  0.00     0.271 C 
ATOM      5  O   UNL A   1      34.456  28.936  22.681  1.00  0.00    -0.267 OA
ATOM      6  H   UNL A   1      33.490  30.514  24.207  1.00  0.00     0.163 HD
BRANCH   4   7
ATOM      7  C   UNL A   1      33.099  27.228  23.566  1.00  0.00     0.147 A 
ATOM      8  C   UNL A   1      33.044  25.182  24.625  1.00  0.00     0.120 A 
ATOM      9  C   UNL A   1      32.124  24.734  23.684  1.00  0.00     0.146 A 
ATOM     10  N   UNL A   1      33.536  26.442  24.579  1.00  0.00    -0.233 NA
ATOM     11  N   UNL A   1      31.710  25.495  22.638  1.00  0.00    -0.259 NA
ATOM     12  C   UNL A   1      32.222  26.753  22.599  1.00  0.00     0.145 A 
BRANCH   8  13
ATOM     13  S   UNL A   1      33.553  24.217  26.001  1.00  0.00    -0.068 SA
BRANCH  13  14
ATOM     14  C   UNL A   1      34.944  23.192  25.528  1.00  0.00     0.017 A 
ATOM     15  C   UNL A   1      33.777  21.045  24.675  1.00  0.00     0.045 C 
ATOM     16  C   UNL A   1      34.979  21.884  25.002  1.00  0.00    -0.037 A 
ATOM     17  C   UNL A   1      36.234  21.279  24.760  1.00  0.00     0.004 A 
ATOM     18  C   UNL A   1      37.431  21.956  24.975  1.00  0.00     0.000 A 
ATOM     19  C   UNL A   1      36.174  23.861  25.720  1.00  0.00     0.016 A 
ATOM     20  C   UNL A   1      37.401  23.258  25.442  1.00  0.00     0.001 A 
ENDBRANCH  13  14
ENDBRANCH   8  13
ENDBRANCH   4   7
ENDBRANCH   2   3
ENDBRANCH   1   2
BRANCH   1  21
ATOM     21  C   UNL A   1      33.149  30.275  27.373  1.00  0.00     0.118 C 
BRANCH  21  22
ATOM     22  N   UNL A   1      33.818  31.425  27.977  1.00  0.00    -0.352 N 
ATOM     23  C   UNL A   1      35.042  31.514  28.625  1.00  0.00     0.251 C 
ATOM     24  H   UNL A   1      33.321  32.273  27.914  1.00  0.00     0.163 HD
ATOM     25  O   UNL A   1      35.394  32.565  29.123  1.00  0.00    -0.269 OA
BRANCH  23  26
ATOM     26  C   UNL A   1      35.976  30.358  28.595  1.00  0.00     0.039 A 
ATOM     27  C   UNL A   1      36.279  29.717  29.806  1.00  0.00     0.014 A 
ATOM     28  C   UNL A   1      36.680  30.034  27.442  1.00  0.00     0.014 A 
ATOM     29  C   UNL A   1      37.440  28.952  29.906  1.00  0.00     0.010 A 
ATOM     30  C   UNL A   1      37.887  29.379  27.564  1.00  0.00     0.010 A 
ATOM     31  C   UNL A   1      38.297  28.891  28.808  1.00  0.00    -0.014 A 
BRANCH  31  32
ATOM     32  C   UNL A   1      39.687  28.461  28.888  1.00  0.00     0.031 A 
ATOM     33  C   UNL A   1      40.086  27.097  28.480  1.00  0.00     0.074 A 
ATOM     34  C   UNL A   1      40.635  29.381  29.174  1.00  0.00     0.049 A 
ATOM     35  N   UNL A   1      41.170  26.514  28.870  1.00  0.00    -0.248 NA
ATOM     36  C   UNL A   1      39.272  26.262  27.607  1.00  0.00     0.031 C 
ATOM     37  C   UNL A   1      42.073  29.263  28.943  1.00  0.00     0.029 A 
ATOM     38  N   UNL A   1      40.494  30.584  29.887  1.00  0.00    -0.354 N 
ATOM     39  C   UNL A   1      41.343  25.386  28.098  1.00  0.00     0.074 A 
ATOM     40  C   UNL A   1      40.098  25.235  27.381  1.00  0.00     0.031 C 
ATOM     41  C   UNL A   1      42.712  30.158  29.711  1.00  0.00     0.029 A 
ATOM     42  C   UNL A   1      41.717  30.771  30.572  1.00  0.00     0.049 A 
ATOM     43  H   UNL A   1      39.707  31.174  29.906  1.00  0.00     0.167 HD
ATOM     44  C   UNL A   1      42.574  24.796  28.048  1.00  0.00     0.037 A 
ATOM     45  C   UNL A   1      41.782  30.795  31.934  1.00  0.00     0.037 A 
ATOM     46  C   UNL A   1      43.528  25.504  28.901  1.00  0.00     0.049 A 
ATOM     47  C   UNL A   1      42.674  29.732  32.524  1.00  0.00     0.074 A 
ATOM     48  C   UNL A   1      44.498  26.452  28.614  1.00  0.00     0.029 A 
ATOM     49  N   UNL A   1      43.370  25.505  30.281  1.00  0.00    -0.354 N 
ATOM     50  N   UNL A   1      43.012  28.644  31.893  1.00  0.00    -0.248 NA
ATOM     51  C   UNL A   1      43.225  29.790  33.874  1.00  0.00     0.031 C 
ATOM     52  C   UNL A   1      44.911  27.040  29.831  1.00  0.00     0.029 A 
ATOM     53  C   UNL A   1      44.200  26.446  30.859  1.00  0.00     0.049 A 
ATOM     54  H   UNL A   1      42.753  24.919  30.777  1.00  0.00     0.167 HD
ATOM     55  C   UNL A   1      43.782  27.859  32.712  1.00  0.00     0.074 A 
ATOM     56  C   UNL A   1      43.899  28.628  33.936  1.00  0.00     0.031 C 
ATOM     57  C   UNL A   1      44.242  26.642  32.300  1.00  0.00     0.037 A 
BRANCH  44  58
ATOM     58  C   UNL A   1      43.012  23.786  27.003  1.00  0.00     0.064 A 
ATOM     59  C   UNL A   1      42.671  22.419  27.130  1.00  0.00     0.173 A 
ATOM     60  C   UNL A   1      43.808  24.080  25.882  1.00  0.00     0.173 A 
ATOM     61  F   UNL A   1      41.802  21.993  28.055  1.00  0.00    -0.203 F 
ATOM     62  C   UNL A   1      43.203  21.426  26.302  1.00  0.00     0.198 A 
ATOM     63  C   UNL A   1      44.382  23.085  25.082  1.00  0.00     0.198 A 
ATOM     64  F   UNL A   1      44.004  25.341  25.477  1.00  0.00    -0.203 F 
ATOM     65  F   UNL A   1      42.854  20.145  26.490  1.00  0.00    -0.200 F 
ATOM     66  C   UNL A   1      44.094  21.754  25.304  1.00  0.00     0.200 A 
ATOM     67  F   UNL A   1      45.215  23.429  24.088  1.00  0.00    -0.200 F 
ATOM     68  F   UNL A   1      44.642  20.802  24.539  1.00  0.00    -0.200 F 
ENDBRANCH  44  58
BRANCH  45  69
ATOM     69  C   UNL A   1      40.544  31.311  32.568  1.00  0.00     0.064 A 
ATOM     70  C   UNL A   1      40.334  32.703  32.576  1.00  0.00     0.173 A 
ATOM     71  C   UNL A   1      39.433  30.485  32.774  1.00  0.00     0.173 A 
ATOM     72  F   UNL A   1      41.368  33.536  32.380  1.00  0.00    -0.203 F 
ATOM     73  C   UNL A   1      39.052  33.239  32.665  1.00  0.00     0.198 A 
ATOM     74  C   UNL A   1      38.150  31.027  32.868  1.00  0.00     0.198 A 
ATOM     75  F   UNL A   1      39.569  29.150  32.758  1.00  0.00    -0.203 F 
ATOM     76  F   UNL A   1      38.873  34.563  32.558  1.00  0.00    -0.200 F 
ATOM     77  C   UNL A   1      37.958  32.398  32.779  1.00  0.00     0.200 A 
ATOM     78  F   UNL A   1      37.088  30.214  32.950  1.00  0.00    -0.200 F 
ATOM     79  F   UNL A   1      36.718  32.905  32.762  1.00  0.00    -0.200 F 
ENDBRANCH  45  69
BRANCH  57  80
ATOM     80  C   UNL A   1      44.873  25.574  33.162  1.00  0.00     0.064 A 
ATOM     81  C   UNL A   1      46.243  25.263  33.154  1.00  0.00     0.173 A 
ATOM     82  C   UNL A   1      44.111  24.913  34.158  1.00  0.00     0.173 A 
ATOM     83  F   UNL A   1      47.101  25.901  32.348  1.00  0.00    -0.203 F 
ATOM     84  C   UNL A   1      46.795  24.321  34.029  1.00  0.00     0.198 A 
ATOM     85  C   UNL A   1      44.675  24.020  35.068  1.00  0.00     0.198 A 
ATOM     86  F   UNL A   1      42.795  25.136  34.302  1.00  0.00    -0.203 F 
ATOM     87  F   UNL A   1      48.101  24.031  33.952  1.00  0.00    -0.200 F 
ATOM     88  C   UNL A   1      46.015  23.710  34.993  1.00  0.00     0.200 A 
ATOM     89  F   UNL A   1      43.913  23.478  36.029  1.00  0.00    -0.200 F 
ATOM     90  F   UNL A   1      46.559  22.844  35.858  1.00  0.00    -0.200 F 
ENDBRANCH  57  80
ENDBRANCH  31  32
ENDBRANCH  23  26
ENDBRANCH  21  22
ENDBRANCH   1  21
TORSDOF 12
ENDMDL
MODEL 2
REMARK VINA RESULT:     -13.1      3.567      9.837
REMARK SMILES Cc1ccccc1Sc1cncc(C(=O)NCCCNC(=O)c2ccc(-c3c4nc(c(-c5c(F)c(F)c(F)c(F)c5F)c5ccc([nH]5)c(-c5c(F)c(F)c(F)c(F)c5F)c5nc(c(-c6c(F)c(F)c(F)c(F)c6F)c6ccc3[nH]6)C=C5)C=C4)cc2)n1
REMARK SMILES IDX 18 1 17 2 16 3 14 4 15 5 13 7 9 8 10 9 86 10 11 11 12 12
REMARK SMILES IDX 8 13 7 14 1 15 2 16 3 17 4 18 6 19 5 20 19 21 20 22 21 23
REMARK SMILES IDX 22 25 23 26 24 27 85 28 25 29 84 30 26 31 27 32 28 33 78 34
REMARK SMILES IDX 29 35 83 36 77 37 79 38 30 39 82 40 76 41 75 42 31 44 63 45
REMARK SMILES IDX 43 46 62 47 44 48 47 49 61 50 80 51 45 52 46 53 60 55 81 56
REMARK SMILES IDX 48 57 32 58 33 59 41 60 34 61 35 62 39 63 42 64 36 65 37 66
REMARK SMILES IDX 40 67 38 68 64 69 65 70 73 71 66 72 67 73 71 74 74 75 68 76
REMARK SMILES IDX 69 77 72 78 70 79 49 80 50 81 58 82 51 83 52 84 56 85 59 86
REMARK SMILES IDX 53 87 54 88 57 89 55 90
REMARK H PARENT 16 6 20 24 79 43 47 54
REMARK Flexibility Score: inf
ROOT
ATOM      1  C   UNL A   1      38.103  21.246  25.416  1.00  0.00     0.042 C 
ENDROOT
BRANCH   1   2
ATOM      2  C   UNL A   1      36.593  21.220  25.179  1.00  0.00     0.118 C 
BRANCH   2   3
ATOM      3  N   UNL A   1      35.839  21.424  26.412  1.00  0.00    -0.351 N 
ATOM      4  C   UNL A   1      34.542  21.865  26.587  1.00  0.00     0.271 C 
ATOM      5  O   UNL A   1      34.072  21.872  27.725  1.00  0.00    -0.267 OA
ATOM      6  H   UNL A   1      36.327  21.216  27.241  1.00  0.00     0.163 HD
BRANCH   4   7
ATOM      7  C   UNL A   1      33.694  22.311  25.444  1.00  0.00     0.147 A 
ATOM      8  C   UNL A   1      32.880  23.985  24.086  1.00  0.00     0.120 A 
ATOM      9  C   UNL A   1      32.223  23.028  23.321  1.00  0.00     0.146 A 
ATOM     10  N   UNL A   1      33.632  23.633  25.154  1.00  0.00    -0.233 NA
ATOM     11  N   UNL A   1      32.240  21.704  23.625  1.00  0.00    -0.259 NA
ATOM     12  C   UNL A   1      32.989  21.369  24.708  1.00  0.00     0.145 A 
BRANCH   8  13
ATOM     13  S   UNL A   1      32.894  25.692  23.674  1.00  0.00    -0.068 SA
BRANCH  13  14
ATOM     14  C   UNL A   1      32.675  26.665  25.162  1.00  0.00     0.017 A 
ATOM     15  C   UNL A   1      30.287  25.999  25.905  1.00  0.00     0.045 C 
ATOM     16  C   UNL A   1      31.572  26.766  26.035  1.00  0.00    -0.037 A 
ATOM     17  C   UNL A   1      31.644  27.661  27.127  1.00  0.00     0.004 A 
ATOM     18  C   UNL A   1      32.791  28.404  27.394  1.00  0.00     0.000 A 
ATOM     19  C   UNL A   1      33.832  27.418  25.469  1.00  0.00     0.016 A 
ATOM     20  C   UNL A   1      33.895  28.270  26.572  1.00  0.00     0.001 A 
ENDBRANCH  13  14
ENDBRANCH   8  13
ENDBRANCH   4   7
ENDBRANCH   2   3
ENDBRANCH   1   2
BRANCH   1  21
ATOM     21  C   UNL A   1      38.579  22.586  25.962  1.00  0.00     0.118 C 
BRANCH  21  22
ATOM     22  N   UNL A   1      39.993  22.620  26.327  1.00  0.00    -0.352 N 
ATOM     23  C   UNL A   1      40.797  23.684  26.711  1.00  0.00     0.251 C 
ATOM     24  H   UNL A   1      40.449  21.747  26.296  1.00  0.00     0.163 HD
ATOM     25  O   UNL A   1      41.983  23.512  26.911  1.00  0.00    -0.269 OA
BRANCH  23  26
ATOM     26  C   UNL A   1      40.179  25.005  27.003  1.00  0.00     0.039 A 
ATOM     27  C   UNL A   1      40.600  26.114  26.255  1.00  0.00     0.014 A 
ATOM     28  C   UNL A   1      39.353  25.182  28.105  1.00  0.00     0.014 A 
ATOM     29  C   UNL A   1      40.400  27.398  26.760  1.00  0.00     0.010 A 
ATOM     30  C   UNL A   1      39.257  26.438  28.666  1.00  0.00     0.010 A 
ATOM     31  C   UNL A   1      39.833  27.538  28.026  1.00  0.00    -0.014 A 
BRANCH  31  32
ATOM     32  C   UNL A   1      39.912  28.758  28.819  1.00  0.00     0.031 A 
ATOM     33  C   UNL A   1      38.868  29.798  28.721  1.00  0.00     0.074 A 
ATOM     34  C   UNL A   1      40.862  28.847  29.777  1.00  0.00     0.049 A 
ATOM     35  N   UNL A   1      39.041  31.032  29.062  1.00  0.00    -0.248 NA
ATOM     36  C   UNL A   1      37.533  29.533  28.199  1.00  0.00     0.031 C 
ATOM     37  C   UNL A   1      40.890  29.778  30.903  1.00  0.00     0.029 A 
ATOM     38  N   UNL A   1      42.103  28.188  29.839  1.00  0.00    -0.354 N 
ATOM     39  C   UNL A   1      37.806  31.640  29.087  1.00  0.00     0.074 A 
ATOM     40  C   UNL A   1      36.913  30.687  28.471  1.00  0.00     0.031 C 
ATOM     41  C   UNL A   1      42.143  29.852  31.375  1.00  0.00     0.029 A 
ATOM     42  C   UNL A   1      42.987  29.092  30.472  1.00  0.00     0.049 A 
ATOM     43  H   UNL A   1      42.311  27.285  29.510  1.00  0.00     0.167 HD
ATOM     44  C   UNL A   1      37.658  32.820  29.759  1.00  0.00     0.037 A 
ATOM     45  C   UNL A   1      44.083  29.591  29.832  1.00  0.00     0.037 A 
ATOM     46  C   UNL A   1      38.929  33.254  30.338  1.00  0.00     0.049 A 
ATOM     47  C   UNL A   1      44.094  31.094  29.718  1.00  0.00     0.074 A 
ATOM     48  C   UNL A   1      39.449  33.141  31.617  1.00  0.00     0.029 A 
ATOM     49  N   UNL A   1      39.983  33.631  29.515  1.00  0.00    -0.354 N 
ATOM     50  N   UNL A   1      43.025  31.832  29.811  1.00  0.00    -0.248 NA
ATOM     51  C   UNL A   1      45.296  31.882  29.458  1.00  0.00     0.031 C 
ATOM     52  C   UNL A   1      40.830  33.432  31.558  1.00  0.00     0.029 A 
ATOM     53  C   UNL A   1      41.150  33.732  30.246  1.00  0.00     0.049 A 
ATOM     54  H   UNL A   1      39.908  33.801  28.547  1.00  0.00     0.167 HD
ATOM     55  C   UNL A   1      43.355  33.147  29.612  1.00  0.00     0.074 A 
ATOM     56  C   UNL A   1      44.792  33.128  29.410  1.00  0.00     0.031 C 
ATOM     57  C   UNL A   1      42.405  34.128  29.625  1.00  0.00     0.037 A 
BRANCH  44  58
ATOM     58  C   UNL A   1      36.328  33.425  30.171  1.00  0.00     0.064 A 
ATOM     59  C   UNL A   1      35.460  33.990  29.209  1.00  0.00     0.173 A 
ATOM     60  C   UNL A   1      35.866  33.529  31.496  1.00  0.00     0.173 A 
ATOM     61  F   UNL A   1      35.678  33.848  27.895  1.00  0.00    -0.203 F 
ATOM     62  C   UNL A   1      34.320  34.721  29.553  1.00  0.00     0.198 A 
ATOM     63  C   UNL A   1      34.753  34.303  31.848  1.00  0.00     0.198 A 
ATOM     64  F   UNL A   1      36.432  32.833  32.489  1.00  0.00    -0.203 F 
ATOM     65  F   UNL A   1      33.550  35.248  28.589  1.00  0.00    -0.200 F 
ATOM     66  C   UNL A   1      33.990  34.915  30.876  1.00  0.00     0.200 A 
ATOM     67  F   UNL A   1      34.425  34.444  33.141  1.00  0.00    -0.200 F 
ATOM     68  F   UNL A   1      32.924  35.653  31.213  1.00  0.00    -0.200 F 
ENDBRANCH  44  58
BRANCH  45  69
ATOM     69  C   UNL A   1      44.645  28.660  28.823  1.00  0.00     0.064 A 
ATOM     70  C   UNL A   1      45.438  27.590  29.278  1.00  0.00     0.173 A 
ATOM     71  C   UNL A   1      44.098  28.564  27.538  1.00  0.00     0.173 A 
ATOM     72  F   UNL A   1      45.981  27.634  30.504  1.00  0.00    -0.203 F 
ATOM     73  C   UNL A   1      45.578  26.425  28.527  1.00  0.00     0.198 A 
ATOM     74  C   UNL A   1      44.245  27.397  26.787  1.00  0.00     0.198 A 
ATOM     75  F   UNL A   1      43.318  29.545  27.058  1.00  0.00    -0.203 F 
ATOM     76  F   UNL A   1      46.246  25.380  29.034  1.00  0.00    -0.200 F 
ATOM     77  C   UNL A   1      44.954  26.318  27.296  1.00  0.00     0.200 A 
ATOM     78  F   UNL A   1      43.620  27.281  25.607  1.00  0.00    -0.200 F 
ATOM     79  F   UNL A   1      45.001  25.163  26.618  1.00  0.00    -0.200 F 
ENDBRANCH  45  69
BRANCH  57  80
ATOM     80  C   UNL A   1      42.577  35.560  29.177  1.00  0.00     0.064 A 
ATOM     81  C   UNL A   1      41.960  36.109  28.041  1.00  0.00     0.173 A 
ATOM     82  C   UNL A   1      43.275  36.488  29.991  1.00  0.00     0.173 A 
ATOM     83  F   UNL A   1      41.170  35.373  27.249  1.00  0.00    -0.203 F 
ATOM     84  C   UNL A   1      42.083  37.463  27.711  1.00  0.00     0.198 A 
ATOM     85  C   UNL A   1      43.346  37.847  29.692  1.00  0.00     0.198 A 
ATOM     86  F   UNL A   1      43.887  36.109  31.124  1.00  0.00    -0.203 F 
ATOM     87  F   UNL A   1      41.509  37.927  26.592  1.00  0.00    -0.200 F 
ATOM     88  C   UNL A   1      42.764  38.333  28.541  1.00  0.00     0.200 A 
ATOM     89  F   UNL A   1      43.964  38.684  30.536  1.00  0.00    -0.200 F 
ATOM     90  F   UNL A   1      42.839  39.637  28.244  1.00  0.00    -0.200 F 
ENDBRANCH  57  80
ENDBRANCH  31  32
ENDBRANCH  23  26
ENDBRANCH  21  22
ENDBRANCH   1  21
TORSDOF 12
ENDMDL
MODEL 3
REMARK VINA RESULT:     -13.1      1.426      1.917
REMARK SMILES Cc1ccccc1Sc1cncc(C(=O)NCCCNC(=O)c2ccc(-c3c4nc(c(-c5c(F)c(F)c(F)c(F)c5F)c5ccc([nH]5)c(-c5c(F)c(F)c(F)c(F)c5F)c5nc(c(-c6c(F)c(F)c(F)c(F)c6F)c6ccc3[nH]6)C=C5)C=C4)cc2)n1
REMARK SMILES IDX 18 1 17 2 16 3 14 4 15 5 13 7 9 8 10 9 86 10 11 11 12 12
REMARK SMILES IDX 8 13 7 14 1 15 2 16 3 17 4 18 6 19 5 20 19 21 20 22 21 23
REMARK SMILES IDX 22 25 23 26 24 27 85 28 25 29 84 30 26 31 27 32 28 33 78 34
REMARK SMILES IDX 29 35 83 36 77 37 79 38 30 39 82 40 76 41 75 42 31 44 63 45
REMARK SMILES IDX 43 46 62 47 44 48 47 49 61 50 80 51 45 52 46 53 60 55 81 56
REMARK SMILES IDX 48 57 32 58 33 59 41 60 34 61 35 62 39 63 42 64 36 65 37 66
REMARK SMILES IDX 40 67 38 68 64 69 65 70 73 71 66 72 67 73 71 74 74 75 68 76
REMARK SMILES IDX 69 77 72 78 70 79 49 80 50 81 58 82 51 83 52 84 56 85 59 86
REMARK SMILES IDX 53 87 54 88 57 89 55 90
REMARK H PARENT 16 6 20 24 79 43 47 54
REMARK Flexibility Score: inf
ROOT
ATOM      1  C   UNL A   1      32.709  29.825  27.246  1.00  0.00     0.042 C 
ENDROOT
BRANCH   1   2
ATOM      2  C   UNL A   1      31.988  30.143  25.937  1.00  0.00     0.118 C 
BRANCH   2   3
ATOM      3  N   UNL A   1      32.833  29.903  24.770  1.00  0.00    -0.351 N 
ATOM      4  C   UNL A   1      32.740  28.920  23.805  1.00  0.00     0.271 C 
ATOM      5  O   UNL A   1      33.512  28.963  22.847  1.00  0.00    -0.267 OA
ATOM      6  H   UNL A   1      33.577  30.536  24.655  1.00  0.00     0.163 HD
BRANCH   4   7
ATOM      7  C   UNL A   1      31.727  27.827  23.879  1.00  0.00     0.147 A 
ATOM      8  C   UNL A   1      31.135  25.680  24.470  1.00  0.00     0.120 A 
ATOM      9  C   UNL A   1      29.831  25.942  24.064  1.00  0.00     0.146 A 
ATOM     10  N   UNL A   1      32.098  26.628  24.388  1.00  0.00    -0.233 NA
ATOM     11  N   UNL A   1      29.455  27.124  23.512  1.00  0.00    -0.259 NA
ATOM     12  C   UNL A   1      30.437  28.061  23.425  1.00  0.00     0.145 A 
BRANCH   8  13
ATOM     13  S   UNL A   1      31.616  24.168  25.222  1.00  0.00    -0.068 SA
BRANCH  13  14
ATOM     14  C   UNL A   1      33.312  23.797  24.779  1.00  0.00     0.017 A 
ATOM     15  C   UNL A   1      33.073  22.984  22.333  1.00  0.00     0.045 C 
ATOM     16  C   UNL A   1      33.854  23.294  23.578  1.00  0.00    -0.037 A 
ATOM     17  C   UNL A   1      35.243  23.040  23.509  1.00  0.00     0.004 A 
ATOM     18  C   UNL A   1      36.096  23.323  24.573  1.00  0.00     0.000 A 
ATOM     19  C   UNL A   1      34.204  24.091  25.835  1.00  0.00     0.016 A 
ATOM     20  C   UNL A   1      35.577  23.865  25.735  1.00  0.00     0.001 A 
ENDBRANCH  13  14
ENDBRANCH   8  13
ENDBRANCH   4   7
ENDBRANCH   2   3
ENDBRANCH   1   2
BRANCH   1  21
ATOM     21  C   UNL A   1      34.214  30.041  27.143  1.00  0.00     0.118 C 
BRANCH  21  22
ATOM     22  N   UNL A   1      34.740  31.060  28.049  1.00  0.00    -0.352 N 
ATOM     23  C   UNL A   1      35.872  31.051  28.852  1.00  0.00     0.251 C 
ATOM     24  H   UNL A   1      34.205  31.886  28.097  1.00  0.00     0.163 HD
ATOM     25  O   UNL A   1      36.100  31.985  29.595  1.00  0.00    -0.269 OA
BRANCH  23  26
ATOM     26  C   UNL A   1      36.868  29.957  28.706  1.00  0.00     0.039 A 
ATOM     27  C   UNL A   1      36.996  29.032  29.754  1.00  0.00     0.014 A 
ATOM     28  C   UNL A   1      37.780  29.952  27.659  1.00  0.00     0.014 A 
ATOM     29  C   UNL A   1      38.169  28.287  29.871  1.00  0.00     0.010 A 
ATOM     30  C   UNL A   1      38.987  29.309  27.833  1.00  0.00     0.010 A 
ATOM     31  C   UNL A   1      39.205  28.524  28.969  1.00  0.00    -0.014 A 
BRANCH  31  32
ATOM     32  C   UNL A   1      40.585  28.112  29.193  1.00  0.00     0.031 A 
ATOM     33  C   UNL A   1      41.118  26.877  28.581  1.00  0.00     0.074 A 
ATOM     34  C   UNL A   1      41.422  28.965  29.824  1.00  0.00     0.049 A 
ATOM     35  N   UNL A   1      42.154  26.242  29.019  1.00  0.00    -0.248 NA
ATOM     36  C   UNL A   1      40.503  26.236  27.426  1.00  0.00     0.031 C 
ATOM     37  C   UNL A   1      42.883  28.926  29.822  1.00  0.00     0.029 A 
ATOM     38  N   UNL A   1      41.102  29.983  30.740  1.00  0.00    -0.354 N 
ATOM     39  C   UNL A   1      42.512  25.312  28.068  1.00  0.00     0.074 A 
ATOM     40  C   UNL A   1      41.410  25.298  27.134  1.00  0.00     0.031 C 
ATOM     41  C   UNL A   1      43.339  29.644  30.859  1.00  0.00     0.029 A 
ATOM     42  C   UNL A   1      42.185  30.038  31.647  1.00  0.00     0.049 A 
ATOM     43  H   UNL A   1      40.291  30.540  30.747  1.00  0.00     0.167 HD
ATOM     44  C   UNL A   1      43.764  24.768  28.106  1.00  0.00     0.037 A 
ATOM     45  C   UNL A   1      42.026  29.768  32.974  1.00  0.00     0.037 A 
ATOM     46  C   UNL A   1      44.527  25.292  29.239  1.00  0.00     0.049 A 
ATOM     47  C   UNL A   1      42.865  28.618  33.471  1.00  0.00     0.074 A 
ATOM     48  C   UNL A   1      45.478  26.296  29.328  1.00  0.00     0.029 A 
ATOM     49  N   UNL A   1      44.146  24.991  30.541  1.00  0.00    -0.354 N 
ATOM     50  N   UNL A   1      43.361  27.699  32.692  1.00  0.00    -0.248 NA
ATOM     51  C   UNL A   1      43.185  28.392  34.877  1.00  0.00     0.031 C 
ATOM     52  C   UNL A   1      45.654  26.614  30.694  1.00  0.00     0.029 A 
ATOM     53  C   UNL A   1      44.818  25.799  31.437  1.00  0.00     0.049 A 
ATOM     54  H   UNL A   1      43.489  24.300  30.790  1.00  0.00     0.167 HD
ATOM     55  C   UNL A   1      44.028  26.769  33.446  1.00  0.00     0.074 A 
ATOM     56  C   UNL A   1      43.902  27.256  34.807  1.00  0.00     0.031 C 
ATOM     57  C   UNL A   1      44.614  25.678  32.872  1.00  0.00     0.037 A 
BRANCH  44  58
ATOM     58  C   UNL A   1      44.420  24.016  26.962  1.00  0.00     0.064 A 
ATOM     59  C   UNL A   1      44.083  22.670  26.693  1.00  0.00     0.173 A 
ATOM     60  C   UNL A   1      45.422  24.539  26.125  1.00  0.00     0.173 A 
ATOM     61  F   UNL A   1      43.052  22.068  27.299  1.00  0.00    -0.203 F 
ATOM     62  C   UNL A   1      44.788  21.881  25.779  1.00  0.00     0.198 A 
ATOM     63  C   UNL A   1      46.163  23.740  25.245  1.00  0.00     0.198 A 
ATOM     64  F   UNL A   1      45.676  25.852  26.076  1.00  0.00    -0.203 F 
ATOM     65  F   UNL A   1      44.428  20.603  25.587  1.00  0.00    -0.200 F 
ATOM     66  C   UNL A   1      45.857  22.404  25.086  1.00  0.00     0.200 A 
ATOM     67  F   UNL A   1      47.174  24.279  24.548  1.00  0.00    -0.200 F 
ATOM     68  F   UNL A   1      46.563  21.640  24.243  1.00  0.00    -0.200 F 
ENDBRANCH  44  58
BRANCH  45  69
ATOM     69  C   UNL A   1      40.675  30.112  33.482  1.00  0.00     0.064 A 
ATOM     70  C   UNL A   1      40.398  31.462  33.767  1.00  0.00     0.173 A 
ATOM     71  C   UNL A   1      39.587  29.251  33.298  1.00  0.00     0.173 A 
ATOM     72  F   UNL A   1      41.408  32.328  33.949  1.00  0.00    -0.203 F 
ATOM     73  C   UNL A   1      39.095  31.952  33.749  1.00  0.00     0.198 A 
ATOM     74  C   UNL A   1      38.282  29.745  33.286  1.00  0.00     0.198 A 
ATOM     75  F   UNL A   1      39.789  27.957  33.004  1.00  0.00    -0.203 F 
ATOM     76  F   UNL A   1      38.871  33.264  33.914  1.00  0.00    -0.200 F 
ATOM     77  C   UNL A   1      38.040  31.098  33.477  1.00  0.00     0.200 A 
ATOM     78  F   UNL A   1      37.262  28.925  32.995  1.00  0.00    -0.200 F 
ATOM     79  F   UNL A   1      36.797  31.583  33.358  1.00  0.00    -0.200 F 
ENDBRANCH  45  69
BRANCH  57  80
ATOM     80  C   UNL A   1      45.153  24.460  33.585  1.00  0.00     0.064 A 
ATOM     81  C   UNL A   1      44.395  23.312  33.864  1.00  0.00     0.173 A 
ATOM     82  C   UNL A   1      46.535  24.358  33.885  1.00  0.00     0.173 A 
ATOM     83  F   UNL A   1      43.103  23.225  33.522  1.00  0.00    -0.203 F 
ATOM     84  C   UNL A   1      44.959  22.176  34.455  1.00  0.00     0.198 A 
ATOM     85  C   UNL A   1      47.106  23.203  34.418  1.00  0.00     0.198 A 
ATOM     86  F   UNL A   1      47.386  25.367  33.643  1.00  0.00    -0.203 F 
ATOM     87  F   UNL A   1      44.181  21.121  34.739  1.00  0.00    -0.200 F 
ATOM     88  C   UNL A   1      46.314  22.116  34.720  1.00  0.00     0.200 A 
ATOM     89  F   UNL A   1      48.430  23.145  34.618  1.00  0.00    -0.200 F 
ATOM     90  F   UNL A   1      46.857  21.008  35.241  1.00  0.00    -0.200 F 
ENDBRANCH  57  80
ENDBRANCH  31  32
ENDBRANCH  23  26
ENDBRANCH  21  22
ENDBRANCH   1  21
TORSDOF 12
ENDMDL
