MODEL 1
REMARK VINA RESULT:     -12.5      0.000      0.000
REMARK SMILES O=C(NCCCNC(=O)c1cc(/C=C/c2cc(O)cc(O)c2)ccc1O)c1ccc(-c2c3nc(c(-c4c(F)c(F)c(F)c(F)c4F)c4ccc([nH]4)c(-c4c(F)c(F)c(F)c(F)c4F)c4nc(c(-c5c(F)c(F)c(F)c(F)c5F)c5ccc2[nH]5)C=C4)C=C3)cc1
REMARK SMILES IDX 5 1 4 2 3 3 1 4 2 5 27 7 28 8 89 9 29 10 88 11 30 12 31 13
REMARK SMILES IDX 32 14 82 15 33 16 87 17 81 18 83 19 34 20 86 21 80 22 79 23
REMARK SMILES IDX 35 25 67 26 47 27 66 28 48 29 51 30 65 31 84 32 49 33 50 34
REMARK SMILES IDX 64 36 85 37 52 38 36 39 37 40 45 41 38 42 39 43 43 44 46 45
REMARK SMILES IDX 40 46 41 47 44 48 42 49 68 50 69 51 77 52 70 53 71 54 75 55
REMARK SMILES IDX 78 56 72 57 73 58 76 59 74 60 53 61 54 62 62 63 55 64 56 65
REMARK SMILES IDX 60 66 63 67 57 68 58 69 61 70 59 71 6 72 7 73 8 74 9 76
REMARK SMILES IDX 10 77 11 78 25 79 12 80 24 81 23 82 26 83 13 85 14 86 15 87
REMARK SMILES IDX 16 88 22 89 17 90 20 91 19 92 18 93 21 95
REMARK H PARENT 3 6 83 24 51 35 7 75 26 84 18 94 21 96
REMARK Flexibility Score: inf
ROOT
ATOM      1  C   UNL A   1      37.967  20.080  24.720  1.00  0.00     0.042 C 
ENDROOT
BRANCH   1   2
ATOM      2  C   UNL A   1      38.883  20.236  25.924  1.00  0.00     0.118 C 
BRANCH   2   3
ATOM      3  N   UNL A   1      39.983  19.281  25.926  1.00  0.00    -0.352 N 
ATOM      4  O   UNL A   1      42.112  18.552  25.850  1.00  0.00    -0.269 OA
ATOM      5  C   UNL A   1      41.332  19.478  26.066  1.00  0.00     0.251 C 
ATOM      6  H   UNL A   1      39.714  18.341  25.805  1.00  0.00     0.163 HD
BRANCH   5   7
ATOM      7  C   UNL A   1      41.863  20.803  26.448  1.00  0.00     0.039 A 
ATOM      8  C   UNL A   1      42.241  21.079  27.764  1.00  0.00     0.014 A 
ATOM      9  C   UNL A   1      42.015  21.778  25.460  1.00  0.00     0.014 A 
ATOM     10  C   UNL A   1      42.620  22.369  28.123  1.00  0.00     0.010 A 
ATOM     11  C   UNL A   1      42.487  23.046  25.803  1.00  0.00     0.010 A 
ATOM     12  C   UNL A   1      42.762  23.362  27.143  1.00  0.00    -0.014 A 
BRANCH  12  13
ATOM     13  C   UNL A   1      43.245  24.714  27.513  1.00  0.00     0.031 A 
ATOM     14  C   UNL A   1      42.304  25.731  28.092  1.00  0.00     0.074 A 
ATOM     15  C   UNL A   1      44.533  25.034  27.290  1.00  0.00     0.049 A 
ATOM     16  N   UNL A   1      42.518  26.991  28.374  1.00  0.00    -0.248 NA
ATOM     17  C   UNL A   1      40.937  25.273  28.382  1.00  0.00     0.031 C 
ATOM     18  C   UNL A   1      45.541  24.128  26.738  1.00  0.00     0.029 A 
ATOM     19  N   UNL A   1      45.212  26.210  27.484  1.00  0.00    -0.354 N 
ATOM     20  C   UNL A   1      41.309  27.484  28.847  1.00  0.00     0.074 A 
ATOM     21  C   UNL A   1      40.359  26.394  28.788  1.00  0.00     0.031 C 
ATOM     22  C   UNL A   1      46.709  24.776  26.643  1.00  0.00     0.029 A 
ATOM     23  C   UNL A   1      46.516  26.161  27.060  1.00  0.00     0.049 A 
ATOM     24  H   UNL A   1      44.804  27.010  27.887  1.00  0.00     0.167 HD
ATOM     25  C   UNL A   1      41.024  28.733  29.291  1.00  0.00     0.037 A 
ATOM     26  C   UNL A   1      47.445  27.130  26.975  1.00  0.00     0.037 A 
ATOM     27  C   UNL A   1      41.982  29.807  29.344  1.00  0.00     0.049 A 
ATOM     28  C   UNL A   1      47.094  28.520  27.423  1.00  0.00     0.074 A 
ATOM     29  C   UNL A   1      41.806  31.098  29.810  1.00  0.00     0.029 A 
ATOM     30  N   UNL A   1      43.295  29.720  28.901  1.00  0.00    -0.354 N 
ATOM     31  N   UNL A   1      45.958  28.971  27.897  1.00  0.00    -0.248 NA
ATOM     32  C   UNL A   1      48.151  29.535  27.325  1.00  0.00     0.031 C 
ATOM     33  C   UNL A   1      42.989  31.810  29.587  1.00  0.00     0.029 A 
ATOM     34  C   UNL A   1      43.931  30.943  29.053  1.00  0.00     0.049 A 
ATOM     35  H   UNL A   1      43.714  28.909  28.532  1.00  0.00     0.167 HD
ATOM     36  C   UNL A   1      46.170  30.311  28.187  1.00  0.00     0.074 A 
ATOM     37  C   UNL A   1      47.545  30.601  27.832  1.00  0.00     0.031 C 
ATOM     38  C   UNL A   1      45.305  31.215  28.707  1.00  0.00     0.037 A 
BRANCH  25  39
ATOM     39  C   UNL A   1      39.607  29.013  29.712  1.00  0.00     0.064 A 
ATOM     40  C   UNL A   1      38.645  29.498  28.813  1.00  0.00     0.173 A 
ATOM     41  C   UNL A   1      39.204  28.783  31.036  1.00  0.00     0.173 A 
ATOM     42  F   UNL A   1      38.976  29.743  27.535  1.00  0.00    -0.203 F 
ATOM     43  C   UNL A   1      37.350  29.788  29.234  1.00  0.00     0.198 A 
ATOM     44  C   UNL A   1      37.898  29.038  31.446  1.00  0.00     0.198 A 
ATOM     45  F   UNL A   1      40.078  28.309  31.937  1.00  0.00    -0.203 F 
ATOM     46  F   UNL A   1      36.468  30.316  28.374  1.00  0.00    -0.200 F 
ATOM     47  C   UNL A   1      36.975  29.553  30.549  1.00  0.00     0.200 A 
ATOM     48  F   UNL A   1      37.536  28.794  32.713  1.00  0.00    -0.200 F 
ATOM     49  F   UNL A   1      35.730  29.835  30.955  1.00  0.00    -0.200 F 
ENDBRANCH  25  39
BRANCH  26  50
ATOM     50  C   UNL A   1      48.786  26.803  26.430  1.00  0.00     0.064 A 
ATOM     51  C   UNL A   1      49.778  26.241  27.243  1.00  0.00     0.173 A 
ATOM     52  C   UNL A   1      49.083  26.992  25.071  1.00  0.00     0.173 A 
ATOM     53  F   UNL A   1      49.546  26.054  28.550  1.00  0.00    -0.203 F 
ATOM     54  C   UNL A   1      51.020  25.887  26.719  1.00  0.00     0.198 A 
ATOM     55  C   UNL A   1      50.313  26.610  24.542  1.00  0.00     0.198 A 
ATOM     56  F   UNL A   1      48.162  27.517  24.249  1.00  0.00    -0.203 F 
ATOM     57  F   UNL A   1      51.963  25.377  27.524  1.00  0.00    -0.200 F 
ATOM     58  C   UNL A   1      51.283  26.061  25.368  1.00  0.00     0.200 A 
ATOM     59  F   UNL A   1      50.554  26.760  23.233  1.00  0.00    -0.200 F 
ATOM     60  F   UNL A   1      52.470  25.701  24.862  1.00  0.00    -0.200 F 
ENDBRANCH  26  50
BRANCH  38  61
ATOM     61  C   UNL A   1      45.826  32.595  28.988  1.00  0.00     0.064 A 
ATOM     62  C   UNL A   1      46.479  32.915  30.186  1.00  0.00     0.173 A 
ATOM     63  C   UNL A   1      45.732  33.593  28.004  1.00  0.00     0.173 A 
ATOM     64  F   UNL A   1      46.580  32.002  31.164  1.00  0.00    -0.203 F 
ATOM     65  C   UNL A   1      47.011  34.185  30.392  1.00  0.00     0.198 A 
ATOM     66  C   UNL A   1      46.292  34.851  28.201  1.00  0.00     0.198 A 
ATOM     67  F   UNL A   1      45.120  33.337  26.837  1.00  0.00    -0.203 F 
ATOM     68  F   UNL A   1      47.601  34.480  31.559  1.00  0.00    -0.200 F 
ATOM     69  C   UNL A   1      46.927  35.147  29.397  1.00  0.00     0.200 A 
ATOM     70  F   UNL A   1      46.224  35.773  27.231  1.00  0.00    -0.200 F 
ATOM     71  F   UNL A   1      47.459  36.363  29.591  1.00  0.00    -0.200 F 
ENDBRANCH  38  61
ENDBRANCH  12  13
ENDBRANCH   5   7
ENDBRANCH   2   3
ENDBRANCH   1   2
BRANCH   1  72
ATOM     72  C   UNL A   1      37.183  21.334  24.367  1.00  0.00     0.118 C 
BRANCH  72  73
ATOM     73  N   UNL A   1      37.675  22.513  25.060  1.00  0.00    -0.352 N 
ATOM     74  C   UNL A   1      36.970  23.508  25.685  1.00  0.00     0.255 C 
ATOM     75  H   UNL A   1      38.654  22.609  25.086  1.00  0.00     0.163 HD
ATOM     76  O   UNL A   1      37.571  24.482  26.137  1.00  0.00    -0.269 OA
BRANCH  74  77
ATOM     77  C   UNL A   1      35.493  23.471  25.745  1.00  0.00     0.082 A 
ATOM     78  C   UNL A   1      34.813  24.515  25.101  1.00  0.00     0.025 A 
ATOM     79  C   UNL A   1      34.776  22.490  26.434  1.00  0.00     0.128 A 
ATOM     80  C   UNL A   1      33.413  24.564  25.092  1.00  0.00    -0.025 A 
ATOM     81  C   UNL A   1      33.385  22.505  26.409  1.00  0.00     0.047 A 
ATOM     82  C   UNL A   1      32.712  23.532  25.736  1.00  0.00     0.012 A 
BRANCH  79  83
ATOM     83  O   UNL A   1      35.424  21.513  27.135  1.00  0.00    -0.507 OA
ATOM     84  H   UNL A   1      36.358  21.523  27.201  1.00  0.00     0.293 HD
ENDBRANCH  79  83
BRANCH  80  85
ATOM     85  C   UNL A   1      32.641  25.650  24.463  1.00  0.00     0.009 C 
ATOM     86  C   UNL A   1      31.301  25.747  24.425  1.00  0.00     0.009 C 
BRANCH  86  87
ATOM     87  C   UNL A   1      30.599  26.838  23.734  1.00  0.00    -0.018 A 
ATOM     88  C   UNL A   1      29.202  26.954  23.782  1.00  0.00     0.054 A 
ATOM     89  C   UNL A   1      31.347  27.821  23.073  1.00  0.00     0.054 A 
ATOM     90  C   UNL A   1      28.574  28.028  23.155  1.00  0.00     0.119 A 
ATOM     91  C   UNL A   1      30.698  28.884  22.451  1.00  0.00     0.119 A 
ATOM     92  C   UNL A   1      29.313  28.994  22.484  1.00  0.00     0.092 A 
BRANCH  90  93
ATOM     93  O   UNL A   1      27.217  28.172  23.186  1.00  0.00    -0.508 OA
ATOM     94  H   UNL A   1      26.793  28.437  23.978  1.00  0.00     0.293 HD
ENDBRANCH  90  93
BRANCH  91  95
ATOM     95  O   UNL A   1      31.397  29.855  21.794  1.00  0.00    -0.508 OA
ATOM     96  H   UNL A   1      32.156  29.629  21.293  1.00  0.00     0.293 HD
ENDBRANCH  91  95
ENDBRANCH  86  87
ENDBRANCH  80  85
ENDBRANCH  74  77
ENDBRANCH  72  73
ENDBRANCH   1  72
TORSDOF 15
ENDMDL
MODEL 2
REMARK VINA RESULT:     -12.5      3.749      8.192
REMARK SMILES O=C(NCCCNC(=O)c1cc(/C=C/c2cc(O)cc(O)c2)ccc1O)c1ccc(-c2c3nc(c(-c4c(F)c(F)c(F)c(F)c4F)c4ccc([nH]4)c(-c4c(F)c(F)c(F)c(F)c4F)c4nc(c(-c5c(F)c(F)c(F)c(F)c5F)c5ccc2[nH]5)C=C4)C=C3)cc1
REMARK SMILES IDX 5 1 4 2 3 3 1 4 2 5 27 7 28 8 89 9 29 10 88 11 30 12 31 13
REMARK SMILES IDX 32 14 82 15 33 16 87 17 81 18 83 19 34 20 86 21 80 22 79 23
REMARK SMILES IDX 35 25 67 26 47 27 66 28 48 29 51 30 65 31 84 32 49 33 50 34
REMARK SMILES IDX 64 36 85 37 52 38 36 39 37 40 45 41 38 42 39 43 43 44 46 45
REMARK SMILES IDX 40 46 41 47 44 48 42 49 68 50 69 51 77 52 70 53 71 54 75 55
REMARK SMILES IDX 78 56 72 57 73 58 76 59 74 60 53 61 54 62 62 63 55 64 56 65
REMARK SMILES IDX 60 66 63 67 57 68 58 69 61 70 59 71 6 72 7 73 8 74 9 76
REMARK SMILES IDX 10 77 11 78 25 79 12 80 24 81 23 82 26 83 13 85 14 86 15 87
REMARK SMILES IDX 16 88 22 89 17 90 20 91 19 92 18 93 21 95
REMARK H PARENT 3 6 83 24 51 35 7 75 26 84 18 94 21 96
REMARK Flexibility Score: inf
ROOT
ATOM      1  C   UNL A   1      33.226  28.107  25.930  1.00  0.00     0.042 C 
ENDROOT
BRANCH   1   2
ATOM      2  C   UNL A   1      33.996  28.441  27.199  1.00  0.00     0.118 C 
BRANCH   2   3
ATOM      3  N   UNL A   1      33.911  29.851  27.557  1.00  0.00    -0.352 N 
ATOM      4  O   UNL A   1      34.444  31.772  28.602  1.00  0.00    -0.269 OA
ATOM      5  C   UNL A   1      34.790  30.649  28.241  1.00  0.00     0.251 C 
ATOM      6  H   UNL A   1      33.089  30.304  27.259  1.00  0.00     0.163 HD
BRANCH   5   7
ATOM      7  C   UNL A   1      36.145  30.162  28.576  1.00  0.00     0.039 A 
ATOM      8  C   UNL A   1      36.416  29.565  29.809  1.00  0.00     0.014 A 
ATOM      9  C   UNL A   1      37.157  30.276  27.619  1.00  0.00     0.014 A 
ATOM     10  C   UNL A   1      37.723  29.228  30.147  1.00  0.00     0.010 A 
ATOM     11  C   UNL A   1      38.451  29.849  27.924  1.00  0.00     0.010 A 
ATOM     12  C   UNL A   1      38.751  29.352  29.202  1.00  0.00    -0.014 A 
BRANCH  12  13
ATOM     13  C   UNL A   1      40.129  28.917  29.535  1.00  0.00     0.031 A 
ATOM     14  C   UNL A   1      41.044  29.809  30.322  1.00  0.00     0.074 A 
ATOM     15  C   UNL A   1      40.564  27.724  29.089  1.00  0.00     0.049 A 
ATOM     16  N   UNL A   1      42.310  29.646  30.615  1.00  0.00    -0.248 NA
ATOM     17  C   UNL A   1      40.463  31.055  30.841  1.00  0.00     0.031 C 
ATOM     18  C   UNL A   1      39.764  26.770  28.319  1.00  0.00     0.029 A 
ATOM     19  N   UNL A   1      41.789  27.116  29.205  1.00  0.00    -0.354 N 
ATOM     20  C   UNL A   1      42.684  30.778  31.325  1.00  0.00     0.074 A 
ATOM     21  C   UNL A   1      41.518  31.633  31.397  1.00  0.00     0.031 C 
ATOM     22  C   UNL A   1      40.513  25.696  28.037  1.00  0.00     0.029 A 
ATOM     23  C   UNL A   1      41.863  25.915  28.543  1.00  0.00     0.049 A 
ATOM     24  H   UNL A   1      42.539  27.501  29.711  1.00  0.00     0.167 HD
ATOM     25  C   UNL A   1      43.891  31.072  31.869  1.00  0.00     0.037 A 
ATOM     26  C   UNL A   1      42.911  25.099  28.329  1.00  0.00     0.037 A 
ATOM     27  C   UNL A   1      45.041  30.209  31.789  1.00  0.00     0.049 A 
ATOM     28  C   UNL A   1      44.253  25.468  28.895  1.00  0.00     0.074 A 
ATOM     29  C   UNL A   1      46.299  30.395  32.336  1.00  0.00     0.029 A 
ATOM     30  N   UNL A   1      45.080  29.001  31.105  1.00  0.00    -0.354 N 
ATOM     31  N   UNL A   1      44.591  26.525  29.592  1.00  0.00    -0.248 NA
ATOM     32  C   UNL A   1      45.357  24.532  28.646  1.00  0.00     0.031 C 
ATOM     33  C   UNL A   1      47.116  29.336  31.928  1.00  0.00     0.029 A 
ATOM     34  C   UNL A   1      46.348  28.447  31.190  1.00  0.00     0.049 A 
ATOM     35  H   UNL A   1      44.319  28.596  30.630  1.00  0.00     0.167 HD
ATOM     36  C   UNL A   1      45.936  26.369  29.895  1.00  0.00     0.074 A 
ATOM     37  C   UNL A   1      46.352  25.114  29.303  1.00  0.00     0.031 C 
ATOM     38  C   UNL A   1      46.747  27.189  30.606  1.00  0.00     0.037 A 
BRANCH  25  39
ATOM     39  C   UNL A   1      44.036  32.401  32.558  1.00  0.00     0.064 A 
ATOM     40  C   UNL A   1      43.782  32.560  33.929  1.00  0.00     0.173 A 
ATOM     41  C   UNL A   1      44.447  33.531  31.835  1.00  0.00     0.173 A 
ATOM     42  F   UNL A   1      43.380  31.515  34.669  1.00  0.00    -0.203 F 
ATOM     43  C   UNL A   1      43.886  33.809  34.538  1.00  0.00     0.198 A 
ATOM     44  C   UNL A   1      44.586  34.771  32.455  1.00  0.00     0.198 A 
ATOM     45  F   UNL A   1      44.715  33.436  30.524  1.00  0.00    -0.203 F 
ATOM     46  F   UNL A   1      43.570  33.950  35.833  1.00  0.00    -0.200 F 
ATOM     47  C   UNL A   1      44.292  34.912  33.802  1.00  0.00     0.200 A 
ATOM     48  F   UNL A   1      44.995  35.831  31.744  1.00  0.00    -0.200 F 
ATOM     49  F   UNL A   1      44.388  36.114  34.388  1.00  0.00    -0.200 F 
ENDBRANCH  25  39
BRANCH  26  50
ATOM     50  C   UNL A   1      42.716  23.864  27.530  1.00  0.00     0.064 A 
ATOM     51  C   UNL A   1      43.023  23.831  26.164  1.00  0.00     0.173 A 
ATOM     52  C   UNL A   1      42.270  22.675  28.129  1.00  0.00     0.173 A 
ATOM     53  F   UNL A   1      43.439  24.945  25.544  1.00  0.00    -0.203 F 
ATOM     54  C   UNL A   1      42.887  22.657  25.426  1.00  0.00     0.198 A 
ATOM     55  C   UNL A   1      42.163  21.495  27.397  1.00  0.00     0.198 A 
ATOM     56  F   UNL A   1      41.972  22.652  29.437  1.00  0.00    -0.203 F 
ATOM     57  F   UNL A   1      43.162  22.658  24.114  1.00  0.00    -0.200 F 
ATOM     58  C   UNL A   1      42.468  21.488  26.044  1.00  0.00     0.200 A 
ATOM     59  F   UNL A   1      41.779  20.365  28.005  1.00  0.00    -0.200 F 
ATOM     60  F   UNL A   1      42.358  20.356  25.337  1.00  0.00    -0.200 F 
ENDBRANCH  26  50
BRANCH  38  61
ATOM     61  C   UNL A   1      48.158  26.735  30.845  1.00  0.00     0.064 A 
ATOM     62  C   UNL A   1      48.492  25.859  31.887  1.00  0.00     0.173 A 
ATOM     63  C   UNL A   1      49.179  27.130  29.965  1.00  0.00     0.173 A 
ATOM     64  F   UNL A   1      47.557  25.466  32.765  1.00  0.00    -0.203 F 
ATOM     65  C   UNL A   1      49.798  25.402  32.045  1.00  0.00     0.198 A 
ATOM     66  C   UNL A   1      50.476  26.647  30.107  1.00  0.00     0.198 A 
ATOM     67  F   UNL A   1      48.911  27.964  28.949  1.00  0.00    -0.203 F 
ATOM     68  F   UNL A   1      50.103  24.592  33.068  1.00  0.00    -0.200 F 
ATOM     69  C   UNL A   1      50.786  25.787  31.149  1.00  0.00     0.200 A 
ATOM     70  F   UNL A   1      51.424  27.006  29.231  1.00  0.00    -0.200 F 
ATOM     71  F   UNL A   1      52.037  25.328  31.291  1.00  0.00    -0.200 F 
ENDBRANCH  38  61
ENDBRANCH  12  13
ENDBRANCH   5   7
ENDBRANCH   2   3
ENDBRANCH   1   2
BRANCH   1  72
ATOM     72  C   UNL A   1      31.962  27.295  26.163  1.00  0.00     0.118 C 
BRANCH  72  73
ATOM     73  N   UNL A   1      30.845  27.759  25.357  1.00  0.00    -0.352 N 
ATOM     74  C   UNL A   1      30.543  27.477  24.051  1.00  0.00     0.255 C 
ATOM     75  H   UNL A   1      30.216  28.362  25.816  1.00  0.00     0.163 HD
ATOM     76  O   UNL A   1      29.596  28.050  23.514  1.00  0.00    -0.269 OA
BRANCH  74  77
ATOM     77  C   UNL A   1      31.389  26.564  23.254  1.00  0.00     0.082 A 
ATOM     78  C   UNL A   1      31.258  25.193  23.522  1.00  0.00     0.025 A 
ATOM     79  C   UNL A   1      32.315  27.005  22.305  1.00  0.00     0.128 A 
ATOM     80  C   UNL A   1      32.009  24.247  22.812  1.00  0.00    -0.025 A 
ATOM     81  C   UNL A   1      33.045  26.078  21.569  1.00  0.00     0.047 A 
ATOM     82  C   UNL A   1      32.886  24.709  21.818  1.00  0.00     0.012 A 
BRANCH  79  83
ATOM     83  O   UNL A   1      32.514  28.340  22.091  1.00  0.00    -0.507 OA
ATOM     84  H   UNL A   1      32.320  28.958  22.767  1.00  0.00     0.293 HD
ENDBRANCH  79  83
BRANCH  80  85
ATOM     85  C   UNL A   1      31.941  22.797  23.069  1.00  0.00     0.009 C 
ATOM     86  C   UNL A   1      32.781  22.092  23.845  1.00  0.00     0.009 C 
BRANCH  86  87
ATOM     87  C   UNL A   1      32.680  20.636  24.015  1.00  0.00    -0.018 A 
ATOM     88  C   UNL A   1      32.817  20.036  25.276  1.00  0.00     0.054 A 
ATOM     89  C   UNL A   1      32.371  19.839  22.905  1.00  0.00     0.054 A 
ATOM     90  C   UNL A   1      32.668  18.657  25.407  1.00  0.00     0.119 A 
ATOM     91  C   UNL A   1      32.229  18.462  23.059  1.00  0.00     0.119 A 
ATOM     92  C   UNL A   1      32.379  17.864  24.303  1.00  0.00     0.092 A 
BRANCH  90  93
ATOM     93  O   UNL A   1      32.792  18.043  26.618  1.00  0.00    -0.508 OA
ATOM     94  H   UNL A   1      33.353  17.299  26.711  1.00  0.00     0.293 HD
ENDBRANCH  90  93
BRANCH  91  95
ATOM     95  O   UNL A   1      31.933  17.657  21.997  1.00  0.00    -0.508 OA
ATOM     96  H   UNL A   1      31.438  17.994  21.277  1.00  0.00     0.293 HD
ENDBRANCH  91  95
ENDBRANCH  86  87
ENDBRANCH  80  85
ENDBRANCH  74  77
ENDBRANCH  72  73
ENDBRANCH   1  72
TORSDOF 15
ENDMDL
MODEL 3
REMARK VINA RESULT:     -12.4      5.392     11.084
REMARK SMILES O=C(NCCCNC(=O)c1cc(/C=C/c2cc(O)cc(O)c2)ccc1O)c1ccc(-c2c3nc(c(-c4c(F)c(F)c(F)c(F)c4F)c4ccc([nH]4)c(-c4c(F)c(F)c(F)c(F)c4F)c4nc(c(-c5c(F)c(F)c(F)c(F)c5F)c5ccc2[nH]5)C=C4)C=C3)cc1
REMARK SMILES IDX 5 1 4 2 3 3 1 4 2 5 27 7 28 8 89 9 29 10 88 11 30 12 31 13
REMARK SMILES IDX 32 14 82 15 33 16 87 17 81 18 83 19 34 20 86 21 80 22 79 23
REMARK SMILES IDX 35 25 67 26 47 27 66 28 48 29 51 30 65 31 84 32 49 33 50 34
REMARK SMILES IDX 64 36 85 37 52 38 36 39 37 40 45 41 38 42 39 43 43 44 46 45
REMARK SMILES IDX 40 46 41 47 44 48 42 49 68 50 69 51 77 52 70 53 71 54 75 55
REMARK SMILES IDX 78 56 72 57 73 58 76 59 74 60 53 61 54 62 62 63 55 64 56 65
REMARK SMILES IDX 60 66 63 67 57 68 58 69 61 70 59 71 6 72 7 73 8 74 9 76
REMARK SMILES IDX 10 77 11 78 25 79 12 80 24 81 23 82 26 83 13 85 14 86 15 87
REMARK SMILES IDX 16 88 22 89 17 90 20 91 19 92 18 93 21 95
REMARK H PARENT 3 6 83 24 51 35 7 75 26 84 18 94 21 96
REMARK Flexibility Score: inf
ROOT
ATOM      1  C   UNL A   1      33.838  32.003  27.281  1.00  0.00     0.042 C 
ENDROOT
BRANCH   1   2
ATOM      2  C   UNL A   1      32.398  32.486  27.364  1.00  0.00     0.118 C 
BRANCH   2   3
ATOM      3  N   UNL A   1      32.294  33.907  27.667  1.00  0.00    -0.352 N 
ATOM      4  O   UNL A   1      32.636  35.831  28.785  1.00  0.00    -0.269 OA
ATOM      5  C   UNL A   1      33.008  34.684  28.541  1.00  0.00     0.251 C 
ATOM      6  H   UNL A   1      31.597  34.387  27.164  1.00  0.00     0.163 HD
BRANCH   5   7
ATOM      7  C   UNL A   1      34.208  34.148  29.217  1.00  0.00     0.039 A 
ATOM      8  C   UNL A   1      35.493  34.486  28.786  1.00  0.00     0.014 A 
ATOM      9  C   UNL A   1      34.041  33.315  30.326  1.00  0.00     0.014 A 
ATOM     10  C   UNL A   1      36.603  33.873  29.359  1.00  0.00     0.010 A 
ATOM     11  C   UNL A   1      35.160  32.775  30.962  1.00  0.00     0.010 A 
ATOM     12  C   UNL A   1      36.449  33.023  30.463  1.00  0.00    -0.014 A 
BRANCH  12  13
ATOM     13  C   UNL A   1      37.638  32.433  31.125  1.00  0.00     0.031 A 
ATOM     14  C   UNL A   1      38.382  31.295  30.489  1.00  0.00     0.074 A 
ATOM     15  C   UNL A   1      38.022  32.907  32.325  1.00  0.00     0.049 A 
ATOM     16  N   UNL A   1      39.372  30.584  30.965  1.00  0.00    -0.248 NA
ATOM     17  C   UNL A   1      37.948  30.895  29.142  1.00  0.00     0.031 C 
ATOM     18  C   UNL A   1      37.380  34.012  33.037  1.00  0.00     0.029 A 
ATOM     19  N   UNL A   1      39.033  32.511  33.163  1.00  0.00    -0.354 N 
ATOM     20  C   UNL A   1      39.662  29.637  29.992  1.00  0.00     0.074 A 
ATOM     21  C   UNL A   1      38.724  29.847  28.909  1.00  0.00     0.031 C 
ATOM     22  C   UNL A   1      38.013  34.211  34.200  1.00  0.00     0.029 A 
ATOM     23  C   UNL A   1      39.058  33.204  34.347  1.00  0.00     0.049 A 
ATOM     24  H   UNL A   1      39.675  31.801  32.938  1.00  0.00     0.167 HD
ATOM     25  C   UNL A   1      40.624  28.682  30.004  1.00  0.00     0.037 A 
ATOM     26  C   UNL A   1      39.811  33.025  35.448  1.00  0.00     0.037 A 
ATOM     27  C   UNL A   1      41.551  28.487  31.090  1.00  0.00     0.049 A 
ATOM     28  C   UNL A   1      40.837  31.929  35.463  1.00  0.00     0.074 A 
ATOM     29  C   UNL A   1      42.587  27.574  31.187  1.00  0.00     0.029 A 
ATOM     30  N   UNL A   1      41.543  29.207  32.277  1.00  0.00    -0.354 N 
ATOM     31  N   UNL A   1      41.125  31.057  34.527  1.00  0.00    -0.248 NA
ATOM     32  C   UNL A   1      41.642  31.790  36.683  1.00  0.00     0.031 C 
ATOM     33  C   UNL A   1      43.161  27.696  32.456  1.00  0.00     0.029 A 
ATOM     34  C   UNL A   1      42.535  28.738  33.125  1.00  0.00     0.049 A 
ATOM     35  H   UNL A   1      40.924  29.943  32.487  1.00  0.00     0.167 HD
ATOM     36  C   UNL A   1      42.166  30.289  35.028  1.00  0.00     0.074 A 
ATOM     37  C   UNL A   1      42.456  30.796  36.354  1.00  0.00     0.031 C 
ATOM     38  C   UNL A   1      42.824  29.261  34.438  1.00  0.00     0.037 A 
BRANCH  25  39
ATOM     39  C   UNL A   1      40.693  27.750  28.826  1.00  0.00     0.064 A 
ATOM     40  C   UNL A   1      41.528  28.001  27.726  1.00  0.00     0.173 A 
ATOM     41  C   UNL A   1      39.917  26.581  28.802  1.00  0.00     0.173 A 
ATOM     42  F   UNL A   1      42.287  29.107  27.691  1.00  0.00    -0.203 F 
ATOM     43  C   UNL A   1      41.545  27.144  26.628  1.00  0.00     0.198 A 
ATOM     44  C   UNL A   1      39.966  25.707  27.719  1.00  0.00     0.198 A 
ATOM     45  F   UNL A   1      39.109  26.284  29.831  1.00  0.00    -0.203 F 
ATOM     46  F   UNL A   1      42.297  27.441  25.559  1.00  0.00    -0.200 F 
ATOM     47  C   UNL A   1      40.769  25.995  26.627  1.00  0.00     0.200 A 
ATOM     48  F   UNL A   1      39.226  24.589  27.730  1.00  0.00    -0.200 F 
ATOM     49  F   UNL A   1      40.783  25.173  25.569  1.00  0.00    -0.200 F 
ENDBRANCH  25  39
BRANCH  26  50
ATOM     50  C   UNL A   1      39.598  33.909  36.622  1.00  0.00     0.064 A 
ATOM     51  C   UNL A   1      38.800  33.500  37.698  1.00  0.00     0.173 A 
ATOM     52  C   UNL A   1      40.234  35.157  36.716  1.00  0.00     0.173 A 
ATOM     53  F   UNL A   1      38.161  32.322  37.648  1.00  0.00    -0.203 F 
ATOM     54  C   UNL A   1      38.641  34.309  38.822  1.00  0.00     0.198 A 
ATOM     55  C   UNL A   1      40.099  35.950  37.852  1.00  0.00     0.198 A 
ATOM     56  F   UNL A   1      41.017  35.588  35.717  1.00  0.00    -0.203 F 
ATOM     57  F   UNL A   1      37.850  33.907  39.826  1.00  0.00    -0.200 F 
ATOM     58  C   UNL A   1      39.299  35.527  38.903  1.00  0.00     0.200 A 
ATOM     59  F   UNL A   1      40.754  37.116  37.935  1.00  0.00    -0.200 F 
ATOM     60  F   UNL A   1      39.161  36.294  39.993  1.00  0.00    -0.200 F 
ENDBRANCH  26  50
BRANCH  38  61
ATOM     61  C   UNL A   1      43.970  28.647  35.188  1.00  0.00     0.064 A 
ATOM     62  C   UNL A   1      43.796  27.549  36.043  1.00  0.00     0.173 A 
ATOM     63  C   UNL A   1      45.276  29.122  34.986  1.00  0.00     0.173 A 
ATOM     64  F   UNL A   1      42.567  27.067  36.283  1.00  0.00    -0.203 F 
ATOM     65  C   UNL A   1      44.887  26.957  36.674  1.00  0.00     0.198 A 
ATOM     66  C   UNL A   1      46.366  28.508  35.593  1.00  0.00     0.198 A 
ATOM     67  F   UNL A   1      45.496  30.168  34.174  1.00  0.00    -0.203 F 
ATOM     68  F   UNL A   1      44.695  25.929  37.514  1.00  0.00    -0.200 F 
ATOM     69  C   UNL A   1      46.170  27.428  36.440  1.00  0.00     0.200 A 
ATOM     70  F   UNL A   1      47.605  28.955  35.353  1.00  0.00    -0.200 F 
ATOM     71  F   UNL A   1      47.220  26.842  37.034  1.00  0.00    -0.200 F 
ENDBRANCH  38  61
ENDBRANCH  12  13
ENDBRANCH   5   7
ENDBRANCH   2   3
ENDBRANCH   1   2
BRANCH   1  72
ATOM     72  C   UNL A   1      33.983  30.505  27.064  1.00  0.00     0.118 C 
BRANCH  72  73
ATOM     73  N   UNL A   1      32.905  29.747  27.677  1.00  0.00    -0.352 N 
ATOM     74  C   UNL A   1      32.213  28.672  27.185  1.00  0.00     0.255 C 
ATOM     75  H   UNL A   1      32.635  30.049  28.575  1.00  0.00     0.163 HD
ATOM     76  O   UNL A   1      31.260  28.224  27.823  1.00  0.00    -0.269 OA
BRANCH  74  77
ATOM     77  C   UNL A   1      32.536  28.101  25.861  1.00  0.00     0.082 A 
ATOM     78  C   UNL A   1      33.286  26.915  25.855  1.00  0.00     0.025 A 
ATOM     79  C   UNL A   1      32.170  28.702  24.654  1.00  0.00     0.128 A 
ATOM     80  C   UNL A   1      33.633  26.290  24.651  1.00  0.00    -0.025 A 
ATOM     81  C   UNL A   1      32.480  28.078  23.449  1.00  0.00     0.047 A 
ATOM     82  C   UNL A   1      33.200  26.877  23.452  1.00  0.00     0.012 A 
BRANCH  79  83
ATOM     83  O   UNL A   1      31.512  29.899  24.640  1.00  0.00    -0.507 OA
ATOM     84  H   UNL A   1      31.870  30.626  24.169  1.00  0.00     0.293 HD
ENDBRANCH  79  83
BRANCH  80  85
ATOM     85  C   UNL A   1      34.446  25.062  24.577  1.00  0.00     0.009 C 
ATOM     86  C   UNL A   1      34.988  24.410  25.619  1.00  0.00     0.009 C 
BRANCH  86  87
ATOM     87  C   UNL A   1      35.829  23.215  25.463  1.00  0.00    -0.018 A 
ATOM     88  C   UNL A   1      37.226  23.284  25.577  1.00  0.00     0.054 A 
ATOM     89  C   UNL A   1      35.217  21.970  25.268  1.00  0.00     0.054 A 
ATOM     90  C   UNL A   1      37.988  22.123  25.470  1.00  0.00     0.119 A 
ATOM     91  C   UNL A   1      35.999  20.823  25.161  1.00  0.00     0.119 A 
ATOM     92  C   UNL A   1      37.383  20.890  25.258  1.00  0.00     0.092 A 
BRANCH  90  93
ATOM     93  O   UNL A   1      39.347  22.155  25.579  1.00  0.00    -0.508 OA
ATOM     94  H   UNL A   1      39.759  21.911  26.384  1.00  0.00     0.293 HD
ENDBRANCH  90  93
BRANCH  91  95
ATOM     95  O   UNL A   1      35.435  19.595  24.965  1.00  0.00    -0.508 OA
ATOM     96  H   UNL A   1      35.921  18.919  24.535  1.00  0.00     0.293 HD
ENDBRANCH  91  95
ENDBRANCH  86  87
ENDBRANCH  80  85
ENDBRANCH  74  77
ENDBRANCH  72  73
ENDBRANCH   1  72
TORSDOF 15
ENDMDL
