MODEL 1
REMARK VINA RESULT:      -9.7      0.000      0.000
REMARK SMILES CCOC(=O)c1ccc(-c2ccc(C(=O)NCCCNC(=O)c3ccc(-c4c5nc(c(-c6c(F)c(F)c(F)c(F)c6F)c6ccc([nH]6)c(-c6c(F)c(F)c(F)c(F)c6F)c6nc(c(-c7c(F)c(F)c(F)c(F)c7F)c7ccc4[nH]7)C=C6)C=C5)cc3)o2)cc1
REMARK SMILES IDX 17 1 16 2 14 3 15 4 13 6 10 7 11 8 86 9 12 10 9 11 6 12 7 13
REMARK SMILES IDX 88 14 8 15 87 16 4 17 5 18 3 19 2 20 1 21 18 22 19 23 20 24
REMARK SMILES IDX 21 25 22 27 23 28 24 29 85 30 25 31 84 32 26 33 27 34 28 35
REMARK SMILES IDX 78 36 29 37 83 38 77 39 79 40 30 41 82 42 76 43 75 44 31 46
REMARK SMILES IDX 63 47 43 48 62 49 44 50 47 51 61 52 80 53 45 54 46 55 60 57
REMARK SMILES IDX 81 58 48 59 32 60 33 61 41 62 34 63 35 64 39 65 42 66 36 67
REMARK SMILES IDX 37 68 40 69 38 70 64 71 65 72 73 73 66 74 67 75 71 76 74 77
REMARK SMILES IDX 68 78 69 79 72 80 70 81 49 82 50 83 58 84 51 85 52 86 56 87
REMARK SMILES IDX 59 88 53 89 54 90 57 91 55 92
REMARK H PARENT 16 5 20 26 79 45 47 56
REMARK Flexibility Score: inf
ROOT
ATOM      1  C   UNL A   1      43.063  21.617  26.372  1.00  0.00     0.118 C 
ENDROOT
BRANCH   1   2
ATOM      2  N   UNL A   1      43.351  21.772  24.960  1.00  0.00    -0.349 N 
ATOM      3  C   UNL A   1      44.282  22.553  24.310  1.00  0.00     0.287 C 
ATOM      4  O   UNL A   1      44.389  22.360  23.098  1.00  0.00    -0.266 OA
ATOM      5  H   UNL A   1      42.787  21.227  24.365  1.00  0.00     0.163 HD
BRANCH   3   6
ATOM      6  C   UNL A   1      45.081  23.525  25.034  1.00  0.00     0.192 A 
ATOM      7  C   UNL A   1      45.402  25.502  25.971  1.00  0.00     0.135 A 
ATOM      8  C   UNL A   1      46.573  24.804  26.143  1.00  0.00     0.052 A 
ATOM      9  O   UNL A   1      44.489  24.737  25.317  1.00  0.00    -0.451 OA
ATOM     10  C   UNL A   1      46.358  23.528  25.571  1.00  0.00     0.057 A 
BRANCH   7  11
ATOM     11  C   UNL A   1      44.981  26.831  26.363  1.00  0.00     0.017 A 
ATOM     12  C   UNL A   1      44.289  29.499  26.858  1.00  0.00     0.060 A 
ATOM     13  C   UNL A   1      45.528  29.008  27.284  1.00  0.00     0.016 A 
ATOM     14  C   UNL A   1      43.379  28.651  26.217  1.00  0.00     0.016 A 
ATOM     15  C   UNL A   1      45.865  27.671  27.050  1.00  0.00     0.013 A 
ATOM     16  C   UNL A   1      43.731  27.321  25.964  1.00  0.00     0.013 A 
BRANCH  12  17
ATOM     17  C   UNL A   1      44.014  30.945  27.005  1.00  0.00     0.338 C 
ATOM     18  O   UNL A   1      44.137  31.743  26.091  1.00  0.00    -0.246 OA
BRANCH  17  19
ATOM     19  O   UNL A   1      43.629  31.217  28.276  1.00  0.00    -0.462 OA
BRANCH  19  20
ATOM     20  C   UNL A   1      44.211  32.391  28.862  1.00  0.00     0.230 C 
ATOM     21  C   UNL A   1      43.162  33.425  29.234  1.00  0.00     0.049 C 
ENDBRANCH  19  20
ENDBRANCH  17  19
ENDBRANCH  12  17
ENDBRANCH   7  11
ENDBRANCH   3   6
ENDBRANCH   1   2
BRANCH   1  22
ATOM     22  C   UNL A   1      41.929  22.533  26.831  1.00  0.00     0.042 C 
BRANCH  22  23
ATOM     23  C   UNL A   1      40.624  21.795  27.125  1.00  0.00     0.118 C 
BRANCH  23  24
ATOM     24  N   UNL A   1      39.543  22.214  26.242  1.00  0.00    -0.352 N 
ATOM     25  C   UNL A   1      38.835  23.388  26.195  1.00  0.00     0.251 C 
ATOM     26  H   UNL A   1      39.279  21.545  25.570  1.00  0.00     0.163 HD
ATOM     27  O   UNL A   1      37.825  23.449  25.498  1.00  0.00    -0.269 OA
BRANCH  25  28
ATOM     28  C   UNL A   1      39.256  24.576  26.970  1.00  0.00     0.039 A 
ATOM     29  C   UNL A   1      40.007  25.563  26.323  1.00  0.00     0.014 A 
ATOM     30  C   UNL A   1      38.988  24.693  28.336  1.00  0.00     0.014 A 
ATOM     31  C   UNL A   1      40.444  26.688  27.028  1.00  0.00     0.010 A 
ATOM     32  C   UNL A   1      39.376  25.841  29.028  1.00  0.00     0.010 A 
ATOM     33  C   UNL A   1      40.110  26.849  28.381  1.00  0.00    -0.014 A 
BRANCH  33  34
ATOM     34  C   UNL A   1      40.525  28.057  29.137  1.00  0.00     0.031 A 
ATOM     35  C   UNL A   1      41.898  28.138  29.745  1.00  0.00     0.074 A 
ATOM     36  C   UNL A   1      39.644  29.057  29.329  1.00  0.00     0.049 A 
ATOM     37  N   UNL A   1      42.406  29.060  30.523  1.00  0.00    -0.248 NA
ATOM     38  C   UNL A   1      42.814  27.024  29.456  1.00  0.00     0.031 C 
ATOM     39  C   UNL A   1      38.272  29.083  28.821  1.00  0.00     0.029 A 
ATOM     40  N   UNL A   1      39.766  30.238  30.019  1.00  0.00    -0.354 N 
ATOM     41  C   UNL A   1      43.692  28.631  30.828  1.00  0.00     0.074 A 
ATOM     42  C   UNL A   1      43.874  27.349  30.182  1.00  0.00     0.031 C 
ATOM     43  C   UNL A   1      37.680  30.223  29.213  1.00  0.00     0.029 A 
ATOM     44  C   UNL A   1      38.619  30.992  30.025  1.00  0.00     0.049 A 
ATOM     45  H   UNL A   1      40.597  30.516  30.468  1.00  0.00     0.167 HD
ATOM     46  C   UNL A   1      44.639  29.259  31.566  1.00  0.00     0.037 A 
ATOM     47  C   UNL A   1      38.349  32.166  30.628  1.00  0.00     0.037 A 
ATOM     48  C   UNL A   1      44.468  30.545  32.188  1.00  0.00     0.049 A 
ATOM     49  C   UNL A   1      39.424  32.846  31.431  1.00  0.00     0.074 A 
ATOM     50  C   UNL A   1      45.380  31.275  32.930  1.00  0.00     0.029 A 
ATOM     51  N   UNL A   1      43.304  31.297  32.134  1.00  0.00    -0.354 N 
ATOM     52  N   UNL A   1      40.646  32.447  31.682  1.00  0.00    -0.248 NA
ATOM     53  C   UNL A   1      39.083  34.147  32.027  1.00  0.00     0.031 C 
ATOM     54  C   UNL A   1      44.761  32.459  33.345  1.00  0.00     0.029 A 
ATOM     55  C   UNL A   1      43.475  32.482  32.832  1.00  0.00     0.049 A 
ATOM     56  H   UNL A   1      42.480  31.030  31.668  1.00  0.00     0.167 HD
ATOM     57  C   UNL A   1      41.226  33.451  32.444  1.00  0.00     0.074 A 
ATOM     58  C   UNL A   1      40.228  34.487  32.602  1.00  0.00     0.031 C 
ATOM     59  C   UNL A   1      42.474  33.507  32.969  1.00  0.00     0.037 A 
BRANCH  46  60
ATOM     60  C   UNL A   1      45.957  28.564  31.736  1.00  0.00     0.064 A 
ATOM     61  C   UNL A   1      46.136  27.564  32.704  1.00  0.00     0.173 A 
ATOM     62  C   UNL A   1      47.037  28.864  30.894  1.00  0.00     0.173 A 
ATOM     63  F   UNL A   1      45.135  27.251  33.542  1.00  0.00    -0.203 F 
ATOM     64  C   UNL A   1      47.354  26.904  32.835  1.00  0.00     0.198 A 
ATOM     65  C   UNL A   1      48.247  28.184  31.011  1.00  0.00     0.198 A 
ATOM     66  F   UNL A   1      46.916  29.808  29.949  1.00  0.00    -0.203 F 
ATOM     67  F   UNL A   1      47.512  25.978  33.791  1.00  0.00    -0.200 F 
ATOM     68  C   UNL A   1      48.406  27.208  31.985  1.00  0.00     0.200 A 
ATOM     69  F   UNL A   1      49.260  28.473  30.182  1.00  0.00    -0.200 F 
ATOM     70  F   UNL A   1      49.575  26.566  32.107  1.00  0.00    -0.200 F 
ENDBRANCH  46  60
BRANCH  47  71
ATOM     71  C   UNL A   1      37.005  32.780  30.487  1.00  0.00     0.064 A 
ATOM     72  C   UNL A   1      36.031  32.617  31.481  1.00  0.00     0.173 A 
ATOM     73  C   UNL A   1      36.665  33.534  29.354  1.00  0.00     0.173 A 
ATOM     74  F   UNL A   1      36.305  31.886  32.572  1.00  0.00    -0.203 F 
ATOM     75  C   UNL A   1      34.760  33.169  31.339  1.00  0.00     0.198 A 
ATOM     76  C   UNL A   1      35.402  34.105  29.225  1.00  0.00     0.198 A 
ATOM     77  F   UNL A   1      37.565  33.721  28.377  1.00  0.00    -0.203 F 
ATOM     78  F   UNL A   1      33.834  32.962  32.285  1.00  0.00    -0.200 F 
ATOM     79  C   UNL A   1      34.448  33.917  30.213  1.00  0.00     0.200 A 
ATOM     80  F   UNL A   1      35.107  34.837  28.142  1.00  0.00    -0.200 F 
ATOM     81  F   UNL A   1      33.226  34.449  30.079  1.00  0.00    -0.200 F 
ENDBRANCH  47  71
BRANCH  59  82
ATOM     82  C   UNL A   1      42.839  34.743  33.735  1.00  0.00     0.064 A 
ATOM     83  C   UNL A   1      43.297  35.898  33.087  1.00  0.00     0.173 A 
ATOM     84  C   UNL A   1      42.694  34.782  35.130  1.00  0.00     0.173 A 
ATOM     85  F   UNL A   1      43.468  35.902  31.756  1.00  0.00    -0.203 F 
ATOM     86  C   UNL A   1      43.617  37.043  33.810  1.00  0.00     0.198 A 
ATOM     87  C   UNL A   1      42.993  35.936  35.848  1.00  0.00     0.198 A 
ATOM     88  F   UNL A   1      42.255  33.703  35.795  1.00  0.00    -0.203 F 
ATOM     89  F   UNL A   1      44.092  38.125  33.175  1.00  0.00    -0.200 F 
ATOM     90  C   UNL A   1      43.458  37.064  35.188  1.00  0.00     0.200 A 
ATOM     91  F   UNL A   1      42.831  35.958  37.178  1.00  0.00    -0.200 F 
ATOM     92  F   UNL A   1      43.763  38.169  35.881  1.00  0.00    -0.200 F 
ENDBRANCH  59  82
ENDBRANCH  33  34
ENDBRANCH  25  28
ENDBRANCH  23  24
ENDBRANCH  22  23
ENDBRANCH   1  22
TORSDOF 14
ENDMDL
MODEL 2
REMARK VINA RESULT:      -9.6      3.607     10.022
REMARK SMILES CCOC(=O)c1ccc(-c2ccc(C(=O)NCCCNC(=O)c3ccc(-c4c5nc(c(-c6c(F)c(F)c(F)c(F)c6F)c6ccc([nH]6)c(-c6c(F)c(F)c(F)c(F)c6F)c6nc(c(-c7c(F)c(F)c(F)c(F)c7F)c7ccc4[nH]7)C=C6)C=C5)cc3)o2)cc1
REMARK SMILES IDX 17 1 16 2 14 3 15 4 13 6 10 7 11 8 86 9 12 10 9 11 6 12 7 13
REMARK SMILES IDX 88 14 8 15 87 16 4 17 5 18 3 19 2 20 1 21 18 22 19 23 20 24
REMARK SMILES IDX 21 25 22 27 23 28 24 29 85 30 25 31 84 32 26 33 27 34 28 35
REMARK SMILES IDX 78 36 29 37 83 38 77 39 79 40 30 41 82 42 76 43 75 44 31 46
REMARK SMILES IDX 63 47 43 48 62 49 44 50 47 51 61 52 80 53 45 54 46 55 60 57
REMARK SMILES IDX 81 58 48 59 32 60 33 61 41 62 34 63 35 64 39 65 42 66 36 67
REMARK SMILES IDX 37 68 40 69 38 70 64 71 65 72 73 73 66 74 67 75 71 76 74 77
REMARK SMILES IDX 68 78 69 79 72 80 70 81 49 82 50 83 58 84 51 85 52 86 56 87
REMARK SMILES IDX 59 88 53 89 54 90 57 91 55 92
REMARK H PARENT 16 5 20 26 79 45 47 56
REMARK Flexibility Score: inf
ROOT
ATOM      1  C   UNL A   1      36.402  33.655  29.744  1.00  0.00     0.118 C 
ENDROOT
BRANCH   1   2
ATOM      2  N   UNL A   1      36.500  34.411  30.977  1.00  0.00    -0.349 N 
ATOM      3  C   UNL A   1      36.871  34.022  32.246  1.00  0.00     0.287 C 
ATOM      4  O   UNL A   1      37.000  34.931  33.068  1.00  0.00    -0.266 OA
ATOM      5  H   UNL A   1      36.263  35.363  30.893  1.00  0.00     0.163 HD
BRANCH   3   6
ATOM      6  C   UNL A   1      37.099  32.624  32.565  1.00  0.00     0.192 A 
ATOM      7  C   UNL A   1      38.401  30.903  33.047  1.00  0.00     0.135 A 
ATOM      8  C   UNL A   1      37.117  30.413  33.019  1.00  0.00     0.052 A 
ATOM      9  O   UNL A   1      38.402  32.238  32.789  1.00  0.00    -0.451 OA
ATOM     10  C   UNL A   1      36.280  31.520  32.741  1.00  0.00     0.057 A 
BRANCH   7  11
ATOM     11  C   UNL A   1      39.684  30.286  33.310  1.00  0.00     0.017 A 
ATOM     12  C   UNL A   1      42.260  29.213  33.556  1.00  0.00     0.060 A 
ATOM     13  C   UNL A   1      41.258  28.485  32.906  1.00  0.00     0.016 A 
ATOM     14  C   UNL A   1      41.969  30.462  34.116  1.00  0.00     0.016 A 
ATOM     15  C   UNL A   1      39.969  29.015  32.798  1.00  0.00     0.013 A 
ATOM     16  C   UNL A   1      40.684  30.999  33.985  1.00  0.00     0.013 A 
BRANCH  12  17
ATOM     17  C   UNL A   1      43.640  28.683  33.541  1.00  0.00     0.338 C 
ATOM     18  O   UNL A   1      44.455  28.923  34.417  1.00  0.00    -0.246 OA
BRANCH  17  19
ATOM     19  O   UNL A   1      43.836  27.929  32.433  1.00  0.00    -0.462 OA
BRANCH  19  20
ATOM     20  C   UNL A   1      44.814  26.885  32.558  1.00  0.00     0.230 C 
ATOM     21  C   UNL A   1      44.266  25.534  32.132  1.00  0.00     0.049 C 
ENDBRANCH  19  20
ENDBRANCH  17  19
ENDBRANCH  12  17
ENDBRANCH   7  11
ENDBRANCH   3   6
ENDBRANCH   1   2
BRANCH   1  22
ATOM     22  C   UNL A   1      35.024  33.018  29.569  1.00  0.00     0.042 C 
BRANCH  22  23
ATOM     23  C   UNL A   1      34.716  32.607  28.130  1.00  0.00     0.118 C 
BRANCH  23  24
ATOM     24  N   UNL A   1      34.048  31.315  28.058  1.00  0.00    -0.352 N 
ATOM     25  C   UNL A   1      34.565  30.046  27.985  1.00  0.00     0.251 C 
ATOM     26  H   UNL A   1      33.064  31.359  28.063  1.00  0.00     0.163 HD
ATOM     27  O   UNL A   1      33.816  29.108  27.726  1.00  0.00    -0.269 OA
BRANCH  25  28
ATOM     28  C   UNL A   1      36.006  29.786  28.202  1.00  0.00     0.039 A 
ATOM     29  C   UNL A   1      36.425  29.369  29.470  1.00  0.00     0.014 A 
ATOM     30  C   UNL A   1      36.953  30.019  27.201  1.00  0.00     0.014 A 
ATOM     31  C   UNL A   1      37.781  29.137  29.720  1.00  0.00     0.010 A 
ATOM     32  C   UNL A   1      38.299  29.736  27.433  1.00  0.00     0.010 A 
ATOM     33  C   UNL A   1      38.727  29.295  28.696  1.00  0.00    -0.014 A 
BRANCH  33  34
ATOM     34  C   UNL A   1      40.165  29.010  28.927  1.00  0.00     0.031 A 
ATOM     35  C   UNL A   1      41.053  30.049  29.554  1.00  0.00     0.074 A 
ATOM     36  C   UNL A   1      40.686  27.838  28.518  1.00  0.00     0.049 A 
ATOM     37  N   UNL A   1      42.349  30.027  29.742  1.00  0.00    -0.248 NA
ATOM     38  C   UNL A   1      40.401  31.286  30.010  1.00  0.00     0.031 C 
ATOM     39  C   UNL A   1      39.937  26.762  27.866  1.00  0.00     0.029 A 
ATOM     40  N   UNL A   1      41.972  27.362  28.573  1.00  0.00    -0.354 N 
ATOM     41  C   UNL A   1      42.667  31.248  30.323  1.00  0.00     0.074 A 
ATOM     42  C   UNL A   1      41.437  32.002  30.422  1.00  0.00     0.031 C 
ATOM     43  C   UNL A   1      40.776  25.751  27.585  1.00  0.00     0.029 A 
ATOM     44  C   UNL A   1      42.124  26.120  28.007  1.00  0.00     0.049 A 
ATOM     45  H   UNL A   1      42.716  27.863  28.979  1.00  0.00     0.167 HD
ATOM     46  C   UNL A   1      43.875  31.691  30.749  1.00  0.00     0.037 A 
ATOM     47  C   UNL A   1      43.228  25.368  27.835  1.00  0.00     0.037 A 
ATOM     48  C   UNL A   1      45.095  30.932  30.673  1.00  0.00     0.049 A 
ATOM     49  C   UNL A   1      44.553  25.879  28.330  1.00  0.00     0.074 A 
ATOM     50  C   UNL A   1      46.361  31.284  31.107  1.00  0.00     0.029 A 
ATOM     51  N   UNL A   1      45.198  29.659  30.132  1.00  0.00    -0.354 N 
ATOM     52  N   UNL A   1      44.834  27.020  28.909  1.00  0.00    -0.248 NA
ATOM     53  C   UNL A   1      45.713  24.993  28.154  1.00  0.00     0.031 C 
ATOM     54  C   UNL A   1      47.236  30.235  30.807  1.00  0.00     0.029 A 
ATOM     55  C   UNL A   1      46.508  29.214  30.218  1.00  0.00     0.049 A 
ATOM     56  H   UNL A   1      44.452  29.147  29.746  1.00  0.00     0.167 HD
ATOM     57  C   UNL A   1      46.194  26.983  29.185  1.00  0.00     0.074 A 
ATOM     58  C   UNL A   1      46.679  25.699  28.725  1.00  0.00     0.031 C 
ATOM     59  C   UNL A   1      46.970  27.929  29.766  1.00  0.00     0.037 A 
BRANCH  46  60
ATOM     60  C   UNL A   1      43.937  33.065  31.348  1.00  0.00     0.064 A 
ATOM     61  C   UNL A   1      43.839  34.214  30.548  1.00  0.00     0.173 A 
ATOM     62  C   UNL A   1      44.043  33.236  32.735  1.00  0.00     0.173 A 
ATOM     63  F   UNL A   1      43.748  34.101  29.214  1.00  0.00    -0.203 F 
ATOM     64  C   UNL A   1      43.868  35.485  31.115  1.00  0.00     0.198 A 
ATOM     65  C   UNL A   1      44.046  34.509  33.301  1.00  0.00     0.198 A 
ATOM     66  F   UNL A   1      44.133  32.170  33.543  1.00  0.00    -0.203 F 
ATOM     67  F   UNL A   1      43.810  36.569  30.329  1.00  0.00    -0.200 F 
ATOM     68  C   UNL A   1      43.963  35.631  32.491  1.00  0.00     0.200 A 
ATOM     69  F   UNL A   1      44.129  34.648  34.632  1.00  0.00    -0.200 F 
ATOM     70  F   UNL A   1      43.982  36.855  33.036  1.00  0.00    -0.200 F 
ENDBRANCH  46  60
BRANCH  47  71
ATOM     71  C   UNL A   1      43.126  24.043  27.174  1.00  0.00     0.064 A 
ATOM     72  C   UNL A   1      42.691  22.916  27.884  1.00  0.00     0.173 A 
ATOM     73  C   UNL A   1      43.466  23.875  25.823  1.00  0.00     0.173 A 
ATOM     74  F   UNL A   1      42.376  23.024  29.183  1.00  0.00    -0.203 F 
ATOM     75  C   UNL A   1      42.620  21.665  27.274  1.00  0.00     0.198 A 
ATOM     76  C   UNL A   1      43.370  22.629  25.208  1.00  0.00     0.198 A 
ATOM     77  F   UNL A   1      43.883  24.925  25.101  1.00  0.00    -0.203 F 
ATOM     78  F   UNL A   1      42.242  20.596  27.987  1.00  0.00    -0.200 F 
ATOM     79  C   UNL A   1      42.954  21.524  25.935  1.00  0.00     0.200 A 
ATOM     80  F   UNL A   1      43.683  22.499  23.912  1.00  0.00    -0.200 F 
ATOM     81  F   UNL A   1      42.883  20.321  25.349  1.00  0.00    -0.200 F 
ENDBRANCH  47  71
BRANCH  59  82
ATOM     82  C   UNL A   1      48.419  27.598  29.965  1.00  0.00     0.064 A 
ATOM     83  C   UNL A   1      48.860  26.891  31.091  1.00  0.00     0.173 A 
ATOM     84  C   UNL A   1      49.369  27.960  28.999  1.00  0.00     0.173 A 
ATOM     85  F   UNL A   1      47.990  26.537  32.050  1.00  0.00    -0.203 F 
ATOM     86  C   UNL A   1      50.206  26.576  31.255  1.00  0.00     0.198 A 
ATOM     87  C   UNL A   1      50.711  27.625  29.154  1.00  0.00     0.198 A 
ATOM     88  F   UNL A   1      48.995  28.635  27.901  1.00  0.00    -0.203 F 
ATOM     89  F   UNL A   1      50.614  25.934  32.359  1.00  0.00    -0.200 F 
ATOM     90  C   UNL A   1      51.129  26.937  30.283  1.00  0.00     0.200 A 
ATOM     91  F   UNL A   1      51.600  27.967  28.211  1.00  0.00    -0.200 F 
ATOM     92  F   UNL A   1      52.423  26.629  30.441  1.00  0.00    -0.200 F 
ENDBRANCH  59  82
ENDBRANCH  33  34
ENDBRANCH  25  28
ENDBRANCH  23  24
ENDBRANCH  22  23
ENDBRANCH   1  22
TORSDOF 14
ENDMDL
MODEL 3
REMARK VINA RESULT:      -9.6      7.537     12.086
REMARK SMILES CCOC(=O)c1ccc(-c2ccc(C(=O)NCCCNC(=O)c3ccc(-c4c5nc(c(-c6c(F)c(F)c(F)c(F)c6F)c6ccc([nH]6)c(-c6c(F)c(F)c(F)c(F)c6F)c6nc(c(-c7c(F)c(F)c(F)c(F)c7F)c7ccc4[nH]7)C=C6)C=C5)cc3)o2)cc1
REMARK SMILES IDX 17 1 16 2 14 3 15 4 13 6 10 7 11 8 86 9 12 10 9 11 6 12 7 13
REMARK SMILES IDX 88 14 8 15 87 16 4 17 5 18 3 19 2 20 1 21 18 22 19 23 20 24
REMARK SMILES IDX 21 25 22 27 23 28 24 29 85 30 25 31 84 32 26 33 27 34 28 35
REMARK SMILES IDX 78 36 29 37 83 38 77 39 79 40 30 41 82 42 76 43 75 44 31 46
REMARK SMILES IDX 63 47 43 48 62 49 44 50 47 51 61 52 80 53 45 54 46 55 60 57
REMARK SMILES IDX 81 58 48 59 32 60 33 61 41 62 34 63 35 64 39 65 42 66 36 67
REMARK SMILES IDX 37 68 40 69 38 70 64 71 65 72 73 73 66 74 67 75 71 76 74 77
REMARK SMILES IDX 68 78 69 79 72 80 70 81 49 82 50 83 58 84 51 85 52 86 56 87
REMARK SMILES IDX 59 88 53 89 54 90 57 91 55 92
REMARK H PARENT 16 5 20 26 79 45 47 56
REMARK Flexibility Score: inf
ROOT
ATOM      1  C   UNL A   1      46.650  21.505  36.109  1.00  0.00     0.118 C 
ENDROOT
BRANCH   1   2
ATOM      2  N   UNL A   1      46.079  20.363  35.422  1.00  0.00    -0.349 N 
ATOM      3  C   UNL A   1      45.646  19.147  35.903  1.00  0.00     0.287 C 
ATOM      4  O   UNL A   1      45.066  18.426  35.088  1.00  0.00    -0.266 OA
ATOM      5  H   UNL A   1      45.984  20.476  34.449  1.00  0.00     0.163 HD
BRANCH   3   6
ATOM      6  C   UNL A   1      45.860  18.768  37.288  1.00  0.00     0.192 A 
ATOM      7  C   UNL A   1      45.312  17.695  39.142  1.00  0.00     0.135 A 
ATOM      8  C   UNL A   1      46.462  18.389  39.429  1.00  0.00     0.052 A 
ATOM      9  O   UNL A   1      44.946  17.903  37.849  1.00  0.00    -0.451 OA
ATOM     10  C   UNL A   1      46.831  19.051  38.234  1.00  0.00     0.057 A 
BRANCH   7  11
ATOM     11  C   UNL A   1      44.475  16.809  39.924  1.00  0.00     0.017 A 
ATOM     12  C   UNL A   1      42.644  15.315  41.427  1.00  0.00     0.060 A 
ATOM     13  C   UNL A   1      43.543  16.173  42.071  1.00  0.00     0.016 A 
ATOM     14  C   UNL A   1      42.683  15.174  40.035  1.00  0.00     0.016 A 
ATOM     15  C   UNL A   1      44.466  16.906  41.320  1.00  0.00     0.013 A 
ATOM     16  C   UNL A   1      43.593  15.928  39.287  1.00  0.00     0.013 A 
BRANCH  12  17
ATOM     17  C   UNL A   1      41.598  14.652  42.235  1.00  0.00     0.338 C 
ATOM     18  O   UNL A   1      41.065  15.181  43.196  1.00  0.00    -0.246 OA
BRANCH  17  19
ATOM     19  O   UNL A   1      41.353  13.411  41.749  1.00  0.00    -0.462 OA
BRANCH  19  20
ATOM     20  C   UNL A   1      42.230  12.377  42.221  1.00  0.00     0.230 C 
ATOM     21  C   UNL A   1      41.592  11.540  43.316  1.00  0.00     0.049 C 
ENDBRANCH  19  20
ENDBRANCH  17  19
ENDBRANCH  12  17
ENDBRANCH   7  11
ENDBRANCH   3   6
ENDBRANCH   1   2
BRANCH   1  22
ATOM     22  C   UNL A   1      46.094  22.828  35.583  1.00  0.00     0.042 C 
BRANCH  22  23
ATOM     23  C   UNL A   1      47.167  23.881  35.314  1.00  0.00     0.118 C 
BRANCH  23  24
ATOM     24  N   UNL A   1      47.429  24.711  36.482  1.00  0.00    -0.352 N 
ATOM     25  C   UNL A   1      46.965  25.960  36.812  1.00  0.00     0.251 C 
ATOM     26  H   UNL A   1      48.039  24.311  37.142  1.00  0.00     0.163 HD
ATOM     27  O   UNL A   1      47.478  26.559  37.753  1.00  0.00    -0.269 OA
BRANCH  25  28
ATOM     28  C   UNL A   1      45.867  26.600  36.053  1.00  0.00     0.039 A 
ATOM     29  C   UNL A   1      46.161  27.728  35.279  1.00  0.00     0.014 A 
ATOM     30  C   UNL A   1      44.547  26.153  36.153  1.00  0.00     0.014 A 
ATOM     31  C   UNL A   1      45.146  28.376  34.568  1.00  0.00     0.010 A 
ATOM     32  C   UNL A   1      43.544  26.764  35.401  1.00  0.00     0.010 A 
ATOM     33  C   UNL A   1      43.833  27.884  34.603  1.00  0.00    -0.014 A 
BRANCH  33  34
ATOM     34  C   UNL A   1      42.749  28.528  33.820  1.00  0.00     0.031 A 
ATOM     35  C   UNL A   1      41.791  29.475  34.487  1.00  0.00     0.074 A 
ATOM     36  C   UNL A   1      42.590  28.214  32.520  1.00  0.00     0.049 A 
ATOM     37  N   UNL A   1      40.723  30.054  33.998  1.00  0.00    -0.248 NA
ATOM     38  C   UNL A   1      42.056  29.798  35.897  1.00  0.00     0.031 C 
ATOM     39  C   UNL A   1      43.432  27.284  31.767  1.00  0.00     0.029 A 
ATOM     40  N   UNL A   1      41.654  28.630  31.607  1.00  0.00    -0.354 N 
ATOM     41  C   UNL A   1      40.182  30.794  35.041  1.00  0.00     0.074 A 
ATOM     42  C   UNL A   1      41.017  30.563  36.200  1.00  0.00     0.031 C 
ATOM     43  C   UNL A   1      42.977  27.202  30.506  1.00  0.00     0.029 A 
ATOM     44  C   UNL A   1      41.795  28.048  30.371  1.00  0.00     0.049 A 
ATOM     45  H   UNL A   1      40.948  29.283  31.818  1.00  0.00     0.167 HD
ATOM     46  C   UNL A   1      39.097  31.606  35.028  1.00  0.00     0.037 A 
ATOM     47  C   UNL A   1      41.046  28.171  29.258  1.00  0.00     0.037 A 
ATOM     48  C   UNL A   1      38.281  31.856  33.870  1.00  0.00     0.049 A 
ATOM     49  C   UNL A   1      39.855  29.090  29.268  1.00  0.00     0.074 A 
ATOM     50  C   UNL A   1      37.180  32.687  33.751  1.00  0.00     0.029 A 
ATOM     51  N   UNL A   1      38.483  31.281  32.625  1.00  0.00    -0.354 N 
ATOM     52  N   UNL A   1      39.376  29.811  30.251  1.00  0.00    -0.248 NA
ATOM     53  C   UNL A   1      39.106  29.217  28.009  1.00  0.00     0.031 C 
ATOM     54  C   UNL A   1      36.701  32.596  32.440  1.00  0.00     0.029 A 
ATOM     55  C   UNL A   1      37.525  31.735  31.733  1.00  0.00     0.049 A 
ATOM     56  H   UNL A   1      39.201  30.644  32.406  1.00  0.00     0.167 HD
ATOM     57  C   UNL A   1      38.286  30.492  29.728  1.00  0.00     0.074 A 
ATOM     58  C   UNL A   1      38.183  30.111  28.336  1.00  0.00     0.031 C 
ATOM     59  C   UNL A   1      37.444  31.354  30.348  1.00  0.00     0.037 A 
BRANCH  46  60
ATOM     60  C   UNL A   1      38.732  32.295  36.309  1.00  0.00     0.064 A 
ATOM     61  C   UNL A   1      38.020  31.630  37.318  1.00  0.00     0.173 A 
ATOM     62  C   UNL A   1      39.139  33.615  36.553  1.00  0.00     0.173 A 
ATOM     63  F   UNL A   1      37.599  30.370  37.127  1.00  0.00    -0.203 F 
ATOM     64  C   UNL A   1      37.712  32.267  38.516  1.00  0.00     0.198 A 
ATOM     65  C   UNL A   1      38.850  34.242  37.763  1.00  0.00     0.198 A 
ATOM     66  F   UNL A   1      39.828  34.293  35.622  1.00  0.00    -0.203 F 
ATOM     67  F   UNL A   1      36.998  31.624  39.451  1.00  0.00    -0.200 F 
ATOM     68  C   UNL A   1      38.133  33.570  38.741  1.00  0.00     0.200 A 
ATOM     69  F   UNL A   1      39.267  35.497  37.981  1.00  0.00    -0.200 F 
ATOM     70  F   UNL A   1      37.842  34.179  39.898  1.00  0.00    -0.200 F 
ENDBRANCH  46  60
BRANCH  47  71
ATOM     71  C   UNL A   1      41.409  27.414  28.034  1.00  0.00     0.064 A 
ATOM     72  C   UNL A   1      40.911  26.123  27.812  1.00  0.00     0.173 A 
ATOM     73  C   UNL A   1      42.265  27.960  27.067  1.00  0.00     0.173 A 
ATOM     74  F   UNL A   1      40.106  25.552  28.721  1.00  0.00    -0.203 F 
ATOM     75  C   UNL A   1      41.271  25.398  26.679  1.00  0.00     0.198 A 
ATOM     76  C   UNL A   1      42.605  27.244  25.922  1.00  0.00     0.198 A 
ATOM     77  F   UNL A   1      42.764  29.194  27.232  1.00  0.00    -0.203 F 
ATOM     78  F   UNL A   1      40.814  24.150  26.512  1.00  0.00    -0.200 F 
ATOM     79  C   UNL A   1      42.114  25.961  25.731  1.00  0.00     0.200 A 
ATOM     80  F   UNL A   1      43.409  27.796  25.003  1.00  0.00    -0.200 F 
ATOM     81  F   UNL A   1      42.458  25.265  24.640  1.00  0.00    -0.200 F 
ENDBRANCH  47  71
BRANCH  59  82
ATOM     82  C   UNL A   1      36.359  31.968  29.516  1.00  0.00     0.064 A 
ATOM     83  C   UNL A   1      35.284  31.206  29.036  1.00  0.00     0.173 A 
ATOM     84  C   UNL A   1      36.375  33.341  29.228  1.00  0.00     0.173 A 
ATOM     85  F   UNL A   1      35.234  29.887  29.272  1.00  0.00    -0.203 F 
ATOM     86  C   UNL A   1      34.275  31.794  28.279  1.00  0.00     0.198 A 
ATOM     87  C   UNL A   1      35.353  33.930  28.491  1.00  0.00     0.198 A 
ATOM     88  F   UNL A   1      37.381  34.112  29.669  1.00  0.00    -0.203 F 
ATOM     89  F   UNL A   1      33.277  31.040  27.796  1.00  0.00    -0.200 F 
ATOM     90  C   UNL A   1      34.306  33.155  28.013  1.00  0.00     0.200 A 
ATOM     91  F   UNL A   1      35.380  35.246  28.241  1.00  0.00    -0.200 F 
ATOM     92  F   UNL A   1      33.331  33.719  27.287  1.00  0.00    -0.200 F 
ENDBRANCH  59  82
ENDBRANCH  33  34
ENDBRANCH  25  28
ENDBRANCH  23  24
ENDBRANCH  22  23
ENDBRANCH   1  22
TORSDOF 14
ENDMDL
