MODEL 1
REMARK VINA RESULT:     -12.2      0.000      0.000
REMARK SMILES C[C@H](Oc1ccnc2c(F)cc(F)cc12)C(=O)NCCCNC(=O)c1ccc(-c2c3nc(c(-c4c(F)c(F)c(F)c(F)c4F)c4ccc([nH]4)c(-c4c(F)c(F)c(F)c(F)c4F)c4nc(c(-c5c(F)c(F)c(F)c(F)c5F)c5ccc2[nH]5)C=C4)C=C3)cc1
REMARK SMILES IDX 20 1 19 2 18 3 16 4 17 5 2 7 1 8 3 9 4 10 5 11 15 12 6 13
REMARK SMILES IDX 8 14 14 15 7 16 9 17 12 18 10 19 11 20 13 21 21 22 22 23
REMARK SMILES IDX 23 24 24 26 25 27 26 28 87 29 27 30 86 31 28 32 29 33 30 34
REMARK SMILES IDX 80 35 31 36 85 37 79 38 81 39 32 40 84 41 78 42 77 43 33 45
REMARK SMILES IDX 65 46 45 47 64 48 46 49 49 50 63 51 82 52 47 53 48 54 62 56
REMARK SMILES IDX 83 57 50 58 34 59 35 60 43 61 36 62 37 63 41 64 44 65 38 66
REMARK SMILES IDX 39 67 42 68 40 69 66 70 67 71 75 72 68 73 69 74 73 75 76 76
REMARK SMILES IDX 70 77 71 78 74 79 72 80 51 81 52 82 60 83 53 84 54 85 58 86
REMARK SMILES IDX 61 87 55 88 56 89 59 90 57 91
REMARK H PARENT 18 6 22 25 81 44 49 55
REMARK Flexibility Score: inf
ROOT
ATOM      1  C   UNL A   1      31.396  32.178  26.646  1.00  0.00     0.042 C 
ENDROOT
BRANCH   1   2
ATOM      2  C   UNL A   1      31.482  30.663  26.512  1.00  0.00     0.118 C 
BRANCH   2   3
ATOM      3  N   UNL A   1      31.997  30.274  25.218  1.00  0.00    -0.353 N 
ATOM      4  C   UNL A   1      32.902  29.316  24.880  1.00  0.00     0.260 C 
ATOM      5  O   UNL A   1      33.235  29.266  23.691  1.00  0.00    -0.271 OA
ATOM      6  H   UNL A   1      31.633  30.784  24.458  1.00  0.00     0.163 HD
BRANCH   4   7
ATOM      7  C   UNL A   1      33.453  28.289  25.897  1.00  0.00     0.258 C 
ATOM      8  C   UNL A   1      34.482  28.905  26.835  1.00  0.00     0.064 C 
BRANCH   7   9
ATOM      9  O   UNL A   1      33.626  26.962  25.417  1.00  0.00    -0.480 OA
BRANCH   9  10
ATOM     10  C   UNL A   1      33.116  25.788  25.874  1.00  0.00     0.131 A 
ATOM     11  C   UNL A   1      31.808  25.561  26.269  1.00  0.00     0.067 A 
ATOM     12  C   UNL A   1      34.034  24.704  25.896  1.00  0.00     0.048 A 
ATOM     13  C   UNL A   1      31.470  24.310  26.749  1.00  0.00     0.115 A 
ATOM     14  C   UNL A   1      33.589  23.456  26.393  1.00  0.00     0.110 A 
ATOM     15  C   UNL A   1      35.367  24.817  25.436  1.00  0.00     0.053 A 
ATOM     16  N   UNL A   1      32.330  23.280  26.833  1.00  0.00    -0.253 NA
ATOM     17  C   UNL A   1      34.496  22.392  26.409  1.00  0.00     0.152 A 
ATOM     18  C   UNL A   1      36.226  23.726  25.458  1.00  0.00     0.127 A 
ATOM     19  F   UNL A   1      34.110  21.195  26.885  1.00  0.00    -0.204 F 
ATOM     20  C   UNL A   1      35.802  22.507  25.945  1.00  0.00     0.080 A 
ATOM     21  F   UNL A   1      37.476  23.858  24.999  1.00  0.00    -0.207 F 
ENDBRANCH   9  10
ENDBRANCH   7   9
ENDBRANCH   4   7
ENDBRANCH   2   3
ENDBRANCH   1   2
BRANCH   1  22
ATOM     22  C   UNL A   1      32.676  32.781  27.213  1.00  0.00     0.118 C 
BRANCH  22  23
ATOM     23  N   UNL A   1      32.490  34.174  27.602  1.00  0.00    -0.352 N 
ATOM     24  C   UNL A   1      33.051  34.861  28.652  1.00  0.00     0.251 C 
ATOM     25  H   UNL A   1      31.877  34.694  27.035  1.00  0.00     0.163 HD
ATOM     26  O   UNL A   1      32.615  35.956  28.984  1.00  0.00    -0.269 OA
BRANCH  24  27
ATOM     27  C   UNL A   1      34.185  34.262  29.379  1.00  0.00     0.039 A 
ATOM     28  C   UNL A   1      33.934  33.449  30.487  1.00  0.00     0.014 A 
ATOM     29  C   UNL A   1      35.495  34.513  28.961  1.00  0.00     0.014 A 
ATOM     30  C   UNL A   1      35.002  32.838  31.144  1.00  0.00     0.010 A 
ATOM     31  C   UNL A   1      36.552  33.854  29.575  1.00  0.00     0.010 A 
ATOM     32  C   UNL A   1      36.315  33.021  30.679  1.00  0.00    -0.014 A 
BRANCH  32  33
ATOM     33  C   UNL A   1      37.461  32.377  31.360  1.00  0.00     0.031 A 
ATOM     34  C   UNL A   1      38.178  31.241  30.690  1.00  0.00     0.074 A 
ATOM     35  C   UNL A   1      37.824  32.788  32.589  1.00  0.00     0.049 A 
ATOM     36  N   UNL A   1      39.192  30.535  31.121  1.00  0.00    -0.248 NA
ATOM     37  C   UNL A   1      37.676  30.828  29.369  1.00  0.00     0.031 C 
ATOM     38  C   UNL A   1      37.173  33.854  33.349  1.00  0.00     0.029 A 
ATOM     39  N   UNL A   1      38.831  32.355  33.414  1.00  0.00    -0.354 N 
ATOM     40  C   UNL A   1      39.450  29.605  30.124  1.00  0.00     0.074 A 
ATOM     41  C   UNL A   1      38.448  29.786  29.099  1.00  0.00     0.031 C 
ATOM     42  C   UNL A   1      37.814  34.012  34.519  1.00  0.00     0.029 A 
ATOM     43  C   UNL A   1      38.903  33.042  34.601  1.00  0.00     0.049 A 
ATOM     44  H   UNL A   1      39.443  31.620  33.178  1.00  0.00     0.167 HD
ATOM     45  C   UNL A   1      40.457  28.705  30.056  1.00  0.00     0.037 A 
ATOM     46  C   UNL A   1      39.759  32.907  35.631  1.00  0.00     0.037 A 
ATOM     47  C   UNL A   1      41.463  28.544  31.070  1.00  0.00     0.049 A 
ATOM     48  C   UNL A   1      40.850  31.873  35.546  1.00  0.00     0.074 A 
ATOM     49  C   UNL A   1      42.558  27.699  31.070  1.00  0.00     0.029 A 
ATOM     50  N   UNL A   1      41.495  29.247  32.264  1.00  0.00    -0.354 N 
ATOM     51  N   UNL A   1      41.130  31.047  34.567  1.00  0.00    -0.248 NA
ATOM     52  C   UNL A   1      41.744  31.752  36.707  1.00  0.00     0.031 C 
ATOM     53  C   UNL A   1      43.230  27.862  32.285  1.00  0.00     0.029 A 
ATOM     54  C   UNL A   1      42.577  28.837  33.023  1.00  0.00     0.049 A 
ATOM     55  H   UNL A   1      40.844  29.936  32.533  1.00  0.00     0.167 HD
ATOM     56  C   UNL A   1      42.243  30.328  34.981  1.00  0.00     0.074 A 
ATOM     57  C   UNL A   1      42.594  30.821  36.297  1.00  0.00     0.031 C 
ATOM     58  C   UNL A   1      42.912  29.347  34.328  1.00  0.00     0.037 A 
BRANCH  45  59
ATOM     59  C   UNL A   1      40.535  27.843  28.832  1.00  0.00     0.064 A 
ATOM     60  C   UNL A   1      39.802  26.650  28.736  1.00  0.00     0.173 A 
ATOM     61  C   UNL A   1      41.306  28.233  27.728  1.00  0.00     0.173 A 
ATOM     62  F   UNL A   1      39.060  26.227  29.770  1.00  0.00    -0.203 F 
ATOM     63  C   UNL A   1      39.858  25.866  27.586  1.00  0.00     0.198 A 
ATOM     64  C   UNL A   1      41.338  27.461  26.570  1.00  0.00     0.198 A 
ATOM     65  F   UNL A   1      42.021  29.367  27.768  1.00  0.00    -0.203 F 
ATOM     66  F   UNL A   1      39.182  24.711  27.532  1.00  0.00    -0.200 F 
ATOM     67  C   UNL A   1      40.618  26.277  26.502  1.00  0.00     0.200 A 
ATOM     68  F   UNL A   1      42.065  27.862  25.517  1.00  0.00    -0.200 F 
ATOM     69  F   UNL A   1      40.661  25.528  25.392  1.00  0.00    -0.200 F 
ENDBRANCH  45  59
BRANCH  46  70
ATOM     70  C   UNL A   1      39.646  33.807  36.807  1.00  0.00     0.064 A 
ATOM     71  C   UNL A   1      40.310  35.042  36.828  1.00  0.00     0.173 A 
ATOM     72  C   UNL A   1      38.862  33.468  37.918  1.00  0.00     0.173 A 
ATOM     73  F   UNL A   1      41.087  35.401  35.795  1.00  0.00    -0.203 F 
ATOM     74  C   UNL A   1      40.202  35.899  37.921  1.00  0.00     0.198 A 
ATOM     75  C   UNL A   1      38.736  34.336  39.001  1.00  0.00     0.198 A 
ATOM     76  F   UNL A   1      38.204  32.300  37.945  1.00  0.00    -0.203 F 
ATOM     77  F   UNL A   1      40.872  37.059  37.928  1.00  0.00    -0.200 F 
ATOM     78  C   UNL A   1      39.410  35.549  39.004  1.00  0.00     0.200 A 
ATOM     79  F   UNL A   1      37.959  34.000  40.040  1.00  0.00    -0.200 F 
ATOM     80  F   UNL A   1      39.299  36.377  40.052  1.00  0.00    -0.200 F 
ENDBRANCH  46  70
BRANCH  58  81
ATOM     81  C   UNL A   1      44.099  28.739  35.011  1.00  0.00     0.064 A 
ATOM     82  C   UNL A   1      45.373  29.314  34.903  1.00  0.00     0.173 A 
ATOM     83  C   UNL A   1      43.941  27.636  35.865  1.00  0.00     0.173 A 
ATOM     84  F   UNL A   1      45.574  30.361  34.089  1.00  0.00    -0.203 F 
ATOM     85  C   UNL A   1      46.448  28.806  35.626  1.00  0.00     0.198 A 
ATOM     86  C   UNL A   1      45.014  27.147  36.605  1.00  0.00     0.198 A 
ATOM     87  F   UNL A   1      42.739  27.058  36.007  1.00  0.00    -0.203 F 
ATOM     88  F   UNL A   1      47.663  29.359  35.495  1.00  0.00    -0.200 F 
ATOM     89  C   UNL A   1      46.266  27.732  36.486  1.00  0.00     0.200 A 
ATOM     90  F   UNL A   1      44.831  26.120  37.447  1.00  0.00    -0.200 F 
ATOM     91  F   UNL A   1      47.297  27.262  37.200  1.00  0.00    -0.200 F 
ENDBRANCH  58  81
ENDBRANCH  32  33
ENDBRANCH  24  27
ENDBRANCH  22  23
ENDBRANCH   1  22
TORSDOF 12
ENDMDL
MODEL 2
REMARK VINA RESULT:     -12.1      5.612     10.683
REMARK SMILES C[C@H](Oc1ccnc2c(F)cc(F)cc12)C(=O)NCCCNC(=O)c1ccc(-c2c3nc(c(-c4c(F)c(F)c(F)c(F)c4F)c4ccc([nH]4)c(-c4c(F)c(F)c(F)c(F)c4F)c4nc(c(-c5c(F)c(F)c(F)c(F)c5F)c5ccc2[nH]5)C=C4)C=C3)cc1
REMARK SMILES IDX 20 1 19 2 18 3 16 4 17 5 2 7 1 8 3 9 4 10 5 11 15 12 6 13
REMARK SMILES IDX 8 14 14 15 7 16 9 17 12 18 10 19 11 20 13 21 21 22 22 23
REMARK SMILES IDX 23 24 24 26 25 27 26 28 87 29 27 30 86 31 28 32 29 33 30 34
REMARK SMILES IDX 80 35 31 36 85 37 79 38 81 39 32 40 84 41 78 42 77 43 33 45
REMARK SMILES IDX 65 46 45 47 64 48 46 49 49 50 63 51 82 52 47 53 48 54 62 56
REMARK SMILES IDX 83 57 50 58 34 59 35 60 43 61 36 62 37 63 41 64 44 65 38 66
REMARK SMILES IDX 39 67 42 68 40 69 66 70 67 71 75 72 68 73 69 74 73 75 76 76
REMARK SMILES IDX 70 77 71 78 74 79 72 80 51 81 52 82 60 83 53 84 54 85 58 86
REMARK SMILES IDX 61 87 55 88 56 89 59 90 57 91
REMARK H PARENT 18 6 22 25 81 44 49 55
REMARK Flexibility Score: inf
ROOT
ATOM      1  C   UNL A   1      37.857  19.716  25.006  1.00  0.00     0.042 C 
ENDROOT
BRANCH   1   2
ATOM      2  C   UNL A   1      36.710  20.718  24.975  1.00  0.00     0.118 C 
BRANCH   2   3
ATOM      3  N   UNL A   1      35.426  20.054  24.999  1.00  0.00    -0.353 N 
ATOM      4  C   UNL A   1      34.236  20.454  25.522  1.00  0.00     0.260 C 
ATOM      5  O   UNL A   1      33.313  19.632  25.487  1.00  0.00    -0.271 OA
ATOM      6  H   UNL A   1      35.410  19.169  24.566  1.00  0.00     0.163 HD
BRANCH   4   7
ATOM      7  C   UNL A   1      34.002  21.878  26.080  1.00  0.00     0.258 C 
ATOM      8  C   UNL A   1      34.060  21.914  27.602  1.00  0.00     0.064 C 
BRANCH   7   9
ATOM      9  O   UNL A   1      33.060  22.679  25.380  1.00  0.00    -0.480 OA
BRANCH   9  10
ATOM     10  C   UNL A   1      33.163  23.316  24.184  1.00  0.00     0.131 A 
ATOM     11  C   UNL A   1      33.042  22.734  22.933  1.00  0.00     0.067 A 
ATOM     12  C   UNL A   1      33.375  24.718  24.267  1.00  0.00     0.048 A 
ATOM     13  C   UNL A   1      33.217  23.527  21.816  1.00  0.00     0.115 A 
ATOM     14  C   UNL A   1      33.529  25.447  23.065  1.00  0.00     0.110 A 
ATOM     15  C   UNL A   1      33.431  25.414  25.498  1.00  0.00     0.053 A 
ATOM     16  N   UNL A   1      33.473  24.846  21.862  1.00  0.00    -0.253 NA
ATOM     17  C   UNL A   1      33.735  26.827  23.152  1.00  0.00     0.152 A 
ATOM     18  C   UNL A   1      33.621  26.790  25.532  1.00  0.00     0.127 A 
ATOM     19  F   UNL A   1      33.895  27.549  22.030  1.00  0.00    -0.204 F 
ATOM     20  C   UNL A   1      33.777  27.507  24.365  1.00  0.00     0.080 A 
ATOM     21  F   UNL A   1      33.651  27.425  26.710  1.00  0.00    -0.207 F 
ENDBRANCH   9  10
ENDBRANCH   7   9
ENDBRANCH   4   7
ENDBRANCH   2   3
ENDBRANCH   1   2
BRANCH   1  22
ATOM     22  C   UNL A   1      39.086  20.268  25.721  1.00  0.00     0.118 C 
BRANCH  22  23
ATOM     23  N   UNL A   1      40.112  19.247  25.897  1.00  0.00    -0.352 N 
ATOM     24  C   UNL A   1      41.461  19.404  26.103  1.00  0.00     0.251 C 
ATOM     25  H   UNL A   1      39.794  18.317  25.864  1.00  0.00     0.163 HD
ATOM     26  O   UNL A   1      42.222  18.451  25.996  1.00  0.00    -0.269 OA
BRANCH  24  27
ATOM     27  C   UNL A   1      41.986  20.738  26.450  1.00  0.00     0.039 A 
ATOM     28  C   UNL A   1      42.320  21.628  25.426  1.00  0.00     0.014 A 
ATOM     29  C   UNL A   1      42.149  21.098  27.790  1.00  0.00     0.014 A 
ATOM     30  C   UNL A   1      42.766  22.909  25.752  1.00  0.00     0.010 A 
ATOM     31  C   UNL A   1      42.530  22.394  28.114  1.00  0.00     0.010 A 
ATOM     32  C   UNL A   1      42.853  23.306  27.097  1.00  0.00    -0.014 A 
BRANCH  32  33
ATOM     33  C   UNL A   1      43.320  24.662  27.462  1.00  0.00     0.031 A 
ATOM     34  C   UNL A   1      42.315  25.721  27.813  1.00  0.00     0.074 A 
ATOM     35  C   UNL A   1      44.635  24.946  27.438  1.00  0.00     0.049 A 
ATOM     36  N   UNL A   1      42.514  26.971  28.146  1.00  0.00    -0.248 NA
ATOM     37  C   UNL A   1      40.897  25.332  27.762  1.00  0.00     0.031 C 
ATOM     38  C   UNL A   1      45.694  24.005  27.074  1.00  0.00     0.029 A 
ATOM     39  N   UNL A   1      45.303  26.109  27.725  1.00  0.00    -0.354 N 
ATOM     40  C   UNL A   1      41.252  27.509  28.349  1.00  0.00     0.074 A 
ATOM     41  C   UNL A   1      40.290  26.477  28.036  1.00  0.00     0.031 C 
ATOM     42  C   UNL A   1      46.884  24.621  27.186  1.00  0.00     0.029 A 
ATOM     43  C   UNL A   1      46.667  26.004  27.605  1.00  0.00     0.049 A 
ATOM     44  H   UNL A   1      44.849  26.941  27.992  1.00  0.00     0.167 HD
ATOM     45  C   UNL A   1      40.926  28.745  28.793  1.00  0.00     0.037 A 
ATOM     46  C   UNL A   1      47.631  26.919  27.818  1.00  0.00     0.037 A 
ATOM     47  C   UNL A   1      41.889  29.760  29.122  1.00  0.00     0.049 A 
ATOM     48  C   UNL A   1      47.241  28.299  28.278  1.00  0.00     0.074 A 
ATOM     49  C   UNL A   1      41.664  31.026  29.633  1.00  0.00     0.029 A 
ATOM     50  N   UNL A   1      43.260  29.622  28.973  1.00  0.00    -0.354 N 
ATOM     51  N   UNL A   1      46.048  28.776  28.537  1.00  0.00    -0.248 NA
ATOM     52  C   UNL A   1      48.330  29.267  28.475  1.00  0.00     0.031 C 
ATOM     53  C   UNL A   1      42.899  31.669  29.755  1.00  0.00     0.029 A 
ATOM     54  C   UNL A   1      43.895  30.790  29.358  1.00  0.00     0.049 A 
ATOM     55  H   UNL A   1      43.715  28.814  28.642  1.00  0.00     0.167 HD
ATOM     56  C   UNL A   1      46.242  30.087  28.951  1.00  0.00     0.074 A 
ATOM     57  C   UNL A   1      47.670  30.329  28.918  1.00  0.00     0.031 C 
ATOM     58  C   UNL A   1      45.319  31.007  29.324  1.00  0.00     0.037 A 
BRANCH  45  59
ATOM     59  C   UNL A   1      39.471  29.057  28.972  1.00  0.00     0.064 A 
ATOM     60  C   UNL A   1      38.668  29.425  27.883  1.00  0.00     0.173 A 
ATOM     61  C   UNL A   1      38.863  28.940  30.230  1.00  0.00     0.173 A 
ATOM     62  F   UNL A   1      39.206  29.563  26.662  1.00  0.00    -0.203 F 
ATOM     63  C   UNL A   1      37.311  29.688  28.051  1.00  0.00     0.198 A 
ATOM     64  C   UNL A   1      37.500  29.177  30.389  1.00  0.00     0.198 A 
ATOM     65  F   UNL A   1      39.586  28.587  31.302  1.00  0.00    -0.203 F 
ATOM     66  F   UNL A   1      36.571  30.078  27.004  1.00  0.00    -0.200 F 
ATOM     67  C   UNL A   1      36.727  29.555  29.301  1.00  0.00     0.200 A 
ATOM     68  F   UNL A   1      36.933  29.039  31.597  1.00  0.00    -0.200 F 
ATOM     69  F   UNL A   1      35.419  29.798  29.460  1.00  0.00    -0.200 F 
ENDBRANCH  45  59
BRANCH  46  70
ATOM     70  C   UNL A   1      49.057  26.543  27.647  1.00  0.00     0.064 A 
ATOM     71  C   UNL A   1      49.864  26.273  28.761  1.00  0.00     0.173 A 
ATOM     72  C   UNL A   1      49.637  26.425  26.376  1.00  0.00     0.173 A 
ATOM     73  F   UNL A   1      49.357  26.390  29.997  1.00  0.00    -0.203 F 
ATOM     74  C   UNL A   1      51.200  25.907  28.611  1.00  0.00     0.198 A 
ATOM     75  C   UNL A   1      50.968  26.038  26.225  1.00  0.00     0.198 A 
ATOM     76  F   UNL A   1      48.907  26.670  25.279  1.00  0.00    -0.203 F 
ATOM     77  F   UNL A   1      51.957  25.685  29.694  1.00  0.00    -0.200 F 
ATOM     78  C   UNL A   1      51.749  25.785  27.343  1.00  0.00     0.200 A 
ATOM     79  F   UNL A   1      51.491  25.907  24.999  1.00  0.00    -0.200 F 
ATOM     80  F   UNL A   1      53.032  25.426  27.198  1.00  0.00    -0.200 F 
ENDBRANCH  46  70
BRANCH  58  81
ATOM     81  C   UNL A   1      45.811  32.360  29.737  1.00  0.00     0.064 A 
ATOM     82  C   UNL A   1      45.905  33.412  28.816  1.00  0.00     0.173 A 
ATOM     83  C   UNL A   1      46.090  32.634  31.086  1.00  0.00     0.173 A 
ATOM     84  F   UNL A   1      45.661  33.193  27.515  1.00  0.00    -0.203 F 
ATOM     85  C   UNL A   1      46.260  34.693  29.230  1.00  0.00     0.198 A 
ATOM     86  C   UNL A   1      46.420  33.921  31.499  1.00  0.00     0.198 A 
ATOM     87  F   UNL A   1      46.005  31.661  32.005  1.00  0.00    -0.203 F 
ATOM     88  F   UNL A   1      46.361  35.681  28.330  1.00  0.00    -0.200 F 
ATOM     89  C   UNL A   1      46.504  34.950  30.572  1.00  0.00     0.200 A 
ATOM     90  F   UNL A   1      46.639  34.171  32.797  1.00  0.00    -0.200 F 
ATOM     91  F   UNL A   1      46.820  36.188  30.971  1.00  0.00    -0.200 F 
ENDBRANCH  58  81
ENDBRANCH  32  33
ENDBRANCH  24  27
ENDBRANCH  22  23
ENDBRANCH   1  22
TORSDOF 12
ENDMDL
MODEL 3
REMARK VINA RESULT:     -12.1      0.935      7.540
REMARK SMILES C[C@H](Oc1ccnc2c(F)cc(F)cc12)C(=O)NCCCNC(=O)c1ccc(-c2c3nc(c(-c4c(F)c(F)c(F)c(F)c4F)c4ccc([nH]4)c(-c4c(F)c(F)c(F)c(F)c4F)c4nc(c(-c5c(F)c(F)c(F)c(F)c5F)c5ccc2[nH]5)C=C4)C=C3)cc1
REMARK SMILES IDX 20 1 19 2 18 3 16 4 17 5 2 7 1 8 3 9 4 10 5 11 15 12 6 13
REMARK SMILES IDX 8 14 14 15 7 16 9 17 12 18 10 19 11 20 13 21 21 22 22 23
REMARK SMILES IDX 23 24 24 26 25 27 26 28 87 29 27 30 86 31 28 32 29 33 30 34
REMARK SMILES IDX 80 35 31 36 85 37 79 38 81 39 32 40 84 41 78 42 77 43 33 45
REMARK SMILES IDX 65 46 45 47 64 48 46 49 49 50 63 51 82 52 47 53 48 54 62 56
REMARK SMILES IDX 83 57 50 58 34 59 35 60 43 61 36 62 37 63 41 64 44 65 38 66
REMARK SMILES IDX 39 67 42 68 40 69 66 70 67 71 75 72 68 73 69 74 73 75 76 76
REMARK SMILES IDX 70 77 71 78 74 79 72 80 51 81 52 82 60 83 53 84 54 85 58 86
REMARK SMILES IDX 61 87 55 88 56 89 59 90 57 91
REMARK H PARENT 18 6 22 25 81 44 49 55
REMARK Flexibility Score: inf
ROOT
ATOM      1  C   UNL A   1      31.378  32.291  26.508  1.00  0.00     0.042 C 
ENDROOT
BRANCH   1   2
ATOM      2  C   UNL A   1      31.328  30.768  26.497  1.00  0.00     0.118 C 
BRANCH   2   3
ATOM      3  N   UNL A   1      32.019  30.224  25.350  1.00  0.00    -0.353 N 
ATOM      4  C   UNL A   1      33.074  29.367  25.280  1.00  0.00     0.260 C 
ATOM      5  O   UNL A   1      33.531  29.145  24.154  1.00  0.00    -0.271 OA
ATOM      6  H   UNL A   1      31.671  30.521  24.478  1.00  0.00     0.163 HD
BRANCH   4   7
ATOM      7  C   UNL A   1      33.650  28.645  26.521  1.00  0.00     0.258 C 
ATOM      8  C   UNL A   1      34.818  29.405  27.136  1.00  0.00     0.064 C 
BRANCH   7   9
ATOM      9  O   UNL A   1      33.668  27.225  26.469  1.00  0.00    -0.480 OA
BRANCH   9  10
ATOM     10  C   UNL A   1      32.703  26.346  26.091  1.00  0.00     0.131 A 
ATOM     11  C   UNL A   1      31.341  26.487  26.296  1.00  0.00     0.067 A 
ATOM     12  C   UNL A   1      33.172  25.207  25.384  1.00  0.00     0.048 A 
ATOM     13  C   UNL A   1      30.501  25.472  25.881  1.00  0.00     0.115 A 
ATOM     14  C   UNL A   1      32.232  24.228  24.987  1.00  0.00     0.110 A 
ATOM     15  C   UNL A   1      34.535  25.016  25.055  1.00  0.00     0.053 A 
ATOM     16  N   UNL A   1      30.920  24.357  25.258  1.00  0.00    -0.253 NA
ATOM     17  C   UNL A   1      32.699  23.110  24.289  1.00  0.00     0.152 A 
ATOM     18  C   UNL A   1      34.948  23.895  24.345  1.00  0.00     0.127 A 
ATOM     19  F   UNL A   1      31.834  22.154  23.906  1.00  0.00    -0.204 F 
ATOM     20  C   UNL A   1      34.038  22.933  23.959  1.00  0.00     0.080 A 
ATOM     21  F   UNL A   1      36.241  23.750  24.031  1.00  0.00    -0.207 F 
ENDBRANCH   9  10
ENDBRANCH   7   9
ENDBRANCH   4   7
ENDBRANCH   2   3
ENDBRANCH   1   2
BRANCH   1  22
ATOM     22  C   UNL A   1      32.661  32.821  27.136  1.00  0.00     0.118 C 
BRANCH  22  23
ATOM     23  N   UNL A   1      32.498  34.183  27.631  1.00  0.00    -0.352 N 
ATOM     24  C   UNL A   1      33.108  34.794  28.700  1.00  0.00     0.251 C 
ATOM     25  H   UNL A   1      31.862  34.742  27.130  1.00  0.00     0.163 HD
ATOM     26  O   UNL A   1      32.691  35.863  29.127  1.00  0.00    -0.269 OA
BRANCH  24  27
ATOM     27  C   UNL A   1      34.272  34.146  29.331  1.00  0.00     0.039 A 
ATOM     28  C   UNL A   1      34.063  33.155  30.293  1.00  0.00     0.014 A 
ATOM     29  C   UNL A   1      35.567  34.527  28.969  1.00  0.00     0.014 A 
ATOM     30  C   UNL A   1      35.162  32.502  30.853  1.00  0.00     0.010 A 
ATOM     31  C   UNL A   1      36.657  33.832  29.478  1.00  0.00     0.010 A 
ATOM     32  C   UNL A   1      36.463  32.823  30.433  1.00  0.00    -0.014 A 
BRANCH  32  33
ATOM     33  C   UNL A   1      37.641  32.138  31.012  1.00  0.00     0.031 A 
ATOM     34  C   UNL A   1      38.118  32.518  32.384  1.00  0.00     0.074 A 
ATOM     35  C   UNL A   1      38.297  31.210  30.291  1.00  0.00     0.049 A 
ATOM     36  N   UNL A   1      39.134  32.052  33.064  1.00  0.00    -0.248 NA
ATOM     37  C   UNL A   1      37.368  33.580  33.076  1.00  0.00     0.031 C 
ATOM     38  C   UNL A   1      37.945  30.793  28.934  1.00  0.00     0.029 A 
ATOM     39  N   UNL A   1      39.398  30.453  30.600  1.00  0.00    -0.354 N 
ATOM     40  C   UNL A   1      39.138  32.756  34.260  1.00  0.00     0.074 A 
ATOM     41  C   UNL A   1      38.071  33.728  34.189  1.00  0.00     0.031 C 
ATOM     42  C   UNL A   1      38.797  29.833  28.537  1.00  0.00     0.029 A 
ATOM     43  C   UNL A   1      39.768  29.588  29.600  1.00  0.00     0.049 A 
ATOM     44  H   UNL A   1      39.878  30.523  31.457  1.00  0.00     0.167 HD
ATOM     45  C   UNL A   1      39.939  32.581  35.336  1.00  0.00     0.037 A 
ATOM     46  C   UNL A   1      40.773  28.693  29.554  1.00  0.00     0.037 A 
ATOM     47  C   UNL A   1      40.985  31.597  35.408  1.00  0.00     0.049 A 
ATOM     48  C   UNL A   1      41.673  28.541  30.752  1.00  0.00     0.074 A 
ATOM     49  C   UNL A   1      41.816  31.301  36.473  1.00  0.00     0.029 A 
ATOM     50  N   UNL A   1      41.340  30.750  34.370  1.00  0.00    -0.354 N 
ATOM     51  N   UNL A   1      41.623  29.161  31.906  1.00  0.00    -0.248 NA
ATOM     52  C   UNL A   1      42.768  27.566  30.641  1.00  0.00     0.031 C 
ATOM     53  C   UNL A   1      42.703  30.301  36.065  1.00  0.00     0.029 A 
ATOM     54  C   UNL A   1      42.397  29.946  34.760  1.00  0.00     0.049 A 
ATOM     55  H   UNL A   1      40.906  30.723  33.487  1.00  0.00     0.167 HD
ATOM     56  C   UNL A   1      42.659  28.636  32.666  1.00  0.00     0.074 A 
ATOM     57  C   UNL A   1      43.317  27.639  31.847  1.00  0.00     0.031 C 
ATOM     58  C   UNL A   1      43.032  28.954  33.930  1.00  0.00     0.037 A 
BRANCH  45  59
ATOM     59  C   UNL A   1      39.697  33.453  36.530  1.00  0.00     0.064 A 
ATOM     60  C   UNL A   1      40.325  34.701  36.657  1.00  0.00     0.173 A 
ATOM     61  C   UNL A   1      38.795  33.064  37.531  1.00  0.00     0.173 A 
ATOM     62  F   UNL A   1      41.206  35.112  35.733  1.00  0.00    -0.203 F 
ATOM     63  C   UNL A   1      40.076  35.519  37.756  1.00  0.00     0.198 A 
ATOM     64  C   UNL A   1      38.528  33.897  38.615  1.00  0.00     0.198 A 
ATOM     65  F   UNL A   1      38.166  31.883  37.454  1.00  0.00    -0.203 F 
ATOM     66  F   UNL A   1      40.718  36.689  37.877  1.00  0.00    -0.200 F 
ATOM     67  C   UNL A   1      39.172  35.120  38.729  1.00  0.00     0.200 A 
ATOM     68  F   UNL A   1      37.647  33.516  39.551  1.00  0.00    -0.200 F 
ATOM     69  F   UNL A   1      38.925  35.913  39.780  1.00  0.00    -0.200 F 
ENDBRANCH  45  59
BRANCH  46  70
ATOM     70  C   UNL A   1      40.948  27.840  28.352  1.00  0.00     0.064 A 
ATOM     71  C   UNL A   1      40.322  26.588  28.266  1.00  0.00     0.173 A 
ATOM     72  C   UNL A   1      41.719  28.261  27.259  1.00  0.00     0.173 A 
ATOM     73  F   UNL A   1      39.589  26.136  29.295  1.00  0.00    -0.203 F 
ATOM     74  C   UNL A   1      40.469  25.785  27.137  1.00  0.00     0.198 A 
ATOM     75  C   UNL A   1      41.848  27.466  26.121  1.00  0.00     0.198 A 
ATOM     76  F   UNL A   1      42.335  29.451  27.290  1.00  0.00    -0.203 F 
ATOM     77  F   UNL A   1      39.886  24.580  27.096  1.00  0.00    -0.200 F 
ATOM     78  C   UNL A   1      41.227  26.227  26.063  1.00  0.00     0.200 A 
ATOM     79  F   UNL A   1      42.569  27.902  25.080  1.00  0.00    -0.200 F 
ATOM     80  F   UNL A   1      41.362  25.458  24.974  1.00  0.00    -0.200 F 
ENDBRANCH  46  70
BRANCH  58  81
ATOM     81  C   UNL A   1      44.195  28.217  34.520  1.00  0.00     0.064 A 
ATOM     82  C   UNL A   1      45.491  28.748  34.472  1.00  0.00     0.173 A 
ATOM     83  C   UNL A   1      43.995  27.023  35.230  1.00  0.00     0.173 A 
ATOM     84  F   UNL A   1      45.732  29.880  33.794  1.00  0.00    -0.203 F 
ATOM     85  C   UNL A   1      46.547  28.109  35.116  1.00  0.00     0.198 A 
ATOM     86  C   UNL A   1      45.049  26.401  35.893  1.00  0.00     0.198 A 
ATOM     87  F   UNL A   1      42.770  26.482  35.311  1.00  0.00    -0.203 F 
ATOM     88  F   UNL A   1      47.783  28.624  35.043  1.00  0.00    -0.200 F 
ATOM     89  C   UNL A   1      46.324  26.944  35.836  1.00  0.00     0.200 A 
ATOM     90  F   UNL A   1      44.827  25.286  36.602  1.00  0.00    -0.200 F 
ATOM     91  F   UNL A   1      47.337  26.346  36.476  1.00  0.00    -0.200 F 
ENDBRANCH  58  81
ENDBRANCH  32  33
ENDBRANCH  24  27
ENDBRANCH  22  23
ENDBRANCH   1  22
TORSDOF 12
ENDMDL
