MODEL 1
REMARK VINA RESULT:     -12.4      0.000      0.000
REMARK SMILES C/C=C(\C)[C@@H]1C(C)=C[C@@H]2[C@H]([C@@H]1/C=C/C=C/C(=O)NCCCNC(=O)c1ccc(-c3c4nc(c(-c5c(F)c(F)c(F)c(F)c5F)c5ccc([nH]5)c(-c5c(F)c(F)c(F)c(F)c5F)c5nc(c(-c6c(F)c(F)c(F)c(F)c6F)c6ccc3[nH]6)C=C5)C=C4)cc1)[C@@H](C)CC[C@@H]2O
REMARK SMILES IDX 19 1 18 2 16 3 17 4 15 6 14 7 13 8 12 9 11 10 5 11 6 12 7 13
REMARK SMILES IDX 8 14 10 15 9 16 88 17 92 18 89 19 90 20 91 21 3 22 1 23 2 24
REMARK SMILES IDX 4 25 93 26 20 28 21 29 22 30 23 31 24 33 25 34 26 35 87 36
REMARK SMILES IDX 27 37 86 38 28 39 29 40 30 41 80 42 31 43 85 44 79 45 81 46
REMARK SMILES IDX 32 47 84 48 78 49 77 50 33 52 65 53 45 54 64 55 46 56 49 57
REMARK SMILES IDX 63 58 82 59 47 60 48 61 62 63 83 64 50 65 34 66 35 67 43 68
REMARK SMILES IDX 36 69 37 70 41 71 44 72 38 73 39 74 42 75 40 76 66 77 67 78
REMARK SMILES IDX 75 79 68 80 69 81 73 82 76 83 70 84 71 85 74 86 72 87 51 88
REMARK SMILES IDX 52 89 60 90 53 91 54 92 58 93 61 94 55 95 56 96 59 97 57 98
REMARK H PARENT 18 5 93 27 22 32 81 51 49 62
REMARK Flexibility Score: inf
ROOT
ATOM      1  C   UNL A   1      31.919  30.570  26.881  1.00  0.00     0.118 C 
ENDROOT
BRANCH   1   2
ATOM      2  N   UNL A   1      33.142  30.326  27.634  1.00  0.00    -0.352 N 
ATOM      3  C   UNL A   1      34.035  29.300  27.560  1.00  0.00     0.243 C 
ATOM      4  O   UNL A   1      35.084  29.351  28.197  1.00  0.00    -0.270 OA
ATOM      5  H   UNL A   1      33.359  31.015  28.304  1.00  0.00     0.163 HD
BRANCH   3   6
ATOM      6  C   UNL A   1      33.789  28.169  26.639  1.00  0.00     0.071 C 
ATOM      7  C   UNL A   1      34.092  28.236  25.337  1.00  0.00     0.005 C 
BRANCH   7   8
ATOM      8  C   UNL A   1      33.994  27.114  24.438  1.00  0.00    -0.004 C 
ATOM      9  C   UNL A   1      34.100  25.860  24.903  1.00  0.00    -0.022 C 
BRANCH   9  10
ATOM     10  C   UNL A   1      33.936  24.604  24.068  1.00  0.00     0.027 C 
ATOM     11  C   UNL A   1      32.441  24.286  23.641  1.00  0.00     0.047 C 
ATOM     12  C   UNL A   1      32.045  22.826  23.812  1.00  0.00    -0.069 C 
ATOM     13  C   UNL A   1      30.968  22.291  22.909  1.00  0.00     0.040 C 
ATOM     14  C   UNL A   1      32.616  22.059  24.756  1.00  0.00    -0.021 C 
ATOM     15  C   UNL A   1      34.691  23.436  24.789  1.00  0.00     0.009 C 
ATOM     16  C   UNL A   1      33.704  22.609  25.652  1.00  0.00     0.044 C 
ATOM     17  C   UNL A   1      35.516  22.506  23.837  1.00  0.00    -0.010 C 
ATOM     18  C   UNL A   1      34.475  21.535  26.444  1.00  0.00     0.121 C 
ATOM     19  C   UNL A   1      36.603  23.264  23.064  1.00  0.00     0.008 C 
ATOM     20  C   UNL A   1      36.200  21.371  24.632  1.00  0.00     0.006 C 
ATOM     21  C   UNL A   1      35.247  20.592  25.531  1.00  0.00     0.033 C 
BRANCH  11  22
ATOM     22  C   UNL A   1      31.330  25.201  24.209  1.00  0.00    -0.070 C 
ATOM     23  C   UNL A   1      29.629  27.062  23.754  1.00  0.00     0.035 C 
ATOM     24  C   UNL A   1      30.726  26.104  23.407  1.00  0.00    -0.031 C 
ATOM     25  C   UNL A   1      30.920  24.978  25.649  1.00  0.00     0.040 C 
ENDBRANCH  11  22
BRANCH  18  26
ATOM     26  O   UNL A   1      33.611  20.805  27.312  1.00  0.00    -0.393 OA
ATOM     27  H   UNL A   1      33.904  20.919  28.230  1.00  0.00     0.210 HD
ENDBRANCH  18  26
ENDBRANCH   9  10
ENDBRANCH   7   8
ENDBRANCH   3   6
ENDBRANCH   1   2
BRANCH   1  28
ATOM     28  C   UNL A   1      31.579  32.059  26.812  1.00  0.00     0.042 C 
BRANCH  28  29
ATOM     29  C   UNL A   1      32.800  32.972  26.894  1.00  0.00     0.118 C 
BRANCH  29  30
ATOM     30  N   UNL A   1      32.506  34.227  27.572  1.00  0.00    -0.352 N 
ATOM     31  C   UNL A   1      33.047  34.769  28.708  1.00  0.00     0.251 C 
ATOM     32  H   UNL A   1      31.807  34.774  27.145  1.00  0.00     0.163 HD
ATOM     33  O   UNL A   1      32.519  35.761  29.213  1.00  0.00    -0.269 OA
BRANCH  31  34
ATOM     34  C   UNL A   1      34.242  34.178  29.350  1.00  0.00     0.039 A 
ATOM     35  C   UNL A   1      34.057  33.270  30.399  1.00  0.00     0.014 A 
ATOM     36  C   UNL A   1      35.536  34.548  28.971  1.00  0.00     0.014 A 
ATOM     37  C   UNL A   1      35.164  32.697  31.031  1.00  0.00     0.010 A 
ATOM     38  C   UNL A   1      36.639  33.931  29.562  1.00  0.00     0.010 A 
ATOM     39  C   UNL A   1      36.464  33.002  30.599  1.00  0.00    -0.014 A 
BRANCH  39  40
ATOM     40  C   UNL A   1      37.650  32.355  31.218  1.00  0.00     0.031 A 
ATOM     41  C   UNL A   1      38.399  31.279  30.483  1.00  0.00     0.074 A 
ATOM     42  C   UNL A   1      38.014  32.695  32.469  1.00  0.00     0.049 A 
ATOM     43  N   UNL A   1      39.405  30.545  30.889  1.00  0.00    -0.248 NA
ATOM     44  C   UNL A   1      37.942  30.969  29.120  1.00  0.00     0.031 C 
ATOM     45  C   UNL A   1      37.344  33.696  33.301  1.00  0.00     0.029 A 
ATOM     46  N   UNL A   1      39.029  32.226  33.265  1.00  0.00    -0.354 N 
ATOM     47  C   UNL A   1      39.688  29.678  29.842  1.00  0.00     0.074 A 
ATOM     48  C   UNL A   1      38.723  29.948  28.798  1.00  0.00     0.031 C 
ATOM     49  C   UNL A   1      37.974  33.775  34.484  1.00  0.00     0.029 A 
ATOM     50  C   UNL A   1      39.068  32.809  34.508  1.00  0.00     0.049 A 
ATOM     51  H   UNL A   1      39.667  31.536  32.973  1.00  0.00     0.167 HD
ATOM     52  C   UNL A   1      40.675  28.753  29.753  1.00  0.00     0.037 A 
ATOM     53  C   UNL A   1      39.888  32.584  35.551  1.00  0.00     0.037 A 
ATOM     54  C   UNL A   1      41.652  28.506  30.781  1.00  0.00     0.049 A 
ATOM     55  C   UNL A   1      40.977  31.555  35.425  1.00  0.00     0.074 A 
ATOM     56  C   UNL A   1      42.726  27.634  30.760  1.00  0.00     0.029 A 
ATOM     57  N   UNL A   1      41.673  29.134  32.018  1.00  0.00    -0.354 N 
ATOM     58  N   UNL A   1      41.271  30.782  34.408  1.00  0.00    -0.248 NA
ATOM     59  C   UNL A   1      41.852  31.372  36.591  1.00  0.00     0.031 C 
ATOM     60  C   UNL A   1      43.375  27.707  31.997  1.00  0.00     0.029 A 
ATOM     61  C   UNL A   1      42.731  28.655  32.774  1.00  0.00     0.049 A 
ATOM     62  H   UNL A   1      41.031  29.820  32.315  1.00  0.00     0.167 HD
ATOM     63  C   UNL A   1      42.377  30.041  34.800  1.00  0.00     0.074 A 
ATOM     64  C   UNL A   1      42.710  30.465  36.143  1.00  0.00     0.031 C 
ATOM     65  C   UNL A   1      43.054  29.093  34.108  1.00  0.00     0.037 A 
BRANCH  52  66
ATOM     66  C   UNL A   1      40.749  27.936  28.497  1.00  0.00     0.064 A 
ATOM     67  C   UNL A   1      41.499  28.359  27.389  1.00  0.00     0.173 A 
ATOM     68  C   UNL A   1      40.094  26.697  28.412  1.00  0.00     0.173 A 
ATOM     69  F   UNL A   1      42.134  29.540  27.416  1.00  0.00    -0.203 F 
ATOM     70  C   UNL A   1      41.568  27.585  26.234  1.00  0.00     0.198 A 
ATOM     71  C   UNL A   1      40.189  25.914  27.266  1.00  0.00     0.198 A 
ATOM     72  F   UNL A   1      39.370  26.244  29.446  1.00  0.00    -0.203 F 
ATOM     73  F   UNL A   1      42.254  28.030  25.172  1.00  0.00    -0.200 F 
ATOM     74  C   UNL A   1      40.920  26.361  26.175  1.00  0.00     0.200 A 
ATOM     75  F   UNL A   1      39.572  24.724  27.215  1.00  0.00    -0.200 F 
ATOM     76  F   UNL A   1      40.993  25.614  25.064  1.00  0.00    -0.200 F 
ENDBRANCH  52  66
BRANCH  53  77
ATOM     77  C   UNL A   1      39.723  33.367  36.802  1.00  0.00     0.064 A 
ATOM     78  C   UNL A   1      38.803  32.968  37.782  1.00  0.00     0.173 A 
ATOM     79  C   UNL A   1      40.477  34.525  37.045  1.00  0.00     0.173 A 
ATOM     80  F   UNL A   1      38.045  31.880  37.584  1.00  0.00    -0.203 F 
ATOM     81  C   UNL A   1      38.633  33.707  38.951  1.00  0.00     0.198 A 
ATOM     82  C   UNL A   1      40.322  35.248  38.225  1.00  0.00     0.198 A 
ATOM     83  F   UNL A   1      41.371  34.946  36.139  1.00  0.00    -0.203 F 
ATOM     84  F   UNL A   1      37.717  33.325  39.853  1.00  0.00    -0.200 F 
ATOM     85  C   UNL A   1      39.396  34.842  39.175  1.00  0.00     0.200 A 
ATOM     86  F   UNL A   1      41.070  36.339  38.443  1.00  0.00    -0.200 F 
ATOM     87  F   UNL A   1      39.233  35.550  40.300  1.00  0.00    -0.200 F 
ENDBRANCH  53  77
BRANCH  65  88
ATOM     88  C   UNL A   1      44.244  28.472  34.778  1.00  0.00     0.064 A 
ATOM     89  C   UNL A   1      44.131  27.292  35.528  1.00  0.00     0.173 A 
ATOM     90  C   UNL A   1      45.517  29.044  34.638  1.00  0.00     0.173 A 
ATOM     91  F   UNL A   1      42.932  26.717  35.704  1.00  0.00    -0.203 F 
ATOM     92  C   UNL A   1      45.247  26.720  36.132  1.00  0.00     0.198 A 
ATOM     93  C   UNL A   1      46.635  28.454  35.221  1.00  0.00     0.198 A 
ATOM     94  F   UNL A   1      45.678  30.171  33.927  1.00  0.00    -0.203 F 
ATOM     95  F   UNL A   1      45.110  25.615  36.879  1.00  0.00    -0.200 F 
ATOM     96  C   UNL A   1      46.498  27.297  35.972  1.00  0.00     0.200 A 
ATOM     97  F   UNL A   1      47.845  29.007  35.057  1.00  0.00    -0.200 F 
ATOM     98  F   UNL A   1      47.572  26.741  36.549  1.00  0.00    -0.200 F 
ENDBRANCH  65  88
ENDBRANCH  39  40
ENDBRANCH  31  34
ENDBRANCH  29  30
ENDBRANCH  28  29
ENDBRANCH   1  28
TORSDOF 14
ENDMDL
MODEL 2
REMARK VINA RESULT:     -12.2      4.391     10.356
REMARK SMILES C/C=C(\C)[C@@H]1C(C)=C[C@@H]2[C@H]([C@@H]1/C=C/C=C/C(=O)NCCCNC(=O)c1ccc(-c3c4nc(c(-c5c(F)c(F)c(F)c(F)c5F)c5ccc([nH]5)c(-c5c(F)c(F)c(F)c(F)c5F)c5nc(c(-c6c(F)c(F)c(F)c(F)c6F)c6ccc3[nH]6)C=C5)C=C4)cc1)[C@@H](C)CC[C@@H]2O
REMARK SMILES IDX 19 1 18 2 16 3 17 4 15 6 14 7 13 8 12 9 11 10 5 11 6 12 7 13
REMARK SMILES IDX 8 14 10 15 9 16 88 17 92 18 89 19 90 20 91 21 3 22 1 23 2 24
REMARK SMILES IDX 4 25 93 26 20 28 21 29 22 30 23 31 24 33 25 34 26 35 87 36
REMARK SMILES IDX 27 37 86 38 28 39 29 40 30 41 80 42 31 43 85 44 79 45 81 46
REMARK SMILES IDX 32 47 84 48 78 49 77 50 33 52 65 53 45 54 64 55 46 56 49 57
REMARK SMILES IDX 63 58 82 59 47 60 48 61 62 63 83 64 50 65 34 66 35 67 43 68
REMARK SMILES IDX 36 69 37 70 41 71 44 72 38 73 39 74 42 75 40 76 66 77 67 78
REMARK SMILES IDX 75 79 68 80 69 81 73 82 76 83 70 84 71 85 74 86 72 87 51 88
REMARK SMILES IDX 52 89 60 90 53 91 54 92 58 93 61 94 55 95 56 96 59 97 57 98
REMARK H PARENT 18 5 93 27 22 32 81 51 49 62
REMARK Flexibility Score: inf
ROOT
ATOM      1  C   UNL A   1      34.759  36.006  28.375  1.00  0.00     0.118 C 
ENDROOT
BRANCH   1   2
ATOM      2  N   UNL A   1      34.865  34.668  27.806  1.00  0.00    -0.352 N 
ATOM      3  C   UNL A   1      35.719  33.648  28.102  1.00  0.00     0.243 C 
ATOM      4  O   UNL A   1      35.553  32.543  27.593  1.00  0.00    -0.270 OA
ATOM      5  H   UNL A   1      34.213  34.470  27.095  1.00  0.00     0.163 HD
BRANCH   3   6
ATOM      6  C   UNL A   1      36.786  33.844  29.106  1.00  0.00     0.071 C 
ATOM      7  C   UNL A   1      38.068  34.005  28.757  1.00  0.00     0.005 C 
BRANCH   7   8
ATOM      8  C   UNL A   1      39.114  34.332  29.693  1.00  0.00    -0.004 C 
ATOM      9  C   UNL A   1      40.333  34.680  29.253  1.00  0.00    -0.022 C 
BRANCH   9  10
ATOM     10  C   UNL A   1      41.485  35.119  30.137  1.00  0.00     0.027 C 
ATOM     11  C   UNL A   1      42.659  35.864  29.371  1.00  0.00     0.047 C 
ATOM     12  C   UNL A   1      44.052  35.400  29.769  1.00  0.00    -0.069 C 
ATOM     13  C   UNL A   1      45.177  36.388  29.625  1.00  0.00     0.040 C 
ATOM     14  C   UNL A   1      44.269  34.146  30.201  1.00  0.00    -0.021 C 
ATOM     15  C   UNL A   1      41.926  33.894  31.009  1.00  0.00     0.009 C 
ATOM     16  C   UNL A   1      43.125  33.167  30.349  1.00  0.00     0.044 C 
ATOM     17  C   UNL A   1      42.234  34.235  32.505  1.00  0.00    -0.010 C 
ATOM     18  C   UNL A   1      43.476  31.901  31.153  1.00  0.00     0.121 C 
ATOM     19  C   UNL A   1      41.025  34.830  33.239  1.00  0.00     0.008 C 
ATOM     20  C   UNL A   1      42.686  32.974  33.277  1.00  0.00     0.006 C 
ATOM     21  C   UNL A   1      43.824  32.218  32.602  1.00  0.00     0.033 C 
BRANCH  11  22
ATOM     22  C   UNL A   1      42.556  35.953  27.829  1.00  0.00    -0.070 C 
ATOM     23  C   UNL A   1      43.026  34.839  25.570  1.00  0.00     0.035 C 
ATOM     24  C   UNL A   1      43.042  34.952  27.063  1.00  0.00    -0.031 C 
ATOM     25  C   UNL A   1      41.833  37.150  27.252  1.00  0.00     0.040 C 
ENDBRANCH  11  22
BRANCH  18  26
ATOM     26  O   UNL A   1      44.523  31.159  30.532  1.00  0.00    -0.393 OA
ATOM     27  H   UNL A   1      45.380  31.466  30.869  1.00  0.00     0.210 HD
ENDBRANCH  18  26
ENDBRANCH   9  10
ENDBRANCH   7   8
ENDBRANCH   3   6
ENDBRANCH   1   2
BRANCH   1  28
ATOM     28  C   UNL A   1      33.330  36.328  28.812  1.00  0.00     0.042 C 
BRANCH  28  29
ATOM     29  C   UNL A   1      32.787  35.384  29.882  1.00  0.00     0.118 C 
BRANCH  29  30
ATOM     30  N   UNL A   1      32.411  36.088  31.100  1.00  0.00    -0.352 N 
ATOM     31  C   UNL A   1      32.877  35.953  32.382  1.00  0.00     0.251 C 
ATOM     32  H   UNL A   1      31.711  36.772  30.984  1.00  0.00     0.163 HD
ATOM     33  O   UNL A   1      32.287  36.524  33.301  1.00  0.00    -0.269 OA
BRANCH  31  34
ATOM     34  C   UNL A   1      34.064  35.124  32.686  1.00  0.00     0.039 A 
ATOM     35  C   UNL A   1      35.331  35.634  32.386  1.00  0.00     0.014 A 
ATOM     36  C   UNL A   1      33.941  33.832  33.209  1.00  0.00     0.014 A 
ATOM     37  C   UNL A   1      36.473  34.875  32.655  1.00  0.00     0.010 A 
ATOM     38  C   UNL A   1      35.083  33.099  33.533  1.00  0.00     0.010 A 
ATOM     39  C   UNL A   1      36.360  33.613  33.256  1.00  0.00    -0.014 A 
BRANCH  39  40
ATOM     40  C   UNL A   1      37.565  32.818  33.606  1.00  0.00     0.031 A 
ATOM     41  C   UNL A   1      38.308  33.086  34.885  1.00  0.00     0.074 A 
ATOM     42  C   UNL A   1      38.027  31.896  32.741  1.00  0.00     0.049 A 
ATOM     43  N   UNL A   1      39.421  32.554  35.324  1.00  0.00    -0.248 NA
ATOM     44  C   UNL A   1      37.737  34.105  35.779  1.00  0.00     0.031 C 
ATOM     45  C   UNL A   1      37.418  31.570  31.450  1.00  0.00     0.029 A 
ATOM     46  N   UNL A   1      39.123  31.072  32.809  1.00  0.00    -0.354 N 
ATOM     47  C   UNL A   1      39.693  33.185  36.531  1.00  0.00     0.074 A 
ATOM     48  C   UNL A   1      38.651  34.167  36.737  1.00  0.00     0.031 C 
ATOM     49  C   UNL A   1      38.141  30.608  30.855  1.00  0.00     0.029 A 
ATOM     50  C   UNL A   1      39.281  30.273  31.703  1.00  0.00     0.049 A 
ATOM     51  H   UNL A   1      39.738  31.057  33.578  1.00  0.00     0.167 HD
ATOM     52  C   UNL A   1      40.709  32.952  37.397  1.00  0.00     0.037 A 
ATOM     53  C   UNL A   1      40.241  29.378  31.404  1.00  0.00     0.037 A 
ATOM     54  C   UNL A   1      41.728  31.953  37.205  1.00  0.00     0.049 A 
ATOM     55  C   UNL A   1      41.354  29.136  32.384  1.00  0.00     0.074 A 
ATOM     56  C   UNL A   1      42.763  31.601  38.053  1.00  0.00     0.029 A 
ATOM     57  N   UNL A   1      41.841  31.146  36.082  1.00  0.00    -0.354 N 
ATOM     58  N   UNL A   1      41.568  29.696  33.549  1.00  0.00    -0.248 NA
ATOM     59  C   UNL A   1      42.359  28.130  32.009  1.00  0.00     0.031 C 
ATOM     60  C   UNL A   1      43.524  30.607  37.428  1.00  0.00     0.029 A 
ATOM     61  C   UNL A   1      42.939  30.310  36.208  1.00  0.00     0.049 A 
ATOM     62  H   UNL A   1      41.231  31.166  35.309  1.00  0.00     0.167 HD
ATOM     63  C   UNL A   1      42.712  29.097  34.057  1.00  0.00     0.074 A 
ATOM     64  C   UNL A   1      43.141  28.120  33.080  1.00  0.00     0.031 C 
ATOM     65  C   UNL A   1      43.349  29.337  35.229  1.00  0.00     0.037 A 
BRANCH  52  66
ATOM     66  C   UNL A   1      40.769  33.793  38.638  1.00  0.00     0.064 A 
ATOM     67  C   UNL A   1      40.017  33.473  39.779  1.00  0.00     0.173 A 
ATOM     68  C   UNL A   1      41.617  34.909  38.702  1.00  0.00     0.173 A 
ATOM     69  F   UNL A   1      39.184  32.422  39.765  1.00  0.00    -0.203 F 
ATOM     70  C   UNL A   1      40.092  34.256  40.928  1.00  0.00     0.198 A 
ATOM     71  C   UNL A   1      41.709  35.673  39.862  1.00  0.00     0.198 A 
ATOM     72  F   UNL A   1      42.362  35.254  37.642  1.00  0.00    -0.203 F 
ATOM     73  F   UNL A   1      39.332  33.957  41.991  1.00  0.00    -0.200 F 
ATOM     74  C   UNL A   1      40.943  35.350  40.972  1.00  0.00     0.200 A 
ATOM     75  F   UNL A   1      42.542  36.723  39.908  1.00  0.00    -0.200 F 
ATOM     76  F   UNL A   1      41.018  36.099  42.081  1.00  0.00    -0.200 F 
ENDBRANCH  52  66
BRANCH  53  77
ATOM     77  C   UNL A   1      40.175  28.626  30.125  1.00  0.00     0.064 A 
ATOM     78  C   UNL A   1      39.521  27.388  30.053  1.00  0.00     0.173 A 
ATOM     79  C   UNL A   1      40.759  29.127  28.952  1.00  0.00     0.173 A 
ATOM     80  F   UNL A   1      38.967  26.860  31.154  1.00  0.00    -0.203 F 
ATOM     81  C   UNL A   1      39.469  26.671  28.860  1.00  0.00     0.198 A 
ATOM     82  C   UNL A   1      40.684  28.420  27.754  1.00  0.00     0.198 A 
ATOM     83  F   UNL A   1      41.393  30.308  28.969  1.00  0.00    -0.203 F 
ATOM     84  F   UNL A   1      38.873  25.471  28.828  1.00  0.00    -0.200 F 
ATOM     85  C   UNL A   1      40.044  27.190  27.710  1.00  0.00     0.200 A 
ATOM     86  F   UNL A   1      41.232  28.930  26.642  1.00  0.00    -0.200 F 
ATOM     87  F   UNL A   1      39.991  26.501  26.562  1.00  0.00    -0.200 F 
ENDBRANCH  53  77
BRANCH  65  88
ATOM     88  C   UNL A   1      44.561  28.507  35.534  1.00  0.00     0.064 A 
ATOM     89  C   UNL A   1      44.463  27.287  36.219  1.00  0.00     0.173 A 
ATOM     90  C   UNL A   1      45.831  28.920  35.102  1.00  0.00     0.173 A 
ATOM     91  F   UNL A   1      43.273  26.859  36.665  1.00  0.00    -0.203 F 
ATOM     92  C   UNL A   1      45.596  26.522  36.481  1.00  0.00     0.198 A 
ATOM     93  C   UNL A   1      46.958  28.139  35.343  1.00  0.00     0.198 A 
ATOM     94  F   UNL A   1      45.977  30.077  34.439  1.00  0.00    -0.203 F 
ATOM     95  F   UNL A   1      45.485  25.380  37.174  1.00  0.00    -0.200 F 
ATOM     96  C   UNL A   1      46.840  26.944  36.036  1.00  0.00     0.200 A 
ATOM     97  F   UNL A   1      48.157  28.543  34.904  1.00  0.00    -0.200 F 
ATOM     98  F   UNL A   1      47.928  26.203  36.284  1.00  0.00    -0.200 F 
ENDBRANCH  65  88
ENDBRANCH  39  40
ENDBRANCH  31  34
ENDBRANCH  29  30
ENDBRANCH  28  29
ENDBRANCH   1  28
TORSDOF 14
ENDMDL
MODEL 3
REMARK VINA RESULT:     -12.2      0.390      7.254
REMARK SMILES C/C=C(\C)[C@@H]1C(C)=C[C@@H]2[C@H]([C@@H]1/C=C/C=C/C(=O)NCCCNC(=O)c1ccc(-c3c4nc(c(-c5c(F)c(F)c(F)c(F)c5F)c5ccc([nH]5)c(-c5c(F)c(F)c(F)c(F)c5F)c5nc(c(-c6c(F)c(F)c(F)c(F)c6F)c6ccc3[nH]6)C=C5)C=C4)cc1)[C@@H](C)CC[C@@H]2O
REMARK SMILES IDX 19 1 18 2 16 3 17 4 15 6 14 7 13 8 12 9 11 10 5 11 6 12 7 13
REMARK SMILES IDX 8 14 10 15 9 16 88 17 92 18 89 19 90 20 91 21 3 22 1 23 2 24
REMARK SMILES IDX 4 25 93 26 20 28 21 29 22 30 23 31 24 33 25 34 26 35 87 36
REMARK SMILES IDX 27 37 86 38 28 39 29 40 30 41 80 42 31 43 85 44 79 45 81 46
REMARK SMILES IDX 32 47 84 48 78 49 77 50 33 52 65 53 45 54 64 55 46 56 49 57
REMARK SMILES IDX 63 58 82 59 47 60 48 61 62 63 83 64 50 65 34 66 35 67 43 68
REMARK SMILES IDX 36 69 37 70 41 71 44 72 38 73 39 74 42 75 40 76 66 77 67 78
REMARK SMILES IDX 75 79 68 80 69 81 73 82 76 83 70 84 71 85 74 86 72 87 51 88
REMARK SMILES IDX 52 89 60 90 53 91 54 92 58 93 61 94 55 95 56 96 59 97 57 98
REMARK H PARENT 18 5 93 27 22 32 81 51 49 62
REMARK Flexibility Score: inf
ROOT
ATOM      1  C   UNL A   1      31.822  30.605  26.877  1.00  0.00     0.118 C 
ENDROOT
BRANCH   1   2
ATOM      2  N   UNL A   1      33.021  30.337  27.661  1.00  0.00    -0.352 N 
ATOM      3  C   UNL A   1      33.906  29.303  27.596  1.00  0.00     0.243 C 
ATOM      4  O   UNL A   1      34.936  29.334  28.265  1.00  0.00    -0.270 OA
ATOM      5  H   UNL A   1      33.224  31.013  28.349  1.00  0.00     0.163 HD
BRANCH   3   6
ATOM      6  C   UNL A   1      33.677  28.191  26.649  1.00  0.00     0.071 C 
ATOM      7  C   UNL A   1      34.078  28.251  25.374  1.00  0.00     0.005 C 
BRANCH   7   8
ATOM      8  C   UNL A   1      33.995  27.141  24.459  1.00  0.00    -0.004 C 
ATOM      9  C   UNL A   1      34.114  25.882  24.909  1.00  0.00    -0.022 C 
BRANCH   9  10
ATOM     10  C   UNL A   1      33.967  24.635  24.056  1.00  0.00     0.027 C 
ATOM     11  C   UNL A   1      32.480  24.320  23.598  1.00  0.00     0.047 C 
ATOM     12  C   UNL A   1      32.082  22.859  23.745  1.00  0.00    -0.069 C 
ATOM     13  C   UNL A   1      31.023  22.334  22.816  1.00  0.00     0.040 C 
ATOM     14  C   UNL A   1      32.636  22.081  24.691  1.00  0.00    -0.021 C 
ATOM     15  C   UNL A   1      34.709  23.459  24.778  1.00  0.00     0.009 C 
ATOM     16  C   UNL A   1      33.707  22.622  25.613  1.00  0.00     0.044 C 
ATOM     17  C   UNL A   1      35.552  22.541  23.832  1.00  0.00    -0.010 C 
ATOM     18  C   UNL A   1      34.463  21.540  26.407  1.00  0.00     0.121 C 
ATOM     19  C   UNL A   1      36.653  23.308  23.088  1.00  0.00     0.008 C 
ATOM     20  C   UNL A   1      36.223  21.397  24.626  1.00  0.00     0.006 C 
ATOM     21  C   UNL A   1      35.254  20.607  25.498  1.00  0.00     0.033 C 
BRANCH  11  22
ATOM     22  C   UNL A   1      31.358  25.229  24.156  1.00  0.00    -0.070 C 
ATOM     23  C   UNL A   1      29.651  27.080  23.685  1.00  0.00     0.035 C 
ATOM     24  C   UNL A   1      30.757  26.130  23.348  1.00  0.00    -0.031 C 
ATOM     25  C   UNL A   1      30.934  25.001  25.590  1.00  0.00     0.040 C 
ENDBRANCH  11  22
BRANCH  18  26
ATOM     26  O   UNL A   1      33.585  20.799  27.251  1.00  0.00    -0.393 OA
ATOM     27  H   UNL A   1      34.068  20.058  27.648  1.00  0.00     0.210 HD
ENDBRANCH  18  26
ENDBRANCH   9  10
ENDBRANCH   7   8
ENDBRANCH   3   6
ENDBRANCH   1   2
BRANCH   1  28
ATOM     28  C   UNL A   1      31.495  32.097  26.827  1.00  0.00     0.042 C 
BRANCH  28  29
ATOM     29  C   UNL A   1      32.729  32.997  26.834  1.00  0.00     0.118 C 
BRANCH  29  30
ATOM     30  N   UNL A   1      32.528  34.203  27.625  1.00  0.00    -0.352 N 
ATOM     31  C   UNL A   1      33.100  34.593  28.807  1.00  0.00     0.251 C 
ATOM     32  H   UNL A   1      31.878  34.841  27.250  1.00  0.00     0.163 HD
ATOM     33  O   UNL A   1      32.648  35.573  29.402  1.00  0.00    -0.269 OA
BRANCH  31  34
ATOM     34  C   UNL A   1      34.240  33.853  29.392  1.00  0.00     0.039 A 
ATOM     35  C   UNL A   1      35.539  34.251  29.058  1.00  0.00     0.014 A 
ATOM     36  C   UNL A   1      34.045  32.740  30.217  1.00  0.00     0.014 A 
ATOM     37  C   UNL A   1      36.638  33.570  29.587  1.00  0.00     0.010 A 
ATOM     38  C   UNL A   1      35.142  32.098  30.793  1.00  0.00     0.010 A 
ATOM     39  C   UNL A   1      36.449  32.505  30.482  1.00  0.00    -0.014 A 
BRANCH  39  40
ATOM     40  C   UNL A   1      37.605  31.810  31.103  1.00  0.00     0.031 A 
ATOM     41  C   UNL A   1      38.056  32.175  32.490  1.00  0.00     0.074 A 
ATOM     42  C   UNL A   1      38.288  30.892  30.393  1.00  0.00     0.049 A 
ATOM     43  N   UNL A   1      39.089  31.738  33.167  1.00  0.00    -0.248 NA
ATOM     44  C   UNL A   1      37.255  33.182  33.201  1.00  0.00     0.031 C 
ATOM     45  C   UNL A   1      37.973  30.479  29.024  1.00  0.00     0.029 A 
ATOM     46  N   UNL A   1      39.396  30.150  30.718  1.00  0.00    -0.354 N 
ATOM     47  C   UNL A   1      39.072  32.428  34.372  1.00  0.00     0.074 A 
ATOM     48  C   UNL A   1      37.951  33.342  34.318  1.00  0.00     0.031 C 
ATOM     49  C   UNL A   1      38.859  29.549  28.632  1.00  0.00     0.029 A 
ATOM     50  C   UNL A   1      39.822  29.325  29.706  1.00  0.00     0.049 A 
ATOM     51  H   UNL A   1      39.843  30.205  31.593  1.00  0.00     0.167 HD
ATOM     52  C   UNL A   1      39.905  32.297  35.433  1.00  0.00     0.037 A 
ATOM     53  C   UNL A   1      40.876  28.489  29.648  1.00  0.00     0.037 A 
ATOM     54  C   UNL A   1      41.001  31.366  35.496  1.00  0.00     0.049 A 
ATOM     55  C   UNL A   1      41.782  28.360  30.841  1.00  0.00     0.074 A 
ATOM     56  C   UNL A   1      41.863  31.118  36.549  1.00  0.00     0.029 A 
ATOM     57  N   UNL A   1      41.387  30.530  34.459  1.00  0.00    -0.354 N 
ATOM     58  N   UNL A   1      41.720  28.975  31.996  1.00  0.00    -0.248 NA
ATOM     59  C   UNL A   1      42.901  27.415  30.723  1.00  0.00     0.031 C 
ATOM     60  C   UNL A   1      42.794  30.158  36.137  1.00  0.00     0.029 A 
ATOM     61  C   UNL A   1      42.486  29.778  34.842  1.00  0.00     0.049 A 
ATOM     62  H   UNL A   1      40.946  30.479  33.580  1.00  0.00     0.167 HD
ATOM     63  C   UNL A   1      42.773  28.476  32.751  1.00  0.00     0.074 A 
ATOM     64  C   UNL A   1      43.450  27.497  31.927  1.00  0.00     0.031 C 
ATOM     65  C   UNL A   1      43.144  28.801  34.012  1.00  0.00     0.037 A 
BRANCH  52  66
ATOM     66  C   UNL A   1      39.662  33.184  36.618  1.00  0.00     0.064 A 
ATOM     67  C   UNL A   1      38.770  32.818  37.639  1.00  0.00     0.173 A 
ATOM     68  C   UNL A   1      40.355  34.396  36.756  1.00  0.00     0.173 A 
ATOM     69  F   UNL A   1      38.075  31.675  37.549  1.00  0.00    -0.203 F 
ATOM     70  C   UNL A   1      38.563  33.646  38.740  1.00  0.00     0.198 A 
ATOM     71  C   UNL A   1      40.166  35.208  37.872  1.00  0.00     0.198 A 
ATOM     72  F   UNL A   1      41.223  34.790  35.813  1.00  0.00    -0.203 F 
ATOM     73  F   UNL A   1      37.675  33.296  39.680  1.00  0.00    -0.200 F 
ATOM     74  C   UNL A   1      39.266  34.835  38.859  1.00  0.00     0.200 A 
ATOM     75  F   UNL A   1      40.855  36.351  37.993  1.00  0.00    -0.200 F 
ATOM     76  F   UNL A   1      39.070  35.627  39.923  1.00  0.00    -0.200 F 
ENDBRANCH  52  66
BRANCH  53  77
ATOM     77  C   UNL A   1      41.116  27.690  28.420  1.00  0.00     0.064 A 
ATOM     78  C   UNL A   1      40.473  26.459  28.228  1.00  0.00     0.173 A 
ATOM     79  C   UNL A   1      41.987  28.137  27.415  1.00  0.00     0.173 A 
ATOM     80  F   UNL A   1      39.649  25.980  29.172  1.00  0.00    -0.203 F 
ATOM     81  C   UNL A   1      40.705  25.697  27.085  1.00  0.00     0.198 A 
ATOM     82  C   UNL A   1      42.198  27.386  26.262  1.00  0.00     0.198 A 
ATOM     83  F   UNL A   1      42.623  29.310  27.551  1.00  0.00    -0.203 F 
ATOM     84  F   UNL A   1      40.109  24.505  26.945  1.00  0.00    -0.200 F 
ATOM     85  C   UNL A   1      41.562  26.164  26.099  1.00  0.00     0.200 A 
ATOM     86  F   UNL A   1      43.019  27.845  25.307  1.00  0.00    -0.200 F 
ATOM     87  F   UNL A   1      41.782  25.432  24.999  1.00  0.00    -0.200 F 
ENDBRANCH  53  77
BRANCH  65  88
ATOM     88  C   UNL A   1      44.319  28.070  34.593  1.00  0.00     0.064 A 
ATOM     89  C   UNL A   1      45.621  28.582  34.502  1.00  0.00     0.173 A 
ATOM     90  C   UNL A   1      44.133  26.859  35.279  1.00  0.00     0.173 A 
ATOM     91  F   UNL A   1      45.851  29.727  33.842  1.00  0.00    -0.203 F 
ATOM     92  C   UNL A   1      46.698  27.898  35.059  1.00  0.00     0.198 A 
ATOM     93  C   UNL A   1      45.209  26.192  35.857  1.00  0.00     0.198 A 
ATOM     94  F   UNL A   1      42.906  26.330  35.396  1.00  0.00    -0.203 F 
ATOM     95  F   UNL A   1      47.940  28.384  34.924  1.00  0.00    -0.200 F 
ATOM     96  C   UNL A   1      46.490  26.708  35.741  1.00  0.00     0.200 A 
ATOM     97  F   UNL A   1      45.005  25.048  36.525  1.00  0.00    -0.200 F 
ATOM     98  F   UNL A   1      47.528  26.055  36.282  1.00  0.00    -0.200 F 
ENDBRANCH  65  88
ENDBRANCH  39  40
ENDBRANCH  31  34
ENDBRANCH  29  30
ENDBRANCH  28  29
ENDBRANCH   1  28
TORSDOF 14
ENDMDL
