MODEL 1
REMARK VINA RESULT:     -13.7      0.000      0.000
REMARK SMILES NC(=O)[C@@H]1CCC[N@H+]1[C@H](C(=O)NCCCNC(=O)c1ccc(-c2c3nc(c(-c4c(F)c(F)c(F)c(F)c4F)c4ccc([nH]4)c(-c4c(F)c(F)c(F)c(F)c4F)c4nc(c(-c5c(F)c(F)c(F)c(F)c5F)c5ccc2[nH]5)C=C4)C=C3)cc1)c1c[nH]c2cc(NC(=O)c3ccccc3)ccc12
REMARK SMILES IDX 13 1 12 2 10 3 11 4 9 6 8 7 4 8 5 9 6 10 7 11 2 13 1 14 3 17
REMARK SMILES IDX 82 18 83 19 99 20 84 21 85 22 98 23 86 25 97 26 87 27 88 28
REMARK SMILES IDX 89 29 90 31 91 32 92 33 96 34 93 35 95 36 94 37 14 38 15 39
REMARK SMILES IDX 16 40 17 41 18 43 19 44 20 45 81 46 21 47 80 48 22 49 23 50
REMARK SMILES IDX 24 51 74 52 25 53 79 54 73 55 75 56 26 57 78 58 72 59 71 60
REMARK SMILES IDX 27 62 59 63 39 64 58 65 40 66 43 67 57 68 76 69 41 70 42 71
REMARK SMILES IDX 56 73 77 74 44 75 28 76 29 77 37 78 30 79 31 80 35 81 38 82
REMARK SMILES IDX 32 83 33 84 36 85 34 86 60 87 61 88 69 89 62 90 63 91 67 92
REMARK SMILES IDX 70 93 64 94 65 95 68 96 66 97 45 98 46 99 54 100 47 101
REMARK SMILES IDX 48 102 52 103 55 104 49 105 50 106 53 107 51 108
REMARK H PARENT 12 5 8 12 1 15 1 16 84 24 88 30 16 42 75 61 43 72
REMARK Flexibility Score: inf
ROOT
ATOM      1  C   UNL A   1      36.485  21.320  24.929  1.00  0.00     0.118 C 
ENDROOT
BRANCH   1   2
ATOM      2  N   UNL A   1      35.833  21.613  26.195  1.00  0.00    -0.351 N 
ATOM      3  C   UNL A   1      34.575  22.032  26.546  1.00  0.00     0.283 C 
ATOM      4  O   UNL A   1      34.410  22.082  27.771  1.00  0.00    -0.268 OA
ATOM      5  H   UNL A   1      36.424  21.482  26.972  1.00  0.00     0.163 HD
BRANCH   3   6
ATOM      6  C   UNL A   1      33.437  22.401  25.496  1.00  0.00     0.308 C 
BRANCH   6   7
ATOM      7  N   UNL A   1      33.399  21.354  24.438  1.00  0.00    -0.311 N 
ATOM      8  C   UNL A   1      32.536  20.152  24.584  1.00  0.00     0.275 C 
ATOM      9  C   UNL A   1      32.173  19.775  23.149  1.00  0.00     0.081 C 
ATOM     10  C   UNL A   1      32.130  21.113  22.447  1.00  0.00     0.068 C 
ATOM     11  C   UNL A   1      33.274  21.874  23.080  1.00  0.00     0.264 C 
ATOM     12  H   UNL A   1      34.334  20.988  24.618  1.00  0.00     0.349 HD
BRANCH   8  13
ATOM     13  C   UNL A   1      33.191  18.944  25.264  1.00  0.00     0.275 C 
ATOM     14  N   UNL A   1      32.863  18.731  26.569  1.00  0.00    -0.365 N 
ATOM     15  H   UNL A   1      33.253  17.971  27.057  1.00  0.00     0.159 HD
ATOM     16  H   UNL A   1      32.236  19.338  27.025  1.00  0.00     0.159 HD
ATOM     17  O   UNL A   1      34.071  18.271  24.731  1.00  0.00    -0.268 OA
ENDBRANCH   8  13
ENDBRANCH   6   7
BRANCH   6  18
ATOM     18  C   UNL A   1      32.018  22.827  26.141  1.00  0.00     0.044 A 
ATOM     19  C   UNL A   1      30.886  22.194  25.601  1.00  0.00     0.094 A 
ATOM     20  C   UNL A   1      31.449  24.143  26.088  1.00  0.00     0.009 A 
ATOM     21  N   UNL A   1      30.757  22.936  24.418  1.00  0.00    -0.361 N 
ATOM     22  C   UNL A   1      31.201  24.200  24.740  1.00  0.00     0.048 A 
ATOM     23  C   UNL A   1      31.104  25.285  26.832  1.00  0.00     0.013 A 
ATOM     24  H   UNL A   1      30.424  22.622  23.547  1.00  0.00     0.166 HD
ATOM     25  C   UNL A   1      31.242  25.367  24.037  1.00  0.00     0.052 A 
ATOM     26  C   UNL A   1      30.692  26.439  26.096  1.00  0.00     0.027 A 
ATOM     27  C   UNL A   1      30.808  26.498  24.691  1.00  0.00     0.043 A 
BRANCH  27  28
ATOM     28  N   UNL A   1      30.412  27.651  23.970  1.00  0.00    -0.322 N 
ATOM     29  C   UNL A   1      30.898  28.959  23.979  1.00  0.00     0.255 C 
ATOM     30  H   UNL A   1      29.660  27.502  23.351  1.00  0.00     0.170 HD
ATOM     31  O   UNL A   1      30.423  29.803  23.220  1.00  0.00    -0.269 OA
BRANCH  29  32
ATOM     32  C   UNL A   1      31.973  29.393  24.907  1.00  0.00     0.040 A 
ATOM     33  C   UNL A   1      31.628  30.265  25.949  1.00  0.00     0.014 A 
ATOM     34  C   UNL A   1      33.230  28.761  24.896  1.00  0.00     0.014 A 
ATOM     35  C   UNL A   1      32.490  30.410  27.041  1.00  0.00     0.001 A 
ATOM     36  C   UNL A   1      34.078  28.897  26.006  1.00  0.00     0.001 A 
ATOM     37  C   UNL A   1      33.694  29.701  27.085  1.00  0.00     0.000 A 
ENDBRANCH  29  32
ENDBRANCH  27  28
ENDBRANCH   6  18
ENDBRANCH   3   6
ENDBRANCH   1   2
BRANCH   1  38
ATOM     38  C   UNL A   1      37.573  20.235  24.993  1.00  0.00     0.042 C 
BRANCH  38  39
ATOM     39  C   UNL A   1      38.837  20.569  25.786  1.00  0.00     0.118 C 
BRANCH  39  40
ATOM     40  N   UNL A   1      39.796  19.479  25.820  1.00  0.00    -0.352 N 
ATOM     41  C   UNL A   1      41.157  19.504  26.049  1.00  0.00     0.251 C 
ATOM     42  H   UNL A   1      39.417  18.586  25.655  1.00  0.00     0.163 HD
ATOM     43  O   UNL A   1      41.824  18.498  25.864  1.00  0.00    -0.269 OA
BRANCH  41  44
ATOM     44  C   UNL A   1      41.825  20.755  26.485  1.00  0.00     0.039 A 
ATOM     45  C   UNL A   1      42.270  21.658  25.515  1.00  0.00     0.014 A 
ATOM     46  C   UNL A   1      42.029  21.035  27.839  1.00  0.00     0.014 A 
ATOM     47  C   UNL A   1      42.835  22.878  25.901  1.00  0.00     0.010 A 
ATOM     48  C   UNL A   1      42.526  22.281  28.223  1.00  0.00     0.010 A 
ATOM     49  C   UNL A   1      42.922  23.223  27.259  1.00  0.00    -0.014 A 
BRANCH  49  50
ATOM     50  C   UNL A   1      43.400  24.562  27.700  1.00  0.00     0.031 A 
ATOM     51  C   UNL A   1      42.415  25.632  28.084  1.00  0.00     0.074 A 
ATOM     52  C   UNL A   1      44.716  24.848  27.670  1.00  0.00     0.049 A 
ATOM     53  N   UNL A   1      42.625  26.894  28.366  1.00  0.00    -0.248 NA
ATOM     54  C   UNL A   1      41.001  25.233  28.130  1.00  0.00     0.031 C 
ATOM     55  C   UNL A   1      45.778  23.912  27.302  1.00  0.00     0.029 A 
ATOM     56  N   UNL A   1      45.385  26.020  27.936  1.00  0.00    -0.354 N 
ATOM     57  C   UNL A   1      41.372  27.443  28.604  1.00  0.00     0.074 A 
ATOM     58  C   UNL A   1      40.404  26.389  28.379  1.00  0.00     0.031 C 
ATOM     59  C   UNL A   1      46.964  24.535  27.390  1.00  0.00     0.029 A 
ATOM     60  C   UNL A   1      46.746  25.928  27.766  1.00  0.00     0.049 A 
ATOM     61  H   UNL A   1      44.932  26.845  28.222  1.00  0.00     0.167 HD
ATOM     62  C   UNL A   1      41.055  28.703  28.990  1.00  0.00     0.037 A 
ATOM     63  C   UNL A   1      47.707  26.865  27.885  1.00  0.00     0.037 A 
ATOM     64  C   UNL A   1      42.020  29.748  29.221  1.00  0.00     0.049 A 
ATOM     65  C   UNL A   1      47.327  28.272  28.257  1.00  0.00     0.074 A 
ATOM     66  C   UNL A   1      41.803  31.044  29.656  1.00  0.00     0.029 A 
ATOM     67  N   UNL A   1      43.388  29.619  29.025  1.00  0.00    -0.354 N 
ATOM     68  N   UNL A   1      46.144  28.767  28.527  1.00  0.00    -0.248 NA
ATOM     69  C   UNL A   1      48.420  29.252  28.336  1.00  0.00     0.031 C 
ATOM     70  C   UNL A   1      43.031  31.714  29.669  1.00  0.00     0.029 A 
ATOM     71  C   UNL A   1      44.023  30.819  29.304  1.00  0.00     0.049 A 
ATOM     72  H   UNL A   1      43.841  28.796  28.731  1.00  0.00     0.167 HD
ATOM     73  C   UNL A   1      46.353  30.103  28.850  1.00  0.00     0.074 A 
ATOM     74  C   UNL A   1      47.778  30.339  28.742  1.00  0.00     0.031 C 
ATOM     75  C   UNL A   1      45.445  31.042  29.210  1.00  0.00     0.037 A 
BRANCH  62  76
ATOM     76  C   UNL A   1      39.596  29.021  29.171  1.00  0.00     0.064 A 
ATOM     77  C   UNL A   1      38.799  29.468  28.104  1.00  0.00     0.173 A 
ATOM     78  C   UNL A   1      38.986  28.877  30.427  1.00  0.00     0.173 A 
ATOM     79  F   UNL A   1      39.333  29.630  26.884  1.00  0.00    -0.203 F 
ATOM     80  C   UNL A   1      37.463  29.808  28.300  1.00  0.00     0.198 A 
ATOM     81  C   UNL A   1      37.640  29.182  30.609  1.00  0.00     0.198 A 
ATOM     82  F   UNL A   1      39.695  28.443  31.478  1.00  0.00    -0.203 F 
ATOM     83  F   UNL A   1      36.744  30.302  27.282  1.00  0.00    -0.200 F 
ATOM     84  C   UNL A   1      36.883  29.660  29.550  1.00  0.00     0.200 A 
ATOM     85  F   UNL A   1      37.076  29.022  31.815  1.00  0.00    -0.200 F 
ATOM     86  F   UNL A   1      35.598  29.991  29.738  1.00  0.00    -0.200 F 
ENDBRANCH  62  76
BRANCH  63  87
ATOM     87  C   UNL A   1      49.133  26.494  27.683  1.00  0.00     0.064 A 
ATOM     88  C   UNL A   1      49.974  26.274  28.782  1.00  0.00     0.173 A 
ATOM     89  C   UNL A   1      49.683  26.347  26.401  1.00  0.00     0.173 A 
ATOM     90  F   UNL A   1      49.499  26.424  30.028  1.00  0.00    -0.203 F 
ATOM     91  C   UNL A   1      51.315  25.937  28.609  1.00  0.00     0.198 A 
ATOM     92  C   UNL A   1      51.017  25.981  26.229  1.00  0.00     0.198 A 
ATOM     93  F   UNL A   1      48.921  26.541  25.316  1.00  0.00    -0.203 F 
ATOM     94  F   UNL A   1      52.105  25.771  29.678  1.00  0.00    -0.200 F 
ATOM     95  C   UNL A   1      51.834  25.784  27.333  1.00  0.00     0.200 A 
ATOM     96  F   UNL A   1      51.510  25.819  24.994  1.00  0.00    -0.200 F 
ATOM     97  F   UNL A   1      53.120  25.451  27.166  1.00  0.00    -0.200 F 
ENDBRANCH  63  87
BRANCH  75  98
ATOM     98  C   UNL A   1      45.964  32.405  29.573  1.00  0.00     0.064 A 
ATOM     99  C   UNL A   1      46.375  32.721  30.876  1.00  0.00     0.173 A 
ATOM    100  C   UNL A   1      46.096  33.395  28.586  1.00  0.00     0.173 A 
ATOM    101  F   UNL A   1      46.254  31.818  31.860  1.00  0.00    -0.203 F 
ATOM    102  C   UNL A   1      46.877  33.985  31.182  1.00  0.00     0.198 A 
ATOM    103  C   UNL A   1      46.629  34.645  28.889  1.00  0.00     0.198 A 
ATOM    104  F   UNL A   1      45.722  33.143  27.322  1.00  0.00    -0.203 F 
ATOM    105  F   UNL A   1      47.219  34.281  32.444  1.00  0.00    -0.200 F 
ATOM    106  C   UNL A   1      47.011  34.942  30.187  1.00  0.00     0.200 A 
ATOM    107  F   UNL A   1      46.770  35.563  27.922  1.00  0.00    -0.200 F 
ATOM    108  F   UNL A   1      47.506  36.152  30.481  1.00  0.00    -0.200 F 
ENDBRANCH  75  98
ENDBRANCH  49  50
ENDBRANCH  41  44
ENDBRANCH  39  40
ENDBRANCH  38  39
ENDBRANCH   1  38
TORSDOF 15
ENDMDL
MODEL 2
REMARK VINA RESULT:     -13.6      5.354     10.944
REMARK SMILES NC(=O)[C@@H]1CCC[N@H+]1[C@H](C(=O)NCCCNC(=O)c1ccc(-c2c3nc(c(-c4c(F)c(F)c(F)c(F)c4F)c4ccc([nH]4)c(-c4c(F)c(F)c(F)c(F)c4F)c4nc(c(-c5c(F)c(F)c(F)c(F)c5F)c5ccc2[nH]5)C=C4)C=C3)cc1)c1c[nH]c2cc(NC(=O)c3ccccc3)ccc12
REMARK SMILES IDX 13 1 12 2 10 3 11 4 9 6 8 7 4 8 5 9 6 10 7 11 2 13 1 14 3 17
REMARK SMILES IDX 82 18 83 19 99 20 84 21 85 22 98 23 86 25 97 26 87 27 88 28
REMARK SMILES IDX 89 29 90 31 91 32 92 33 96 34 93 35 95 36 94 37 14 38 15 39
REMARK SMILES IDX 16 40 17 41 18 43 19 44 20 45 81 46 21 47 80 48 22 49 23 50
REMARK SMILES IDX 24 51 74 52 25 53 79 54 73 55 75 56 26 57 78 58 72 59 71 60
REMARK SMILES IDX 27 62 59 63 39 64 58 65 40 66 43 67 57 68 76 69 41 70 42 71
REMARK SMILES IDX 56 73 77 74 44 75 28 76 29 77 37 78 30 79 31 80 35 81 38 82
REMARK SMILES IDX 32 83 33 84 36 85 34 86 60 87 61 88 69 89 62 90 63 91 67 92
REMARK SMILES IDX 70 93 64 94 65 95 68 96 66 97 45 98 46 99 54 100 47 101
REMARK SMILES IDX 48 102 52 103 55 104 49 105 50 106 53 107 51 108
REMARK H PARENT 12 5 8 12 1 15 1 16 84 24 88 30 16 42 75 61 43 72
REMARK Flexibility Score: inf
ROOT
ATOM      1  C   UNL A   1      36.413  31.744  31.989  1.00  0.00     0.118 C 
ENDROOT
BRANCH   1   2
ATOM      2  N   UNL A   1      37.560  32.624  31.832  1.00  0.00    -0.351 N 
ATOM      3  C   UNL A   1      38.619  32.964  32.636  1.00  0.00     0.283 C 
ATOM      4  O   UNL A   1      39.432  33.704  32.070  1.00  0.00    -0.268 OA
ATOM      5  H   UNL A   1      37.583  33.074  30.956  1.00  0.00     0.163 HD
BRANCH   3   6
ATOM      6  C   UNL A   1      38.796  32.454  34.133  1.00  0.00     0.308 C 
BRANCH   6   7
ATOM      7  N   UNL A   1      38.147  33.428  35.053  1.00  0.00    -0.311 N 
ATOM      8  C   UNL A   1      36.687  33.365  35.326  1.00  0.00     0.275 C 
ATOM      9  C   UNL A   1      36.547  33.907  36.748  1.00  0.00     0.081 C 
ATOM     10  C   UNL A   1      37.835  33.468  37.406  1.00  0.00     0.068 C 
ATOM     11  C   UNL A   1      38.863  33.639  36.308  1.00  0.00     0.264 C 
ATOM     12  H   UNL A   1      38.229  34.232  34.432  1.00  0.00     0.349 HD
BRANCH   8  13
ATOM     13  C   UNL A   1      35.801  34.194  34.390  1.00  0.00     0.275 C 
ATOM     14  N   UNL A   1      34.487  33.840  34.327  1.00  0.00    -0.365 N 
ATOM     15  H   UNL A   1      33.870  34.336  33.743  1.00  0.00     0.159 HD
ATOM     16  H   UNL A   1      34.153  33.086  34.865  1.00  0.00     0.159 HD
ATOM     17  O   UNL A   1      36.247  35.046  33.624  1.00  0.00    -0.268 OA
ENDBRANCH   8  13
ENDBRANCH   6   7
BRANCH   6  18
ATOM     18  C   UNL A   1      38.451  30.895  34.373  1.00  0.00     0.044 A 
ATOM     19  C   UNL A   1      38.529  30.447  35.703  1.00  0.00     0.094 A 
ATOM     20  C   UNL A   1      39.197  29.792  33.839  1.00  0.00     0.009 A 
ATOM     21  N   UNL A   1      39.921  30.327  35.818  1.00  0.00    -0.361 N 
ATOM     22  C   UNL A   1      40.352  29.964  34.560  1.00  0.00     0.048 A 
ATOM     23  C   UNL A   1      39.188  28.721  32.928  1.00  0.00     0.013 A 
ATOM     24  H   UNL A   1      40.471  30.471  36.621  1.00  0.00     0.166 HD
ATOM     25  C   UNL A   1      41.578  29.627  34.070  1.00  0.00     0.052 A 
ATOM     26  C   UNL A   1      40.423  28.031  32.724  1.00  0.00     0.027 A 
ATOM     27  C   UNL A   1      41.635  28.515  33.259  1.00  0.00     0.043 A 
BRANCH  27  28
ATOM     28  N   UNL A   1      42.858  27.835  33.040  1.00  0.00    -0.322 N 
ATOM     29  C   UNL A   1      43.449  26.759  33.703  1.00  0.00     0.255 C 
ATOM     30  H   UNL A   1      43.385  28.184  32.284  1.00  0.00     0.170 HD
ATOM     31  O   UNL A   1      44.515  26.293  33.302  1.00  0.00    -0.269 OA
BRANCH  29  32
ATOM     32  C   UNL A   1      42.846  26.153  34.916  1.00  0.00     0.040 A 
ATOM     33  C   UNL A   1      42.537  27.000  35.989  1.00  0.00     0.014 A 
ATOM     34  C   UNL A   1      42.368  24.829  34.896  1.00  0.00     0.014 A 
ATOM     35  C   UNL A   1      41.654  26.563  36.982  1.00  0.00     0.001 A 
ATOM     36  C   UNL A   1      41.465  24.409  35.885  1.00  0.00     0.001 A 
ATOM     37  C   UNL A   1      41.093  25.285  36.910  1.00  0.00     0.000 A 
ENDBRANCH  29  32
ENDBRANCH  27  28
ENDBRANCH   6  18
ENDBRANCH   3   6
ENDBRANCH   1   2
BRANCH   1  38
ATOM     38  C   UNL A   1      35.155  32.171  31.215  1.00  0.00     0.042 C 
BRANCH  38  39
ATOM     39  C   UNL A   1      35.337  32.516  29.736  1.00  0.00     0.118 C 
BRANCH  39  40
ATOM     40  N   UNL A   1      34.582  31.647  28.849  1.00  0.00    -0.352 N 
ATOM     41  C   UNL A   1      34.990  30.538  28.137  1.00  0.00     0.251 C 
ATOM     42  H   UNL A   1      33.634  31.888  28.739  1.00  0.00     0.163 HD
ATOM     43  O   UNL A   1      34.247  30.040  27.306  1.00  0.00    -0.269 OA
BRANCH  41  44
ATOM     44  C   UNL A   1      36.341  29.962  28.349  1.00  0.00     0.039 A 
ATOM     45  C   UNL A   1      37.310  30.126  27.353  1.00  0.00     0.014 A 
ATOM     46  C   UNL A   1      36.654  29.251  29.509  1.00  0.00     0.014 A 
ATOM     47  C   UNL A   1      38.612  29.659  27.560  1.00  0.00     0.010 A 
ATOM     48  C   UNL A   1      37.969  28.849  29.745  1.00  0.00     0.010 A 
ATOM     49  C   UNL A   1      38.967  29.060  28.779  1.00  0.00    -0.014 A 
BRANCH  49  50
ATOM     50  C   UNL A   1      40.371  28.666  29.081  1.00  0.00     0.031 A 
ATOM     51  C   UNL A   1      41.288  29.615  29.802  1.00  0.00     0.074 A 
ATOM     52  C   UNL A   1      40.850  27.491  28.628  1.00  0.00     0.049 A 
ATOM     53  N   UNL A   1      42.572  29.512  30.040  1.00  0.00    -0.248 NA
ATOM     54  C   UNL A   1      40.683  30.860  30.298  1.00  0.00     0.031 C 
ATOM     55  C   UNL A   1      40.076  26.485  27.902  1.00  0.00     0.029 A 
ATOM     56  N   UNL A   1      42.113  26.952  28.697  1.00  0.00    -0.354 N 
ATOM     57  C   UNL A   1      42.932  30.683  30.694  1.00  0.00     0.074 A 
ATOM     58  C   UNL A   1      41.741  31.504  30.767  1.00  0.00     0.031 C 
ATOM     59  C   UNL A   1      40.871  25.442  27.614  1.00  0.00     0.029 A 
ATOM     60  C   UNL A   1      42.223  25.726  28.085  1.00  0.00     0.049 A 
ATOM     61  H   UNL A   1      42.867  27.402  29.143  1.00  0.00     0.167 HD
ATOM     62  C   UNL A   1      44.138  31.036  31.203  1.00  0.00     0.037 A 
ATOM     63  C   UNL A   1      43.294  24.929  27.912  1.00  0.00     0.037 A 
ATOM     64  C   UNL A   1      45.319  30.214  31.137  1.00  0.00     0.049 A 
ATOM     65  C   UNL A   1      44.636  25.367  28.433  1.00  0.00     0.074 A 
ATOM     66  C   UNL A   1      46.576  30.463  31.661  1.00  0.00     0.029 A 
ATOM     67  N   UNL A   1      45.392  28.984  30.497  1.00  0.00    -0.354 N 
ATOM     68  N   UNL A   1      44.954  26.454  29.093  1.00  0.00    -0.248 NA
ATOM     69  C   UNL A   1      45.770  24.467  28.179  1.00  0.00     0.031 C 
ATOM     70  C   UNL A   1      47.423  29.413  31.290  1.00  0.00     0.029 A 
ATOM     71  C   UNL A   1      46.679  28.477  30.590  1.00  0.00     0.049 A 
ATOM     72  H   UNL A   1      44.641  28.538  30.044  1.00  0.00     0.167 HD
ATOM     73  C   UNL A   1      46.311  26.349  29.371  1.00  0.00     0.074 A 
ATOM     74  C   UNL A   1      46.755  25.091  28.808  1.00  0.00     0.031 C 
ATOM     75  C   UNL A   1      47.111  27.216  30.040  1.00  0.00     0.037 A 
BRANCH  62  76
ATOM     76  C   UNL A   1      44.237  32.383  31.864  1.00  0.00     0.064 A 
ATOM     77  C   UNL A   1      44.376  33.565  31.118  1.00  0.00     0.173 A 
ATOM     78  C   UNL A   1      44.192  32.496  33.263  1.00  0.00     0.173 A 
ATOM     79  F   UNL A   1      44.433  33.514  29.778  1.00  0.00    -0.203 F 
ATOM     80  C   UNL A   1      44.520  34.799  31.748  1.00  0.00     0.198 A 
ATOM     81  C   UNL A   1      44.297  33.736  33.887  1.00  0.00     0.198 A 
ATOM     82  F   UNL A   1      44.047  31.403  34.026  1.00  0.00    -0.203 F 
ATOM     83  F   UNL A   1      44.726  35.902  31.014  1.00  0.00    -0.200 F 
ATOM     84  C   UNL A   1      44.475  34.885  33.130  1.00  0.00     0.200 A 
ATOM     85  F   UNL A   1      44.236  33.819  35.223  1.00  0.00    -0.200 F 
ATOM     86  F   UNL A   1      44.617  36.072  33.734  1.00  0.00    -0.200 F 
ENDBRANCH  62  76
BRANCH  63  87
ATOM     87  C   UNL A   1      43.137  23.612  27.239  1.00  0.00     0.064 A 
ATOM     88  C   UNL A   1      42.559  22.530  27.918  1.00  0.00     0.173 A 
ATOM     89  C   UNL A   1      43.552  23.404  25.915  1.00  0.00     0.173 A 
ATOM     90  F   UNL A   1      42.167  22.674  29.193  1.00  0.00    -0.203 F 
ATOM     91  C   UNL A   1      42.415  21.287  27.306  1.00  0.00     0.198 A 
ATOM     92  C   UNL A   1      43.381  22.168  25.294  1.00  0.00     0.198 A 
ATOM     93  F   UNL A   1      44.107  24.406  25.220  1.00  0.00    -0.203 F 
ATOM     94  F   UNL A   1      41.895  20.261  27.993  1.00  0.00    -0.200 F 
ATOM     95  C   UNL A   1      42.820  21.109  25.992  1.00  0.00     0.200 A 
ATOM     96  F   UNL A   1      43.759  22.004  24.020  1.00  0.00    -0.200 F 
ATOM     97  F   UNL A   1      42.673  19.916  25.400  1.00  0.00    -0.200 F 
ENDBRANCH  63  87
BRANCH  75  98
ATOM     98  C   UNL A   1      48.542  26.812  30.256  1.00  0.00     0.064 A 
ATOM     99  C   UNL A   1      49.568  27.221  29.392  1.00  0.00     0.173 A 
ATOM    100  C   UNL A   1      48.896  26.040  31.374  1.00  0.00     0.173 A 
ATOM    101  F   UNL A   1      49.283  27.945  28.299  1.00  0.00    -0.203 F 
ATOM    102  C   UNL A   1      50.892  26.854  29.627  1.00  0.00     0.198 A 
ATOM    103  C   UNL A   1      50.223  25.703  31.624  1.00  0.00     0.198 A 
ATOM    104  F   UNL A   1      47.953  25.625  32.235  1.00  0.00    -0.203 F 
ATOM    105  F   UNL A   1      51.850  27.216  28.763  1.00  0.00    -0.200 F 
ATOM    106  C   UNL A   1      51.219  26.103  30.748  1.00  0.00     0.200 A 
ATOM    107  F   UNL A   1      50.537  24.989  32.715  1.00  0.00    -0.200 F 
ATOM    108  F   UNL A   1      52.494  25.761  30.979  1.00  0.00    -0.200 F 
ENDBRANCH  75  98
ENDBRANCH  49  50
ENDBRANCH  41  44
ENDBRANCH  39  40
ENDBRANCH  38  39
ENDBRANCH   1  38
TORSDOF 15
ENDMDL
MODEL 3
REMARK VINA RESULT:     -13.6      2.994      8.073
REMARK SMILES NC(=O)[C@@H]1CCC[N@H+]1[C@H](C(=O)NCCCNC(=O)c1ccc(-c2c3nc(c(-c4c(F)c(F)c(F)c(F)c4F)c4ccc([nH]4)c(-c4c(F)c(F)c(F)c(F)c4F)c4nc(c(-c5c(F)c(F)c(F)c(F)c5F)c5ccc2[nH]5)C=C4)C=C3)cc1)c1c[nH]c2cc(NC(=O)c3ccccc3)ccc12
REMARK SMILES IDX 13 1 12 2 10 3 11 4 9 6 8 7 4 8 5 9 6 10 7 11 2 13 1 14 3 17
REMARK SMILES IDX 82 18 83 19 99 20 84 21 85 22 98 23 86 25 97 26 87 27 88 28
REMARK SMILES IDX 89 29 90 31 91 32 92 33 96 34 93 35 95 36 94 37 14 38 15 39
REMARK SMILES IDX 16 40 17 41 18 43 19 44 20 45 81 46 21 47 80 48 22 49 23 50
REMARK SMILES IDX 24 51 74 52 25 53 79 54 73 55 75 56 26 57 78 58 72 59 71 60
REMARK SMILES IDX 27 62 59 63 39 64 58 65 40 66 43 67 57 68 76 69 41 70 42 71
REMARK SMILES IDX 56 73 77 74 44 75 28 76 29 77 37 78 30 79 31 80 35 81 38 82
REMARK SMILES IDX 32 83 33 84 36 85 34 86 60 87 61 88 69 89 62 90 63 91 67 92
REMARK SMILES IDX 70 93 64 94 65 95 68 96 66 97 45 98 46 99 54 100 47 101
REMARK SMILES IDX 48 102 52 103 55 104 49 105 50 106 53 107 51 108
REMARK H PARENT 12 5 8 12 1 15 1 16 84 24 88 30 16 42 75 61 43 72
REMARK Flexibility Score: inf
ROOT
ATOM      1  C   UNL A   1      35.983  21.564  24.628  1.00  0.00     0.118 C 
ENDROOT
BRANCH   1   2
ATOM      2  N   UNL A   1      35.482  21.500  25.991  1.00  0.00    -0.351 N 
ATOM      3  C   UNL A   1      34.247  21.675  26.562  1.00  0.00     0.283 C 
ATOM      4  O   UNL A   1      34.244  21.445  27.778  1.00  0.00    -0.268 OA
ATOM      5  H   UNL A   1      36.181  21.281  26.649  1.00  0.00     0.163 HD
BRANCH   3   6
ATOM      6  C   UNL A   1      32.949  22.115  25.753  1.00  0.00     0.308 C 
BRANCH   6   7
ATOM      7  N   UNL A   1      32.449  20.949  24.974  1.00  0.00    -0.311 N 
ATOM      8  C   UNL A   1      32.840  20.756  23.553  1.00  0.00     0.275 C 
ATOM      9  C   UNL A   1      32.821  19.240  23.360  1.00  0.00     0.081 C 
ATOM     10  C   UNL A   1      33.230  18.721  24.720  1.00  0.00     0.068 C 
ATOM     11  C   UNL A   1      32.542  19.672  25.676  1.00  0.00     0.264 C 
ATOM     12  H   UNL A   1      31.485  21.272  24.905  1.00  0.00     0.349 HD
BRANCH   8  13
ATOM     13  C   UNL A   1      31.911  21.398  22.517  1.00  0.00     0.275 C 
ATOM     14  N   UNL A   1      31.600  20.641  21.428  1.00  0.00    -0.365 N 
ATOM     15  H   UNL A   1      31.008  21.001  20.729  1.00  0.00     0.159 HD
ATOM     16  H   UNL A   1      31.969  19.732  21.338  1.00  0.00     0.159 HD
ATOM     17  O   UNL A   1      31.562  22.576  22.568  1.00  0.00    -0.268 OA
ENDBRANCH   8  13
ENDBRANCH   6   7
BRANCH   6  18
ATOM     18  C   UNL A   1      31.851  22.934  26.609  1.00  0.00     0.044 A 
ATOM     19  C   UNL A   1      30.518  22.514  26.458  1.00  0.00     0.094 A 
ATOM     20  C   UNL A   1      31.548  24.327  26.446  1.00  0.00     0.009 A 
ATOM     21  N   UNL A   1      30.235  23.105  25.219  1.00  0.00    -0.361 N 
ATOM     22  C   UNL A   1      30.980  24.264  25.199  1.00  0.00     0.048 A 
ATOM     23  C   UNL A   1      31.630  25.605  27.027  1.00  0.00     0.013 A 
ATOM     24  H   UNL A   1      29.637  22.765  24.515  1.00  0.00     0.166 HD
ATOM     25  C   UNL A   1      31.062  25.289  24.304  1.00  0.00     0.052 A 
ATOM     26  C   UNL A   1      31.272  26.717  26.204  1.00  0.00     0.027 A 
ATOM     27  C   UNL A   1      31.033  26.565  24.822  1.00  0.00     0.043 A 
BRANCH  27  28
ATOM     28  N   UNL A   1      30.694  27.674  24.009  1.00  0.00    -0.322 N 
ATOM     29  C   UNL A   1      31.186  28.979  23.974  1.00  0.00     0.255 C 
ATOM     30  H   UNL A   1      29.984  27.491  23.351  1.00  0.00     0.170 HD
ATOM     31  O   UNL A   1      30.768  29.778  23.136  1.00  0.00    -0.269 OA
BRANCH  29  32
ATOM     32  C   UNL A   1      32.199  29.466  24.944  1.00  0.00     0.040 A 
ATOM     33  C   UNL A   1      31.766  30.302  25.983  1.00  0.00     0.014 A 
ATOM     34  C   UNL A   1      33.492  28.909  24.973  1.00  0.00     0.014 A 
ATOM     35  C   UNL A   1      32.579  30.485  27.106  1.00  0.00     0.001 A 
ATOM     36  C   UNL A   1      34.290  29.082  26.114  1.00  0.00     0.001 A 
ATOM     37  C   UNL A   1      33.820  29.848  27.186  1.00  0.00     0.000 A 
ENDBRANCH  29  32
ENDBRANCH  27  28
ENDBRANCH   6  18
ENDBRANCH   3   6
ENDBRANCH   1   2
BRANCH   1  38
ATOM     38  C   UNL A   1      36.685  22.880  24.253  1.00  0.00     0.042 C 
BRANCH  38  39
ATOM     39  C   UNL A   1      37.591  23.506  25.315  1.00  0.00     0.118 C 
BRANCH  39  40
ATOM     40  N   UNL A   1      38.744  22.684  25.641  1.00  0.00    -0.352 N 
ATOM     41  C   UNL A   1      39.927  23.025  26.263  1.00  0.00     0.251 C 
ATOM     42  H   UNL A   1      38.669  21.739  25.377  1.00  0.00     0.163 HD
ATOM     43  O   UNL A   1      40.852  22.229  26.293  1.00  0.00    -0.269 OA
BRANCH  41  44
ATOM     44  C   UNL A   1      40.099  24.369  26.869  1.00  0.00     0.039 A 
ATOM     45  C   UNL A   1      39.665  24.579  28.182  1.00  0.00     0.014 A 
ATOM     46  C   UNL A   1      40.667  25.423  26.150  1.00  0.00     0.014 A 
ATOM     47  C   UNL A   1      39.883  25.814  28.802  1.00  0.00     0.010 A 
ATOM     48  C   UNL A   1      40.948  26.630  26.791  1.00  0.00     0.010 A 
ATOM     49  C   UNL A   1      40.572  26.836  28.129  1.00  0.00    -0.014 A 
BRANCH  49  50
ATOM     50  C   UNL A   1      40.932  28.115  28.800  1.00  0.00     0.031 A 
ATOM     51  C   UNL A   1      42.327  28.337  29.315  1.00  0.00     0.074 A 
ATOM     52  C   UNL A   1      39.982  29.043  29.028  1.00  0.00     0.049 A 
ATOM     53  N   UNL A   1      42.801  29.320  30.040  1.00  0.00    -0.248 NA
ATOM     54  C   UNL A   1      43.315  27.297  28.995  1.00  0.00     0.031 C 
ATOM     55  C   UNL A   1      38.587  28.951  28.598  1.00  0.00     0.029 A 
ATOM     56  N   UNL A   1      40.044  30.243  29.697  1.00  0.00    -0.354 N 
ATOM     57  C   UNL A   1      44.133  29.009  30.277  1.00  0.00     0.074 A 
ATOM     58  C   UNL A   1      44.377  27.720  29.665  1.00  0.00     0.031 C 
ATOM     59  C   UNL A   1      37.932  30.055  28.991  1.00  0.00     0.029 A 
ATOM     60  C   UNL A   1      38.843  30.909  29.747  1.00  0.00     0.049 A 
ATOM     61  H   UNL A   1      40.871  30.592  30.102  1.00  0.00     0.167 HD
ATOM     62  C   UNL A   1      45.073  29.737  30.929  1.00  0.00     0.037 A 
ATOM     63  C   UNL A   1      38.510  32.069  30.345  1.00  0.00     0.037 A 
ATOM     64  C   UNL A   1      44.830  31.024  31.530  1.00  0.00     0.049 A 
ATOM     65  C   UNL A   1      39.554  32.831  31.114  1.00  0.00     0.074 A 
ATOM     66  C   UNL A   1      45.726  31.860  32.174  1.00  0.00     0.029 A 
ATOM     67  N   UNL A   1      43.596  31.659  31.569  1.00  0.00    -0.354 N 
ATOM     68  N   UNL A   1      40.823  32.552  31.290  1.00  0.00    -0.248 NA
ATOM     69  C   UNL A   1      39.117  34.071  31.772  1.00  0.00     0.031 C 
ATOM     70  C   UNL A   1      45.024  32.972  32.652  1.00  0.00     0.029 A 
ATOM     71  C   UNL A   1      43.702  32.861  32.251  1.00  0.00     0.049 A 
ATOM     72  H   UNL A   1      42.767  31.306  31.172  1.00  0.00     0.167 HD
ATOM     73  C   UNL A   1      41.345  33.599  32.040  1.00  0.00     0.074 A 
ATOM     74  C   UNL A   1      40.254  34.520  32.284  1.00  0.00     0.031 C 
ATOM     75  C   UNL A   1      42.615  33.781  32.477  1.00  0.00     0.037 A 
BRANCH  62  76
ATOM     76  C   UNL A   1      46.450  29.143  31.037  1.00  0.00     0.064 A 
ATOM     77  C   UNL A   1      47.427  29.357  30.052  1.00  0.00     0.173 A 
ATOM     78  C   UNL A   1      46.799  28.350  32.142  1.00  0.00     0.173 A 
ATOM     79  F   UNL A   1      47.145  30.101  28.971  1.00  0.00    -0.203 F 
ATOM     80  C   UNL A   1      48.681  28.756  30.141  1.00  0.00     0.198 A 
ATOM     81  C   UNL A   1      48.067  27.783  32.246  1.00  0.00     0.198 A 
ATOM     82  F   UNL A   1      45.911  28.122  33.120  1.00  0.00    -0.203 F 
ATOM     83  F   UNL A   1      49.569  28.916  29.150  1.00  0.00    -0.200 F 
ATOM     84  C   UNL A   1      49.001  27.974  31.240  1.00  0.00     0.200 A 
ATOM     85  F   UNL A   1      48.381  27.041  33.317  1.00  0.00    -0.200 F 
ATOM     86  F   UNL A   1      50.206  27.395  31.323  1.00  0.00    -0.200 F 
ENDBRANCH  62  76
BRANCH  63  87
ATOM     87  C   UNL A   1      37.128  32.601  30.213  1.00  0.00     0.064 A 
ATOM     88  C   UNL A   1      36.753  33.337  29.080  1.00  0.00     0.173 A 
ATOM     89  C   UNL A   1      36.156  32.388  31.202  1.00  0.00     0.173 A 
ATOM     90  F   UNL A   1      37.653  33.586  28.117  1.00  0.00    -0.203 F 
ATOM     91  C   UNL A   1      35.466  33.852  28.947  1.00  0.00     0.198 A 
ATOM     92  C   UNL A   1      34.860  32.879  31.055  1.00  0.00     0.198 A 
ATOM     93  F   UNL A   1      36.461  31.687  32.304  1.00  0.00    -0.203 F 
ATOM     94  F   UNL A   1      35.147  34.584  27.871  1.00  0.00    -0.200 F 
ATOM     95  C   UNL A   1      34.518  33.616  29.931  1.00  0.00     0.200 A 
ATOM     96  F   UNL A   1      33.944  32.636  32.001  1.00  0.00    -0.200 F 
ATOM     97  F   UNL A   1      33.277  34.104  29.799  1.00  0.00    -0.200 F 
ENDBRANCH  63  87
BRANCH  75  98
ATOM     98  C   UNL A   1      42.917  35.052  33.218  1.00  0.00     0.064 A 
ATOM     99  C   UNL A   1      43.380  36.203  32.563  1.00  0.00     0.173 A 
ATOM    100  C   UNL A   1      42.693  35.132  34.602  1.00  0.00     0.173 A 
ATOM    101  F   UNL A   1      43.627  36.177  31.245  1.00  0.00    -0.203 F 
ATOM    102  C   UNL A   1      43.629  37.378  33.270  1.00  0.00     0.198 A 
ATOM    103  C   UNL A   1      42.912  36.316  35.299  1.00  0.00     0.198 A 
ATOM    104  F   UNL A   1      42.247  34.061  35.277  1.00  0.00    -0.203 F 
ATOM    105  F   UNL A   1      44.116  38.452  32.632  1.00  0.00    -0.200 F 
ATOM    106  C   UNL A   1      43.386  37.436  34.635  1.00  0.00     0.200 A 
ATOM    107  F   UNL A   1      42.663  36.373  36.615  1.00  0.00    -0.200 F 
ATOM    108  F   UNL A   1      43.615  38.571  35.310  1.00  0.00    -0.200 F 
ENDBRANCH  75  98
ENDBRANCH  49  50
ENDBRANCH  41  44
ENDBRANCH  39  40
ENDBRANCH  38  39
ENDBRANCH   1  38
TORSDOF 15
ENDMDL
