MODEL 1
REMARK VINA RESULT:     -14.8      0.000      0.000
REMARK SMILES Cc1ccc(S(=O)(=O)n2cc(C(=O)C(=O)N[C@@H](Cc3c[nH]c4ccccc34)C(=O)NCCCNC(=O)c3ccc(-c4c5nc(c(-c6c(F)c(F)c(F)c(F)c6F)c6ccc([nH]6)c(-c6c(F)c(F)c(F)c(F)c6F)c6nc(c(-c7c(F)c(F)c(F)c(F)c7F)c7ccc4[nH]7)C=C6)C=C5)cc3)c3ccccc32)cc1
REMARK SMILES IDX 28 1 29 2 30 3 17 5 16 6 14 7 15 8 12 10 13 11 11 12 9 13
REMARK SMILES IDX 10 14 105 15 100 16 104 17 101 18 103 19 102 20 6 21 7 22
REMARK SMILES IDX 8 23 5 24 1 25 2 26 3 27 107 28 4 29 106 30 18 31 19 32
REMARK SMILES IDX 20 33 27 34 21 35 22 36 26 37 23 39 25 40 24 41 31 42 32 43
REMARK SMILES IDX 33 44 34 45 35 46 36 48 37 49 38 50 99 51 39 52 98 53 40 54
REMARK SMILES IDX 41 55 42 56 92 57 43 58 97 59 91 60 93 61 44 62 96 63 90 64
REMARK SMILES IDX 89 65 45 67 77 68 57 69 76 70 58 71 61 72 75 73 94 74 59 75
REMARK SMILES IDX 60 76 74 78 95 79 62 80 46 81 47 82 55 83 48 84 49 85 53 86
REMARK SMILES IDX 56 87 50 88 51 89 54 90 52 91 78 92 79 93 87 94 80 95 81 96
REMARK SMILES IDX 85 97 88 98 82 99 83 100 86 101 84 102 63 103 64 104 72 105
REMARK SMILES IDX 65 106 66 107 70 108 73 109 67 110 68 111 71 112 69 113
REMARK H PARENT 30 4 16 9 21 38 34 47 93 66 61 77
REMARK Flexibility Score: inf
ROOT
ATOM      1  C   UNL A   1      31.777  28.517  26.331  1.00  0.00     0.242 C 
ATOM      2  O   UNL A   1      31.307  27.434  26.704  1.00  0.00    -0.273 OA
ATOM      3  N   UNL A   1      32.663  29.093  27.190  1.00  0.00    -0.354 N 
ATOM      4  H   UNL A   1      32.450  28.953  28.141  1.00  0.00     0.163 HD
ENDROOT
BRANCH   1   5
ATOM      5  C   UNL A   1      31.414  29.064  24.927  1.00  0.00     0.176 C 
BRANCH   5   6
ATOM      6  N   UNL A   1      32.555  29.321  24.028  1.00  0.00    -0.337 N 
ATOM      7  C   UNL A   1      33.341  28.430  23.284  1.00  0.00     0.293 C 
ATOM      8  O   UNL A   1      34.342  28.817  22.720  1.00  0.00    -0.265 OA
ATOM      9  H   UNL A   1      32.805  30.268  23.938  1.00  0.00     0.164 HD
BRANCH   7  10
ATOM     10  C   UNL A   1      32.903  26.962  23.120  1.00  0.00     0.252 C 
ATOM     11  O   UNL A   1      32.072  26.762  22.235  1.00  0.00    -0.283 OA
BRANCH  10  12
ATOM     12  C   UNL A   1      33.352  25.866  24.011  1.00  0.00     0.054 A 
ATOM     13  N   UNL A   1      34.474  24.314  25.245  1.00  0.00    -0.240 N 
ATOM     14  C   UNL A   1      34.622  25.335  24.296  1.00  0.00     0.117 A 
ATOM     15  C   UNL A   1      33.139  24.351  25.687  1.00  0.00     0.065 A 
ATOM     16  C   UNL A   1      32.427  25.007  24.687  1.00  0.00     0.012 A 
ATOM     17  C   UNL A   1      32.482  23.618  26.697  1.00  0.00     0.028 A 
ATOM     18  C   UNL A   1      31.044  24.746  24.568  1.00  0.00     0.011 A 
ATOM     19  C   UNL A   1      31.134  23.318  26.515  1.00  0.00     0.002 A 
ATOM     20  C   UNL A   1      30.432  23.836  25.437  1.00  0.00     0.001 A 
BRANCH  13  21
ATOM     21  S   UNL A   1      35.042  22.656  25.118  1.00  0.00     0.268 S 
ATOM     22  O   UNL A   1      35.497  22.364  26.467  1.00  0.00    -0.201 OA
ATOM     23  O   UNL A   1      35.986  22.748  24.010  1.00  0.00    -0.201 OA
BRANCH  21  24
ATOM     24  C   UNL A   1      34.131  21.235  24.630  1.00  0.00     0.088 A 
ATOM     25  C   UNL A   1      32.873  17.260  23.465  1.00  0.00     0.044 C 
ATOM     26  C   UNL A   1      33.254  18.648  23.898  1.00  0.00    -0.051 A 
ATOM     27  C   UNL A   1      34.450  18.794  24.583  1.00  0.00     0.005 A 
ATOM     28  C   UNL A   1      32.493  19.803  23.601  1.00  0.00     0.005 A 
ATOM     29  C   UNL A   1      34.866  20.062  24.949  1.00  0.00     0.022 A 
ATOM     30  C   UNL A   1      32.928  21.109  23.960  1.00  0.00     0.022 A 
ENDBRANCH  21  24
ENDBRANCH  13  21
ENDBRANCH  10  12
ENDBRANCH   7  10
ENDBRANCH   5   6
BRANCH   5  31
ATOM     31  C   UNL A   1      30.204  28.337  24.263  1.00  0.00     0.072 C 
BRANCH  31  32
ATOM     32  C   UNL A   1      29.246  29.139  23.416  1.00  0.00    -0.020 A 
ATOM     33  C   UNL A   1      28.377  28.621  22.466  1.00  0.00     0.087 A 
ATOM     34  C   UNL A   1      29.055  30.563  23.393  1.00  0.00     0.003 A 
ATOM     35  N   UNL A   1      27.785  29.663  21.797  1.00  0.00    -0.361 N 
ATOM     36  C   UNL A   1      28.246  30.860  22.293  1.00  0.00     0.046 A 
ATOM     37  C   UNL A   1      29.569  31.640  24.146  1.00  0.00     0.010 A 
ATOM     38  H   UNL A   1      27.129  29.567  21.069  1.00  0.00     0.166 HD
ATOM     39  C   UNL A   1      28.022  32.167  21.845  1.00  0.00     0.026 A 
ATOM     40  C   UNL A   1      29.384  32.950  23.693  1.00  0.00     0.001 A 
ATOM     41  C   UNL A   1      28.644  33.206  22.544  1.00  0.00     0.002 A 
ENDBRANCH  31  32
ENDBRANCH   5  31
ENDBRANCH   1   5
BRANCH   3  42
ATOM     42  C   UNL A   1      33.862  29.875  26.960  1.00  0.00     0.117 C 
BRANCH  42  43
ATOM     43  C   UNL A   1      33.786  31.321  27.415  1.00  0.00     0.042 C 
BRANCH  43  44
ATOM     44  C   UNL A   1      34.455  31.519  28.768  1.00  0.00     0.118 C 
BRANCH  44  45
ATOM     45  N   UNL A   1      35.659  32.349  28.807  1.00  0.00    -0.352 N 
ATOM     46  C   UNL A   1      36.985  31.933  28.909  1.00  0.00     0.251 C 
ATOM     47  H   UNL A   1      35.514  33.321  28.755  1.00  0.00     0.163 HD
ATOM     48  O   UNL A   1      37.905  32.740  28.970  1.00  0.00    -0.269 OA
BRANCH  46  49
ATOM     49  C   UNL A   1      37.268  30.478  28.799  1.00  0.00     0.039 A 
ATOM     50  C   UNL A   1      37.662  29.822  29.968  1.00  0.00     0.014 A 
ATOM     51  C   UNL A   1      37.604  29.967  27.552  1.00  0.00     0.014 A 
ATOM     52  C   UNL A   1      38.683  28.880  29.895  1.00  0.00     0.010 A 
ATOM     53  C   UNL A   1      38.711  29.143  27.490  1.00  0.00     0.010 A 
ATOM     54  C   UNL A   1      39.308  28.670  28.667  1.00  0.00    -0.014 A 
BRANCH  54  55
ATOM     55  C   UNL A   1      40.640  28.081  28.542  1.00  0.00     0.031 A 
ATOM     56  C   UNL A   1      40.781  26.636  28.264  1.00  0.00     0.074 A 
ATOM     57  C   UNL A   1      41.763  28.835  28.623  1.00  0.00     0.049 A 
ATOM     58  N   UNL A   1      41.805  25.934  28.618  1.00  0.00    -0.248 NA
ATOM     59  C   UNL A   1      39.756  25.857  27.584  1.00  0.00     0.031 C 
ATOM     60  C   UNL A   1      43.125  28.419  28.279  1.00  0.00     0.029 A 
ATOM     61  N   UNL A   1      41.934  30.100  29.210  1.00  0.00    -0.354 N 
ATOM     62  C   UNL A   1      41.706  24.712  28.001  1.00  0.00     0.074 A 
ATOM     63  C   UNL A   1      40.388  24.695  27.408  1.00  0.00     0.031 C 
ATOM     64  C   UNL A   1      43.999  29.211  28.914  1.00  0.00     0.029 A 
ATOM     65  C   UNL A   1      43.241  30.100  29.770  1.00  0.00     0.049 A 
ATOM     66  H   UNL A   1      41.282  30.837  29.230  1.00  0.00     0.167 HD
ATOM     67  C   UNL A   1      42.791  23.888  27.956  1.00  0.00     0.037 A 
ATOM     68  C   UNL A   1      43.443  30.284  31.107  1.00  0.00     0.037 A 
ATOM     69  C   UNL A   1      43.949  24.473  28.629  1.00  0.00     0.049 A 
ATOM     70  C   UNL A   1      44.052  29.093  31.817  1.00  0.00     0.074 A 
ATOM     71  C   UNL A   1      45.087  25.134  28.196  1.00  0.00     0.029 A 
ATOM     72  N   UNL A   1      43.891  24.683  29.995  1.00  0.00    -0.354 N 
ATOM     73  N   UNL A   1      44.422  27.991  31.226  1.00  0.00    -0.248 NA
ATOM     74  C   UNL A   1      44.174  29.010  33.274  1.00  0.00     0.031 C 
ATOM     75  C   UNL A   1      45.724  25.718  29.327  1.00  0.00     0.029 A 
ATOM     76  C   UNL A   1      44.972  25.414  30.446  1.00  0.00     0.049 A 
ATOM     77  H   UNL A   1      43.167  24.352  30.574  1.00  0.00     0.167 HD
ATOM     78  C   UNL A   1      44.732  27.050  32.174  1.00  0.00     0.074 A 
ATOM     79  C   UNL A   1      44.565  27.736  33.440  1.00  0.00     0.031 C 
ATOM     80  C   UNL A   1      45.048  25.760  31.856  1.00  0.00     0.037 A 
BRANCH  67  81
ATOM     81  C   UNL A   1      42.855  22.662  27.079  1.00  0.00     0.064 A 
ATOM     82  C   UNL A   1      42.087  21.518  27.374  1.00  0.00     0.173 A 
ATOM     83  C   UNL A   1      43.693  22.537  25.955  1.00  0.00     0.173 A 
ATOM     84  F   UNL A   1      41.149  21.531  28.329  1.00  0.00    -0.203 F 
ATOM     85  C   UNL A   1      42.255  20.309  26.694  1.00  0.00     0.198 A 
ATOM     86  C   UNL A   1      43.915  21.312  25.319  1.00  0.00     0.198 A 
ATOM     87  F   UNL A   1      44.283  23.607  25.406  1.00  0.00    -0.203 F 
ATOM     88  F   UNL A   1      41.501  19.251  27.024  1.00  0.00    -0.200 F 
ATOM     89  C   UNL A   1      43.205  20.193  25.700  1.00  0.00     0.200 A 
ATOM     90  F   UNL A   1      44.822  21.227  24.335  1.00  0.00    -0.200 F 
ATOM     91  F   UNL A   1      43.413  19.016  25.093  1.00  0.00    -0.200 F 
ENDBRANCH  67  81
BRANCH  68  92
ATOM     92  C   UNL A   1      42.446  31.225  31.683  1.00  0.00     0.064 A 
ATOM     93  C   UNL A   1      42.609  32.594  31.392  1.00  0.00     0.173 A 
ATOM     94  C   UNL A   1      41.174  30.782  32.056  1.00  0.00     0.173 A 
ATOM     95  F   UNL A   1      43.818  33.070  31.054  1.00  0.00    -0.203 F 
ATOM     96  C   UNL A   1      41.509  33.437  31.279  1.00  0.00     0.198 A 
ATOM     97  C   UNL A   1      40.079  31.641  31.979  1.00  0.00     0.198 A 
ATOM     98  F   UNL A   1      40.961  29.491  32.349  1.00  0.00    -0.203 F 
ATOM     99  F   UNL A   1      41.665  34.689  30.824  1.00  0.00    -0.200 F 
ATOM    100  C   UNL A   1      40.240  32.946  31.533  1.00  0.00     0.200 A 
ATOM    101  F   UNL A   1      38.849  31.168  32.223  1.00  0.00    -0.200 F 
ATOM    102  F   UNL A   1      39.167  33.715  31.298  1.00  0.00    -0.200 F 
ENDBRANCH  68  92
BRANCH  80 103
ATOM    103  C   UNL A   1      45.431  24.715  32.871  1.00  0.00     0.064 A 
ATOM    104  C   UNL A   1      44.524  23.749  33.337  1.00  0.00     0.173 A 
ATOM    105  C   UNL A   1      46.698  24.716  33.496  1.00  0.00     0.173 A 
ATOM    106  F   UNL A   1      43.261  23.718  32.887  1.00  0.00    -0.203 F 
ATOM    107  C   UNL A   1      44.884  22.803  34.299  1.00  0.00     0.198 A 
ATOM    108  C   UNL A   1      47.036  23.808  34.498  1.00  0.00     0.198 A 
ATOM    109  F   UNL A   1      47.659  25.581  33.141  1.00  0.00    -0.203 F 
ATOM    110  F   UNL A   1      44.006  21.858  34.663  1.00  0.00    -0.200 F 
ATOM    111  C   UNL A   1      46.136  22.837  34.886  1.00  0.00     0.200 A 
ATOM    112  F   UNL A   1      48.243  23.877  35.077  1.00  0.00    -0.200 F 
ATOM    113  F   UNL A   1      46.474  21.939  35.821  1.00  0.00    -0.200 F 
ENDBRANCH  80 103
ENDBRANCH  54  55
ENDBRANCH  46  49
ENDBRANCH  44  45
ENDBRANCH  43  44
ENDBRANCH  42  43
ENDBRANCH   3  42
TORSDOF 17
ENDMDL
MODEL 2
REMARK VINA RESULT:     -13.7      1.460      2.515
REMARK SMILES Cc1ccc(S(=O)(=O)n2cc(C(=O)C(=O)N[C@@H](Cc3c[nH]c4ccccc34)C(=O)NCCCNC(=O)c3ccc(-c4c5nc(c(-c6c(F)c(F)c(F)c(F)c6F)c6ccc([nH]6)c(-c6c(F)c(F)c(F)c(F)c6F)c6nc(c(-c7c(F)c(F)c(F)c(F)c7F)c7ccc4[nH]7)C=C6)C=C5)cc3)c3ccccc32)cc1
REMARK SMILES IDX 28 1 29 2 30 3 17 5 16 6 14 7 15 8 12 10 13 11 11 12 9 13
REMARK SMILES IDX 10 14 105 15 100 16 104 17 101 18 103 19 102 20 6 21 7 22
REMARK SMILES IDX 8 23 5 24 1 25 2 26 3 27 107 28 4 29 106 30 18 31 19 32
REMARK SMILES IDX 20 33 27 34 21 35 22 36 26 37 23 39 25 40 24 41 31 42 32 43
REMARK SMILES IDX 33 44 34 45 35 46 36 48 37 49 38 50 99 51 39 52 98 53 40 54
REMARK SMILES IDX 41 55 42 56 92 57 43 58 97 59 91 60 93 61 44 62 96 63 90 64
REMARK SMILES IDX 89 65 45 67 77 68 57 69 76 70 58 71 61 72 75 73 94 74 59 75
REMARK SMILES IDX 60 76 74 78 95 79 62 80 46 81 47 82 55 83 48 84 49 85 53 86
REMARK SMILES IDX 56 87 50 88 51 89 54 90 52 91 78 92 79 93 87 94 80 95 81 96
REMARK SMILES IDX 85 97 88 98 82 99 83 100 86 101 84 102 63 103 64 104 72 105
REMARK SMILES IDX 65 106 66 107 70 108 73 109 67 110 68 111 71 112 69 113
REMARK H PARENT 30 4 16 9 21 38 34 47 93 66 61 77
REMARK Flexibility Score: inf
ROOT
ATOM      1  C   UNL A   1      33.340  28.772  24.694  1.00  0.00     0.242 C 
ATOM      2  O   UNL A   1      33.755  28.967  23.544  1.00  0.00    -0.273 OA
ATOM      3  N   UNL A   1      34.288  28.815  25.671  1.00  0.00    -0.354 N 
ATOM      4  H   UNL A   1      35.163  28.454  25.398  1.00  0.00     0.163 HD
ENDROOT
BRANCH   1   5
ATOM      5  C   UNL A   1      31.818  28.601  24.937  1.00  0.00     0.176 C 
BRANCH   5   6
ATOM      6  N   UNL A   1      31.447  27.870  26.164  1.00  0.00    -0.337 N 
ATOM      7  C   UNL A   1      30.722  26.681  26.326  1.00  0.00     0.293 C 
ATOM      8  O   UNL A   1      30.383  26.315  27.430  1.00  0.00    -0.265 OA
ATOM      9  H   UNL A   1      31.759  28.283  27.001  1.00  0.00     0.164 HD
BRANCH   7  10
ATOM     10  C   UNL A   1      30.407  25.795  25.107  1.00  0.00     0.252 C 
ATOM     11  O   UNL A   1      29.521  26.222  24.367  1.00  0.00    -0.283 OA
BRANCH  10  12
ATOM     12  C   UNL A   1      31.032  24.472  24.867  1.00  0.00     0.054 A 
ATOM     13  N   UNL A   1      31.645  22.280  24.774  1.00  0.00    -0.240 N 
ATOM     14  C   UNL A   1      30.750  23.186  25.360  1.00  0.00     0.117 A 
ATOM     15  C   UNL A   1      32.347  22.979  23.776  1.00  0.00     0.065 A 
ATOM     16  C   UNL A   1      32.238  24.326  24.108  1.00  0.00     0.012 A 
ATOM     17  C   UNL A   1      33.287  22.531  22.824  1.00  0.00     0.028 A 
ATOM     18  C   UNL A   1      33.233  25.214  23.643  1.00  0.00     0.011 A 
ATOM     19  C   UNL A   1      34.297  23.410  22.439  1.00  0.00     0.002 A 
ATOM     20  C   UNL A   1      34.298  24.724  22.880  1.00  0.00     0.001 A 
BRANCH  13  21
ATOM     21  S   UNL A   1      32.703  21.148  25.603  1.00  0.00     0.268 S 
ATOM     22  O   UNL A   1      32.261  19.860  25.097  1.00  0.00    -0.201 OA
ATOM     23  O   UNL A   1      32.500  21.517  26.999  1.00  0.00    -0.201 OA
BRANCH  21  24
ATOM     24  C   UNL A   1      34.458  21.075  25.555  1.00  0.00     0.088 A 
ATOM     25  C   UNL A   1      38.692  21.980  25.561  1.00  0.00     0.044 C 
ATOM     26  C   UNL A   1      37.235  21.610  25.587  1.00  0.00    -0.051 A 
ATOM     27  C   UNL A   1      36.359  22.520  26.158  1.00  0.00     0.005 A 
ATOM     28  C   UNL A   1      36.712  20.424  25.020  1.00  0.00     0.005 A 
ATOM     29  C   UNL A   1      35.003  22.245  26.150  1.00  0.00     0.022 A 
ATOM     30  C   UNL A   1      35.317  20.148  24.993  1.00  0.00     0.022 A 
ENDBRANCH  21  24
ENDBRANCH  13  21
ENDBRANCH  10  12
ENDBRANCH   7  10
ENDBRANCH   5   6
BRANCH   5  31
ATOM     31  C   UNL A   1      30.989  29.894  24.665  1.00  0.00     0.072 C 
BRANCH  31  32
ATOM     32  C   UNL A   1      30.024  29.911  23.505  1.00  0.00    -0.020 A 
ATOM     33  C   UNL A   1      29.745  28.838  22.670  1.00  0.00     0.087 A 
ATOM     34  C   UNL A   1      29.236  31.009  23.018  1.00  0.00     0.003 A 
ATOM     35  N   UNL A   1      28.944  29.277  21.645  1.00  0.00    -0.361 N 
ATOM     36  C   UNL A   1      28.686  30.619  21.794  1.00  0.00     0.046 A 
ATOM     37  C   UNL A   1      29.011  32.332  23.453  1.00  0.00     0.010 A 
ATOM     38  H   UNL A   1      28.605  28.713  20.911  1.00  0.00     0.166 HD
ATOM     39  C   UNL A   1      28.028  31.511  20.937  1.00  0.00     0.026 A 
ATOM     40  C   UNL A   1      28.388  33.245  22.596  1.00  0.00     0.001 A 
ATOM     41  C   UNL A   1      27.928  32.844  21.346  1.00  0.00     0.002 A 
ENDBRANCH  31  32
ENDBRANCH   5  31
ENDBRANCH   1   5
BRANCH   3  42
ATOM     42  C   UNL A   1      34.245  29.297  27.038  1.00  0.00     0.117 C 
BRANCH  42  43
ATOM     43  C   UNL A   1      34.180  30.806  27.188  1.00  0.00     0.042 C 
BRANCH  43  44
ATOM     44  C   UNL A   1      35.148  31.306  28.251  1.00  0.00     0.118 C 
BRANCH  44  45
ATOM     45  N   UNL A   1      35.368  30.448  29.416  1.00  0.00    -0.352 N 
ATOM     46  C   UNL A   1      36.561  29.863  29.836  1.00  0.00     0.251 C 
ATOM     47  H   UNL A   1      34.577  30.262  29.970  1.00  0.00     0.163 HD
ATOM     48  O   UNL A   1      36.601  29.129  30.816  1.00  0.00    -0.269 OA
BRANCH  46  49
ATOM     49  C   UNL A   1      37.815  30.265  29.147  1.00  0.00     0.039 A 
ATOM     50  C   UNL A   1      38.014  29.765  27.857  1.00  0.00     0.014 A 
ATOM     51  C   UNL A   1      38.892  30.667  29.925  1.00  0.00     0.014 A 
ATOM     52  C   UNL A   1      39.286  29.331  27.497  1.00  0.00     0.010 A 
ATOM     53  C   UNL A   1      40.122  30.109  29.630  1.00  0.00     0.010 A 
ATOM     54  C   UNL A   1      40.297  29.362  28.456  1.00  0.00    -0.014 A 
BRANCH  54  55
ATOM     55  C   UNL A   1      41.505  28.545  28.367  1.00  0.00     0.031 A 
ATOM     56  C   UNL A   1      41.390  27.079  28.212  1.00  0.00     0.074 A 
ATOM     57  C   UNL A   1      42.742  29.098  28.373  1.00  0.00     0.049 A 
ATOM     58  N   UNL A   1      42.288  26.244  28.613  1.00  0.00    -0.248 NA
ATOM     59  C   UNL A   1      40.231  26.436  27.611  1.00  0.00     0.031 C 
ATOM     60  C   UNL A   1      44.003  28.428  28.051  1.00  0.00     0.029 A 
ATOM     61  N   UNL A   1      43.140  30.359  28.849  1.00  0.00    -0.354 N 
ATOM     62  C   UNL A   1      41.967  25.010  28.103  1.00  0.00     0.074 A 
ATOM     63  C   UNL A   1      40.651  25.172  27.527  1.00  0.00     0.031 C 
ATOM     64  C   UNL A   1      45.015  29.108  28.607  1.00  0.00     0.029 A 
ATOM     65  C   UNL A   1      44.442  30.180  29.392  1.00  0.00     0.049 A 
ATOM     66  H   UNL A   1      42.624  31.197  28.813  1.00  0.00     0.167 HD
ATOM     67  C   UNL A   1      42.894  24.011  28.116  1.00  0.00     0.037 A 
ATOM     68  C   UNL A   1      44.705  30.435  30.706  1.00  0.00     0.037 A 
ATOM     69  C   UNL A   1      44.151  24.441  28.724  1.00  0.00     0.049 A 
ATOM     70  C   UNL A   1      45.120  29.219  31.509  1.00  0.00     0.074 A 
ATOM     71  C   UNL A   1      45.374  24.859  28.225  1.00  0.00     0.029 A 
ATOM     72  N   UNL A   1      44.164  24.769  30.068  1.00  0.00    -0.354 N 
ATOM     73  N   UNL A   1      45.282  28.025  31.009  1.00  0.00    -0.248 NA
ATOM     74  C   UNL A   1      45.263  29.235  32.966  1.00  0.00     0.031 C 
ATOM     75  C   UNL A   1      46.130  25.416  29.296  1.00  0.00     0.029 A 
ATOM     76  C   UNL A   1      45.365  25.337  30.445  1.00  0.00     0.049 A 
ATOM     77  H   UNL A   1      43.409  24.615  30.681  1.00  0.00     0.167 HD
ATOM     78  C   UNL A   1      45.451  27.126  32.030  1.00  0.00     0.074 A 
ATOM     79  C   UNL A   1      45.435  27.931  33.236  1.00  0.00     0.031 C 
ATOM     80  C   UNL A   1      45.534  25.779  31.820  1.00  0.00     0.037 A 
BRANCH  67  81
ATOM     81  C   UNL A   1      42.727  22.725  27.346  1.00  0.00     0.064 A 
ATOM     82  C   UNL A   1      41.803  21.745  27.762  1.00  0.00     0.173 A 
ATOM     83  C   UNL A   1      43.483  22.379  26.209  1.00  0.00     0.173 A 
ATOM     84  F   UNL A   1      40.923  21.982  28.742  1.00  0.00    -0.203 F 
ATOM     85  C   UNL A   1      41.750  20.475  27.182  1.00  0.00     0.198 A 
ATOM     86  C   UNL A   1      43.482  21.088  25.674  1.00  0.00     0.198 A 
ATOM     87  F   UNL A   1      44.208  23.295  25.553  1.00  0.00    -0.203 F 
ATOM     88  F   UNL A   1      40.856  19.580  27.626  1.00  0.00    -0.200 F 
ATOM     89  C   UNL A   1      42.624  20.130  26.172  1.00  0.00     0.200 A 
ATOM     90  F   UNL A   1      44.320  20.781  24.672  1.00  0.00    -0.200 F 
ATOM     91  F   UNL A   1      42.618  18.891  25.661  1.00  0.00    -0.200 F 
ENDBRANCH  67  81
BRANCH  68  92
ATOM     92  C   UNL A   1      43.898  31.577  31.212  1.00  0.00     0.064 A 
ATOM     93  C   UNL A   1      44.136  32.840  30.634  1.00  0.00     0.173 A 
ATOM     94  C   UNL A   1      42.664  31.364  31.833  1.00  0.00     0.173 A 
ATOM     95  F   UNL A   1      45.316  33.099  30.048  1.00  0.00    -0.203 F 
ATOM     96  C   UNL A   1      43.112  33.771  30.504  1.00  0.00     0.198 A 
ATOM     97  C   UNL A   1      41.652  32.317  31.734  1.00  0.00     0.198 A 
ATOM     98  F   UNL A   1      42.384  30.183  32.404  1.00  0.00    -0.203 F 
ATOM     99  F   UNL A   1      43.308  34.891  29.791  1.00  0.00    -0.200 F 
ATOM    100  C   UNL A   1      41.858  33.489  31.019  1.00  0.00     0.200 A 
ATOM    101  F   UNL A   1      40.437  32.046  32.230  1.00  0.00    -0.200 F 
ATOM    102  F   UNL A   1      40.836  34.323  30.780  1.00  0.00    -0.200 F 
ENDBRANCH  68  92
BRANCH  80 103
ATOM    103  C   UNL A   1      45.759  24.770  32.914  1.00  0.00     0.064 A 
ATOM    104  C   UNL A   1      47.016  24.572  33.509  1.00  0.00     0.173 A 
ATOM    105  C   UNL A   1      44.740  23.884  33.328  1.00  0.00     0.173 A 
ATOM    106  F   UNL A   1      48.081  25.288  33.122  1.00  0.00    -0.203 F 
ATOM    107  C   UNL A   1      47.218  23.612  34.504  1.00  0.00     0.198 A 
ATOM    108  C   UNL A   1      44.959  22.888  34.279  1.00  0.00     0.198 A 
ATOM    109  F   UNL A   1      43.493  23.967  32.845  1.00  0.00    -0.203 F 
ATOM    110  F   UNL A   1      48.418  23.506  35.092  1.00  0.00    -0.200 F 
ATOM    111  C   UNL A   1      46.192  22.764  34.883  1.00  0.00     0.200 A 
ATOM    112  F   UNL A   1      43.961  22.055  34.610  1.00  0.00    -0.200 F 
ATOM    113  F   UNL A   1      46.392  21.833  35.825  1.00  0.00    -0.200 F 
ENDBRANCH  80 103
ENDBRANCH  54  55
ENDBRANCH  46  49
ENDBRANCH  44  45
ENDBRANCH  43  44
ENDBRANCH  42  43
ENDBRANCH   3  42
TORSDOF 17
ENDMDL
MODEL 3
REMARK VINA RESULT:     -13.1      1.668      2.981
REMARK SMILES Cc1ccc(S(=O)(=O)n2cc(C(=O)C(=O)N[C@@H](Cc3c[nH]c4ccccc34)C(=O)NCCCNC(=O)c3ccc(-c4c5nc(c(-c6c(F)c(F)c(F)c(F)c6F)c6ccc([nH]6)c(-c6c(F)c(F)c(F)c(F)c6F)c6nc(c(-c7c(F)c(F)c(F)c(F)c7F)c7ccc4[nH]7)C=C6)C=C5)cc3)c3ccccc32)cc1
REMARK SMILES IDX 28 1 29 2 30 3 17 5 16 6 14 7 15 8 12 10 13 11 11 12 9 13
REMARK SMILES IDX 10 14 105 15 100 16 104 17 101 18 103 19 102 20 6 21 7 22
REMARK SMILES IDX 8 23 5 24 1 25 2 26 3 27 107 28 4 29 106 30 18 31 19 32
REMARK SMILES IDX 20 33 27 34 21 35 22 36 26 37 23 39 25 40 24 41 31 42 32 43
REMARK SMILES IDX 33 44 34 45 35 46 36 48 37 49 38 50 99 51 39 52 98 53 40 54
REMARK SMILES IDX 41 55 42 56 92 57 43 58 97 59 91 60 93 61 44 62 96 63 90 64
REMARK SMILES IDX 89 65 45 67 77 68 57 69 76 70 58 71 61 72 75 73 94 74 59 75
REMARK SMILES IDX 60 76 74 78 95 79 62 80 46 81 47 82 55 83 48 84 49 85 53 86
REMARK SMILES IDX 56 87 50 88 51 89 54 90 52 91 78 92 79 93 87 94 80 95 81 96
REMARK SMILES IDX 85 97 88 98 82 99 83 100 86 101 84 102 63 103 64 104 72 105
REMARK SMILES IDX 65 106 66 107 70 108 73 109 67 110 68 111 71 112 69 113
REMARK H PARENT 30 4 16 9 21 38 34 47 93 66 61 77
REMARK Flexibility Score: inf
ROOT
ATOM      1  C   UNL A   1      33.442  28.804  24.649  1.00  0.00     0.242 C 
ATOM      2  O   UNL A   1      33.818  29.080  23.502  1.00  0.00    -0.273 OA
ATOM      3  N   UNL A   1      34.408  28.858  25.607  1.00  0.00    -0.354 N 
ATOM      4  H   UNL A   1      35.296  28.565  25.299  1.00  0.00     0.163 HD
ENDROOT
BRANCH   1   5
ATOM      5  C   UNL A   1      31.939  28.528  24.913  1.00  0.00     0.176 C 
BRANCH   5   6
ATOM      6  N   UNL A   1      31.640  27.739  26.123  1.00  0.00    -0.337 N 
ATOM      7  C   UNL A   1      30.845  26.596  26.286  1.00  0.00     0.293 C 
ATOM      8  O   UNL A   1      30.593  26.176  27.395  1.00  0.00    -0.265 OA
ATOM      9  H   UNL A   1      32.067  28.068  26.947  1.00  0.00     0.164 HD
BRANCH   7  10
ATOM     10  C   UNL A   1      30.338  25.824  25.054  1.00  0.00     0.252 C 
ATOM     11  O   UNL A   1      29.311  26.270  24.545  1.00  0.00    -0.283 OA
BRANCH  10  12
ATOM     12  C   UNL A   1      30.959  24.575  24.553  1.00  0.00     0.054 A 
ATOM     13  N   UNL A   1      31.682  22.454  24.141  1.00  0.00    -0.240 N 
ATOM     14  C   UNL A   1      30.947  23.252  25.028  1.00  0.00     0.117 A 
ATOM     15  C   UNL A   1      31.981  23.249  23.020  1.00  0.00     0.065 A 
ATOM     16  C   UNL A   1      31.876  24.568  23.452  1.00  0.00     0.012 A 
ATOM     17  C   UNL A   1      32.609  22.924  21.799  1.00  0.00     0.028 A 
ATOM     18  C   UNL A   1      32.603  25.560  22.758  1.00  0.00     0.011 A 
ATOM     19  C   UNL A   1      33.377  23.905  21.177  1.00  0.00     0.002 A 
ATOM     20  C   UNL A   1      33.412  25.199  21.676  1.00  0.00     0.001 A 
BRANCH  13  21
ATOM     21  S   UNL A   1      33.032  21.398  24.533  1.00  0.00     0.268 S 
ATOM     22  O   UNL A   1      32.912  20.338  23.547  1.00  0.00    -0.201 OA
ATOM     23  O   UNL A   1      32.805  21.137  25.949  1.00  0.00    -0.201 OA
BRANCH  21  24
ATOM     24  C   UNL A   1      34.743  21.797  24.563  1.00  0.00     0.088 A 
ATOM     25  C   UNL A   1      38.910  22.302  25.623  1.00  0.00     0.044 C 
ATOM     26  C   UNL A   1      37.481  22.121  25.194  1.00  0.00    -0.051 A 
ATOM     27  C   UNL A   1      36.745  21.137  25.836  1.00  0.00     0.005 A 
ATOM     28  C   UNL A   1      36.841  22.925  24.222  1.00  0.00     0.005 A 
ATOM     29  C   UNL A   1      35.409  20.975  25.512  1.00  0.00     0.022 A 
ATOM     30  C   UNL A   1      35.463  22.775  23.902  1.00  0.00     0.022 A 
ENDBRANCH  21  24
ENDBRANCH  13  21
ENDBRANCH  10  12
ENDBRANCH   7  10
ENDBRANCH   5   6
BRANCH   5  31
ATOM     31  C   UNL A   1      31.024  29.772  24.696  1.00  0.00     0.072 C 
BRANCH  31  32
ATOM     32  C   UNL A   1      30.194  29.856  23.438  1.00  0.00    -0.020 A 
ATOM     33  C   UNL A   1      30.137  28.892  22.441  1.00  0.00     0.087 A 
ATOM     34  C   UNL A   1      29.335  30.924  23.006  1.00  0.00     0.003 A 
ATOM     35  N   UNL A   1      29.404  29.388  21.392  1.00  0.00    -0.361 N 
ATOM     36  C   UNL A   1      28.971  30.660  21.683  1.00  0.00     0.046 A 
ATOM     37  C   UNL A   1      28.908  32.139  23.581  1.00  0.00     0.010 A 
ATOM     38  H   UNL A   1      29.216  28.904  20.555  1.00  0.00     0.166 HD
ATOM     39  C   UNL A   1      28.306  31.593  20.877  1.00  0.00     0.026 A 
ATOM     40  C   UNL A   1      28.274  33.096  22.781  1.00  0.00     0.001 A 
ATOM     41  C   UNL A   1      28.002  32.835  21.443  1.00  0.00     0.002 A 
ENDBRANCH  31  32
ENDBRANCH   5  31
ENDBRANCH   1   5
BRANCH   3  42
ATOM     42  C   UNL A   1      34.367  29.269  26.998  1.00  0.00     0.117 C 
BRANCH  42  43
ATOM     43  C   UNL A   1      33.975  30.717  27.230  1.00  0.00     0.042 C 
BRANCH  43  44
ATOM     44  C   UNL A   1      34.931  31.408  28.192  1.00  0.00     0.118 C 
BRANCH  44  45
ATOM     45  N   UNL A   1      35.212  30.736  29.461  1.00  0.00    -0.352 N 
ATOM     46  C   UNL A   1      36.424  30.209  29.902  1.00  0.00     0.251 C 
ATOM     47  H   UNL A   1      34.451  30.644  30.078  1.00  0.00     0.163 HD
ATOM     48  O   UNL A   1      36.515  29.632  30.979  1.00  0.00    -0.269 OA
BRANCH  46  49
ATOM     49  C   UNL A   1      37.640  30.487  29.094  1.00  0.00     0.039 A 
ATOM     50  C   UNL A   1      37.821  29.719  27.941  1.00  0.00     0.014 A 
ATOM     51  C   UNL A   1      38.722  31.088  29.723  1.00  0.00     0.014 A 
ATOM     52  C   UNL A   1      39.098  29.257  27.639  1.00  0.00     0.010 A 
ATOM     53  C   UNL A   1      39.964  30.518  29.513  1.00  0.00     0.010 A 
ATOM     54  C   UNL A   1      40.134  29.534  28.529  1.00  0.00    -0.014 A 
BRANCH  54  55
ATOM     55  C   UNL A   1      41.371  28.758  28.578  1.00  0.00     0.031 A 
ATOM     56  C   UNL A   1      41.321  27.287  28.442  1.00  0.00     0.074 A 
ATOM     57  C   UNL A   1      42.583  29.354  28.696  1.00  0.00     0.049 A 
ATOM     58  N   UNL A   1      42.201  26.490  28.949  1.00  0.00    -0.248 NA
ATOM     59  C   UNL A   1      40.249  26.593  27.741  1.00  0.00     0.031 C 
ATOM     60  C   UNL A   1      43.891  28.722  28.516  1.00  0.00     0.029 A 
ATOM     61  N   UNL A   1      42.890  30.636  29.184  1.00  0.00    -0.354 N 
ATOM     62  C   UNL A   1      41.973  25.237  28.434  1.00  0.00     0.074 A 
ATOM     63  C   UNL A   1      40.717  25.343  27.727  1.00  0.00     0.031 C 
ATOM     64  C   UNL A   1      44.820  29.445  29.157  1.00  0.00     0.029 A 
ATOM     65  C   UNL A   1      44.135  30.511  29.858  1.00  0.00     0.049 A 
ATOM     66  H   UNL A   1      42.353  31.454  29.079  1.00  0.00     0.167 HD
ATOM     67  C   UNL A   1      42.926  24.271  28.561  1.00  0.00     0.037 A 
ATOM     68  C   UNL A   1      44.256  30.798  31.187  1.00  0.00     0.037 A 
ATOM     69  C   UNL A   1      44.100  24.755  29.284  1.00  0.00     0.049 A 
ATOM     70  C   UNL A   1      44.627  29.610  32.052  1.00  0.00     0.074 A 
ATOM     71  C   UNL A   1      45.353  25.205  28.901  1.00  0.00     0.029 A 
ATOM     72  N   UNL A   1      43.967  25.105  30.615  1.00  0.00    -0.354 N 
ATOM     73  N   UNL A   1      44.878  28.415  31.596  1.00  0.00    -0.248 NA
ATOM     74  C   UNL A   1      44.622  29.657  33.515  1.00  0.00     0.031 C 
ATOM     75  C   UNL A   1      45.978  25.806  30.030  1.00  0.00     0.029 A 
ATOM     76  C   UNL A   1      45.105  25.721  31.098  1.00  0.00     0.049 A 
ATOM     77  H   UNL A   1      43.160  24.937  31.152  1.00  0.00     0.167 HD
ATOM     78  C   UNL A   1      44.972  27.539  32.647  1.00  0.00     0.074 A 
ATOM     79  C   UNL A   1      44.808  28.364  33.828  1.00  0.00     0.031 C 
ATOM     80  C   UNL A   1      45.119  26.193  32.473  1.00  0.00     0.037 A 
BRANCH  67  81
ATOM     81  C   UNL A   1      42.879  22.967  27.805  1.00  0.00     0.064 A 
ATOM     82  C   UNL A   1      43.691  22.754  26.673  1.00  0.00     0.173 A 
ATOM     83  C   UNL A   1      42.015  21.900  28.120  1.00  0.00     0.173 A 
ATOM     84  F   UNL A   1      44.653  23.618  26.329  1.00  0.00    -0.203 F 
ATOM     85  C   UNL A   1      43.544  21.637  25.847  1.00  0.00     0.198 A 
ATOM     86  C   UNL A   1      41.816  20.818  27.259  1.00  0.00     0.198 A 
ATOM     87  F   UNL A   1      41.376  21.849  29.297  1.00  0.00    -0.203 F 
ATOM     88  F   UNL A   1      44.341  21.492  24.778  1.00  0.00    -0.200 F 
ATOM     89  C   UNL A   1      42.572  20.694  26.112  1.00  0.00     0.200 A 
ATOM     90  F   UNL A   1      40.886  19.897  27.550  1.00  0.00    -0.200 F 
ATOM     91  F   UNL A   1      42.387  19.658  25.284  1.00  0.00    -0.200 F 
ENDBRANCH  67  81
BRANCH  68  92
ATOM     92  C   UNL A   1      43.366  31.919  31.586  1.00  0.00     0.064 A 
ATOM     93  C   UNL A   1      42.195  31.591  32.297  1.00  0.00     0.173 A 
ATOM     94  C   UNL A   1      43.862  33.221  31.708  1.00  0.00     0.173 A 
ATOM     95  F   UNL A   1      41.668  30.360  32.191  1.00  0.00    -0.203 F 
ATOM     96  C   UNL A   1      41.666  32.460  33.245  1.00  0.00     0.198 A 
ATOM     97  C   UNL A   1      43.304  34.103  32.631  1.00  0.00     0.198 A 
ATOM     98  F   UNL A   1      44.970  33.592  31.050  1.00  0.00    -0.203 F 
ATOM     99  F   UNL A   1      40.663  32.058  34.040  1.00  0.00    -0.200 F 
ATOM    100  C   UNL A   1      42.249  33.701  33.439  1.00  0.00     0.200 A 
ATOM    101  F   UNL A   1      43.867  35.304  32.822  1.00  0.00    -0.200 F 
ATOM    102  F   UNL A   1      41.827  34.487  34.439  1.00  0.00    -0.200 F 
ENDBRANCH  68  92
BRANCH  80 103
ATOM    103  C   UNL A   1      45.266  25.211  33.606  1.00  0.00     0.064 A 
ATOM    104  C   UNL A   1      46.476  24.554  33.882  1.00  0.00     0.173 A 
ATOM    105  C   UNL A   1      44.159  24.809  34.388  1.00  0.00     0.173 A 
ATOM    106  F   UNL A   1      47.568  24.782  33.137  1.00  0.00    -0.203 F 
ATOM    107  C   UNL A   1      46.591  23.623  34.917  1.00  0.00     0.198 A 
ATOM    108  C   UNL A   1      44.264  23.837  35.382  1.00  0.00     0.198 A 
ATOM    109  F   UNL A   1      42.948  25.360  34.232  1.00  0.00    -0.203 F 
ATOM    110  F   UNL A   1      47.783  23.073  35.187  1.00  0.00    -0.200 F 
ATOM    111  C   UNL A   1      45.483  23.259  35.662  1.00  0.00     0.200 A 
ATOM    112  F   UNL A   1      43.172  23.474  36.072  1.00  0.00    -0.200 F 
ATOM    113  F   UNL A   1      45.592  22.354  36.643  1.00  0.00    -0.200 F 
ENDBRANCH  80 103
ENDBRANCH  54  55
ENDBRANCH  46  49
ENDBRANCH  44  45
ENDBRANCH  43  44
ENDBRANCH  42  43
ENDBRANCH   3  42
TORSDOF 17
ENDMDL
