MODEL 1
REMARK VINA RESULT:     -10.9      0.000      0.000
REMARK SMILES CCCNC(=O)c1cnn([C@@H](C)C(=O)NCCCNC(=O)c2ccc(-c3c4nc(c(-c5c(F)c(F)c(F)c(F)c5F)c5ccc([nH]5)c(-c5c(F)c(F)c(F)c(F)c5F)c5nc(c(-c6c(F)c(F)c(F)c(F)c6F)c6ccc3[nH]6)C=C5)C=C4)cc2)c1
REMARK SMILES IDX 16 1 15 2 13 3 14 4 11 6 12 7 10 8 7 9 8 10 85 11 9 12 5 13
REMARK SMILES IDX 4 14 6 16 3 17 2 18 1 19 17 20 18 21 19 22 20 23 21 25 22 26
REMARK SMILES IDX 23 27 84 28 24 29 83 30 25 31 26 32 27 33 77 34 28 35 82 36
REMARK SMILES IDX 76 37 78 38 29 39 81 40 75 41 74 42 30 44 62 45 42 46 61 47
REMARK SMILES IDX 43 48 46 49 60 50 79 51 44 52 45 53 59 55 80 56 47 57 31 58
REMARK SMILES IDX 32 59 40 60 33 61 34 62 38 63 41 64 35 65 36 66 39 67 37 68
REMARK SMILES IDX 63 69 64 70 72 71 65 72 66 73 70 74 73 75 67 76 68 77 71 78
REMARK SMILES IDX 69 79 48 80 49 81 57 82 50 83 51 84 55 85 58 86 52 87 53 88
REMARK SMILES IDX 56 89 54 90
REMARK H PARENT 15 5 4 15 19 24 78 43 46 54
REMARK Flexibility Score: inf
ROOT
ATOM      1  C   UNL A   1      37.218  30.660  32.281  1.00  0.00     0.117 C 
ENDROOT
BRANCH   1   2
ATOM      2  N   UNL A   1      37.347  30.735  33.734  1.00  0.00    -0.354 N 
ATOM      3  C   UNL A   1      37.635  31.769  34.576  1.00  0.00     0.244 C 
ATOM      4  O   UNL A   1      37.720  31.477  35.777  1.00  0.00    -0.273 OA
ATOM      5  H   UNL A   1      37.197  29.876  34.193  1.00  0.00     0.163 HD
BRANCH   3   6
ATOM      6  C   UNL A   1      37.814  33.227  34.144  1.00  0.00     0.193 C 
ATOM      7  C   UNL A   1      38.826  34.010  34.975  1.00  0.00     0.044 C 
BRANCH   6   8
ATOM      8  N   UNL A   1      36.539  33.907  33.969  1.00  0.00    -0.260 N 
ATOM      9  C   UNL A   1      34.929  35.293  33.352  1.00  0.00     0.077 A 
ATOM     10  C   UNL A   1      34.449  34.076  33.863  1.00  0.00     0.149 A 
ATOM     11  C   UNL A   1      36.307  35.131  33.403  1.00  0.00     0.123 A 
ATOM     12  N   UNL A   1      35.409  33.327  34.397  1.00  0.00    -0.180 NA
BRANCH   9  13
ATOM     13  C   UNL A   1      34.213  36.425  32.804  1.00  0.00     0.254 C 
ATOM     14  N   UNL A   1      33.704  36.362  31.528  1.00  0.00    -0.352 N 
ATOM     15  H   UNL A   1      33.374  37.223  31.181  1.00  0.00     0.163 HD
ATOM     16  O   UNL A   1      34.035  37.454  33.452  1.00  0.00    -0.269 OA
BRANCH  14  17
ATOM     17  C   UNL A   1      33.566  35.250  30.599  1.00  0.00     0.116 C 
BRANCH  17  18
ATOM     18  C   UNL A   1      33.402  35.705  29.154  1.00  0.00     0.018 C 
ATOM     19  C   UNL A   1      34.528  35.213  28.262  1.00  0.00     0.006 C 
ENDBRANCH  17  18
ENDBRANCH  14  17
ENDBRANCH   9  13
ENDBRANCH   6   8
ENDBRANCH   3   6
ENDBRANCH   1   2
BRANCH   1  20
ATOM     20  C   UNL A   1      35.770  30.749  31.785  1.00  0.00     0.042 C 
BRANCH  20  21
ATOM     21  C   UNL A   1      35.448  32.042  31.073  1.00  0.00     0.118 C 
BRANCH  21  22
ATOM     22  N   UNL A   1      34.655  31.864  29.863  1.00  0.00    -0.352 N 
ATOM     23  C   UNL A   1      35.114  31.541  28.599  1.00  0.00     0.251 C 
ATOM     24  H   UNL A   1      33.683  31.989  29.955  1.00  0.00     0.163 HD
ATOM     25  O   UNL A   1      34.434  31.746  27.611  1.00  0.00    -0.269 OA
BRANCH  23  26
ATOM     26  C   UNL A   1      36.474  30.975  28.472  1.00  0.00     0.039 A 
ATOM     27  C   UNL A   1      37.593  31.758  28.754  1.00  0.00     0.014 A 
ATOM     28  C   UNL A   1      36.616  29.630  28.143  1.00  0.00     0.014 A 
ATOM     29  C   UNL A   1      38.838  31.142  28.801  1.00  0.00     0.010 A 
ATOM     30  C   UNL A   1      37.813  28.991  28.365  1.00  0.00     0.010 A 
ATOM     31  C   UNL A   1      38.940  29.744  28.655  1.00  0.00    -0.014 A 
BRANCH  31  32
ATOM     32  C   UNL A   1      40.210  29.076  28.937  1.00  0.00     0.031 A 
ATOM     33  C   UNL A   1      40.485  28.913  30.387  1.00  0.00     0.074 A 
ATOM     34  C   UNL A   1      41.033  28.531  28.013  1.00  0.00     0.049 A 
ATOM     35  N   UNL A   1      41.308  29.614  31.089  1.00  0.00    -0.248 NA
ATOM     36  C   UNL A   1      39.646  28.006  31.185  1.00  0.00     0.031 C 
ATOM     37  C   UNL A   1      40.786  28.341  26.580  1.00  0.00     0.029 A 
ATOM     38  N   UNL A   1      42.259  27.951  28.185  1.00  0.00    -0.354 N 
ATOM     39  C   UNL A   1      41.268  29.082  32.372  1.00  0.00     0.074 A 
ATOM     40  C   UNL A   1      40.101  28.241  32.419  1.00  0.00     0.031 C 
ATOM     41  C   UNL A   1      41.704  27.495  26.068  1.00  0.00     0.029 A 
ATOM     42  C   UNL A   1      42.710  27.238  27.079  1.00  0.00     0.049 A 
ATOM     43  H   UNL A   1      42.778  28.032  29.018  1.00  0.00     0.167 HD
ATOM     44  C   UNL A   1      42.380  29.145  33.156  1.00  0.00     0.037 A 
ATOM     45  C   UNL A   1      43.841  26.497  26.992  1.00  0.00     0.037 A 
ATOM     46  C   UNL A   1      43.331  30.079  32.598  1.00  0.00     0.049 A 
ATOM     47  C   UNL A   1      44.786  27.029  27.997  1.00  0.00     0.074 A 
ATOM     48  C   UNL A   1      43.417  31.442  32.417  1.00  0.00     0.029 A 
ATOM     49  N   UNL A   1      44.223  29.499  31.739  1.00  0.00    -0.354 N 
ATOM     50  N   UNL A   1      45.336  28.208  27.916  1.00  0.00    -0.248 NA
ATOM     51  C   UNL A   1      44.889  26.377  29.297  1.00  0.00     0.031 C 
ATOM     52  C   UNL A   1      44.237  31.634  31.261  1.00  0.00     0.029 A 
ATOM     53  C   UNL A   1      44.666  30.389  30.803  1.00  0.00     0.049 A 
ATOM     54  H   UNL A   1      44.510  28.559  31.789  1.00  0.00     0.167 HD
ATOM     55  C   UNL A   1      45.430  28.625  29.228  1.00  0.00     0.074 A 
ATOM     56  C   UNL A   1      45.339  27.404  30.021  1.00  0.00     0.031 C 
ATOM     57  C   UNL A   1      45.232  29.935  29.552  1.00  0.00     0.037 A 
BRANCH  44  58
ATOM     58  C   UNL A   1      42.869  28.014  34.047  1.00  0.00     0.064 A 
ATOM     59  C   UNL A   1      43.132  28.298  35.406  1.00  0.00     0.173 A 
ATOM     60  C   UNL A   1      43.432  26.812  33.564  1.00  0.00     0.173 A 
ATOM     61  F   UNL A   1      42.659  29.419  35.972  1.00  0.00    -0.203 F 
ATOM     62  C   UNL A   1      43.977  27.499  36.181  1.00  0.00     0.198 A 
ATOM     63  C   UNL A   1      44.237  25.993  34.356  1.00  0.00     0.198 A 
ATOM     64  F   UNL A   1      43.337  26.435  32.286  1.00  0.00    -0.203 F 
ATOM     65  F   UNL A   1      44.311  27.888  37.420  1.00  0.00    -0.200 F 
ATOM     66  C   UNL A   1      44.539  26.353  35.651  1.00  0.00     0.200 A 
ATOM     67  F   UNL A   1      44.792  24.899  33.816  1.00  0.00    -0.200 F 
ATOM     68  F   UNL A   1      45.407  25.625  36.365  1.00  0.00    -0.200 F 
ENDBRANCH  44  58
BRANCH  45  69
ATOM     69  C   UNL A   1      44.096  25.239  26.251  1.00  0.00     0.064 A 
ATOM     70  C   UNL A   1      45.163  25.148  25.339  1.00  0.00     0.173 A 
ATOM     71  C   UNL A   1      43.509  24.023  26.648  1.00  0.00     0.173 A 
ATOM     72  F   UNL A   1      45.794  26.256  24.923  1.00  0.00    -0.203 F 
ATOM     73  C   UNL A   1      45.658  23.915  24.908  1.00  0.00     0.198 A 
ATOM     74  C   UNL A   1      43.999  22.791  26.208  1.00  0.00     0.198 A 
ATOM     75  F   UNL A   1      42.516  23.998  27.548  1.00  0.00    -0.203 F 
ATOM     76  F   UNL A   1      46.736  23.870  24.111  1.00  0.00    -0.200 F 
ATOM     77  C   UNL A   1      45.089  22.737  25.359  1.00  0.00     0.200 A 
ATOM     78  F   UNL A   1      43.458  21.657  26.674  1.00  0.00    -0.200 F 
ATOM     79  F   UNL A   1      45.615  21.554  25.011  1.00  0.00    -0.200 F 
ENDBRANCH  45  69
BRANCH  57  80
ATOM     80  C   UNL A   1      45.476  30.951  28.479  1.00  0.00     0.064 A 
ATOM     81  C   UNL A   1      44.520  31.385  27.548  1.00  0.00     0.173 A 
ATOM     82  C   UNL A   1      46.739  31.560  28.444  1.00  0.00     0.173 A 
ATOM     83  F   UNL A   1      43.268  30.910  27.566  1.00  0.00    -0.203 F 
ATOM     84  C   UNL A   1      44.836  32.354  26.594  1.00  0.00     0.198 A 
ATOM     85  C   UNL A   1      47.037  32.554  27.520  1.00  0.00     0.198 A 
ATOM     86  F   UNL A   1      47.679  31.208  29.336  1.00  0.00    -0.203 F 
ATOM     87  F   UNL A   1      43.918  32.736  25.694  1.00  0.00    -0.200 F 
ATOM     88  C   UNL A   1      46.091  32.941  26.587  1.00  0.00     0.200 A 
ATOM     89  F   UNL A   1      48.240  33.146  27.545  1.00  0.00    -0.200 F 
ATOM     90  F   UNL A   1      46.384  33.895  25.692  1.00  0.00    -0.200 F 
ENDBRANCH  57  80
ENDBRANCH  31  32
ENDBRANCH  23  26
ENDBRANCH  21  22
ENDBRANCH  20  21
ENDBRANCH   1  20
TORSDOF 14
ENDMDL
MODEL 2
REMARK VINA RESULT:     -10.7      3.592      6.179
REMARK SMILES CCCNC(=O)c1cnn([C@@H](C)C(=O)NCCCNC(=O)c2ccc(-c3c4nc(c(-c5c(F)c(F)c(F)c(F)c5F)c5ccc([nH]5)c(-c5c(F)c(F)c(F)c(F)c5F)c5nc(c(-c6c(F)c(F)c(F)c(F)c6F)c6ccc3[nH]6)C=C5)C=C4)cc2)c1
REMARK SMILES IDX 16 1 15 2 13 3 14 4 11 6 12 7 10 8 7 9 8 10 85 11 9 12 5 13
REMARK SMILES IDX 4 14 6 16 3 17 2 18 1 19 17 20 18 21 19 22 20 23 21 25 22 26
REMARK SMILES IDX 23 27 84 28 24 29 83 30 25 31 26 32 27 33 77 34 28 35 82 36
REMARK SMILES IDX 76 37 78 38 29 39 81 40 75 41 74 42 30 44 62 45 42 46 61 47
REMARK SMILES IDX 43 48 46 49 60 50 79 51 44 52 45 53 59 55 80 56 47 57 31 58
REMARK SMILES IDX 32 59 40 60 33 61 34 62 38 63 41 64 35 65 36 66 39 67 37 68
REMARK SMILES IDX 63 69 64 70 72 71 65 72 66 73 70 74 73 75 67 76 68 77 71 78
REMARK SMILES IDX 69 79 48 80 49 81 57 82 50 83 51 84 55 85 58 86 52 87 53 88
REMARK SMILES IDX 56 89 54 90
REMARK H PARENT 15 5 4 15 19 24 78 43 46 54
REMARK Flexibility Score: inf
ROOT
ATOM      1  C   UNL A   1      34.000  29.768  27.541  1.00  0.00     0.117 C 
ENDROOT
BRANCH   1   2
ATOM      2  N   UNL A   1      32.921  28.792  27.671  1.00  0.00    -0.354 N 
ATOM      3  C   UNL A   1      32.095  28.212  26.753  1.00  0.00     0.244 C 
ATOM      4  O   UNL A   1      31.234  27.447  27.211  1.00  0.00    -0.273 OA
ATOM      5  H   UNL A   1      32.759  28.497  28.596  1.00  0.00     0.163 HD
BRANCH   3   6
ATOM      6  C   UNL A   1      32.191  28.411  25.238  1.00  0.00     0.193 C 
ATOM      7  C   UNL A   1      30.955  29.042  24.606  1.00  0.00     0.044 C 
BRANCH   6   8
ATOM      8  N   UNL A   1      32.658  27.212  24.557  1.00  0.00    -0.260 N 
ATOM      9  C   UNL A   1      33.048  25.618  23.073  1.00  0.00     0.077 A 
ATOM     10  C   UNL A   1      33.973  25.632  24.130  1.00  0.00     0.149 A 
ATOM     11  C   UNL A   1      32.221  26.692  23.368  1.00  0.00     0.123 A 
ATOM     12  N   UNL A   1      33.629  26.468  25.105  1.00  0.00    -0.180 NA
BRANCH   9  13
ATOM     13  C   UNL A   1      32.986  24.778  21.895  1.00  0.00     0.254 C 
ATOM     14  N   UNL A   1      32.585  23.469  22.007  1.00  0.00    -0.352 N 
ATOM     15  H   UNL A   1      32.722  22.932  21.192  1.00  0.00     0.163 HD
ATOM     16  O   UNL A   1      33.279  25.206  20.781  1.00  0.00    -0.269 OA
BRANCH  14  17
ATOM     17  C   UNL A   1      31.992  22.733  23.114  1.00  0.00     0.116 C 
BRANCH  17  18
ATOM     18  C   UNL A   1      32.992  21.830  23.826  1.00  0.00     0.018 C 
ATOM     19  C   UNL A   1      32.528  20.386  23.885  1.00  0.00     0.006 C 
ENDBRANCH  17  18
ENDBRANCH  14  17
ENDBRANCH   9  13
ENDBRANCH   6   8
ENDBRANCH   3   6
ENDBRANCH   1   2
BRANCH   1  20
ATOM     20  C   UNL A   1      33.520  31.225  27.561  1.00  0.00     0.042 C 
BRANCH  20  21
ATOM     21  C   UNL A   1      34.597  32.216  27.932  1.00  0.00     0.118 C 
BRANCH  21  22
ATOM     22  N   UNL A   1      34.584  32.596  29.339  1.00  0.00    -0.352 N 
ATOM     23  C   UNL A   1      35.338  32.051  30.363  1.00  0.00     0.251 C 
ATOM     24  H   UNL A   1      33.968  33.322  29.589  1.00  0.00     0.163 HD
ATOM     25  O   UNL A   1      35.016  32.198  31.528  1.00  0.00    -0.269 OA
BRANCH  23  26
ATOM     26  C   UNL A   1      36.527  31.249  30.005  1.00  0.00     0.039 A 
ATOM     27  C   UNL A   1      37.725  31.876  29.668  1.00  0.00     0.014 A 
ATOM     28  C   UNL A   1      36.451  29.861  30.084  1.00  0.00     0.014 A 
ATOM     29  C   UNL A   1      38.864  31.092  29.517  1.00  0.00     0.010 A 
ATOM     30  C   UNL A   1      37.603  29.111  30.113  1.00  0.00     0.010 A 
ATOM     31  C   UNL A   1      38.811  29.711  29.790  1.00  0.00    -0.014 A 
BRANCH  31  32
ATOM     32  C   UNL A   1      40.050  28.937  29.859  1.00  0.00     0.031 A 
ATOM     33  C   UNL A   1      40.553  28.745  31.242  1.00  0.00     0.074 A 
ATOM     34  C   UNL A   1      40.655  28.329  28.814  1.00  0.00     0.049 A 
ATOM     35  N   UNL A   1      41.540  29.372  31.788  1.00  0.00    -0.248 NA
ATOM     36  C   UNL A   1      39.790  27.908  32.180  1.00  0.00     0.031 C 
ATOM     37  C   UNL A   1      40.152  28.166  27.446  1.00  0.00     0.029 A 
ATOM     38  N   UNL A   1      41.839  27.647  28.780  1.00  0.00    -0.354 N 
ATOM     39  C   UNL A   1      41.674  28.840  33.064  1.00  0.00     0.074 A 
ATOM     40  C   UNL A   1      40.466  28.099  33.317  1.00  0.00     0.031 C 
ATOM     41  C   UNL A   1      40.896  27.248  26.794  1.00  0.00     0.029 A 
ATOM     42  C   UNL A   1      42.034  26.903  27.622  1.00  0.00     0.049 A 
ATOM     43  H   UNL A   1      42.497  27.680  29.512  1.00  0.00     0.167 HD
ATOM     44  C   UNL A   1      42.904  28.805  33.646  1.00  0.00     0.037 A 
ATOM     45  C   UNL A   1      43.067  26.069  27.351  1.00  0.00     0.037 A 
ATOM     46  C   UNL A   1      43.821  29.658  32.925  1.00  0.00     0.049 A 
ATOM     47  C   UNL A   1      44.211  26.515  28.175  1.00  0.00     0.074 A 
ATOM     48  C   UNL A   1      43.989  31.009  32.718  1.00  0.00     0.029 A 
ATOM     49  N   UNL A   1      44.503  29.008  31.933  1.00  0.00    -0.354 N 
ATOM     50  N   UNL A   1      44.836  27.645  27.990  1.00  0.00    -0.248 NA
ATOM     51  C   UNL A   1      44.479  25.852  29.445  1.00  0.00     0.031 C 
ATOM     52  C   UNL A   1      44.614  31.137  31.438  1.00  0.00     0.029 A 
ATOM     53  C   UNL A   1      44.853  29.862  30.926  1.00  0.00     0.049 A 
ATOM     54  H   UNL A   1      44.714  28.047  31.943  1.00  0.00     0.167 HD
ATOM     55  C   UNL A   1      45.187  28.046  29.263  1.00  0.00     0.074 A 
ATOM     56  C   UNL A   1      45.130  26.835  30.072  1.00  0.00     0.031 C 
ATOM     57  C   UNL A   1      45.157  29.368  29.602  1.00  0.00     0.037 A 
BRANCH  44  58
ATOM     58  C   UNL A   1      43.442  27.633  34.452  1.00  0.00     0.064 A 
ATOM     59  C   UNL A   1      43.500  26.365  33.832  1.00  0.00     0.173 A 
ATOM     60  C   UNL A   1      43.539  27.618  35.861  1.00  0.00     0.173 A 
ATOM     61  F   UNL A   1      43.405  26.253  32.498  1.00  0.00    -0.203 F 
ATOM     62  C   UNL A   1      43.542  25.178  34.571  1.00  0.00     0.198 A 
ATOM     63  C   UNL A   1      43.629  26.433  36.591  1.00  0.00     0.198 A 
ATOM     64  F   UNL A   1      43.430  28.725  36.601  1.00  0.00    -0.203 F 
ATOM     65  F   UNL A   1      43.449  23.998  33.942  1.00  0.00    -0.200 F 
ATOM     66  C   UNL A   1      43.594  25.214  35.951  1.00  0.00     0.200 A 
ATOM     67  F   UNL A   1      43.653  26.489  37.930  1.00  0.00    -0.200 F 
ATOM     68  F   UNL A   1      43.559  24.082  36.665  1.00  0.00    -0.200 F 
ENDBRANCH  44  58
BRANCH  45  69
ATOM     69  C   UNL A   1      43.086  24.798  26.590  1.00  0.00     0.064 A 
ATOM     70  C   UNL A   1      43.879  24.665  25.436  1.00  0.00     0.173 A 
ATOM     71  C   UNL A   1      42.587  23.604  27.145  1.00  0.00     0.173 A 
ATOM     72  F   UNL A   1      44.414  25.748  24.853  1.00  0.00    -0.203 F 
ATOM     73  C   UNL A   1      44.211  23.413  24.912  1.00  0.00     0.198 A 
ATOM     74  C   UNL A   1      42.912  22.354  26.614  1.00  0.00     0.198 A 
ATOM     75  F   UNL A   1      41.859  23.620  28.270  1.00  0.00    -0.203 F 
ATOM     76  F   UNL A   1      45.045  23.326  23.866  1.00  0.00    -0.200 F 
ATOM     77  C   UNL A   1      43.744  22.257  25.514  1.00  0.00     0.200 A 
ATOM     78  F   UNL A   1      42.476  21.241  27.223  1.00  0.00    -0.200 F 
ATOM     79  F   UNL A   1      44.127  21.055  25.062  1.00  0.00    -0.200 F 
ENDBRANCH  45  69
BRANCH  57  80
ATOM     80  C   UNL A   1      45.299  30.364  28.493  1.00  0.00     0.064 A 
ATOM     81  C   UNL A   1      44.236  30.897  27.747  1.00  0.00     0.173 A 
ATOM     82  C   UNL A   1      46.588  30.847  28.222  1.00  0.00     0.173 A 
ATOM     83  F   UNL A   1      42.968  30.546  27.999  1.00  0.00    -0.203 F 
ATOM     84  C   UNL A   1      44.466  31.839  26.743  1.00  0.00     0.198 A 
ATOM     85  C   UNL A   1      46.808  31.815  27.250  1.00  0.00     0.198 A 
ATOM     86  F   UNL A   1      47.636  30.397  28.931  1.00  0.00    -0.203 F 
ATOM     87  F   UNL A   1      43.440  32.315  26.022  1.00  0.00    -0.200 F 
ATOM     88  C   UNL A   1      45.750  32.300  26.501  1.00  0.00     0.200 A 
ATOM     89  F   UNL A   1      48.047  32.287  27.050  1.00  0.00    -0.200 F 
ATOM     90  F   UNL A   1      45.966  33.228  25.559  1.00  0.00    -0.200 F 
ENDBRANCH  57  80
ENDBRANCH  31  32
ENDBRANCH  23  26
ENDBRANCH  21  22
ENDBRANCH  20  21
ENDBRANCH   1  20
TORSDOF 14
ENDMDL
MODEL 3
REMARK VINA RESULT:     -10.6      4.767     10.266
REMARK SMILES CCCNC(=O)c1cnn([C@@H](C)C(=O)NCCCNC(=O)c2ccc(-c3c4nc(c(-c5c(F)c(F)c(F)c(F)c5F)c5ccc([nH]5)c(-c5c(F)c(F)c(F)c(F)c5F)c5nc(c(-c6c(F)c(F)c(F)c(F)c6F)c6ccc3[nH]6)C=C5)C=C4)cc2)c1
REMARK SMILES IDX 16 1 15 2 13 3 14 4 11 6 12 7 10 8 7 9 8 10 85 11 9 12 5 13
REMARK SMILES IDX 4 14 6 16 3 17 2 18 1 19 17 20 18 21 19 22 20 23 21 25 22 26
REMARK SMILES IDX 23 27 84 28 24 29 83 30 25 31 26 32 27 33 77 34 28 35 82 36
REMARK SMILES IDX 76 37 78 38 29 39 81 40 75 41 74 42 30 44 62 45 42 46 61 47
REMARK SMILES IDX 43 48 46 49 60 50 79 51 44 52 45 53 59 55 80 56 47 57 31 58
REMARK SMILES IDX 32 59 40 60 33 61 34 62 38 63 41 64 35 65 36 66 39 67 37 68
REMARK SMILES IDX 63 69 64 70 72 71 65 72 66 73 70 74 73 75 67 76 68 77 71 78
REMARK SMILES IDX 69 79 48 80 49 81 57 82 50 83 51 84 55 85 58 86 52 87 53 88
REMARK SMILES IDX 56 89 54 90
REMARK H PARENT 15 5 4 15 19 24 78 43 46 54
REMARK Flexibility Score: inf
ROOT
ATOM      1  C   UNL A   1      36.952  22.917  25.264  1.00  0.00     0.117 C 
ENDROOT
BRANCH   1   2
ATOM      2  N   UNL A   1      36.034  22.873  26.398  1.00  0.00    -0.354 N 
ATOM      3  C   UNL A   1      34.673  22.797  26.473  1.00  0.00     0.244 C 
ATOM      4  O   UNL A   1      34.194  22.831  27.616  1.00  0.00    -0.273 OA
ATOM      5  H   UNL A   1      36.480  22.903  27.275  1.00  0.00     0.163 HD
BRANCH   3   6
ATOM      6  C   UNL A   1      33.736  22.636  25.272  1.00  0.00     0.193 C 
ATOM      7  C   UNL A   1      33.966  21.366  24.460  1.00  0.00     0.044 C 
BRANCH   6   8
ATOM      8  N   UNL A   1      33.662  23.849  24.470  1.00  0.00    -0.260 N 
ATOM      9  C   UNL A   1      33.193  25.351  22.915  1.00  0.00     0.077 A 
ATOM     10  C   UNL A   1      33.691  25.915  24.101  1.00  0.00     0.149 A 
ATOM     11  C   UNL A   1      33.154  23.994  23.207  1.00  0.00     0.123 A 
ATOM     12  N   UNL A   1      34.140  25.003  24.957  1.00  0.00    -0.180 NA
BRANCH   9  13
ATOM     13  C   UNL A   1      32.728  25.986  21.700  1.00  0.00     0.254 C 
ATOM     14  N   UNL A   1      31.591  26.758  21.722  1.00  0.00    -0.352 N 
ATOM     15  H   UNL A   1      31.262  27.019  20.831  1.00  0.00     0.163 HD
ATOM     16  O   UNL A   1      33.328  25.860  20.634  1.00  0.00    -0.269 OA
BRANCH  14  17
ATOM     17  C   UNL A   1      30.788  27.261  22.827  1.00  0.00     0.116 C 
BRANCH  17  18
ATOM     18  C   UNL A   1      31.086  28.718  23.159  1.00  0.00     0.018 C 
ATOM     19  C   UNL A   1      31.519  28.905  24.601  1.00  0.00     0.006 C 
ENDBRANCH  17  18
ENDBRANCH  14  17
ENDBRANCH   9  13
ENDBRANCH   6   8
ENDBRANCH   3   6
ENDBRANCH   1   2
BRANCH   1  20
ATOM     20  C   UNL A   1      38.084  21.886  25.346  1.00  0.00     0.042 C 
BRANCH  20  21
ATOM     21  C   UNL A   1      39.082  22.162  26.446  1.00  0.00     0.118 C 
BRANCH  21  22
ATOM     22  N   UNL A   1      40.471  22.030  26.025  1.00  0.00    -0.352 N 
ATOM     23  C   UNL A   1      41.438  23.020  25.999  1.00  0.00     0.251 C 
ATOM     24  H   UNL A   1      40.753  21.137  25.724  1.00  0.00     0.163 HD
ATOM     25  O   UNL A   1      42.445  22.897  25.327  1.00  0.00    -0.269 OA
BRANCH  23  26
ATOM     26  C   UNL A   1      41.197  24.252  26.778  1.00  0.00     0.039 A 
ATOM     27  C   UNL A   1      41.761  24.408  28.044  1.00  0.00     0.014 A 
ATOM     28  C   UNL A   1      40.464  25.284  26.198  1.00  0.00     0.014 A 
ATOM     29  C   UNL A   1      41.664  25.648  28.665  1.00  0.00     0.010 A 
ATOM     30  C   UNL A   1      40.524  26.551  26.728  1.00  0.00     0.010 A 
ATOM     31  C   UNL A   1      41.087  26.736  27.982  1.00  0.00    -0.014 A 
BRANCH  31  32
ATOM     32  C   UNL A   1      41.197  28.084  28.539  1.00  0.00     0.031 A 
ATOM     33  C   UNL A   1      42.395  28.823  28.069  1.00  0.00     0.074 A 
ATOM     34  C   UNL A   1      40.269  28.692  29.311  1.00  0.00     0.049 A 
ATOM     35  N   UNL A   1      43.475  29.031  28.744  1.00  0.00    -0.248 NA
ATOM     36  C   UNL A   1      42.490  29.226  26.658  1.00  0.00     0.031 C 
ATOM     37  C   UNL A   1      38.913  28.232  29.631  1.00  0.00     0.029 A 
ATOM     38  N   UNL A   1      40.322  29.914  29.923  1.00  0.00    -0.354 N 
ATOM     39  C   UNL A   1      44.297  29.796  27.926  1.00  0.00     0.074 A 
ATOM     40  C   UNL A   1      43.732  29.717  26.606  1.00  0.00     0.031 C 
ATOM     41  C   UNL A   1      38.202  29.248  30.164  1.00  0.00     0.029 A 
ATOM     42  C   UNL A   1      39.097  30.363  30.404  1.00  0.00     0.049 A 
ATOM     43  H   UNL A   1      41.155  30.431  30.015  1.00  0.00     0.167 HD
ATOM     44  C   UNL A   1      45.173  30.672  28.493  1.00  0.00     0.037 A 
ATOM     45  C   UNL A   1      38.833  31.564  30.973  1.00  0.00     0.037 A 
ATOM     46  C   UNL A   1      45.314  30.393  29.904  1.00  0.00     0.049 A 
ATOM     47  C   UNL A   1      40.105  32.064  31.536  1.00  0.00     0.074 A 
ATOM     48  C   UNL A   1      45.852  29.393  30.684  1.00  0.00     0.029 A 
ATOM     49  N   UNL A   1      44.435  31.089  30.687  1.00  0.00    -0.354 N 
ATOM     50  N   UNL A   1      40.712  31.511  32.550  1.00  0.00    -0.248 NA
ATOM     51  C   UNL A   1      40.906  33.009  30.767  1.00  0.00     0.031 C 
ATOM     52  C   UNL A   1      45.094  29.389  31.896  1.00  0.00     0.029 A 
ATOM     53  C   UNL A   1      44.151  30.416  31.840  1.00  0.00     0.049 A 
ATOM     54  H   UNL A   1      44.056  31.965  30.448  1.00  0.00     0.167 HD
ATOM     55  C   UNL A   1      42.053  31.675  32.269  1.00  0.00     0.074 A 
ATOM     56  C   UNL A   1      42.106  32.759  31.295  1.00  0.00     0.031 C 
ATOM     57  C   UNL A   1      42.949  30.699  32.592  1.00  0.00     0.037 A 
BRANCH  44  58
ATOM     58  C   UNL A   1      45.447  32.073  27.971  1.00  0.00     0.064 A 
ATOM     59  C   UNL A   1      44.346  32.929  27.742  1.00  0.00     0.173 A 
ATOM     60  C   UNL A   1      46.654  32.466  27.351  1.00  0.00     0.173 A 
ATOM     61  F   UNL A   1      43.145  32.651  28.270  1.00  0.00    -0.203 F 
ATOM     62  C   UNL A   1      44.426  34.024  26.877  1.00  0.00     0.198 A 
ATOM     63  C   UNL A   1      46.739  33.588  26.527  1.00  0.00     0.198 A 
ATOM     64  F   UNL A   1      47.767  31.730  27.411  1.00  0.00    -0.203 F 
ATOM     65  F   UNL A   1      43.319  34.720  26.578  1.00  0.00    -0.200 F 
ATOM     66  C   UNL A   1      45.620  34.346  26.260  1.00  0.00     0.200 A 
ATOM     67  F   UNL A   1      47.900  33.867  25.918  1.00  0.00    -0.200 F 
ATOM     68  F   UNL A   1      45.683  35.347  25.374  1.00  0.00    -0.200 F 
ENDBRANCH  44  58
BRANCH  45  69
ATOM     69  C   UNL A   1      37.616  32.405  30.894  1.00  0.00     0.064 A 
ATOM     70  C   UNL A   1      37.325  33.136  29.729  1.00  0.00     0.173 A 
ATOM     71  C   UNL A   1      36.565  32.261  31.820  1.00  0.00     0.173 A 
ATOM     72  F   UNL A   1      38.261  33.304  28.783  1.00  0.00    -0.203 F 
ATOM     73  C   UNL A   1      36.044  33.632  29.473  1.00  0.00     0.198 A 
ATOM     74  C   UNL A   1      35.287  32.766  31.567  1.00  0.00     0.198 A 
ATOM     75  F   UNL A   1      36.726  31.543  32.940  1.00  0.00    -0.203 F 
ATOM     76  F   UNL A   1      35.785  34.245  28.308  1.00  0.00    -0.200 F 
ATOM     77  C   UNL A   1      35.021  33.429  30.383  1.00  0.00     0.200 A 
ATOM     78  F   UNL A   1      34.298  32.538  32.442  1.00  0.00    -0.200 F 
ATOM     79  F   UNL A   1      33.774  33.833  30.102  1.00  0.00    -0.200 F 
ENDBRANCH  45  69
BRANCH  57  80
ATOM     80  C   UNL A   1      42.580  29.770  33.707  1.00  0.00     0.064 A 
ATOM     81  C   UNL A   1      41.933  28.534  33.545  1.00  0.00     0.173 A 
ATOM     82  C   UNL A   1      42.966  30.135  35.004  1.00  0.00     0.173 A 
ATOM     83  F   UNL A   1      41.603  28.078  32.330  1.00  0.00    -0.203 F 
ATOM     84  C   UNL A   1      41.647  27.726  34.646  1.00  0.00     0.198 A 
ATOM     85  C   UNL A   1      42.717  29.309  36.093  1.00  0.00     0.198 A 
ATOM     86  F   UNL A   1      43.621  31.289  35.210  1.00  0.00    -0.203 F 
ATOM     87  F   UNL A   1      41.003  26.562  34.475  1.00  0.00    -0.200 F 
ATOM     88  C   UNL A   1      42.045  28.111  35.916  1.00  0.00     0.200 A 
ATOM     89  F   UNL A   1      43.141  29.669  37.313  1.00  0.00    -0.200 F 
ATOM     90  F   UNL A   1      41.798  27.319  36.969  1.00  0.00    -0.200 F 
ENDBRANCH  57  80
ENDBRANCH  31  32
ENDBRANCH  23  26
ENDBRANCH  21  22
ENDBRANCH  20  21
ENDBRANCH   1  20
TORSDOF 14
ENDMDL
