MODEL 1
REMARK VINA RESULT:     -11.7      0.000      0.000
REMARK SMILES CC(C)OCCS(=O)(=O)N1CCC[C@H](C(=O)NCCCNC(=O)c2ccc(-c3c4nc(c(-c5c(F)c(F)c(F)c(F)c5F)c5ccc([nH]5)c(-c5c(F)c(F)c(F)c(F)c5F)c5nc(c(-c6c(F)c(F)c(F)c(F)c6F)c6ccc3[nH]6)C=C5)C=C4)cc2)C1
REMARK SMILES IDX 15 1 16 2 17 3 14 5 10 6 11 7 87 8 12 9 13 10 7 11 8 12 9 13
REMARK SMILES IDX 6 14 5 15 4 16 2 17 1 18 3 19 18 20 19 21 20 22 21 23 22 24
REMARK SMILES IDX 23 26 24 27 25 28 86 29 26 30 85 31 27 32 28 33 29 34 79 35
REMARK SMILES IDX 30 36 84 37 78 38 80 39 31 40 83 41 77 42 76 43 32 45 64 46
REMARK SMILES IDX 44 47 63 48 45 49 48 50 62 51 81 52 46 53 47 54 61 56 82 57
REMARK SMILES IDX 49 58 33 59 34 60 42 61 35 62 36 63 40 64 43 65 37 66 38 67
REMARK SMILES IDX 41 68 39 69 65 70 66 71 74 72 67 73 68 74 72 75 75 76 69 77
REMARK SMILES IDX 70 78 73 79 71 80 50 81 51 82 59 83 52 84 53 85 57 86 60 87
REMARK SMILES IDX 54 88 55 89 58 90 56 91
REMARK H PARENT 17 4 21 25 80 44 48 55
REMARK Flexibility Score: inf
ROOT
ATOM      1  C   UNL A   1      36.346  22.723  23.558  1.00  0.00     0.224 C 
ATOM      2  O   UNL A   1      36.927  23.461  22.758  1.00  0.00    -0.275 OA
ATOM      3  N   UNL A   1      37.040  21.669  24.051  1.00  0.00    -0.356 N 
ATOM      4  H   UNL A   1      37.989  21.642  23.791  1.00  0.00     0.163 HD
ENDROOT
BRANCH   1   5
ATOM      5  C   UNL A   1      34.897  23.001  23.945  1.00  0.00     0.093 C 
ATOM      6  N   UNL A   1      33.635  25.052  23.092  1.00  0.00    -0.201 NA
ATOM      7  C   UNL A   1      33.447  25.536  24.470  1.00  0.00     0.102 C 
ATOM      8  C   UNL A   1      34.091  23.664  22.833  1.00  0.00     0.115 C 
ATOM      9  C   UNL A   1      34.562  25.076  25.393  1.00  0.00     0.018 C 
ATOM     10  C   UNL A   1      34.745  23.572  25.352  1.00  0.00     0.016 C 
BRANCH   6  11
ATOM     11  S   UNL A   1      32.978  25.946  21.815  1.00  0.00     0.216 S 
ATOM     12  O   UNL A   1      32.912  25.079  20.657  1.00  0.00    -0.212 OA
ATOM     13  O   UNL A   1      33.739  27.177  21.756  1.00  0.00    -0.212 OA
BRANCH  11  14
ATOM     14  C   UNL A   1      31.318  26.377  22.358  1.00  0.00     0.182 C 
BRANCH  14  15
ATOM     15  C   UNL A   1      31.118  27.850  22.667  1.00  0.00     0.178 C 
BRANCH  15  16
ATOM     16  O   UNL A   1      30.153  28.493  21.831  1.00  0.00    -0.378 OA
BRANCH  16  17
ATOM     17  C   UNL A   1      29.731  29.823  22.142  1.00  0.00     0.112 C 
ATOM     18  C   UNL A   1      28.485  30.298  21.394  1.00  0.00     0.038 C 
ATOM     19  C   UNL A   1      29.683  30.011  23.653  1.00  0.00     0.038 C 
ENDBRANCH  16  17
ENDBRANCH  15  16
ENDBRANCH  14  15
ENDBRANCH  11  14
ENDBRANCH   6  11
ENDBRANCH   1   5
BRANCH   3  20
ATOM     20  C   UNL A   1      36.607  20.578  24.898  1.00  0.00     0.117 C 
BRANCH  20  21
ATOM     21  C   UNL A   1      37.702  19.548  25.044  1.00  0.00     0.042 C 
BRANCH  21  22
ATOM     22  C   UNL A   1      38.865  20.147  25.797  1.00  0.00     0.118 C 
BRANCH  22  23
ATOM     23  N   UNL A   1      39.990  19.215  25.862  1.00  0.00    -0.352 N 
ATOM     24  C   UNL A   1      41.325  19.478  26.069  1.00  0.00     0.251 C 
ATOM     25  H   UNL A   1      39.761  18.266  25.741  1.00  0.00     0.163 HD
ATOM     26  O   UNL A   1      42.179  18.629  25.850  1.00  0.00    -0.269 OA
BRANCH  24  27
ATOM     27  C   UNL A   1      41.706  20.820  26.542  1.00  0.00     0.039 A 
ATOM     28  C   UNL A   1      42.217  20.995  27.828  1.00  0.00     0.014 A 
ATOM     29  C   UNL A   1      41.631  21.891  25.655  1.00  0.00     0.014 A 
ATOM     30  C   UNL A   1      42.735  22.241  28.189  1.00  0.00     0.010 A 
ATOM     31  C   UNL A   1      42.302  23.060  25.951  1.00  0.00     0.010 A 
ATOM     32  C   UNL A   1      42.827  23.266  27.234  1.00  0.00    -0.014 A 
BRANCH  32  33
ATOM     33  C   UNL A   1      43.390  24.604  27.538  1.00  0.00     0.031 A 
ATOM     34  C   UNL A   1      42.477  25.652  28.119  1.00  0.00     0.074 A 
ATOM     35  C   UNL A   1      44.654  24.911  27.190  1.00  0.00     0.049 A 
ATOM     36  N   UNL A   1      42.668  26.937  28.258  1.00  0.00    -0.248 NA
ATOM     37  C   UNL A   1      41.135  25.201  28.535  1.00  0.00     0.031 C 
ATOM     38  C   UNL A   1      45.615  23.997  26.571  1.00  0.00     0.029 A 
ATOM     39  N   UNL A   1      45.342  26.093  27.295  1.00  0.00    -0.354 N 
ATOM     40  C   UNL A   1      41.460  27.444  28.721  1.00  0.00     0.074 A 
ATOM     41  C   UNL A   1      40.521  26.349  28.761  1.00  0.00     0.031 C 
ATOM     42  C   UNL A   1      46.778  24.643  26.381  1.00  0.00     0.029 A 
ATOM     43  C   UNL A   1      46.628  26.028  26.814  1.00  0.00     0.049 A 
ATOM     44  H   UNL A   1      44.952  26.912  27.678  1.00  0.00     0.167 HD
ATOM     45  C   UNL A   1      41.171  28.704  29.117  1.00  0.00     0.037 A 
ATOM     46  C   UNL A   1      47.569  26.987  26.726  1.00  0.00     0.037 A 
ATOM     47  C   UNL A   1      42.139  29.764  29.150  1.00  0.00     0.049 A 
ATOM     48  C   UNL A   1      47.238  28.375  27.207  1.00  0.00     0.074 A 
ATOM     49  C   UNL A   1      41.988  31.056  29.615  1.00  0.00     0.029 A 
ATOM     50  N   UNL A   1      43.450  29.641  28.712  1.00  0.00    -0.354 N 
ATOM     51  N   UNL A   1      46.111  28.833  27.699  1.00  0.00    -0.248 NA
ATOM     52  C   UNL A   1      48.306  29.380  27.122  1.00  0.00     0.031 C 
ATOM     53  C   UNL A   1      43.197  31.730  29.421  1.00  0.00     0.029 A 
ATOM     54  C   UNL A   1      44.116  30.841  28.884  1.00  0.00     0.049 A 
ATOM     55  H   UNL A   1      43.846  28.823  28.336  1.00  0.00     0.167 HD
ATOM     56  C   UNL A   1      46.345  30.163  28.016  1.00  0.00     0.074 A 
ATOM     57  C   UNL A   1      47.722  30.440  27.663  1.00  0.00     0.031 C 
ATOM     58  C   UNL A   1      45.497  31.076  28.552  1.00  0.00     0.037 A 
BRANCH  45  59
ATOM     59  C   UNL A   1      39.768  28.991  29.566  1.00  0.00     0.064 A 
ATOM     60  C   UNL A   1      39.360  28.794  30.896  1.00  0.00     0.173 A 
ATOM     61  C   UNL A   1      38.819  29.485  28.658  1.00  0.00     0.173 A 
ATOM     62  F   UNL A   1      40.224  28.309  31.802  1.00  0.00    -0.203 F 
ATOM     63  C   UNL A   1      38.048  29.041  31.289  1.00  0.00     0.198 A 
ATOM     64  C   UNL A   1      37.517  29.767  29.064  1.00  0.00     0.198 A 
ATOM     65  F   UNL A   1      39.153  29.696  27.377  1.00  0.00    -0.203 F 
ATOM     66  F   UNL A   1      37.668  28.782  32.548  1.00  0.00    -0.200 F 
ATOM     67  C   UNL A   1      37.130  29.535  30.375  1.00  0.00     0.200 A 
ATOM     68  F   UNL A   1      36.634  30.258  28.184  1.00  0.00    -0.200 F 
ATOM     69  F   UNL A   1      35.869  29.780  30.758  1.00  0.00    -0.200 F 
ENDBRANCH  45  59
BRANCH  46  70
ATOM     70  C   UNL A   1      48.919  26.660  26.193  1.00  0.00     0.064 A 
ATOM     71  C   UNL A   1      49.891  26.074  27.016  1.00  0.00     0.173 A 
ATOM     72  C   UNL A   1      49.266  26.921  24.860  1.00  0.00     0.173 A 
ATOM     73  F   UNL A   1      49.612  25.819  28.303  1.00  0.00    -0.203 F 
ATOM     74  C   UNL A   1      51.165  25.782  26.534  1.00  0.00     0.198 A 
ATOM     75  C   UNL A   1      50.532  26.601  24.371  1.00  0.00     0.198 A 
ATOM     76  F   UNL A   1      48.372  27.472  24.027  1.00  0.00    -0.203 F 
ATOM     77  F   UNL A   1      52.087  25.263  27.356  1.00  0.00    -0.200 F 
ATOM     78  C   UNL A   1      51.483  26.040  25.210  1.00  0.00     0.200 A 
ATOM     79  F   UNL A   1      50.831  26.837  23.085  1.00  0.00    -0.200 F 
ATOM     80  F   UNL A   1      52.707  25.756  24.744  1.00  0.00    -0.200 F 
ENDBRANCH  46  70
BRANCH  58  81
ATOM     81  C   UNL A   1      46.042  32.441  28.846  1.00  0.00     0.064 A 
ATOM     82  C   UNL A   1      46.692  32.730  30.052  1.00  0.00     0.173 A 
ATOM     83  C   UNL A   1      45.993  33.442  27.862  1.00  0.00     0.173 A 
ATOM     84  F   UNL A   1      46.752  31.808  31.025  1.00  0.00    -0.203 F 
ATOM     85  C   UNL A   1      47.269  33.978  30.268  1.00  0.00     0.198 A 
ATOM     86  C   UNL A   1      46.596  34.678  28.071  1.00  0.00     0.198 A 
ATOM     87  F   UNL A   1      45.389  33.208  26.688  1.00  0.00    -0.203 F 
ATOM     88  F   UNL A   1      47.863  34.245  31.439  1.00  0.00    -0.200 F 
ATOM     89  C   UNL A   1      47.231  34.945  29.274  1.00  0.00     0.200 A 
ATOM     90  F   UNL A   1      46.575  35.604  27.103  1.00  0.00    -0.200 F 
ATOM     91  F   UNL A   1      47.808  36.137  29.476  1.00  0.00    -0.200 F 
ENDBRANCH  58  81
ENDBRANCH  32  33
ENDBRANCH  24  27
ENDBRANCH  22  23
ENDBRANCH  21  22
ENDBRANCH  20  21
ENDBRANCH   3  20
TORSDOF 15
ENDMDL
MODEL 2
REMARK VINA RESULT:     -11.5      5.642     11.304
REMARK SMILES CC(C)OCCS(=O)(=O)N1CCC[C@H](C(=O)NCCCNC(=O)c2ccc(-c3c4nc(c(-c5c(F)c(F)c(F)c(F)c5F)c5ccc([nH]5)c(-c5c(F)c(F)c(F)c(F)c5F)c5nc(c(-c6c(F)c(F)c(F)c(F)c6F)c6ccc3[nH]6)C=C5)C=C4)cc2)C1
REMARK SMILES IDX 15 1 16 2 17 3 14 5 10 6 11 7 87 8 12 9 13 10 7 11 8 12 9 13
REMARK SMILES IDX 6 14 5 15 4 16 2 17 1 18 3 19 18 20 19 21 20 22 21 23 22 24
REMARK SMILES IDX 23 26 24 27 25 28 86 29 26 30 85 31 27 32 28 33 29 34 79 35
REMARK SMILES IDX 30 36 84 37 78 38 80 39 31 40 83 41 77 42 76 43 32 45 64 46
REMARK SMILES IDX 44 47 63 48 45 49 48 50 62 51 81 52 46 53 47 54 61 56 82 57
REMARK SMILES IDX 49 58 33 59 34 60 42 61 35 62 36 63 40 64 43 65 37 66 38 67
REMARK SMILES IDX 41 68 39 69 65 70 66 71 74 72 67 73 68 74 72 75 75 76 69 77
REMARK SMILES IDX 70 78 73 79 71 80 50 81 51 82 59 83 52 84 53 85 57 86 60 87
REMARK SMILES IDX 54 88 55 89 58 90 56 91
REMARK H PARENT 17 4 21 25 80 44 48 55
REMARK Flexibility Score: inf
ROOT
ATOM      1  C   UNL A   1      32.592  28.630  25.197  1.00  0.00     0.224 C 
ATOM      2  O   UNL A   1      33.522  28.257  24.477  1.00  0.00    -0.275 OA
ATOM      3  N   UNL A   1      32.783  29.753  25.930  1.00  0.00    -0.356 N 
ATOM      4  H   UNL A   1      33.627  30.227  25.748  1.00  0.00     0.163 HD
ENDROOT
BRANCH   1   5
ATOM      5  C   UNL A   1      31.296  27.828  25.253  1.00  0.00     0.093 C 
ATOM      6  N   UNL A   1      31.281  25.273  25.253  1.00  0.00    -0.201 NA
ATOM      7  C   UNL A   1      30.512  25.257  23.998  1.00  0.00     0.102 C 
ATOM      8  C   UNL A   1      31.425  26.525  26.036  1.00  0.00     0.115 C 
ATOM      9  C   UNL A   1      30.786  26.483  23.145  1.00  0.00     0.018 C 
ATOM     10  C   UNL A   1      30.562  27.769  23.916  1.00  0.00     0.016 C 
BRANCH   6  11
ATOM     11  S   UNL A   1      31.678  23.802  25.988  1.00  0.00     0.216 S 
ATOM     12  O   UNL A   1      31.246  22.737  25.107  1.00  0.00    -0.212 OA
ATOM     13  O   UNL A   1      31.160  23.879  27.339  1.00  0.00    -0.212 OA
BRANCH  11  14
ATOM     14  C   UNL A   1      33.472  23.815  26.108  1.00  0.00     0.182 C 
BRANCH  14  15
ATOM     15  C   UNL A   1      34.186  23.144  24.949  1.00  0.00     0.178 C 
BRANCH  15  16
ATOM     16  O   UNL A   1      35.328  22.375  25.336  1.00  0.00    -0.378 OA
BRANCH  16  17
ATOM     17  C   UNL A   1      36.583  22.609  24.693  1.00  0.00     0.112 C 
ATOM     18  C   UNL A   1      36.503  22.845  23.184  1.00  0.00     0.038 C 
ATOM     19  C   UNL A   1      37.372  23.658  25.465  1.00  0.00     0.038 C 
ENDBRANCH  16  17
ENDBRANCH  15  16
ENDBRANCH  14  15
ENDBRANCH  11  14
ENDBRANCH   6  11
ENDBRANCH   1   5
BRANCH   3  20
ATOM     20  C   UNL A   1      31.944  30.366  26.937  1.00  0.00     0.117 C 
BRANCH  20  21
ATOM     21  C   UNL A   1      31.828  31.854  26.703  1.00  0.00     0.042 C 
BRANCH  21  22
ATOM     22  C   UNL A   1      32.910  32.575  27.470  1.00  0.00     0.118 C 
BRANCH  22  23
ATOM     23  N   UNL A   1      32.588  33.992  27.636  1.00  0.00    -0.352 N 
ATOM     24  C   UNL A   1      33.025  34.875  28.596  1.00  0.00     0.251 C 
ATOM     25  H   UNL A   1      31.972  34.366  26.966  1.00  0.00     0.163 HD
ATOM     26  O   UNL A   1      32.478  35.959  28.755  1.00  0.00    -0.269 OA
BRANCH  24  27
ATOM     27  C   UNL A   1      34.157  34.474  29.449  1.00  0.00     0.039 A 
ATOM     28  C   UNL A   1      33.929  33.884  30.692  1.00  0.00     0.014 A 
ATOM     29  C   UNL A   1      35.452  34.613  28.956  1.00  0.00     0.014 A 
ATOM     30  C   UNL A   1      35.009  33.353  31.401  1.00  0.00     0.010 A 
ATOM     31  C   UNL A   1      36.484  33.933  29.569  1.00  0.00     0.010 A 
ATOM     32  C   UNL A   1      36.286  33.330  30.819  1.00  0.00    -0.014 A 
BRANCH  32  33
ATOM     33  C   UNL A   1      37.474  32.759  31.500  1.00  0.00     0.031 A 
ATOM     34  C   UNL A   1      38.205  31.622  30.835  1.00  0.00     0.074 A 
ATOM     35  C   UNL A   1      37.816  33.166  32.736  1.00  0.00     0.049 A 
ATOM     36  N   UNL A   1      39.115  30.820  31.321  1.00  0.00    -0.248 NA
ATOM     37  C   UNL A   1      37.805  31.298  29.452  1.00  0.00     0.031 C 
ATOM     38  C   UNL A   1      37.149  34.219  33.504  1.00  0.00     0.029 A 
ATOM     39  N   UNL A   1      38.808  32.723  33.574  1.00  0.00    -0.354 N 
ATOM     40  C   UNL A   1      39.347  29.876  30.329  1.00  0.00     0.074 A 
ATOM     41  C   UNL A   1      38.431  30.152  29.249  1.00  0.00     0.031 C 
ATOM     42  C   UNL A   1      37.770  34.363  34.686  1.00  0.00     0.029 A 
ATOM     43  C   UNL A   1      38.843  33.379  34.782  1.00  0.00     0.049 A 
ATOM     44  H   UNL A   1      39.435  32.003  33.334  1.00  0.00     0.167 HD
ATOM     45  C   UNL A   1      40.274  28.891  30.303  1.00  0.00     0.037 A 
ATOM     46  C   UNL A   1      39.646  33.191  35.846  1.00  0.00     0.037 A 
ATOM     47  C   UNL A   1      41.234  28.682  31.349  1.00  0.00     0.049 A 
ATOM     48  C   UNL A   1      40.695  32.111  35.782  1.00  0.00     0.074 A 
ATOM     49  C   UNL A   1      42.277  27.776  31.394  1.00  0.00     0.029 A 
ATOM     50  N   UNL A   1      41.277  29.409  32.530  1.00  0.00    -0.354 N 
ATOM     51  N   UNL A   1      40.948  31.261  34.815  1.00  0.00    -0.248 NA
ATOM     52  C   UNL A   1      41.571  31.965  36.953  1.00  0.00     0.031 C 
ATOM     53  C   UNL A   1      42.926  27.925  32.623  1.00  0.00     0.029 A 
ATOM     54  C   UNL A   1      42.321  28.961  33.319  1.00  0.00     0.049 A 
ATOM     55  H   UNL A   1      40.657  30.133  32.771  1.00  0.00     0.167 HD
ATOM     56  C   UNL A   1      42.031  30.507  35.244  1.00  0.00     0.074 A 
ATOM     57  C   UNL A   1      42.390  31.001  36.557  1.00  0.00     0.031 C 
ATOM     58  C   UNL A   1      42.673  29.495  34.608  1.00  0.00     0.037 A 
BRANCH  45  59
ATOM     59  C   UNL A   1      40.303  27.992  29.102  1.00  0.00     0.064 A 
ATOM     60  C   UNL A   1      41.033  28.320  27.948  1.00  0.00     0.173 A 
ATOM     61  C   UNL A   1      39.603  26.776  29.108  1.00  0.00     0.173 A 
ATOM     62  F   UNL A   1      41.709  29.478  27.883  1.00  0.00    -0.203 F 
ATOM     63  C   UNL A   1      41.029  27.486  26.834  1.00  0.00     0.198 A 
ATOM     64  C   UNL A   1      39.632  25.926  28.005  1.00  0.00     0.198 A 
ATOM     65  F   UNL A   1      38.891  26.410  30.184  1.00  0.00    -0.203 F 
ATOM     66  F   UNL A   1      41.681  27.853  25.722  1.00  0.00    -0.200 F 
ATOM     67  C   UNL A   1      40.335  26.286  26.866  1.00  0.00     0.200 A 
ATOM     68  F   UNL A   1      38.972  24.760  28.043  1.00  0.00    -0.200 F 
ATOM     69  F   UNL A   1      40.339  25.481  25.795  1.00  0.00    -0.200 F 
ENDBRANCH  45  59
BRANCH  46  70
ATOM     70  C   UNL A   1      39.514  34.062  37.044  1.00  0.00     0.064 A 
ATOM     71  C   UNL A   1      38.787  33.634  38.164  1.00  0.00     0.173 A 
ATOM     72  C   UNL A   1      40.107  35.331  37.099  1.00  0.00     0.173 A 
ATOM     73  F   UNL A   1      38.188  32.434  38.154  1.00  0.00    -0.203 F 
ATOM     74  C   UNL A   1      38.640  34.450  39.284  1.00  0.00     0.198 A 
ATOM     75  C   UNL A   1      39.983  36.134  38.232  1.00  0.00     0.198 A 
ATOM     76  F   UNL A   1      40.821  35.786  36.060  1.00  0.00    -0.203 F 
ATOM     77  F   UNL A   1      37.902  34.031  40.322  1.00  0.00    -0.200 F 
ATOM     78  C   UNL A   1      39.243  35.697  39.320  1.00  0.00     0.200 A 
ATOM     79  F   UNL A   1      40.582  37.334  38.269  1.00  0.00    -0.200 F 
ATOM     80  F   UNL A   1      39.105  36.481  40.399  1.00  0.00    -0.200 F 
ENDBRANCH  46  70
BRANCH  58  81
ATOM     81  C   UNL A   1      43.862  28.891  35.291  1.00  0.00     0.064 A 
ATOM     82  C   UNL A   1      45.157  29.384  35.087  1.00  0.00     0.173 A 
ATOM     83  C   UNL A   1      43.684  27.865  36.234  1.00  0.00     0.173 A 
ATOM     84  F   UNL A   1      45.376  30.355  34.188  1.00  0.00    -0.203 F 
ATOM     85  C   UNL A   1      46.236  28.867  35.798  1.00  0.00     0.198 A 
ATOM     86  C   UNL A   1      44.760  27.371  36.963  1.00  0.00     0.198 A 
ATOM     87  F   UNL A   1      42.461  27.367  36.468  1.00  0.00    -0.203 F 
ATOM     88  F   UNL A   1      47.471  29.333  35.570  1.00  0.00    -0.200 F 
ATOM     89  C   UNL A   1      46.035  27.871  36.743  1.00  0.00     0.200 A 
ATOM     90  F   UNL A   1      44.562  26.422  37.888  1.00  0.00    -0.200 F 
ATOM     91  F   UNL A   1      47.072  27.392  37.444  1.00  0.00    -0.200 F 
ENDBRANCH  58  81
ENDBRANCH  32  33
ENDBRANCH  24  27
ENDBRANCH  22  23
ENDBRANCH  21  22
ENDBRANCH  20  21
ENDBRANCH   3  20
TORSDOF 15
ENDMDL
MODEL 3
REMARK VINA RESULT:     -11.5      0.589      7.455
REMARK SMILES CC(C)OCCS(=O)(=O)N1CCC[C@H](C(=O)NCCCNC(=O)c2ccc(-c3c4nc(c(-c5c(F)c(F)c(F)c(F)c5F)c5ccc([nH]5)c(-c5c(F)c(F)c(F)c(F)c5F)c5nc(c(-c6c(F)c(F)c(F)c(F)c6F)c6ccc3[nH]6)C=C5)C=C4)cc2)C1
REMARK SMILES IDX 15 1 16 2 17 3 14 5 10 6 11 7 87 8 12 9 13 10 7 11 8 12 9 13
REMARK SMILES IDX 6 14 5 15 4 16 2 17 1 18 3 19 18 20 19 21 20 22 21 23 22 24
REMARK SMILES IDX 23 26 24 27 25 28 86 29 26 30 85 31 27 32 28 33 29 34 79 35
REMARK SMILES IDX 30 36 84 37 78 38 80 39 31 40 83 41 77 42 76 43 32 45 64 46
REMARK SMILES IDX 44 47 63 48 45 49 48 50 62 51 81 52 46 53 47 54 61 56 82 57
REMARK SMILES IDX 49 58 33 59 34 60 42 61 35 62 36 63 40 64 43 65 37 66 38 67
REMARK SMILES IDX 41 68 39 69 65 70 66 71 74 72 67 73 68 74 72 75 75 76 69 77
REMARK SMILES IDX 70 78 73 79 71 80 50 81 51 82 59 83 52 84 53 85 57 86 60 87
REMARK SMILES IDX 54 88 55 89 58 90 56 91
REMARK H PARENT 17 4 21 25 80 44 48 55
REMARK Flexibility Score: inf
ROOT
ATOM      1  C   UNL A   1      36.489  22.728  23.541  1.00  0.00     0.224 C 
ATOM      2  O   UNL A   1      36.997  23.425  22.658  1.00  0.00    -0.275 OA
ATOM      3  N   UNL A   1      37.260  21.761  24.092  1.00  0.00    -0.356 N 
ATOM      4  H   UNL A   1      38.200  21.763  23.798  1.00  0.00     0.163 HD
ENDROOT
BRANCH   1   5
ATOM      5  C   UNL A   1      35.041  22.958  23.962  1.00  0.00     0.093 C 
ATOM      6  N   UNL A   1      33.686  24.955  23.122  1.00  0.00    -0.201 NA
ATOM      7  C   UNL A   1      33.516  25.446  24.499  1.00  0.00     0.102 C 
ATOM      8  C   UNL A   1      34.185  23.582  22.864  1.00  0.00     0.115 C 
ATOM      9  C   UNL A   1      34.669  25.035  25.398  1.00  0.00     0.018 C 
ATOM     10  C   UNL A   1      34.904  23.538  25.367  1.00  0.00     0.016 C 
BRANCH   6  11
ATOM     11  S   UNL A   1      32.966  25.812  21.854  1.00  0.00     0.216 S 
ATOM     12  O   UNL A   1      32.980  24.962  20.681  1.00  0.00    -0.212 OA
ATOM     13  O   UNL A   1      33.623  27.103  21.821  1.00  0.00    -0.212 OA
BRANCH  11  14
ATOM     14  C   UNL A   1      31.272  26.094  22.390  1.00  0.00     0.182 C 
BRANCH  14  15
ATOM     15  C   UNL A   1      30.846  27.552  22.391  1.00  0.00     0.178 C 
BRANCH  15  16
ATOM     16  O   UNL A   1      29.618  27.798  23.081  1.00  0.00    -0.378 OA
BRANCH  16  17
ATOM     17  C   UNL A   1      28.871  28.980  22.783  1.00  0.00     0.112 C 
ATOM     18  C   UNL A   1      27.364  28.867  23.015  1.00  0.00     0.038 C 
ATOM     19  C   UNL A   1      29.532  30.188  23.433  1.00  0.00     0.038 C 
ENDBRANCH  16  17
ENDBRANCH  15  16
ENDBRANCH  14  15
ENDBRANCH  11  14
ENDBRANCH   6  11
ENDBRANCH   1   5
BRANCH   3  20
ATOM     20  C   UNL A   1      36.923  20.726  25.046  1.00  0.00     0.117 C 
BRANCH  20  21
ATOM     21  C   UNL A   1      38.010  19.680  25.107  1.00  0.00     0.042 C 
BRANCH  21  22
ATOM     22  C   UNL A   1      39.202  20.229  25.853  1.00  0.00     0.118 C 
BRANCH  22  23
ATOM     23  N   UNL A   1      40.229  19.205  26.039  1.00  0.00    -0.352 N 
ATOM     24  C   UNL A   1      41.594  19.350  26.131  1.00  0.00     0.251 C 
ATOM     25  H   UNL A   1      39.897  18.281  26.108  1.00  0.00     0.163 HD
ATOM     26  O   UNL A   1      42.342  18.386  26.036  1.00  0.00    -0.269 OA
BRANCH  24  27
ATOM     27  C   UNL A   1      42.139  20.705  26.327  1.00  0.00     0.039 A 
ATOM     28  C   UNL A   1      42.442  21.508  25.227  1.00  0.00     0.014 A 
ATOM     29  C   UNL A   1      42.262  21.199  27.623  1.00  0.00     0.014 A 
ATOM     30  C   UNL A   1      42.788  22.844  25.437  1.00  0.00     0.010 A 
ATOM     31  C   UNL A   1      42.426  22.556  27.815  1.00  0.00     0.010 A 
ATOM     32  C   UNL A   1      42.732  23.389  26.730  1.00  0.00    -0.014 A 
BRANCH  32  33
ATOM     33  C   UNL A   1      43.058  24.806  27.025  1.00  0.00     0.031 A 
ATOM     34  C   UNL A   1      44.462  25.286  26.769  1.00  0.00     0.074 A 
ATOM     35  C   UNL A   1      42.155  25.607  27.619  1.00  0.00     0.049 A 
ATOM     36  N   UNL A   1      45.045  26.394  27.147  1.00  0.00    -0.248 NA
ATOM     37  C   UNL A   1      45.356  24.361  26.047  1.00  0.00     0.031 C 
ATOM     38  C   UNL A   1      40.783  25.237  27.967  1.00  0.00     0.029 A 
ATOM     39  N   UNL A   1      42.268  26.904  28.053  1.00  0.00    -0.354 N 
ATOM     40  C   UNL A   1      46.372  26.266  26.759  1.00  0.00     0.074 A 
ATOM     41  C   UNL A   1      46.531  24.949  26.192  1.00  0.00     0.031 C 
ATOM     42  C   UNL A   1      40.170  26.292  28.531  1.00  0.00     0.029 A 
ATOM     43  C   UNL A   1      41.122  27.393  28.634  1.00  0.00     0.049 A 
ATOM     44  H   UNL A   1      43.092  27.434  27.960  1.00  0.00     0.167 HD
ATOM     45  C   UNL A   1      47.363  27.184  26.832  1.00  0.00     0.037 A 
ATOM     46  C   UNL A   1      40.880  28.594  29.194  1.00  0.00     0.037 A 
ATOM     47  C   UNL A   1      47.170  28.519  27.322  1.00  0.00     0.049 A 
ATOM     48  C   UNL A   1      41.988  29.614  29.232  1.00  0.00     0.074 A 
ATOM     49  C   UNL A   1      48.074  29.563  27.360  1.00  0.00     0.029 A 
ATOM     50  N   UNL A   1      45.976  28.997  27.844  1.00  0.00    -0.354 N 
ATOM     51  N   UNL A   1      43.225  29.506  28.808  1.00  0.00    -0.248 NA
ATOM     52  C   UNL A   1      41.667  30.920  29.822  1.00  0.00     0.031 C 
ATOM     53  C   UNL A   1      47.440  30.663  27.945  1.00  0.00     0.029 A 
ATOM     54  C   UNL A   1      46.125  30.319  28.221  1.00  0.00     0.049 A 
ATOM     55  H   UNL A   1      45.148  28.473  27.933  1.00  0.00     0.167 HD
ATOM     56  C   UNL A   1      43.818  30.738  29.046  1.00  0.00     0.074 A 
ATOM     57  C   UNL A   1      42.804  31.580  29.648  1.00  0.00     0.031 C 
ATOM     58  C   UNL A   1      45.087  31.139  28.789  1.00  0.00     0.037 A 
BRANCH  45  59
ATOM     59  C   UNL A   1      48.726  26.780  26.349  1.00  0.00     0.064 A 
ATOM     60  C   UNL A   1      49.658  26.159  27.196  1.00  0.00     0.173 A 
ATOM     61  C   UNL A   1      49.102  27.002  25.016  1.00  0.00     0.173 A 
ATOM     62  F   UNL A   1      49.355  25.936  28.485  1.00  0.00    -0.203 F 
ATOM     63  C   UNL A   1      50.926  25.812  26.739  1.00  0.00     0.198 A 
ATOM     64  C   UNL A   1      50.358  26.620  24.552  1.00  0.00     0.198 A 
ATOM     65  F   UNL A   1      48.251  27.588  24.161  1.00  0.00    -0.203 F 
ATOM     66  F   UNL A   1      51.819  25.281  27.585  1.00  0.00    -0.200 F 
ATOM     67  C   UNL A   1      51.272  26.036  25.416  1.00  0.00     0.200 A 
ATOM     68  F   UNL A   1      50.687  26.824  23.269  1.00  0.00    -0.200 F 
ATOM     69  F   UNL A   1      52.491  25.695  24.975  1.00  0.00    -0.200 F 
ENDBRANCH  45  59
BRANCH  46  70
ATOM     70  C   UNL A   1      39.529  28.907  29.732  1.00  0.00     0.064 A 
ATOM     71  C   UNL A   1      38.562  29.522  28.924  1.00  0.00     0.173 A 
ATOM     72  C   UNL A   1      39.174  28.599  31.053  1.00  0.00     0.173 A 
ATOM     73  F   UNL A   1      38.859  29.850  27.658  1.00  0.00    -0.203 F 
ATOM     74  C   UNL A   1      37.300  29.838  29.423  1.00  0.00     0.198 A 
ATOM     75  C   UNL A   1      37.901  28.889  31.542  1.00  0.00     0.198 A 
ATOM     76  F   UNL A   1      40.057  28.002  31.866  1.00  0.00    -0.203 F 
ATOM     77  F   UNL A   1      36.411  30.467  28.641  1.00  0.00    -0.200 F 
ATOM     78  C   UNL A   1      36.968  29.516  30.730  1.00  0.00     0.200 A 
ATOM     79  F   UNL A   1      37.578  28.561  32.801  1.00  0.00    -0.200 F 
ATOM     80  F   UNL A   1      35.753  29.817  31.209  1.00  0.00    -0.200 F 
ENDBRANCH  46  70
BRANCH  58  81
ATOM     81  C   UNL A   1      45.443  32.562  29.100  1.00  0.00     0.064 A 
ATOM     82  C   UNL A   1      46.040  32.922  30.315  1.00  0.00     0.173 A 
ATOM     83  C   UNL A   1      45.268  33.558  28.126  1.00  0.00     0.173 A 
ATOM     84  F   UNL A   1      46.215  32.006  31.279  1.00  0.00    -0.203 F 
ATOM     85  C   UNL A   1      46.443  34.233  30.548  1.00  0.00     0.198 A 
ATOM     86  C   UNL A   1      45.699  34.861  28.352  1.00  0.00     0.198 A 
ATOM     87  F   UNL A   1      44.709  33.257  26.944  1.00  0.00    -0.203 F 
ATOM     88  F   UNL A   1      46.988  34.565  31.726  1.00  0.00    -0.200 F 
ATOM     89  C   UNL A   1      46.285  35.197  29.563  1.00  0.00     0.200 A 
ATOM     90  F   UNL A   1      45.562  35.786  27.393  1.00  0.00    -0.200 F 
ATOM     91  F   UNL A   1      46.696  36.454  29.781  1.00  0.00    -0.200 F 
ENDBRANCH  58  81
ENDBRANCH  32  33
ENDBRANCH  24  27
ENDBRANCH  22  23
ENDBRANCH  21  22
ENDBRANCH  20  21
ENDBRANCH   3  20
TORSDOF 15
ENDMDL
