MODEL 1
REMARK VINA RESULT:     -11.8      0.000      0.000
REMARK SMILES O=C(NCCCNC(=O)[C@]1(CCCCO)CCc2ccccc2C1)c1ccc(-c2c3nc(c(-c4c(F)c(F)c(F)c(F)c4F)c4ccc([nH]4)c(-c4c(F)c(F)c(F)c(F)c4F)c4nc(c(-c5c(F)c(F)c(F)c(F)c5F)c5ccc2[nH]5)C=C4)C=C3)cc1
REMARK SMILES IDX 7 1 8 2 9 3 6 5 5 6 4 7 3 8 1 9 2 10 25 12 26 13 87 14 27 15
REMARK SMILES IDX 86 16 28 17 29 18 30 19 80 20 31 21 85 22 79 23 81 24 32 25
REMARK SMILES IDX 84 26 78 27 77 28 33 30 65 31 45 32 64 33 46 34 49 35 63 36
REMARK SMILES IDX 82 37 47 38 48 39 62 41 83 42 50 43 34 44 35 45 43 46 36 47
REMARK SMILES IDX 37 48 41 49 44 50 38 51 39 52 42 53 40 54 66 55 67 56 75 57
REMARK SMILES IDX 68 58 69 59 73 60 76 61 70 62 71 63 74 64 72 65 51 66 52 67
REMARK SMILES IDX 60 68 53 69 54 70 58 71 61 72 55 73 56 74 59 75 57 76 10 77
REMARK SMILES IDX 16 78 24 79 17 80 23 81 18 82 22 83 19 84 21 85 20 86 11 87
REMARK SMILES IDX 12 88 13 89 14 90 15 91
REMARK H PARENT 7 4 3 11 81 29 49 40 15 92
REMARK Flexibility Score: inf
ROOT
ATOM      1  N   UNL A   1      32.495  30.064  25.007  1.00  0.00    -0.356 N 
ATOM      2  C   UNL A   1      32.815  29.023  24.189  1.00  0.00     0.226 C 
ATOM      3  O   UNL A   1      33.463  29.344  23.184  1.00  0.00    -0.274 OA
ATOM      4  H   UNL A   1      33.126  30.817  24.935  1.00  0.00     0.163 HD
ENDROOT
BRANCH   1   5
ATOM      5  C   UNL A   1      31.422  30.309  25.965  1.00  0.00     0.117 C 
BRANCH   5   6
ATOM      6  C   UNL A   1      31.286  31.770  26.341  1.00  0.00     0.042 C 
BRANCH   6   7
ATOM      7  C   UNL A   1      32.571  32.314  26.936  1.00  0.00     0.118 C 
BRANCH   7   8
ATOM      8  N   UNL A   1      32.437  33.715  27.339  1.00  0.00    -0.352 N 
ATOM      9  O   UNL A   1      32.563  35.496  28.712  1.00  0.00    -0.269 OA
ATOM     10  C   UNL A   1      33.022  34.413  28.368  1.00  0.00     0.251 C 
ATOM     11  H   UNL A   1      31.825  34.245  26.780  1.00  0.00     0.163 HD
BRANCH  10  12
ATOM     12  C   UNL A   1      34.199  33.854  29.060  1.00  0.00     0.039 A 
ATOM     13  C   UNL A   1      35.473  34.319  28.747  1.00  0.00     0.014 A 
ATOM     14  C   UNL A   1      34.032  32.878  30.047  1.00  0.00     0.014 A 
ATOM     15  C   UNL A   1      36.586  33.668  29.248  1.00  0.00     0.010 A 
ATOM     16  C   UNL A   1      35.156  32.323  30.664  1.00  0.00     0.010 A 
ATOM     17  C   UNL A   1      36.443  32.687  30.238  1.00  0.00    -0.014 A 
BRANCH  17  18
ATOM     18  C   UNL A   1      37.668  32.115  30.846  1.00  0.00     0.031 A 
ATOM     19  C   UNL A   1      38.105  32.506  32.227  1.00  0.00     0.074 A 
ATOM     20  C   UNL A   1      38.357  31.194  30.146  1.00  0.00     0.049 A 
ATOM     21  N   UNL A   1      39.132  32.079  32.918  1.00  0.00    -0.248 NA
ATOM     22  C   UNL A   1      37.291  33.512  32.924  1.00  0.00     0.031 C 
ATOM     23  C   UNL A   1      38.019  30.739  28.793  1.00  0.00     0.029 A 
ATOM     24  N   UNL A   1      39.459  30.451  30.476  1.00  0.00    -0.354 N 
ATOM     25  C   UNL A   1      39.107  32.785  34.113  1.00  0.00     0.074 A 
ATOM     26  C   UNL A   1      37.978  33.689  34.043  1.00  0.00     0.031 C 
ATOM     27  C   UNL A   1      38.848  29.750  28.440  1.00  0.00     0.029 A 
ATOM     28  C   UNL A   1      39.830  29.561  29.499  1.00  0.00     0.049 A 
ATOM     29  H   UNL A   1      39.939  30.546  31.331  1.00  0.00     0.167 HD
ATOM     30  C   UNL A   1      39.949  32.682  35.170  1.00  0.00     0.037 A 
ATOM     31  C   UNL A   1      40.861  28.700  29.450  1.00  0.00     0.037 A 
ATOM     32  C   UNL A   1      41.062  31.766  35.226  1.00  0.00     0.049 A 
ATOM     33  C   UNL A   1      41.799  28.634  30.619  1.00  0.00     0.074 A 
ATOM     34  C   UNL A   1      41.956  31.556  36.261  1.00  0.00     0.029 A 
ATOM     35  N   UNL A   1      41.438  30.914  34.195  1.00  0.00    -0.354 N 
ATOM     36  N   UNL A   1      41.751  29.287  31.755  1.00  0.00    -0.248 NA
ATOM     37  C   UNL A   1      42.936  27.716  30.496  1.00  0.00     0.031 C 
ATOM     38  C   UNL A   1      42.909  30.626  35.833  1.00  0.00     0.029 A 
ATOM     39  C   UNL A   1      42.570  30.200  34.559  1.00  0.00     0.049 A 
ATOM     40  H   UNL A   1      40.970  30.829  33.334  1.00  0.00     0.167 HD
ATOM     41  C   UNL A   1      42.834  28.839  32.497  1.00  0.00     0.074 A 
ATOM     42  C   UNL A   1      43.511  27.847  31.683  1.00  0.00     0.031 C 
ATOM     43  C   UNL A   1      43.229  29.213  33.738  1.00  0.00     0.037 A 
BRANCH  30  44
ATOM     44  C   UNL A   1      39.724  33.611  36.330  1.00  0.00     0.064 A 
ATOM     45  C   UNL A   1      40.329  34.875  36.405  1.00  0.00     0.173 A 
ATOM     46  C   UNL A   1      38.880  33.230  37.386  1.00  0.00     0.173 A 
ATOM     47  F   UNL A   1      41.154  35.288  35.432  1.00  0.00    -0.203 F 
ATOM     48  C   UNL A   1      40.130  35.704  37.508  1.00  0.00     0.198 A 
ATOM     49  C   UNL A   1      38.655  34.075  38.470  1.00  0.00     0.198 A 
ATOM     50  F   UNL A   1      38.269  32.036  37.367  1.00  0.00    -0.203 F 
ATOM     51  F   UNL A   1      40.771  36.879  37.587  1.00  0.00    -0.200 F 
ATOM     52  C   UNL A   1      39.289  35.305  38.537  1.00  0.00     0.200 A 
ATOM     53  F   UNL A   1      37.829  33.694  39.455  1.00  0.00    -0.200 F 
ATOM     54  F   UNL A   1      39.100  36.103  39.597  1.00  0.00    -0.200 F 
ENDBRANCH  30  44
BRANCH  31  55
ATOM     55  C   UNL A   1      41.043  27.836  28.256  1.00  0.00     0.064 A 
ATOM     56  C   UNL A   1      41.815  28.265  27.169  1.00  0.00     0.173 A 
ATOM     57  C   UNL A   1      40.475  26.554  28.189  1.00  0.00     0.173 A 
ATOM     58  F   UNL A   1      42.368  29.487  27.181  1.00  0.00    -0.203 F 
ATOM     59  C   UNL A   1      42.002  27.450  26.054  1.00  0.00     0.198 A 
ATOM     60  C   UNL A   1      40.690  25.728  27.089  1.00  0.00     0.198 A 
ATOM     61  F   UNL A   1      39.735  26.093  29.208  1.00  0.00    -0.203 F 
ATOM     62  F   UNL A   1      42.715  27.898  25.012  1.00  0.00    -0.200 F 
ATOM     63  C   UNL A   1      41.448  26.180  26.019  1.00  0.00     0.200 A 
ATOM     64  F   UNL A   1      40.170  24.494  27.069  1.00  0.00    -0.200 F 
ATOM     65  F   UNL A   1      41.639  25.392  24.952  1.00  0.00    -0.200 F 
ENDBRANCH  31  55
BRANCH  43  66
ATOM     66  C   UNL A   1      44.422  28.505  34.314  1.00  0.00     0.064 A 
ATOM     67  C   UNL A   1      45.723  29.011  34.178  1.00  0.00     0.173 A 
ATOM     68  C   UNL A   1      44.254  27.310  35.030  1.00  0.00     0.173 A 
ATOM     69  F   UNL A   1      45.941  30.140  33.487  1.00  0.00    -0.203 F 
ATOM     70  C   UNL A   1      46.815  28.328  34.708  1.00  0.00     0.198 A 
ATOM     71  C   UNL A   1      45.343  26.649  35.590  1.00  0.00     0.198 A 
ATOM     72  F   UNL A   1      43.030  26.786  35.194  1.00  0.00    -0.203 F 
ATOM     73  F   UNL A   1      48.055  28.797  34.512  1.00  0.00    -0.200 F 
ATOM     74  C   UNL A   1      46.623  27.153  35.420  1.00  0.00     0.200 A 
ATOM     75  F   UNL A   1      45.154  25.524  36.291  1.00  0.00    -0.200 F 
ATOM     76  F   UNL A   1      47.674  26.500  35.933  1.00  0.00    -0.200 F 
ENDBRANCH  43  66
ENDBRANCH  17  18
ENDBRANCH  10  12
ENDBRANCH   7   8
ENDBRANCH   6   7
ENDBRANCH   5   6
ENDBRANCH   1   5
BRANCH   2  77
ATOM     77  C   UNL A   1      32.536  27.532  24.494  1.00  0.00     0.054 C 
ATOM     78  C   UNL A   1      33.045  27.233  25.930  1.00  0.00     0.022 C 
ATOM     79  C   UNL A   1      33.348  26.649  23.538  1.00  0.00     0.052 C 
ATOM     80  C   UNL A   1      33.030  25.746  26.310  1.00  0.00     0.037 C 
ATOM     81  C   UNL A   1      33.714  25.257  23.938  1.00  0.00    -0.044 A 
ATOM     82  C   UNL A   1      33.654  24.851  25.270  1.00  0.00    -0.045 A 
ATOM     83  C   UNL A   1      34.282  24.424  22.958  1.00  0.00     0.004 A 
ATOM     84  C   UNL A   1      34.163  23.591  25.604  1.00  0.00     0.004 A 
ATOM     85  C   UNL A   1      34.797  23.183  23.303  1.00  0.00     0.000 A 
ATOM     86  C   UNL A   1      34.741  22.769  24.630  1.00  0.00     0.000 A 
BRANCH  77  87
ATOM     87  C   UNL A   1      31.014  27.232  24.312  1.00  0.00     0.017 C 
BRANCH  87  88
ATOM     88  C   UNL A   1      30.355  27.453  22.933  1.00  0.00     0.003 C 
BRANCH  88  89
ATOM     89  C   UNL A   1      29.268  28.532  22.803  1.00  0.00     0.028 C 
BRANCH  89  90
ATOM     90  C   UNL A   1      29.751  29.924  22.411  1.00  0.00     0.156 C 
BRANCH  90  91
ATOM     91  O   UNL A   1      30.835  29.860  21.495  1.00  0.00    -0.396 OA
ATOM     92  H   UNL A   1      31.310  29.023  21.614  1.00  0.00     0.210 HD
ENDBRANCH  90  91
ENDBRANCH  89  90
ENDBRANCH  88  89
ENDBRANCH  87  88
ENDBRANCH  77  87
ENDBRANCH   2  77
TORSDOF 15
ENDMDL
MODEL 2
REMARK VINA RESULT:     -11.8      1.960      3.051
REMARK SMILES O=C(NCCCNC(=O)[C@]1(CCCCO)CCc2ccccc2C1)c1ccc(-c2c3nc(c(-c4c(F)c(F)c(F)c(F)c4F)c4ccc([nH]4)c(-c4c(F)c(F)c(F)c(F)c4F)c4nc(c(-c5c(F)c(F)c(F)c(F)c5F)c5ccc2[nH]5)C=C4)C=C3)cc1
REMARK SMILES IDX 7 1 8 2 9 3 6 5 5 6 4 7 3 8 1 9 2 10 25 12 26 13 87 14 27 15
REMARK SMILES IDX 86 16 28 17 29 18 30 19 80 20 31 21 85 22 79 23 81 24 32 25
REMARK SMILES IDX 84 26 78 27 77 28 33 30 65 31 45 32 64 33 46 34 49 35 63 36
REMARK SMILES IDX 82 37 47 38 48 39 62 41 83 42 50 43 34 44 35 45 43 46 36 47
REMARK SMILES IDX 37 48 41 49 44 50 38 51 39 52 42 53 40 54 66 55 67 56 75 57
REMARK SMILES IDX 68 58 69 59 73 60 76 61 70 62 71 63 74 64 72 65 51 66 52 67
REMARK SMILES IDX 60 68 53 69 54 70 58 71 61 72 55 73 56 74 59 75 57 76 10 77
REMARK SMILES IDX 16 78 24 79 17 80 23 81 18 82 22 83 19 84 21 85 20 86 11 87
REMARK SMILES IDX 12 88 13 89 14 90 15 91
REMARK H PARENT 7 4 3 11 81 29 49 40 15 92
REMARK Flexibility Score: inf
ROOT
ATOM      1  N   UNL A   1      31.704  25.896  26.698  1.00  0.00    -0.356 N 
ATOM      2  C   UNL A   1      31.864  24.554  26.538  1.00  0.00     0.226 C 
ATOM      3  O   UNL A   1      31.063  23.864  27.180  1.00  0.00    -0.274 OA
ATOM      4  H   UNL A   1      30.784  26.148  26.944  1.00  0.00     0.163 HD
ENDROOT
BRANCH   1   5
ATOM      5  C   UNL A   1      32.598  27.045  26.589  1.00  0.00     0.117 C 
BRANCH   5   6
ATOM      6  C   UNL A   1      32.062  28.129  25.677  1.00  0.00     0.042 C 
BRANCH   6   7
ATOM      7  C   UNL A   1      33.111  29.187  25.392  1.00  0.00     0.118 C 
BRANCH   7   8
ATOM      8  N   UNL A   1      32.685  30.514  25.836  1.00  0.00    -0.352 N 
ATOM      9  O   UNL A   1      32.436  32.241  27.261  1.00  0.00    -0.269 OA
ATOM     10  C   UNL A   1      33.113  31.292  26.886  1.00  0.00     0.251 C 
ATOM     11  H   UNL A   1      31.970  30.918  25.293  1.00  0.00     0.163 HD
BRANCH  10  12
ATOM     12  C   UNL A   1      34.386  30.977  27.561  1.00  0.00     0.039 A 
ATOM     13  C   UNL A   1      34.628  29.686  28.020  1.00  0.00     0.014 A 
ATOM     14  C   UNL A   1      35.360  31.969  27.716  1.00  0.00     0.014 A 
ATOM     15  C   UNL A   1      35.728  29.433  28.820  1.00  0.00     0.010 A 
ATOM     16  C   UNL A   1      36.543  31.672  28.397  1.00  0.00     0.010 A 
ATOM     17  C   UNL A   1      36.716  30.411  28.989  1.00  0.00    -0.014 A 
BRANCH  17  18
ATOM     18  C   UNL A   1      37.944  30.052  29.738  1.00  0.00     0.031 A 
ATOM     19  C   UNL A   1      38.170  30.539  31.139  1.00  0.00     0.074 A 
ATOM     20  C   UNL A   1      38.834  29.232  29.146  1.00  0.00     0.049 A 
ATOM     21  N   UNL A   1      39.173  30.294  31.944  1.00  0.00    -0.248 NA
ATOM     22  C   UNL A   1      37.145  31.424  31.710  1.00  0.00     0.031 C 
ATOM     23  C   UNL A   1      38.712  28.698  27.786  1.00  0.00     0.029 A 
ATOM     24  N   UNL A   1      39.996  28.678  29.613  1.00  0.00    -0.354 N 
ATOM     25  C   UNL A   1      38.917  31.016  33.101  1.00  0.00     0.074 A 
ATOM     26  C   UNL A   1      37.677  31.732  32.884  1.00  0.00     0.031 C 
ATOM     27  C   UNL A   1      39.714  27.841  27.556  1.00  0.00     0.029 A 
ATOM     28  C   UNL A   1      40.597  27.832  28.714  1.00  0.00     0.049 A 
ATOM     29  H   UNL A   1      40.364  28.867  30.507  1.00  0.00     0.167 HD
ATOM     30  C   UNL A   1      39.651  31.072  34.239  1.00  0.00     0.037 A 
ATOM     31  C   UNL A   1      41.747  27.141  28.802  1.00  0.00     0.037 A 
ATOM     32  C   UNL A   1      40.878  30.342  34.442  1.00  0.00     0.049 A 
ATOM     33  C   UNL A   1      42.557  27.250  30.059  1.00  0.00     0.074 A 
ATOM     34  C   UNL A   1      41.681  30.298  35.567  1.00  0.00     0.029 A 
ATOM     35  N   UNL A   1      41.484  29.533  33.489  1.00  0.00    -0.354 N 
ATOM     36  N   UNL A   1      42.293  27.915  31.158  1.00  0.00    -0.248 NA
ATOM     37  C   UNL A   1      43.827  26.517  30.087  1.00  0.00     0.031 C 
ATOM     38  C   UNL A   1      42.804  29.517  35.274  1.00  0.00     0.029 A 
ATOM     39  C   UNL A   1      42.668  29.013  33.991  1.00  0.00     0.049 A 
ATOM     40  H   UNL A   1      41.127  29.356  32.589  1.00  0.00     0.167 HD
ATOM     41  C   UNL A   1      43.349  27.659  32.021  1.00  0.00     0.074 A 
ATOM     42  C   UNL A   1      44.249  26.766  31.318  1.00  0.00     0.031 C 
ATOM     43  C   UNL A   1      43.551  28.121  33.279  1.00  0.00     0.037 A 
BRANCH  30  44
ATOM     44  C   UNL A   1      39.168  31.982  35.334  1.00  0.00     0.064 A 
ATOM     45  C   UNL A   1      39.469  33.353  35.354  1.00  0.00     0.173 A 
ATOM     46  C   UNL A   1      38.381  31.473  36.380  1.00  0.00     0.173 A 
ATOM     47  F   UNL A   1      40.226  33.893  34.387  1.00  0.00    -0.203 F 
ATOM     48  C   UNL A   1      39.036  34.169  36.398  1.00  0.00     0.198 A 
ATOM     49  C   UNL A   1      37.921  32.299  37.404  1.00  0.00     0.198 A 
ATOM     50  F   UNL A   1      38.057  30.172  36.411  1.00  0.00    -0.203 F 
ATOM     51  F   UNL A   1      39.392  35.461  36.428  1.00  0.00    -0.200 F 
ATOM     52  C   UNL A   1      38.259  33.642  37.418  1.00  0.00     0.200 A 
ATOM     53  F   UNL A   1      37.157  31.790  38.380  1.00  0.00    -0.200 F 
ATOM     54  F   UNL A   1      37.845  34.428  38.422  1.00  0.00    -0.200 F 
ENDBRANCH  30  44
BRANCH  31  55
ATOM     55  C   UNL A   1      42.181  26.288  27.667  1.00  0.00     0.064 A 
ATOM     56  C   UNL A   1      43.150  26.734  26.760  1.00  0.00     0.173 A 
ATOM     57  C   UNL A   1      41.659  24.997  27.483  1.00  0.00     0.173 A 
ATOM     58  F   UNL A   1      43.668  27.965  26.886  1.00  0.00    -0.203 F 
ATOM     59  C   UNL A   1      43.572  25.929  25.704  1.00  0.00     0.198 A 
ATOM     60  C   UNL A   1      42.106  24.181  26.448  1.00  0.00     0.198 A 
ATOM     61  F   UNL A   1      40.737  24.519  28.331  1.00  0.00    -0.203 F 
ATOM     62  F   UNL A   1      44.473  26.395  24.829  1.00  0.00    -0.200 F 
ATOM     63  C   UNL A   1      43.057  24.651  25.554  1.00  0.00     0.200 A 
ATOM     64  F   UNL A   1      41.622  22.939  26.320  1.00  0.00    -0.200 F 
ATOM     65  F   UNL A   1      43.473  23.872  24.547  1.00  0.00    -0.200 F 
ENDBRANCH  31  55
BRANCH  43  66
ATOM     66  C   UNL A   1      44.771  27.621  33.998  1.00  0.00     0.064 A 
ATOM     67  C   UNL A   1      44.757  26.437  34.750  1.00  0.00     0.173 A 
ATOM     68  C   UNL A   1      45.978  28.331  33.916  1.00  0.00     0.173 A 
ATOM     69  F   UNL A   1      43.624  25.729  34.876  1.00  0.00    -0.203 F 
ATOM     70  C   UNL A   1      45.897  26.001  35.420  1.00  0.00     0.198 A 
ATOM     71  C   UNL A   1      47.126  27.874  34.557  1.00  0.00     0.198 A 
ATOM     72  F   UNL A   1      46.047  29.468  33.206  1.00  0.00    -0.203 F 
ATOM     73  F   UNL A   1      45.844  24.901  36.183  1.00  0.00    -0.200 F 
ATOM     74  C   UNL A   1      47.082  26.716  35.317  1.00  0.00     0.200 A 
ATOM     75  F   UNL A   1      48.272  28.558  34.442  1.00  0.00    -0.200 F 
ATOM     76  F   UNL A   1      48.179  26.293  35.958  1.00  0.00    -0.200 F 
ENDBRANCH  43  66
ENDBRANCH  17  18
ENDBRANCH  10  12
ENDBRANCH   7   8
ENDBRANCH   6   7
ENDBRANCH   5   6
ENDBRANCH   1   5
BRANCH   2  77
ATOM     77  C   UNL A   1      32.855  23.886  25.555  1.00  0.00     0.054 C 
ATOM     78  C   UNL A   1      32.666  22.348  25.655  1.00  0.00     0.022 C 
ATOM     79  C   UNL A   1      34.295  24.189  25.989  1.00  0.00     0.052 C 
ATOM     80  C   UNL A   1      33.720  21.530  24.895  1.00  0.00     0.037 C 
ATOM     81  C   UNL A   1      35.402  23.263  25.603  1.00  0.00    -0.044 A 
ATOM     82  C   UNL A   1      35.136  21.965  25.172  1.00  0.00    -0.045 A 
ATOM     83  C   UNL A   1      36.721  23.683  25.851  1.00  0.00     0.004 A 
ATOM     84  C   UNL A   1      36.215  21.094  24.980  1.00  0.00     0.004 A 
ATOM     85  C   UNL A   1      37.781  22.806  25.673  1.00  0.00     0.000 A 
ATOM     86  C   UNL A   1      37.527  21.509  25.242  1.00  0.00     0.000 A 
BRANCH  77  87
ATOM     87  C   UNL A   1      32.621  24.437  24.112  1.00  0.00     0.017 C 
BRANCH  87  88
ATOM     88  C   UNL A   1      33.676  25.364  23.472  1.00  0.00     0.003 C 
BRANCH  88  89
ATOM     89  C   UNL A   1      33.245  26.274  22.311  1.00  0.00     0.028 C 
BRANCH  89  90
ATOM     90  C   UNL A   1      32.429  25.609  21.207  1.00  0.00     0.156 C 
BRANCH  90  91
ATOM     91  O   UNL A   1      33.091  24.464  20.689  1.00  0.00    -0.396 OA
ATOM     92  H   UNL A   1      32.644  24.170  19.881  1.00  0.00     0.210 HD
ENDBRANCH  90  91
ENDBRANCH  89  90
ENDBRANCH  88  89
ENDBRANCH  87  88
ENDBRANCH  77  87
ENDBRANCH   2  77
TORSDOF 15
ENDMDL
MODEL 3
REMARK VINA RESULT:     -11.7      1.967      3.274
REMARK SMILES O=C(NCCCNC(=O)[C@]1(CCCCO)CCc2ccccc2C1)c1ccc(-c2c3nc(c(-c4c(F)c(F)c(F)c(F)c4F)c4ccc([nH]4)c(-c4c(F)c(F)c(F)c(F)c4F)c4nc(c(-c5c(F)c(F)c(F)c(F)c5F)c5ccc2[nH]5)C=C4)C=C3)cc1
REMARK SMILES IDX 7 1 8 2 9 3 6 5 5 6 4 7 3 8 1 9 2 10 25 12 26 13 87 14 27 15
REMARK SMILES IDX 86 16 28 17 29 18 30 19 80 20 31 21 85 22 79 23 81 24 32 25
REMARK SMILES IDX 84 26 78 27 77 28 33 30 65 31 45 32 64 33 46 34 49 35 63 36
REMARK SMILES IDX 82 37 47 38 48 39 62 41 83 42 50 43 34 44 35 45 43 46 36 47
REMARK SMILES IDX 37 48 41 49 44 50 38 51 39 52 42 53 40 54 66 55 67 56 75 57
REMARK SMILES IDX 68 58 69 59 73 60 76 61 70 62 71 63 74 64 72 65 51 66 52 67
REMARK SMILES IDX 60 68 53 69 54 70 58 71 61 72 55 73 56 74 59 75 57 76 10 77
REMARK SMILES IDX 16 78 24 79 17 80 23 81 18 82 22 83 19 84 21 85 20 86 11 87
REMARK SMILES IDX 12 88 13 89 14 90 15 91
REMARK H PARENT 7 4 3 11 81 29 49 40 15 92
REMARK Flexibility Score: inf
ROOT
ATOM      1  N   UNL A   1      31.832  25.834  26.668  1.00  0.00    -0.356 N 
ATOM      2  C   UNL A   1      31.957  24.485  26.536  1.00  0.00     0.226 C 
ATOM      3  O   UNL A   1      31.158  23.829  27.215  1.00  0.00    -0.274 OA
ATOM      4  H   UNL A   1      30.924  26.112  26.930  1.00  0.00     0.163 HD
ENDROOT
BRANCH   1   5
ATOM      5  C   UNL A   1      32.748  26.959  26.508  1.00  0.00     0.117 C 
BRANCH   5   6
ATOM      6  C   UNL A   1      32.160  28.092  25.694  1.00  0.00     0.042 C 
BRANCH   6   7
ATOM      7  C   UNL A   1      33.188  29.173  25.418  1.00  0.00     0.118 C 
BRANCH   7   8
ATOM      8  N   UNL A   1      32.741  30.486  25.884  1.00  0.00    -0.352 N 
ATOM      9  O   UNL A   1      32.467  32.184  27.338  1.00  0.00    -0.269 OA
ATOM     10  C   UNL A   1      33.158  31.252  26.947  1.00  0.00     0.251 C 
ATOM     11  H   UNL A   1      32.021  30.888  25.348  1.00  0.00     0.163 HD
BRANCH  10  12
ATOM     12  C   UNL A   1      34.435  30.946  27.617  1.00  0.00     0.039 A 
ATOM     13  C   UNL A   1      34.694  29.651  28.060  1.00  0.00     0.014 A 
ATOM     14  C   UNL A   1      35.396  31.948  27.783  1.00  0.00     0.014 A 
ATOM     15  C   UNL A   1      35.798  29.403  28.856  1.00  0.00     0.010 A 
ATOM     16  C   UNL A   1      36.584  31.658  28.459  1.00  0.00     0.010 A 
ATOM     17  C   UNL A   1      36.775  30.392  29.036  1.00  0.00    -0.014 A 
BRANCH  17  18
ATOM     18  C   UNL A   1      38.008  30.039  29.779  1.00  0.00     0.031 A 
ATOM     19  C   UNL A   1      38.231  30.515  31.184  1.00  0.00     0.074 A 
ATOM     20  C   UNL A   1      38.906  29.235  29.178  1.00  0.00     0.049 A 
ATOM     21  N   UNL A   1      39.238  30.274  31.985  1.00  0.00    -0.248 NA
ATOM     22  C   UNL A   1      37.197  31.383  31.766  1.00  0.00     0.031 C 
ATOM     23  C   UNL A   1      38.787  28.713  27.813  1.00  0.00     0.029 A 
ATOM     24  N   UNL A   1      40.075  28.690  29.637  1.00  0.00    -0.354 N 
ATOM     25  C   UNL A   1      38.976  30.982  33.150  1.00  0.00     0.074 A 
ATOM     26  C   UNL A   1      37.728  31.686  32.942  1.00  0.00     0.031 C 
ATOM     27  C   UNL A   1      39.798  27.870  27.573  1.00  0.00     0.029 A 
ATOM     28  C   UNL A   1      40.684  27.860  28.729  1.00  0.00     0.049 A 
ATOM     29  H   UNL A   1      40.442  28.875  30.532  1.00  0.00     0.167 HD
ATOM     30  C   UNL A   1      39.711  31.035  34.287  1.00  0.00     0.037 A 
ATOM     31  C   UNL A   1      41.841  27.181  28.809  1.00  0.00     0.037 A 
ATOM     32  C   UNL A   1      40.947  30.317  34.481  1.00  0.00     0.049 A 
ATOM     33  C   UNL A   1      42.652  27.287  30.065  1.00  0.00     0.074 A 
ATOM     34  C   UNL A   1      41.752  30.271  35.604  1.00  0.00     0.029 A 
ATOM     35  N   UNL A   1      41.560  29.524  33.518  1.00  0.00    -0.354 N 
ATOM     36  N   UNL A   1      42.383  27.938  31.171  1.00  0.00    -0.248 NA
ATOM     37  C   UNL A   1      43.931  26.569  30.083  1.00  0.00     0.031 C 
ATOM     38  C   UNL A   1      42.884  29.506  35.301  1.00  0.00     0.029 A 
ATOM     39  C   UNL A   1      42.750  29.013  34.013  1.00  0.00     0.049 A 
ATOM     40  H   UNL A   1      41.203  29.352  32.617  1.00  0.00     0.167 HD
ATOM     41  C   UNL A   1      43.443  27.686  32.029  1.00  0.00     0.074 A 
ATOM     42  C   UNL A   1      44.352  26.809  31.316  1.00  0.00     0.031 C 
ATOM     43  C   UNL A   1      43.643  28.138  33.292  1.00  0.00     0.037 A 
BRANCH  30  44
ATOM     44  C   UNL A   1      39.220  31.929  35.391  1.00  0.00     0.064 A 
ATOM     45  C   UNL A   1      38.425  31.451  36.444  1.00  0.00     0.173 A 
ATOM     46  C   UNL A   1      39.560  33.292  35.400  1.00  0.00     0.173 A 
ATOM     47  F   UNL A   1      38.060  30.161  36.483  1.00  0.00    -0.203 F 
ATOM     48  C   UNL A   1      37.956  32.308  37.438  1.00  0.00     0.198 A 
ATOM     49  C   UNL A   1      39.119  34.139  36.414  1.00  0.00     0.198 A 
ATOM     50  F   UNL A   1      40.323  33.805  34.423  1.00  0.00    -0.203 F 
ATOM     51  F   UNL A   1      37.144  31.840  38.396  1.00  0.00    -0.200 F 
ATOM     52  C   UNL A   1      38.307  33.650  37.425  1.00  0.00     0.200 A 
ATOM     53  F   UNL A   1      39.473  35.432  36.406  1.00  0.00    -0.200 F 
ATOM     54  F   UNL A   1      37.854  34.472  38.381  1.00  0.00    -0.200 F 
ENDBRANCH  30  44
BRANCH  31  55
ATOM     55  C   UNL A   1      42.283  26.344  27.665  1.00  0.00     0.064 A 
ATOM     56  C   UNL A   1      43.246  26.809  26.761  1.00  0.00     0.173 A 
ATOM     57  C   UNL A   1      41.775  25.050  27.468  1.00  0.00     0.173 A 
ATOM     58  F   UNL A   1      43.752  28.044  26.899  1.00  0.00    -0.203 F 
ATOM     59  C   UNL A   1      43.675  26.019  25.696  1.00  0.00     0.198 A 
ATOM     60  C   UNL A   1      42.229  24.248  26.424  1.00  0.00     0.198 A 
ATOM     61  F   UNL A   1      40.858  24.553  28.312  1.00  0.00    -0.203 F 
ATOM     62  F   UNL A   1      44.571  26.503  24.825  1.00  0.00    -0.200 F 
ATOM     63  C   UNL A   1      43.174  24.737  25.534  1.00  0.00     0.200 A 
ATOM     64  F   UNL A   1      41.757  23.002  26.285  1.00  0.00    -0.200 F 
ATOM     65  F   UNL A   1      43.597  23.973  24.518  1.00  0.00    -0.200 F 
ENDBRANCH  31  55
BRANCH  43  66
ATOM     66  C   UNL A   1      44.869  27.645  34.004  1.00  0.00     0.064 A 
ATOM     67  C   UNL A   1      44.869  26.455  34.747  1.00  0.00     0.173 A 
ATOM     68  C   UNL A   1      46.069  28.367  33.923  1.00  0.00     0.173 A 
ATOM     69  F   UNL A   1      43.744  25.736  34.873  1.00  0.00    -0.203 F 
ATOM     70  C   UNL A   1      46.016  26.026  35.412  1.00  0.00     0.198 A 
ATOM     71  C   UNL A   1      47.223  27.917  34.557  1.00  0.00     0.198 A 
ATOM     72  F   UNL A   1      46.126  29.510  33.220  1.00  0.00    -0.203 F 
ATOM     73  F   UNL A   1      45.975  24.921  36.167  1.00  0.00    -0.200 F 
ATOM     74  C   UNL A   1      47.193  26.754  35.309  1.00  0.00     0.200 A 
ATOM     75  F   UNL A   1      48.363  28.612  34.443  1.00  0.00    -0.200 F 
ATOM     76  F   UNL A   1      48.296  26.336  35.945  1.00  0.00    -0.200 F 
ENDBRANCH  43  66
ENDBRANCH  17  18
ENDBRANCH  10  12
ENDBRANCH   7   8
ENDBRANCH   6   7
ENDBRANCH   5   6
ENDBRANCH   1   5
BRANCH   2  77
ATOM     77  C   UNL A   1      32.908  23.771  25.545  1.00  0.00     0.054 C 
ATOM     78  C   UNL A   1      32.667  22.242  25.667  1.00  0.00     0.022 C 
ATOM     79  C   UNL A   1      34.365  24.029  25.951  1.00  0.00     0.052 C 
ATOM     80  C   UNL A   1      33.678  21.379  24.899  1.00  0.00     0.037 C 
ATOM     81  C   UNL A   1      35.432  23.060  25.558  1.00  0.00    -0.044 A 
ATOM     82  C   UNL A   1      35.113  21.767  25.147  1.00  0.00    -0.045 A 
ATOM     83  C   UNL A   1      36.768  23.435  25.778  1.00  0.00     0.004 A 
ATOM     84  C   UNL A   1      36.158  20.856  24.948  1.00  0.00     0.004 A 
ATOM     85  C   UNL A   1      37.794  22.520  25.594  1.00  0.00     0.000 A 
ATOM     86  C   UNL A   1      37.487  21.228  25.182  1.00  0.00     0.000 A 
BRANCH  77  87
ATOM     87  C   UNL A   1      32.668  24.313  24.100  1.00  0.00     0.017 C 
BRANCH  87  88
ATOM     88  C   UNL A   1      33.747  25.189  23.428  1.00  0.00     0.003 C 
BRANCH  88  89
ATOM     89  C   UNL A   1      33.302  26.241  22.400  1.00  0.00     0.028 C 
BRANCH  89  90
ATOM     90  C   UNL A   1      32.424  25.734  21.262  1.00  0.00     0.156 C 
BRANCH  90  91
ATOM     91  O   UNL A   1      33.013  24.620  20.606  1.00  0.00    -0.396 OA
ATOM     92  H   UNL A   1      32.528  24.433  19.787  1.00  0.00     0.210 HD
ENDBRANCH  90  91
ENDBRANCH  89  90
ENDBRANCH  88  89
ENDBRANCH  87  88
ENDBRANCH  77  87
ENDBRANCH   2  77
TORSDOF 15
ENDMDL
