MODEL 1
REMARK VINA RESULT:     -11.0      0.000      0.000
REMARK SMILES N#CNC(=O)[C@H]1C[C@@H]1C(=O)NCCCNC(=O)c1ccc(-c2c3nc(c(-c4c(F)c(F)c(F)c(F)c4F)c4ccc([nH]4)c(-c4c(F)c(F)c(F)c(F)c4F)c4nc(c(-c5c(F)c(F)c(F)c(F)c5F)c5ccc2[nH]5)C=C4)C=C3)cc1
REMARK SMILES IDX 13 1 12 2 11 3 9 4 10 5 8 7 6 8 7 9 4 10 3 11 5 13 2 14 1 15
REMARK SMILES IDX 14 16 15 17 16 18 17 20 18 21 19 22 80 23 20 24 79 25 21 26
REMARK SMILES IDX 22 27 23 28 73 29 24 30 78 31 72 32 74 33 25 34 77 35 71 36
REMARK SMILES IDX 70 37 26 39 58 40 38 41 57 42 39 43 42 44 56 45 75 46 40 47
REMARK SMILES IDX 41 48 55 50 76 51 43 52 27 53 28 54 36 55 29 56 30 57 34 58
REMARK SMILES IDX 37 59 31 60 32 61 35 62 33 63 59 64 60 65 68 66 61 67 62 68
REMARK SMILES IDX 66 69 69 70 63 71 64 72 67 73 65 74 44 75 45 76 53 77 46 78
REMARK SMILES IDX 47 79 51 80 54 81 48 82 49 83 52 84 50 85
REMARK H PARENT 11 6 3 12 15 19 74 38 42 49
REMARK Flexibility Score: inf
ROOT
ATOM      1  C   UNL A   1      31.341  32.201  26.552  1.00  0.00     0.042 C 
ENDROOT
BRANCH   1   2
ATOM      2  C   UNL A   1      31.593  30.867  25.861  1.00  0.00     0.117 C 
BRANCH   2   3
ATOM      3  N   UNL A   1      31.563  29.761  26.797  1.00  0.00    -0.356 N 
ATOM      4  C   UNL A   1      31.596  28.426  26.517  1.00  0.00     0.223 C 
ATOM      5  O   UNL A   1      31.529  27.591  27.410  1.00  0.00    -0.275 OA
ATOM      6  H   UNL A   1      31.512  30.002  27.750  1.00  0.00     0.163 HD
BRANCH   4   7
ATOM      7  C   UNL A   1      31.732  28.019  25.099  1.00  0.00     0.092 C 
ATOM      8  C   UNL A   1      30.469  27.850  24.281  1.00  0.00     0.093 C 
ATOM      9  C   UNL A   1      31.297  26.644  24.656  1.00  0.00     0.028 C 
BRANCH   8  10
ATOM     10  C   UNL A   1      30.297  28.195  22.850  1.00  0.00     0.236 C 
ATOM     11  N   UNL A   1      29.658  29.341  22.476  1.00  0.00    -0.262 N 
ATOM     12  H   UNL A   1      29.554  29.417  21.500  1.00  0.00     0.182 HD
ATOM     13  O   UNL A   1      30.712  27.419  21.995  1.00  0.00    -0.274 OA
BRANCH  11  14
ATOM     14  C   UNL A   1      29.140  30.382  23.132  1.00  0.00     0.183 C 
ATOM     15  N   UNL A   1      28.730  31.302  23.705  1.00  0.00    -0.172 NA
ENDBRANCH  11  14
ENDBRANCH   8  10
ENDBRANCH   4   7
ENDBRANCH   2   3
ENDBRANCH   1   2
BRANCH   1  16
ATOM     16  C   UNL A   1      32.564  32.768  27.265  1.00  0.00     0.118 C 
BRANCH  16  17
ATOM     17  N   UNL A   1      32.390  34.158  27.666  1.00  0.00    -0.352 N 
ATOM     18  C   UNL A   1      33.017  34.885  28.645  1.00  0.00     0.251 C 
ATOM     19  H   UNL A   1      31.713  34.654  27.153  1.00  0.00     0.163 HD
ATOM     20  O   UNL A   1      32.592  35.999  28.942  1.00  0.00    -0.269 OA
BRANCH  18  21
ATOM     21  C   UNL A   1      34.189  34.334  29.359  1.00  0.00     0.039 A 
ATOM     22  C   UNL A   1      33.981  33.636  30.551  1.00  0.00     0.014 A 
ATOM     23  C   UNL A   1      35.487  34.522  28.879  1.00  0.00     0.014 A 
ATOM     24  C   UNL A   1      35.069  33.078  31.227  1.00  0.00     0.010 A 
ATOM     25  C   UNL A   1      36.557  33.885  29.500  1.00  0.00     0.010 A 
ATOM     26  C   UNL A   1      36.363  33.166  30.688  1.00  0.00    -0.014 A 
BRANCH  26  27
ATOM     27  C   UNL A   1      37.522  32.525  31.361  1.00  0.00     0.031 A 
ATOM     28  C   UNL A   1      38.252  31.389  30.699  1.00  0.00     0.074 A 
ATOM     29  C   UNL A   1      37.891  32.935  32.591  1.00  0.00     0.049 A 
ATOM     30  N   UNL A   1      39.258  30.677  31.144  1.00  0.00    -0.248 NA
ATOM     31  C   UNL A   1      37.775  30.981  29.369  1.00  0.00     0.031 C 
ATOM     32  C   UNL A   1      37.241  34.000  33.357  1.00  0.00     0.029 A 
ATOM     33  N   UNL A   1      38.901  32.503  33.415  1.00  0.00    -0.354 N 
ATOM     34  C   UNL A   1      39.526  29.739  30.156  1.00  0.00     0.074 A 
ATOM     35  C   UNL A   1      38.534  29.925  29.119  1.00  0.00     0.031 C 
ATOM     36  C   UNL A   1      37.890  34.164  34.520  1.00  0.00     0.029 A 
ATOM     37  C   UNL A   1      38.965  33.181  34.609  1.00  0.00     0.049 A 
ATOM     38  H   UNL A   1      39.519  31.776  33.174  1.00  0.00     0.167 HD
ATOM     39  C   UNL A   1      40.523  28.825  30.102  1.00  0.00     0.037 A 
ATOM     40  C   UNL A   1      39.792  33.021  35.660  1.00  0.00     0.037 A 
ATOM     41  C   UNL A   1      41.509  28.644  31.137  1.00  0.00     0.049 A 
ATOM     42  C   UNL A   1      40.860  31.961  35.597  1.00  0.00     0.074 A 
ATOM     43  C   UNL A   1      42.583  27.771  31.162  1.00  0.00     0.029 A 
ATOM     44  N   UNL A   1      41.532  29.340  32.338  1.00  0.00    -0.354 N 
ATOM     45  N   UNL A   1      41.146  31.126  34.629  1.00  0.00    -0.248 NA
ATOM     46  C   UNL A   1      41.727  31.829  36.776  1.00  0.00     0.031 C 
ATOM     47  C   UNL A   1      43.210  27.885  32.407  1.00  0.00     0.029 A 
ATOM     48  C   UNL A   1      42.583  28.891  33.124  1.00  0.00     0.049 A 
ATOM     49  H   UNL A   1      40.898  30.047  32.594  1.00  0.00     0.167 HD
ATOM     50  C   UNL A   1      42.248  30.399  35.063  1.00  0.00     0.074 A 
ATOM     51  C   UNL A   1      42.588  30.904  36.375  1.00  0.00     0.031 C 
ATOM     52  C   UNL A   1      42.920  29.407  34.427  1.00  0.00     0.037 A 
BRANCH  39  53
ATOM     53  C   UNL A   1      40.592  27.940  28.889  1.00  0.00     0.064 A 
ATOM     54  C   UNL A   1      41.377  28.271  27.772  1.00  0.00     0.173 A 
ATOM     55  C   UNL A   1      39.885  26.727  28.850  1.00  0.00     0.173 A 
ATOM     56  F   UNL A   1      42.069  29.421  27.751  1.00  0.00    -0.203 F 
ATOM     57  C   UNL A   1      41.419  27.446  26.651  1.00  0.00     0.198 A 
ATOM     58  C   UNL A   1      39.962  25.884  27.744  1.00  0.00     0.198 A 
ATOM     59  F   UNL A   1      39.125  26.352  29.890  1.00  0.00    -0.203 F 
ATOM     60  F   UNL A   1      42.123  27.819  25.574  1.00  0.00    -0.200 F 
ATOM     61  C   UNL A   1      40.718  26.251  26.641  1.00  0.00     0.200 A 
ATOM     62  F   UNL A   1      39.300  24.719  27.745  1.00  0.00    -0.200 F 
ATOM     63  F   UNL A   1      40.764  25.454  25.564  1.00  0.00    -0.200 F 
ENDBRANCH  39  53
BRANCH  40  64
ATOM     64  C   UNL A   1      39.658  33.895  36.857  1.00  0.00     0.064 A 
ATOM     65  C   UNL A   1      38.875  33.504  37.952  1.00  0.00     0.173 A 
ATOM     66  C   UNL A   1      40.288  35.146  36.924  1.00  0.00     0.173 A 
ATOM     67  F   UNL A   1      38.236  32.324  37.932  1.00  0.00    -0.203 F 
ATOM     68  C   UNL A   1      38.699  34.343  39.051  1.00  0.00     0.198 A 
ATOM     69  C   UNL A   1      40.144  35.968  38.040  1.00  0.00     0.198 A 
ATOM     70  F   UNL A   1      41.055  35.568  35.908  1.00  0.00    -0.203 F 
ATOM     71  F   UNL A   1      37.893  33.970  40.054  1.00  0.00    -0.200 F 
ATOM     72  C   UNL A   1      39.338  35.572  39.096  1.00  0.00     0.200 A 
ATOM     73  F   UNL A   1      40.779  37.146  38.087  1.00  0.00    -0.200 F 
ATOM     74  F   UNL A   1      39.170  36.378  40.153  1.00  0.00    -0.200 F 
ENDBRANCH  40  64
BRANCH  52  75
ATOM     75  C   UNL A   1      44.133  28.840  35.115  1.00  0.00     0.064 A 
ATOM     76  C   UNL A   1      44.052  27.750  35.994  1.00  0.00     0.173 A 
ATOM     77  C   UNL A   1      45.404  29.382  34.862  1.00  0.00     0.173 A 
ATOM     78  F   UNL A   1      42.862  27.199  36.280  1.00  0.00    -0.203 F 
ATOM     79  C   UNL A   1      45.190  27.251  36.623  1.00  0.00     0.198 A 
ATOM     80  C   UNL A   1      46.544  28.853  35.459  1.00  0.00     0.198 A 
ATOM     81  F   UNL A   1      45.543  30.419  34.022  1.00  0.00    -0.203 F 
ATOM     82  F   UNL A   1      45.079  26.252  37.510  1.00  0.00    -0.200 F 
ATOM     83  C   UNL A   1      46.436  27.797  36.349  1.00  0.00     0.200 A 
ATOM     84  F   UNL A   1      47.748  29.367  35.173  1.00  0.00    -0.200 F 
ATOM     85  F   UNL A   1      47.530  27.309  36.949  1.00  0.00    -0.200 F 
ENDBRANCH  52  75
ENDBRANCH  26  27
ENDBRANCH  18  21
ENDBRANCH  16  17
ENDBRANCH   1  16
TORSDOF 12
ENDMDL
MODEL 2
REMARK VINA RESULT:     -10.9      1.206      2.339
REMARK SMILES N#CNC(=O)[C@H]1C[C@@H]1C(=O)NCCCNC(=O)c1ccc(-c2c3nc(c(-c4c(F)c(F)c(F)c(F)c4F)c4ccc([nH]4)c(-c4c(F)c(F)c(F)c(F)c4F)c4nc(c(-c5c(F)c(F)c(F)c(F)c5F)c5ccc2[nH]5)C=C4)C=C3)cc1
REMARK SMILES IDX 13 1 12 2 11 3 9 4 10 5 8 7 6 8 7 9 4 10 3 11 5 13 2 14 1 15
REMARK SMILES IDX 14 16 15 17 16 18 17 20 18 21 19 22 80 23 20 24 79 25 21 26
REMARK SMILES IDX 22 27 23 28 73 29 24 30 78 31 72 32 74 33 25 34 77 35 71 36
REMARK SMILES IDX 70 37 26 39 58 40 38 41 57 42 39 43 42 44 56 45 75 46 40 47
REMARK SMILES IDX 41 48 55 50 76 51 43 52 27 53 28 54 36 55 29 56 30 57 34 58
REMARK SMILES IDX 37 59 31 60 32 61 35 62 33 63 59 64 60 65 68 66 61 67 62 68
REMARK SMILES IDX 66 69 69 70 63 71 64 72 67 73 65 74 44 75 45 76 53 77 46 78
REMARK SMILES IDX 47 79 51 80 54 81 48 82 49 83 52 84 50 85
REMARK H PARENT 11 6 3 12 15 19 74 38 42 49
REMARK Flexibility Score: inf
ROOT
ATOM      1  C   UNL A   1      31.491  32.229  26.776  1.00  0.00     0.042 C 
ENDROOT
BRANCH   1   2
ATOM      2  C   UNL A   1      31.672  30.716  26.749  1.00  0.00     0.117 C 
BRANCH   2   3
ATOM      3  N   UNL A   1      32.931  30.314  27.343  1.00  0.00    -0.356 N 
ATOM      4  C   UNL A   1      33.681  29.213  27.048  1.00  0.00     0.223 C 
ATOM      5  O   UNL A   1      34.717  28.972  27.656  1.00  0.00    -0.275 OA
ATOM      6  H   UNL A   1      33.288  30.906  28.043  1.00  0.00     0.163 HD
BRANCH   4   7
ATOM      7  C   UNL A   1      33.211  28.325  25.960  1.00  0.00     0.092 C 
ATOM      8  C   UNL A   1      32.273  27.192  26.317  1.00  0.00     0.093 C 
ATOM      9  C   UNL A   1      33.689  26.897  25.882  1.00  0.00     0.028 C 
BRANCH   8  10
ATOM     10  C   UNL A   1      31.143  26.695  25.497  1.00  0.00     0.236 C 
ATOM     11  N   UNL A   1      30.661  25.429  25.660  1.00  0.00    -0.262 N 
ATOM     12  H   UNL A   1      29.956  25.204  25.011  1.00  0.00     0.182 HD
ATOM     13  O   UNL A   1      30.658  27.429  24.642  1.00  0.00    -0.274 OA
BRANCH  11  14
ATOM     14  C   UNL A   1      30.928  24.425  26.498  1.00  0.00     0.183 C 
ATOM     15  N   UNL A   1      31.140  23.575  27.257  1.00  0.00    -0.172 NA
ENDBRANCH  11  14
ENDBRANCH   8  10
ENDBRANCH   4   7
ENDBRANCH   2   3
ENDBRANCH   1   2
BRANCH   1  16
ATOM     16  C   UNL A   1      32.761  32.998  27.120  1.00  0.00     0.118 C 
BRANCH  16  17
ATOM     17  N   UNL A   1      32.491  34.327  27.652  1.00  0.00    -0.352 N 
ATOM     18  C   UNL A   1      33.028  34.978  28.733  1.00  0.00     0.251 C 
ATOM     19  H   UNL A   1      31.813  34.840  27.156  1.00  0.00     0.163 HD
ATOM     20  O   UNL A   1      32.527  36.031  29.118  1.00  0.00    -0.269 OA
BRANCH  18  21
ATOM     21  C   UNL A   1      34.192  34.415  29.449  1.00  0.00     0.039 A 
ATOM     22  C   UNL A   1      33.972  33.695  30.627  1.00  0.00     0.014 A 
ATOM     23  C   UNL A   1      35.495  34.612  28.987  1.00  0.00     0.014 A 
ATOM     24  C   UNL A   1      35.052  33.126  31.304  1.00  0.00     0.010 A 
ATOM     25  C   UNL A   1      36.558  33.964  29.608  1.00  0.00     0.010 A 
ATOM     26  C   UNL A   1      36.352  33.224  30.781  1.00  0.00    -0.014 A 
BRANCH  26  27
ATOM     27  C   UNL A   1      37.504  32.571  31.455  1.00  0.00     0.031 A 
ATOM     28  C   UNL A   1      38.220  31.425  30.795  1.00  0.00     0.074 A 
ATOM     29  C   UNL A   1      37.879  32.981  32.683  1.00  0.00     0.049 A 
ATOM     30  N   UNL A   1      39.217  30.702  31.242  1.00  0.00    -0.248 NA
ATOM     31  C   UNL A   1      37.737  31.018  29.467  1.00  0.00     0.031 C 
ATOM     32  C   UNL A   1      37.242  34.055  33.446  1.00  0.00     0.029 A 
ATOM     33  N   UNL A   1      38.884  32.539  33.508  1.00  0.00    -0.354 N 
ATOM     34  C   UNL A   1      39.474  29.759  30.256  1.00  0.00     0.074 A 
ATOM     35  C   UNL A   1      38.484  29.953  29.220  1.00  0.00     0.031 C 
ATOM     36  C   UNL A   1      37.894  34.215  34.608  1.00  0.00     0.029 A 
ATOM     37  C   UNL A   1      38.958  33.220  34.699  1.00  0.00     0.049 A 
ATOM     38  H   UNL A   1      39.494  31.805  33.268  1.00  0.00     0.167 HD
ATOM     39  C   UNL A   1      40.460  28.832  30.205  1.00  0.00     0.037 A 
ATOM     40  C   UNL A   1      39.784  33.053  35.750  1.00  0.00     0.037 A 
ATOM     41  C   UNL A   1      41.445  28.643  31.239  1.00  0.00     0.049 A 
ATOM     42  C   UNL A   1      40.839  31.981  35.690  1.00  0.00     0.074 A 
ATOM     43  C   UNL A   1      42.508  27.758  31.266  1.00  0.00     0.029 A 
ATOM     44  N   UNL A   1      41.477  29.342  32.437  1.00  0.00    -0.354 N 
ATOM     45  N   UNL A   1      41.114  31.139  34.724  1.00  0.00    -0.248 NA
ATOM     46  C   UNL A   1      41.706  31.842  36.869  1.00  0.00     0.031 C 
ATOM     47  C   UNL A   1      43.138  27.868  32.510  1.00  0.00     0.029 A 
ATOM     48  C   UNL A   1      42.524  28.883  33.225  1.00  0.00     0.049 A 
ATOM     49  H   UNL A   1      40.851  30.057  32.692  1.00  0.00     0.167 HD
ATOM     50  C   UNL A   1      42.208  30.401  35.159  1.00  0.00     0.074 A 
ATOM     51  C   UNL A   1      42.555  30.906  36.469  1.00  0.00     0.031 C 
ATOM     52  C   UNL A   1      42.868  29.400  34.526  1.00  0.00     0.037 A 
BRANCH  39  53
ATOM     53  C   UNL A   1      40.518  27.943  28.994  1.00  0.00     0.064 A 
ATOM     54  C   UNL A   1      39.777  26.752  28.912  1.00  0.00     0.173 A 
ATOM     55  C   UNL A   1      41.302  28.298  27.885  1.00  0.00     0.173 A 
ATOM     56  F   UNL A   1      39.015  26.359  29.944  1.00  0.00    -0.203 F 
ATOM     57  C   UNL A   1      39.852  25.933  27.788  1.00  0.00     0.198 A 
ATOM     58  C   UNL A   1      41.342  27.498  26.746  1.00  0.00     0.198 A 
ATOM     59  F   UNL A   1      42.024  29.428  27.900  1.00  0.00    -0.203 F 
ATOM     60  F   UNL A   1      39.187  24.770  27.764  1.00  0.00    -0.200 F 
ATOM     61  C   UNL A   1      40.628  26.310  26.704  1.00  0.00     0.200 A 
ATOM     62  F   UNL A   1      42.076  27.875  25.690  1.00  0.00    -0.200 F 
ATOM     63  F   UNL A   1      40.693  25.525  25.620  1.00  0.00    -0.200 F 
ENDBRANCH  39  53
BRANCH  40  64
ATOM     64  C   UNL A   1      39.661  33.932  36.945  1.00  0.00     0.064 A 
ATOM     65  C   UNL A   1      38.915  33.531  38.063  1.00  0.00     0.173 A 
ATOM     66  C   UNL A   1      40.264  35.198  36.987  1.00  0.00     0.173 A 
ATOM     67  F   UNL A   1      38.303  32.337  38.066  1.00  0.00    -0.203 F 
ATOM     68  C   UNL A   1      38.749  34.374  39.160  1.00  0.00     0.198 A 
ATOM     69  C   UNL A   1      40.130  36.024  38.102  1.00  0.00     0.198 A 
ATOM     70  F   UNL A   1      40.994  35.630  35.949  1.00  0.00    -0.203 F 
ATOM     71  F   UNL A   1      37.978  33.990  40.186  1.00  0.00    -0.200 F 
ATOM     72  C   UNL A   1      39.361  35.618  39.181  1.00  0.00     0.200 A 
ATOM     73  F   UNL A   1      40.739  37.217  38.125  1.00  0.00    -0.200 F 
ATOM     74  F   UNL A   1      39.202  36.427  40.236  1.00  0.00    -0.200 F 
ENDBRANCH  40  64
BRANCH  52  75
ATOM     75  C   UNL A   1      44.074  28.820  35.214  1.00  0.00     0.064 A 
ATOM     76  C   UNL A   1      45.366  29.332  35.016  1.00  0.00     0.173 A 
ATOM     77  C   UNL A   1      43.926  27.750  36.112  1.00  0.00     0.173 A 
ATOM     78  F   UNL A   1      45.567  30.346  34.161  1.00  0.00    -0.203 F 
ATOM     79  C   UNL A   1      46.465  28.769  35.659  1.00  0.00     0.198 A 
ATOM     80  C   UNL A   1      45.022  27.219  36.786  1.00  0.00     0.198 A 
ATOM     81  F   UNL A   1      42.714  27.226  36.348  1.00  0.00    -0.203 F 
ATOM     82  F   UNL A   1      47.697  29.232  35.403  1.00  0.00    -0.200 F 
ATOM     83  C   UNL A   1      46.292  27.720  36.550  1.00  0.00     0.200 A 
ATOM     84  F   UNL A   1      44.848  26.221  37.664  1.00  0.00    -0.200 F 
ATOM     85  F   UNL A   1      47.351  27.187  37.174  1.00  0.00    -0.200 F 
ENDBRANCH  52  75
ENDBRANCH  26  27
ENDBRANCH  18  21
ENDBRANCH  16  17
ENDBRANCH   1  16
TORSDOF 12
ENDMDL
MODEL 3
REMARK VINA RESULT:     -10.9      6.568     11.751
REMARK SMILES N#CNC(=O)[C@H]1C[C@@H]1C(=O)NCCCNC(=O)c1ccc(-c2c3nc(c(-c4c(F)c(F)c(F)c(F)c4F)c4ccc([nH]4)c(-c4c(F)c(F)c(F)c(F)c4F)c4nc(c(-c5c(F)c(F)c(F)c(F)c5F)c5ccc2[nH]5)C=C4)C=C3)cc1
REMARK SMILES IDX 13 1 12 2 11 3 9 4 10 5 8 7 6 8 7 9 4 10 3 11 5 13 2 14 1 15
REMARK SMILES IDX 14 16 15 17 16 18 17 20 18 21 19 22 80 23 20 24 79 25 21 26
REMARK SMILES IDX 22 27 23 28 73 29 24 30 78 31 72 32 74 33 25 34 77 35 71 36
REMARK SMILES IDX 70 37 26 39 58 40 38 41 57 42 39 43 42 44 56 45 75 46 40 47
REMARK SMILES IDX 41 48 55 50 76 51 43 52 27 53 28 54 36 55 29 56 30 57 34 58
REMARK SMILES IDX 37 59 31 60 32 61 35 62 33 63 59 64 60 65 68 66 61 67 62 68
REMARK SMILES IDX 66 69 69 70 63 71 64 72 67 73 65 74 44 75 45 76 53 77 46 78
REMARK SMILES IDX 47 79 51 80 54 81 48 82 49 83 52 84 50 85
REMARK H PARENT 11 6 3 12 15 19 74 38 42 49
REMARK Flexibility Score: inf
ROOT
ATOM      1  C   UNL A   1      37.937  19.569  25.000  1.00  0.00     0.042 C 
ENDROOT
BRANCH   1   2
ATOM      2  C   UNL A   1      36.691  20.442  25.090  1.00  0.00     0.117 C 
BRANCH   2   3
ATOM      3  N   UNL A   1      36.746  21.556  24.165  1.00  0.00    -0.356 N 
ATOM      4  C   UNL A   1      35.759  22.452  23.876  1.00  0.00     0.223 C 
ATOM      5  O   UNL A   1      35.929  23.333  23.042  1.00  0.00    -0.275 OA
ATOM      6  H   UNL A   1      37.599  21.683  23.690  1.00  0.00     0.163 HD
BRANCH   4   7
ATOM      7  C   UNL A   1      34.478  22.335  24.612  1.00  0.00     0.092 C 
ATOM      8  C   UNL A   1      33.419  21.405  24.059  1.00  0.00     0.093 C 
ATOM      9  C   UNL A   1      33.209  22.900  24.026  1.00  0.00     0.028 C 
BRANCH   8  10
ATOM     10  C   UNL A   1      32.494  20.559  24.849  1.00  0.00     0.236 C 
ATOM     11  N   UNL A   1      32.701  19.216  24.968  1.00  0.00    -0.262 N 
ATOM     12  H   UNL A   1      31.981  18.762  25.463  1.00  0.00     0.182 HD
ATOM     13  O   UNL A   1      31.515  21.076  25.376  1.00  0.00    -0.274 OA
BRANCH  11  14
ATOM     14  C   UNL A   1      33.657  18.375  24.566  1.00  0.00     0.183 C 
ATOM     15  N   UNL A   1      34.477  17.619  24.251  1.00  0.00    -0.172 NA
ENDBRANCH  11  14
ENDBRANCH   8  10
ENDBRANCH   4   7
ENDBRANCH   2   3
ENDBRANCH   1   2
BRANCH   1  16
ATOM     16  C   UNL A   1      39.134  20.121  25.766  1.00  0.00     0.118 C 
BRANCH  16  17
ATOM     17  N   UNL A   1      40.202  19.144  25.927  1.00  0.00    -0.352 N 
ATOM     18  C   UNL A   1      41.547  19.321  26.129  1.00  0.00     0.251 C 
ATOM     19  H   UNL A   1      39.912  18.204  25.882  1.00  0.00     0.163 HD
ATOM     20  O   UNL A   1      42.305  18.358  26.056  1.00  0.00    -0.269 OA
BRANCH  18  21
ATOM     21  C   UNL A   1      42.094  20.665  26.416  1.00  0.00     0.039 A 
ATOM     22  C   UNL A   1      42.456  21.486  25.344  1.00  0.00     0.014 A 
ATOM     23  C   UNL A   1      42.278  21.110  27.727  1.00  0.00     0.014 A 
ATOM     24  C   UNL A   1      42.945  22.770  25.588  1.00  0.00     0.010 A 
ATOM     25  C   UNL A   1      42.673  22.422  27.966  1.00  0.00     0.010 A 
ATOM     26  C   UNL A   1      43.023  23.265  26.901  1.00  0.00    -0.014 A 
BRANCH  26  27
ATOM     27  C   UNL A   1      43.482  24.651  27.175  1.00  0.00     0.031 A 
ATOM     28  C   UNL A   1      42.523  25.674  27.720  1.00  0.00     0.074 A 
ATOM     29  C   UNL A   1      44.751  25.003  26.890  1.00  0.00     0.049 A 
ATOM     30  N   UNL A   1      42.725  26.941  27.985  1.00  0.00    -0.248 NA
ATOM     31  C   UNL A   1      41.149  25.221  27.982  1.00  0.00     0.031 C 
ATOM     32  C   UNL A   1      45.767  24.116  26.323  1.00  0.00     0.029 A 
ATOM     33  N   UNL A   1      45.403  26.203  27.036  1.00  0.00    -0.354 N 
ATOM     34  C   UNL A   1      41.507  27.433  28.434  1.00  0.00     0.074 A 
ATOM     35  C   UNL A   1      40.554  26.349  28.340  1.00  0.00     0.031 C 
ATOM     36  C   UNL A   1      46.922  24.788  26.204  1.00  0.00     0.029 A 
ATOM     37  C   UNL A   1      46.716  26.168  26.633  1.00  0.00     0.049 A 
ATOM     38  H   UNL A   1      44.971  27.011  27.395  1.00  0.00     0.167 HD
ATOM     39  C   UNL A   1      41.213  28.667  28.909  1.00  0.00     0.037 A 
ATOM     40  C   UNL A   1      47.646  27.142  26.604  1.00  0.00     0.037 A 
ATOM     41  C   UNL A   1      42.165  29.744  29.001  1.00  0.00     0.049 A 
ATOM     42  C   UNL A   1      47.279  28.521  27.087  1.00  0.00     0.074 A 
ATOM     43  C   UNL A   1      41.978  31.021  29.502  1.00  0.00     0.029 A 
ATOM     44  N   UNL A   1      43.482  29.675  28.569  1.00  0.00    -0.354 N 
ATOM     45  N   UNL A   1      46.143  28.955  27.573  1.00  0.00    -0.248 NA
ATOM     46  C   UNL A   1      48.333  29.543  27.024  1.00  0.00     0.031 C 
ATOM     47  C   UNL A   1      43.157  31.746  29.304  1.00  0.00     0.029 A 
ATOM     48  C   UNL A   1      44.108  30.898  28.761  1.00  0.00     0.049 A 
ATOM     49  H   UNL A   1      43.909  28.877  28.182  1.00  0.00     0.167 HD
ATOM     50  C   UNL A   1      46.355  30.286  27.912  1.00  0.00     0.074 A 
ATOM     51  C   UNL A   1      47.735  30.582  27.590  1.00  0.00     0.031 C 
ATOM     52  C   UNL A   1      45.487  31.180  28.447  1.00  0.00     0.037 A 
BRANCH  39  53
ATOM     53  C   UNL A   1      39.800  28.924  29.354  1.00  0.00     0.064 A 
ATOM     54  C   UNL A   1      38.822  29.413  28.473  1.00  0.00     0.173 A 
ATOM     55  C   UNL A   1      39.408  28.651  30.674  1.00  0.00     0.173 A 
ATOM     56  F   UNL A   1      39.140  29.698  27.201  1.00  0.00    -0.203 F 
ATOM     57  C   UNL A   1      37.520  29.657  28.905  1.00  0.00     0.198 A 
ATOM     58  C   UNL A   1      38.096  28.857  31.093  1.00  0.00     0.198 A 
ATOM     59  F   UNL A   1      40.296  28.174  31.560  1.00  0.00    -0.203 F 
ATOM     60  F   UNL A   1      36.624  30.186  28.062  1.00  0.00    -0.200 F 
ATOM     61  C   UNL A   1      37.157  29.372  30.212  1.00  0.00     0.200 A 
ATOM     62  F   UNL A   1      37.742  28.561  32.351  1.00  0.00    -0.200 F 
ATOM     63  F   UNL A   1      35.903  29.601  30.626  1.00  0.00    -0.200 F 
ENDBRANCH  39  53
BRANCH  40  64
ATOM     64  C   UNL A   1      49.021  26.850  26.114  1.00  0.00     0.064 A 
ATOM     65  C   UNL A   1      49.362  27.033  24.767  1.00  0.00     0.173 A 
ATOM     66  C   UNL A   1      50.015  26.359  26.974  1.00  0.00     0.173 A 
ATOM     67  F   UNL A   1      48.444  27.482  23.898  1.00  0.00    -0.203 F 
ATOM     68  C   UNL A   1      50.631  26.705  24.292  1.00  0.00     0.198 A 
ATOM     69  C   UNL A   1      51.295  26.069  26.506  1.00  0.00     0.198 A 
ATOM     70  F   UNL A   1      49.747  26.171  28.275  1.00  0.00    -0.203 F 
ATOM     71  F   UNL A   1      50.908  26.830  22.987  1.00  0.00    -0.200 F 
ATOM     72  C   UNL A   1      51.598  26.229  25.163  1.00  0.00     0.200 A 
ATOM     73  F   UNL A   1      52.232  25.628  27.356  1.00  0.00    -0.200 F 
ATOM     74  F   UNL A   1      52.818  25.915  24.707  1.00  0.00    -0.200 F 
ENDBRANCH  40  64
BRANCH  52  75
ATOM     75  C   UNL A   1      46.016  32.549  28.777  1.00  0.00     0.064 A 
ATOM     76  C   UNL A   1      46.602  32.845  30.017  1.00  0.00     0.173 A 
ATOM     77  C   UNL A   1      45.960  33.576  27.820  1.00  0.00     0.173 A 
ATOM     78  F   UNL A   1      46.672  31.906  30.973  1.00  0.00    -0.203 F 
ATOM     79  C   UNL A   1      47.075  34.124  30.299  1.00  0.00     0.198 A 
ATOM     80  C   UNL A   1      46.473  34.841  28.090  1.00  0.00     0.198 A 
ATOM     81  F   UNL A   1      45.419  33.348  26.613  1.00  0.00    -0.203 F 
ATOM     82  F   UNL A   1      47.570  34.400  31.514  1.00  0.00    -0.200 F 
ATOM     83  C   UNL A   1      47.018  35.118  29.333  1.00  0.00     0.200 A 
ATOM     84  F   UNL A   1      46.438  35.792  27.146  1.00  0.00    -0.200 F 
ATOM     85  F   UNL A   1      47.482  36.346  29.604  1.00  0.00    -0.200 F 
ENDBRANCH  52  75
ENDBRANCH  26  27
ENDBRANCH  18  21
ENDBRANCH  16  17
ENDBRANCH   1  16
TORSDOF 12
ENDMDL
