MODEL 1
REMARK VINA RESULT:     -12.7      0.000      0.000
REMARK SMILES CC[C@](NC(=O)c1cccc(CS(C)(=O)=O)c1)(C(=O)NCCCNC(=O)c1ccc(-c2c3nc(c(-c4c(F)c(F)c(F)c(F)c4F)c4ccc([nH]4)c(-c4c(F)c(F)c(F)c(F)c4F)c4nc(c(-c5c(F)c(F)c(F)c(F)c5F)c5ccc2[nH]5)C=C4)C=C3)cc1)c1ccccc1
REMARK SMILES IDX 21 1 20 2 18 3 19 4 3 6 2 7 1 8 90 9 91 10 95 11 92 12 94 13
REMARK SMILES IDX 93 14 4 15 5 16 6 18 7 19 8 20 17 21 9 22 11 23 10 24 12 25
REMARK SMILES IDX 13 26 14 27 15 28 16 29 22 30 23 31 24 32 25 33 26 35 27 36
REMARK SMILES IDX 28 37 89 38 29 39 88 40 30 41 31 42 32 43 82 44 33 45 87 46
REMARK SMILES IDX 81 47 83 48 34 49 86 50 80 51 79 52 35 54 67 55 47 56 66 57
REMARK SMILES IDX 48 58 51 59 65 60 84 61 49 62 50 63 64 65 85 66 52 67 36 68
REMARK SMILES IDX 37 69 45 70 38 71 39 72 43 73 46 74 40 75 41 76 44 77 42 78
REMARK SMILES IDX 68 79 69 80 77 81 70 82 71 83 75 84 78 85 72 86 73 87 76 88
REMARK SMILES IDX 74 89 53 90 54 91 62 92 55 93 56 94 60 95 63 96 57 97 58 98
REMARK SMILES IDX 61 99 59 100
REMARK H PARENT 20 5 4 17 24 34 83 53 51 64
REMARK Flexibility Score: inf
ROOT
ATOM      1  C   UNL A   1      31.430  27.579  26.638  1.00  0.00     0.117 C 
ENDROOT
BRANCH   1   2
ATOM      2  N   UNL A   1      30.911  27.423  25.284  1.00  0.00    -0.354 N 
ATOM      3  C   UNL A   1      31.248  26.608  24.225  1.00  0.00     0.250 C 
ATOM      4  O   UNL A   1      30.493  26.686  23.248  1.00  0.00    -0.272 OA
ATOM      5  H   UNL A   1      30.161  28.029  25.084  1.00  0.00     0.163 HD
BRANCH   3   6
ATOM      6  C   UNL A   1      32.480  25.625  24.264  1.00  0.00     0.144 C 
BRANCH   6   7
ATOM      7  C   UNL A   1      33.742  26.579  24.499  1.00  0.00     0.040 C 
ATOM      8  C   UNL A   1      34.005  27.715  23.515  1.00  0.00     0.007 C 
ENDBRANCH   6   7
BRANCH   6   9
ATOM      9  C   UNL A   1      32.434  24.647  25.484  1.00  0.00    -0.013 A 
ATOM     10  C   UNL A   1      31.282  23.935  25.866  1.00  0.00     0.007 A 
ATOM     11  C   UNL A   1      33.610  24.378  26.226  1.00  0.00     0.007 A 
ATOM     12  C   UNL A   1      31.309  22.990  26.901  1.00  0.00     0.000 A 
ATOM     13  C   UNL A   1      33.648  23.402  27.230  1.00  0.00     0.000 A 
ATOM     14  C   UNL A   1      32.495  22.706  27.567  1.00  0.00     0.000 A 
ENDBRANCH   6   9
BRANCH   6  15
ATOM     15  N   UNL A   1      32.609  24.880  22.969  1.00  0.00    -0.334 N 
ATOM     16  C   UNL A   1      33.362  23.824  22.499  1.00  0.00     0.252 C 
ATOM     17  H   UNL A   1      32.002  25.235  22.280  1.00  0.00     0.165 HD
ATOM     18  O   UNL A   1      33.501  23.754  21.275  1.00  0.00    -0.269 OA
BRANCH  16  19
ATOM     19  C   UNL A   1      34.029  22.779  23.322  1.00  0.00     0.040 A 
ATOM     20  C   UNL A   1      35.409  22.853  23.530  1.00  0.00     0.014 A 
ATOM     21  C   UNL A   1      33.373  21.644  23.785  1.00  0.00     0.018 A 
ATOM     22  C   UNL A   1      36.074  21.850  24.249  1.00  0.00     0.001 A 
ATOM     23  C   UNL A   1      33.993  20.662  24.576  1.00  0.00    -0.032 A 
ATOM     24  C   UNL A   1      35.365  20.776  24.796  1.00  0.00     0.005 A 
BRANCH  23  25
ATOM     25  C   UNL A   1      33.133  19.631  25.267  1.00  0.00     0.172 C 
BRANCH  25  26
ATOM     26  S   UNL A   1      32.827  18.153  24.321  1.00  0.00     0.151 S 
ATOM     27  C   UNL A   1      34.367  17.280  24.252  1.00  0.00     0.158 C 
ATOM     28  O   UNL A   1      31.916  17.335  25.096  1.00  0.00    -0.229 OA
ATOM     29  O   UNL A   1      32.481  18.518  22.959  1.00  0.00    -0.229 OA
ENDBRANCH  25  26
ENDBRANCH  23  25
ENDBRANCH  16  19
ENDBRANCH   6  15
ENDBRANCH   3   6
ENDBRANCH   1   2
BRANCH   1  30
ATOM     30  C   UNL A   1      31.723  29.002  27.115  1.00  0.00     0.042 C 
BRANCH  30  31
ATOM     31  C   UNL A   1      32.682  29.824  26.261  1.00  0.00     0.118 C 
BRANCH  31  32
ATOM     32  N   UNL A   1      32.633  31.249  26.526  1.00  0.00    -0.352 N 
ATOM     33  C   UNL A   1      33.455  32.040  27.286  1.00  0.00     0.251 C 
ATOM     34  H   UNL A   1      31.890  31.724  26.090  1.00  0.00     0.163 HD
ATOM     35  O   UNL A   1      33.177  33.230  27.420  1.00  0.00    -0.269 OA
BRANCH  33  36
ATOM     36  C   UNL A   1      34.642  31.492  27.985  1.00  0.00     0.039 A 
ATOM     37  C   UNL A   1      35.746  32.332  28.162  1.00  0.00     0.014 A 
ATOM     38  C   UNL A   1      34.715  30.165  28.411  1.00  0.00     0.014 A 
ATOM     39  C   UNL A   1      36.894  31.856  28.803  1.00  0.00     0.010 A 
ATOM     40  C   UNL A   1      35.836  29.702  29.096  1.00  0.00     0.010 A 
ATOM     41  C   UNL A   1      36.936  30.543  29.296  1.00  0.00    -0.014 A 
BRANCH  41  42
ATOM     42  C   UNL A   1      38.107  30.047  30.057  1.00  0.00     0.031 A 
ATOM     43  C   UNL A   1      38.369  30.521  31.457  1.00  0.00     0.074 A 
ATOM     44  C   UNL A   1      38.978  29.224  29.443  1.00  0.00     0.049 A 
ATOM     45  N   UNL A   1      39.358  30.221  32.262  1.00  0.00    -0.248 NA
ATOM     46  C   UNL A   1      37.406  31.478  32.022  1.00  0.00     0.031 C 
ATOM     47  C   UNL A   1      38.859  28.755  28.062  1.00  0.00     0.029 A 
ATOM     48  N   UNL A   1      40.141  28.652  29.891  1.00  0.00    -0.354 N 
ATOM     49  C   UNL A   1      39.138  30.952  33.422  1.00  0.00     0.074 A 
ATOM     50  C   UNL A   1      37.954  31.753  33.197  1.00  0.00     0.031 C 
ATOM     51  C   UNL A   1      39.897  27.956  27.779  1.00  0.00     0.029 A 
ATOM     52  C   UNL A   1      40.771  27.881  28.945  1.00  0.00     0.049 A 
ATOM     53  H   UNL A   1      40.490  28.782  30.801  1.00  0.00     0.167 HD
ATOM     54  C   UNL A   1      39.850  30.936  34.575  1.00  0.00     0.037 A 
ATOM     55  C   UNL A   1      41.928  27.197  29.012  1.00  0.00     0.037 A 
ATOM     56  C   UNL A   1      41.030  30.134  34.783  1.00  0.00     0.049 A 
ATOM     57  C   UNL A   1      42.704  27.202  30.300  1.00  0.00     0.074 A 
ATOM     58  C   UNL A   1      41.790  29.996  35.931  1.00  0.00     0.029 A 
ATOM     59  N   UNL A   1      41.630  29.346  33.810  1.00  0.00    -0.354 N 
ATOM     60  N   UNL A   1      42.436  27.819  31.425  1.00  0.00    -0.248 NA
ATOM     61  C   UNL A   1      43.937  26.404  30.332  1.00  0.00     0.031 C 
ATOM     62  C   UNL A   1      42.882  29.173  35.636  1.00  0.00     0.029 A 
ATOM     63  C   UNL A   1      42.768  28.742  34.324  1.00  0.00     0.049 A 
ATOM     64  H   UNL A   1      41.296  29.231  32.891  1.00  0.00     0.167 HD
ATOM     65  C   UNL A   1      43.448  27.463  32.306  1.00  0.00     0.074 A 
ATOM     66  C   UNL A   1      44.325  26.561  31.588  1.00  0.00     0.031 C 
ATOM     67  C   UNL A   1      43.632  27.846  33.595  1.00  0.00     0.037 A 
BRANCH  54  68
ATOM     68  C   UNL A   1      39.375  31.814  35.700  1.00  0.00     0.064 A 
ATOM     69  C   UNL A   1      39.828  33.136  35.847  1.00  0.00     0.173 A 
ATOM     70  C   UNL A   1      38.426  31.344  36.623  1.00  0.00     0.173 A 
ATOM     71  F   UNL A   1      40.737  33.635  34.997  1.00  0.00    -0.203 F 
ATOM     72  C   UNL A   1      39.379  33.937  36.894  1.00  0.00     0.198 A 
ATOM     73  C   UNL A   1      37.953  32.162  37.647  1.00  0.00     0.198 A 
ATOM     74  F   UNL A   1      37.949  30.094  36.527  1.00  0.00    -0.203 F 
ATOM     75  F   UNL A   1      39.870  35.176  37.044  1.00  0.00    -0.200 F 
ATOM     76  C   UNL A   1      38.438  33.452  37.788  1.00  0.00     0.200 A 
ATOM     77  F   UNL A   1      37.030  31.696  38.500  1.00  0.00    -0.200 F 
ATOM     78  F   UNL A   1      38.001  34.227  38.791  1.00  0.00    -0.200 F 
ENDBRANCH  54  68
BRANCH  55  79
ATOM     79  C   UNL A   1      42.395  26.423  27.833  1.00  0.00     0.064 A 
ATOM     80  C   UNL A   1      43.350  26.953  26.956  1.00  0.00     0.173 A 
ATOM     81  C   UNL A   1      41.910  25.133  27.567  1.00  0.00     0.173 A 
ATOM     82  F   UNL A   1      43.831  28.189  27.158  1.00  0.00    -0.203 F 
ATOM     83  C   UNL A   1      43.790  26.232  25.847  1.00  0.00     0.198 A 
ATOM     84  C   UNL A   1      42.373  24.401  26.477  1.00  0.00     0.198 A 
ATOM     85  F   UNL A   1      41.001  24.575  28.381  1.00  0.00    -0.203 F 
ATOM     86  F   UNL A   1      44.672  26.781  25.001  1.00  0.00    -0.200 F 
ATOM     87  C   UNL A   1      43.307  24.954  25.613  1.00  0.00     0.200 A 
ATOM     88  F   UNL A   1      41.918  23.158  26.264  1.00  0.00    -0.200 F 
ATOM     89  F   UNL A   1      43.737  24.257  24.552  1.00  0.00    -0.200 F 
ENDBRANCH  55  79
BRANCH  67  90
ATOM     90  C   UNL A   1      44.809  27.261  34.324  1.00  0.00     0.064 A 
ATOM     91  C   UNL A   1      46.050  27.912  34.366  1.00  0.00     0.173 A 
ATOM     92  C   UNL A   1      44.679  26.049  35.019  1.00  0.00     0.173 A 
ATOM     93  F   UNL A   1      46.231  29.067  33.706  1.00  0.00    -0.203 F 
ATOM     94  C   UNL A   1      47.127  27.355  35.051  1.00  0.00     0.198 A 
ATOM     95  C   UNL A   1      45.748  25.514  35.732  1.00  0.00     0.198 A 
ATOM     96  F   UNL A   1      43.512  25.389  35.017  1.00  0.00    -0.203 F 
ATOM     97  F   UNL A   1      48.320  27.967  35.030  1.00  0.00    -0.200 F 
ATOM     98  C   UNL A   1      46.973  26.162  35.740  1.00  0.00     0.200 A 
ATOM     99  F   UNL A   1      45.592  24.369  36.411  1.00  0.00    -0.200 F 
ATOM    100  F   UNL A   1      48.009  25.632  36.405  1.00  0.00    -0.200 F 
ENDBRANCH  67  90
ENDBRANCH  41  42
ENDBRANCH  33  36
ENDBRANCH  31  32
ENDBRANCH  30  31
ENDBRANCH   1  30
TORSDOF 16
ENDMDL
MODEL 2
REMARK VINA RESULT:     -12.5      2.069      7.589
REMARK SMILES CC[C@](NC(=O)c1cccc(CS(C)(=O)=O)c1)(C(=O)NCCCNC(=O)c1ccc(-c2c3nc(c(-c4c(F)c(F)c(F)c(F)c4F)c4ccc([nH]4)c(-c4c(F)c(F)c(F)c(F)c4F)c4nc(c(-c5c(F)c(F)c(F)c(F)c5F)c5ccc2[nH]5)C=C4)C=C3)cc1)c1ccccc1
REMARK SMILES IDX 21 1 20 2 18 3 19 4 3 6 2 7 1 8 90 9 91 10 95 11 92 12 94 13
REMARK SMILES IDX 93 14 4 15 5 16 6 18 7 19 8 20 17 21 9 22 11 23 10 24 12 25
REMARK SMILES IDX 13 26 14 27 15 28 16 29 22 30 23 31 24 32 25 33 26 35 27 36
REMARK SMILES IDX 28 37 89 38 29 39 88 40 30 41 31 42 32 43 82 44 33 45 87 46
REMARK SMILES IDX 81 47 83 48 34 49 86 50 80 51 79 52 35 54 67 55 47 56 66 57
REMARK SMILES IDX 48 58 51 59 65 60 84 61 49 62 50 63 64 65 85 66 52 67 36 68
REMARK SMILES IDX 37 69 45 70 38 71 39 72 43 73 46 74 40 75 41 76 44 77 42 78
REMARK SMILES IDX 68 79 69 80 77 81 70 82 71 83 75 84 78 85 72 86 73 87 76 88
REMARK SMILES IDX 74 89 53 90 54 91 62 92 55 93 56 94 60 95 63 96 57 97 58 98
REMARK SMILES IDX 61 99 59 100
REMARK H PARENT 20 5 4 17 24 34 83 53 51 64
REMARK Flexibility Score: inf
ROOT
ATOM      1  C   UNL A   1      31.529  30.129  25.432  1.00  0.00     0.117 C 
ENDROOT
BRANCH   1   2
ATOM      2  N   UNL A   1      30.914  29.953  24.122  1.00  0.00    -0.354 N 
ATOM      3  C   UNL A   1      31.024  28.989  23.142  1.00  0.00     0.250 C 
ATOM      4  O   UNL A   1      30.245  29.123  22.191  1.00  0.00    -0.272 OA
ATOM      5  H   UNL A   1      30.288  30.675  23.886  1.00  0.00     0.163 HD
BRANCH   3   6
ATOM      6  C   UNL A   1      32.040  27.787  23.240  1.00  0.00     0.144 C 
BRANCH   6   7
ATOM      7  C   UNL A   1      33.439  28.477  23.588  1.00  0.00     0.040 C 
ATOM      8  C   UNL A   1      34.497  28.601  22.495  1.00  0.00     0.007 C 
ENDBRANCH   6   7
BRANCH   6   9
ATOM      9  C   UNL A   1      31.718  26.818  24.426  1.00  0.00    -0.013 A 
ATOM     10  C   UNL A   1      30.449  26.252  24.644  1.00  0.00     0.007 A 
ATOM     11  C   UNL A   1      32.747  26.407  25.308  1.00  0.00     0.007 A 
ATOM     12  C   UNL A   1      30.228  25.308  25.656  1.00  0.00     0.000 A 
ATOM     13  C   UNL A   1      32.536  25.431  26.290  1.00  0.00     0.000 A 
ATOM     14  C   UNL A   1      31.275  24.880  26.463  1.00  0.00     0.000 A 
ENDBRANCH   6   9
BRANCH   6  15
ATOM     15  N   UNL A   1      32.119  27.049  21.936  1.00  0.00    -0.334 N 
ATOM     16  C   UNL A   1      32.647  25.851  21.501  1.00  0.00     0.252 C 
ATOM     17  H   UNL A   1      31.684  27.546  21.207  1.00  0.00     0.165 HD
ATOM     18  O   UNL A   1      32.887  25.766  20.293  1.00  0.00    -0.269 OA
BRANCH  16  19
ATOM     19  C   UNL A   1      32.966  24.668  22.345  1.00  0.00     0.040 A 
ATOM     20  C   UNL A   1      31.935  23.806  22.729  1.00  0.00     0.014 A 
ATOM     21  C   UNL A   1      34.223  24.446  22.897  1.00  0.00     0.018 A 
ATOM     22  C   UNL A   1      32.196  22.719  23.575  1.00  0.00     0.001 A 
ATOM     23  C   UNL A   1      34.535  23.324  23.681  1.00  0.00    -0.032 A 
ATOM     24  C   UNL A   1      33.496  22.461  24.023  1.00  0.00     0.005 A 
BRANCH  23  25
ATOM     25  C   UNL A   1      35.984  23.025  23.985  1.00  0.00     0.172 C 
BRANCH  25  26
ATOM     26  S   UNL A   1      36.268  22.173  25.524  1.00  0.00     0.151 S 
ATOM     27  C   UNL A   1      38.013  22.253  25.819  1.00  0.00     0.158 C 
ATOM     28  O   UNL A   1      35.630  22.954  26.564  1.00  0.00    -0.229 OA
ATOM     29  O   UNL A   1      35.924  20.771  25.367  1.00  0.00    -0.229 OA
ENDBRANCH  25  26
ENDBRANCH  23  25
ENDBRANCH  16  19
ENDBRANCH   6  15
ENDBRANCH   3   6
ENDBRANCH   1   2
BRANCH   1  30
ATOM     30  C   UNL A   1      31.260  31.448  26.158  1.00  0.00     0.042 C 
BRANCH  30  31
ATOM     31  C   UNL A   1      32.438  32.074  26.896  1.00  0.00     0.118 C 
BRANCH  31  32
ATOM     32  N   UNL A   1      32.220  33.450  27.296  1.00  0.00    -0.352 N 
ATOM     33  C   UNL A   1      32.928  34.250  28.155  1.00  0.00     0.251 C 
ATOM     34  H   UNL A   1      31.435  33.879  26.884  1.00  0.00     0.163 HD
ATOM     35  O   UNL A   1      32.510  35.381  28.394  1.00  0.00    -0.269 OA
BRANCH  33  36
ATOM     36  C   UNL A   1      34.156  33.773  28.835  1.00  0.00     0.039 A 
ATOM     37  C   UNL A   1      34.025  32.769  29.799  1.00  0.00     0.014 A 
ATOM     38  C   UNL A   1      35.412  34.330  28.591  1.00  0.00     0.014 A 
ATOM     39  C   UNL A   1      35.153  32.297  30.477  1.00  0.00     0.010 A 
ATOM     40  C   UNL A   1      36.545  33.827  29.226  1.00  0.00     0.010 A 
ATOM     41  C   UNL A   1      36.425  32.807  30.176  1.00  0.00    -0.014 A 
BRANCH  41  42
ATOM     42  C   UNL A   1      37.643  32.257  30.817  1.00  0.00     0.031 A 
ATOM     43  C   UNL A   1      38.445  31.181  30.145  1.00  0.00     0.074 A 
ATOM     44  C   UNL A   1      37.974  32.683  32.051  1.00  0.00     0.049 A 
ATOM     45  N   UNL A   1      39.517  30.559  30.569  1.00  0.00    -0.248 NA
ATOM     46  C   UNL A   1      37.967  30.723  28.832  1.00  0.00     0.031 C 
ATOM     47  C   UNL A   1      37.226  33.674  32.826  1.00  0.00     0.029 A 
ATOM     48  N   UNL A   1      39.010  32.326  32.876  1.00  0.00    -0.354 N 
ATOM     49  C   UNL A   1      39.839  29.640  29.580  1.00  0.00     0.074 A 
ATOM     50  C   UNL A   1      38.817  29.743  28.561  1.00  0.00     0.031 C 
ATOM     51  C   UNL A   1      37.835  33.857  34.006  1.00  0.00     0.029 A 
ATOM     52  C   UNL A   1      38.995  32.975  34.085  1.00  0.00     0.049 A 
ATOM     53  H   UNL A   1      39.696  31.667  32.625  1.00  0.00     0.167 HD
ATOM     54  C   UNL A   1      40.903  28.802  29.522  1.00  0.00     0.037 A 
ATOM     55  C   UNL A   1      39.821  32.865  35.141  1.00  0.00     0.037 A 
ATOM     56  C   UNL A   1      41.911  28.709  30.549  1.00  0.00     0.049 A 
ATOM     57  C   UNL A   1      40.990  31.922  35.057  1.00  0.00     0.074 A 
ATOM     58  C   UNL A   1      43.062  27.941  30.562  1.00  0.00     0.029 A 
ATOM     59  N   UNL A   1      41.879  29.398  31.753  1.00  0.00    -0.354 N 
ATOM     60  N   UNL A   1      41.341  31.126  34.076  1.00  0.00    -0.248 NA
ATOM     61  C   UNL A   1      41.885  31.873  36.220  1.00  0.00     0.031 C 
ATOM     62  C   UNL A   1      43.692  28.119  31.798  1.00  0.00     0.029 A 
ATOM     63  C   UNL A   1      42.973  29.050  32.530  1.00  0.00     0.049 A 
ATOM     64  H   UNL A   1      41.181  30.041  32.017  1.00  0.00     0.167 HD
ATOM     65  C   UNL A   1      42.511  30.504  34.490  1.00  0.00     0.074 A 
ATOM     66  C   UNL A   1      42.818  31.029  35.805  1.00  0.00     0.031 C 
ATOM     67  C   UNL A   1      43.264  29.583  33.838  1.00  0.00     0.037 A 
BRANCH  54  68
ATOM     68  C   UNL A   1      41.030  27.917  28.312  1.00  0.00     0.064 A 
ATOM     69  C   UNL A   1      40.434  26.646  28.262  1.00  0.00     0.173 A 
ATOM     70  C   UNL A   1      41.722  28.358  27.173  1.00  0.00     0.173 A 
ATOM     71  F   UNL A   1      39.763  26.173  29.322  1.00  0.00    -0.203 F 
ATOM     72  C   UNL A   1      40.559  25.838  27.134  1.00  0.00     0.198 A 
ATOM     73  C   UNL A   1      41.815  27.561  26.035  1.00  0.00     0.198 A 
ATOM     74  F   UNL A   1      42.303  29.567  27.160  1.00  0.00    -0.203 F 
ATOM     75  F   UNL A   1      40.029  24.607  27.133  1.00  0.00    -0.200 F 
ATOM     76  C   UNL A   1      41.243  26.298  26.020  1.00  0.00     0.200 A 
ATOM     77  F   UNL A   1      42.462  28.015  24.952  1.00  0.00    -0.200 F 
ATOM     78  F   UNL A   1      41.357  25.522  24.934  1.00  0.00    -0.200 F 
ENDBRANCH  54  68
BRANCH  55  79
ATOM     79  C   UNL A   1      39.589  33.699  36.349  1.00  0.00     0.064 A 
ATOM     80  C   UNL A   1      38.787  33.235  37.401  1.00  0.00     0.173 A 
ATOM     81  C   UNL A   1      40.175  34.966  36.486  1.00  0.00     0.173 A 
ATOM     82  F   UNL A   1      38.192  32.037  37.311  1.00  0.00    -0.203 F 
ATOM     83  C   UNL A   1      38.564  34.013  38.534  1.00  0.00     0.198 A 
ATOM     84  C   UNL A   1      39.977  35.731  37.633  1.00  0.00     0.198 A 
ATOM     85  F   UNL A   1      40.958  35.453  35.512  1.00  0.00    -0.203 F 
ATOM     86  F   UNL A   1      37.759  33.563  39.506  1.00  0.00    -0.200 F 
ATOM     87  C   UNL A   1      39.165  35.257  38.653  1.00  0.00     0.200 A 
ATOM     88  F   UNL A   1      40.574  36.925  37.752  1.00  0.00    -0.200 F 
ATOM     89  F   UNL A   1      38.958  36.002  39.748  1.00  0.00    -0.200 F 
ENDBRANCH  55  79
BRANCH  67  90
ATOM     90  C   UNL A   1      44.515  29.110  34.523  1.00  0.00     0.064 A 
ATOM     91  C   UNL A   1      45.739  29.776  34.370  1.00  0.00     0.173 A 
ATOM     92  C   UNL A   1      44.477  27.994  35.374  1.00  0.00     0.173 A 
ATOM     93  F   UNL A   1      45.833  30.840  33.557  1.00  0.00    -0.203 F 
ATOM     94  C   UNL A   1      46.886  29.324  35.018  1.00  0.00     0.198 A 
ATOM     95  C   UNL A   1      45.618  27.566  36.047  1.00  0.00     0.198 A 
ATOM     96  F   UNL A   1      43.331  27.324  35.561  1.00  0.00    -0.203 F 
ATOM     97  F   UNL A   1      48.058  29.943  34.812  1.00  0.00    -0.200 F 
ATOM     98  C   UNL A   1      46.823  28.226  35.862  1.00  0.00     0.200 A 
ATOM     99  F   UNL A   1      45.551  26.515  36.876  1.00  0.00    -0.200 F 
ATOM    100  F   UNL A   1      47.927  27.797  36.490  1.00  0.00    -0.200 F 
ENDBRANCH  67  90
ENDBRANCH  41  42
ENDBRANCH  33  36
ENDBRANCH  31  32
ENDBRANCH  30  31
ENDBRANCH   1  30
TORSDOF 16
ENDMDL
MODEL 3
REMARK VINA RESULT:     -12.5      1.894      2.436
REMARK SMILES CC[C@](NC(=O)c1cccc(CS(C)(=O)=O)c1)(C(=O)NCCCNC(=O)c1ccc(-c2c3nc(c(-c4c(F)c(F)c(F)c(F)c4F)c4ccc([nH]4)c(-c4c(F)c(F)c(F)c(F)c4F)c4nc(c(-c5c(F)c(F)c(F)c(F)c5F)c5ccc2[nH]5)C=C4)C=C3)cc1)c1ccccc1
REMARK SMILES IDX 21 1 20 2 18 3 19 4 3 6 2 7 1 8 90 9 91 10 95 11 92 12 94 13
REMARK SMILES IDX 93 14 4 15 5 16 6 18 7 19 8 20 17 21 9 22 11 23 10 24 12 25
REMARK SMILES IDX 13 26 14 27 15 28 16 29 22 30 23 31 24 32 25 33 26 35 27 36
REMARK SMILES IDX 28 37 89 38 29 39 88 40 30 41 31 42 32 43 82 44 33 45 87 46
REMARK SMILES IDX 81 47 83 48 34 49 86 50 80 51 79 52 35 54 67 55 47 56 66 57
REMARK SMILES IDX 48 58 51 59 65 60 84 61 49 62 50 63 64 65 85 66 52 67 36 68
REMARK SMILES IDX 37 69 45 70 38 71 39 72 43 73 46 74 40 75 41 76 44 77 42 78
REMARK SMILES IDX 68 79 69 80 77 81 70 82 71 83 75 84 78 85 72 86 73 87 76 88
REMARK SMILES IDX 74 89 53 90 54 91 62 92 55 93 56 94 60 95 63 96 57 97 58 98
REMARK SMILES IDX 61 99 59 100
REMARK H PARENT 20 5 4 17 24 34 83 53 51 64
REMARK Flexibility Score: inf
ROOT
ATOM      1  C   UNL A   1      31.426  30.144  25.406  1.00  0.00     0.117 C 
ENDROOT
BRANCH   1   2
ATOM      2  N   UNL A   1      30.875  30.016  24.062  1.00  0.00    -0.354 N 
ATOM      3  C   UNL A   1      30.984  29.057  23.077  1.00  0.00     0.250 C 
ATOM      4  O   UNL A   1      30.268  29.246  22.086  1.00  0.00    -0.272 OA
ATOM      5  H   UNL A   1      30.305  30.776  23.802  1.00  0.00     0.163 HD
BRANCH   3   6
ATOM      6  C   UNL A   1      31.922  27.798  23.215  1.00  0.00     0.144 C 
BRANCH   6   7
ATOM      7  C   UNL A   1      33.349  28.405  23.602  1.00  0.00     0.040 C 
ATOM      8  C   UNL A   1      34.401  28.579  22.511  1.00  0.00     0.007 C 
ENDBRANCH   6   7
BRANCH   6   9
ATOM      9  C   UNL A   1      31.506  26.860  24.396  1.00  0.00    -0.013 A 
ATOM     10  C   UNL A   1      30.205  26.349  24.561  1.00  0.00     0.007 A 
ATOM     11  C   UNL A   1      32.474  26.419  25.330  1.00  0.00     0.007 A 
ATOM     12  C   UNL A   1      29.898  25.429  25.573  1.00  0.00     0.000 A 
ATOM     13  C   UNL A   1      32.178  25.467  26.313  1.00  0.00     0.000 A 
ATOM     14  C   UNL A   1      30.888  24.971  26.434  1.00  0.00     0.000 A 
ENDBRANCH   6   9
BRANCH   6  15
ATOM     15  N   UNL A   1      31.997  27.045  21.919  1.00  0.00    -0.334 N 
ATOM     16  C   UNL A   1      32.533  25.848  21.492  1.00  0.00     0.252 C 
ATOM     17  H   UNL A   1      31.549  27.529  21.188  1.00  0.00     0.165 HD
ATOM     18  O   UNL A   1      32.763  25.751  20.284  1.00  0.00    -0.269 OA
BRANCH  16  19
ATOM     19  C   UNL A   1      32.873  24.678  22.347  1.00  0.00     0.040 A 
ATOM     20  C   UNL A   1      31.856  23.808  22.748  1.00  0.00     0.014 A 
ATOM     21  C   UNL A   1      34.137  24.479  22.893  1.00  0.00     0.018 A 
ATOM     22  C   UNL A   1      32.137  22.733  23.603  1.00  0.00     0.001 A 
ATOM     23  C   UNL A   1      34.468  23.369  23.688  1.00  0.00    -0.032 A 
ATOM     24  C   UNL A   1      33.442  22.497  24.046  1.00  0.00     0.005 A 
BRANCH  23  25
ATOM     25  C   UNL A   1      35.923  23.092  23.985  1.00  0.00     0.172 C 
BRANCH  25  26
ATOM     26  S   UNL A   1      36.217  22.092  25.430  1.00  0.00     0.151 S 
ATOM     27  C   UNL A   1      37.957  22.182  25.750  1.00  0.00     0.158 C 
ATOM     28  O   UNL A   1      35.551  22.744  26.539  1.00  0.00    -0.229 OA
ATOM     29  O   UNL A   1      35.909  20.706  25.124  1.00  0.00    -0.229 OA
ENDBRANCH  25  26
ENDBRANCH  23  25
ENDBRANCH  16  19
ENDBRANCH   6  15
ENDBRANCH   3   6
ENDBRANCH   1   2
BRANCH   1  30
ATOM     30  C   UNL A   1      31.257  31.493  26.105  1.00  0.00     0.042 C 
BRANCH  30  31
ATOM     31  C   UNL A   1      32.462  32.017  26.878  1.00  0.00     0.118 C 
BRANCH  31  32
ATOM     32  N   UNL A   1      32.348  33.407  27.276  1.00  0.00    -0.352 N 
ATOM     33  C   UNL A   1      33.108  34.149  28.142  1.00  0.00     0.251 C 
ATOM     34  H   UNL A   1      31.604  33.896  26.856  1.00  0.00     0.163 HD
ATOM     35  O   UNL A   1      32.778  35.310  28.377  1.00  0.00    -0.269 OA
BRANCH  33  36
ATOM     36  C   UNL A   1      34.288  33.578  28.835  1.00  0.00     0.039 A 
ATOM     37  C   UNL A   1      34.064  32.703  29.902  1.00  0.00     0.014 A 
ATOM     38  C   UNL A   1      35.597  33.928  28.499  1.00  0.00     0.014 A 
ATOM     39  C   UNL A   1      35.145  32.150  30.594  1.00  0.00     0.010 A 
ATOM     40  C   UNL A   1      36.677  33.340  29.151  1.00  0.00     0.010 A 
ATOM     41  C   UNL A   1      36.460  32.446  30.206  1.00  0.00    -0.014 A 
BRANCH  41  42
ATOM     42  C   UNL A   1      37.619  31.801  30.868  1.00  0.00     0.031 A 
ATOM     43  C   UNL A   1      38.073  32.247  32.227  1.00  0.00     0.074 A 
ATOM     44  C   UNL A   1      38.308  30.861  30.194  1.00  0.00     0.049 A 
ATOM     45  N   UNL A   1      39.084  31.821  32.944  1.00  0.00    -0.248 NA
ATOM     46  C   UNL A   1      37.307  33.332  32.857  1.00  0.00     0.031 C 
ATOM     47  C   UNL A   1      37.997  30.400  28.840  1.00  0.00     0.029 A 
ATOM     48  N   UNL A   1      39.419  30.137  30.545  1.00  0.00    -0.354 N 
ATOM     49  C   UNL A   1      39.075  32.585  34.103  1.00  0.00     0.074 A 
ATOM     50  C   UNL A   1      37.996  33.539  33.970  1.00  0.00     0.031 C 
ATOM     51  C   UNL A   1      38.885  29.463  28.480  1.00  0.00     0.029 A 
ATOM     52  C   UNL A   1      39.846  29.278  29.563  1.00  0.00     0.049 A 
ATOM     53  H   UNL A   1      39.866  30.226  31.417  1.00  0.00     0.167 HD
ATOM     54  C   UNL A   1      39.883  32.481  35.186  1.00  0.00     0.037 A 
ATOM     55  C   UNL A   1      40.900  28.442  29.538  1.00  0.00     0.037 A 
ATOM     56  C   UNL A   1      40.957  31.526  35.302  1.00  0.00     0.049 A 
ATOM     57  C   UNL A   1      41.787  28.352  30.749  1.00  0.00     0.074 A 
ATOM     58  C   UNL A   1      41.795  31.294  36.378  1.00  0.00     0.029 A 
ATOM     59  N   UNL A   1      41.350  30.654  34.296  1.00  0.00    -0.354 N 
ATOM     60  N   UNL A   1      41.713  29.010  31.880  1.00  0.00    -0.248 NA
ATOM     61  C   UNL A   1      42.897  27.391  30.685  1.00  0.00     0.031 C 
ATOM     62  C   UNL A   1      42.733  30.327  36.002  1.00  0.00     0.029 A 
ATOM     63  C   UNL A   1      42.438  29.904  34.715  1.00  0.00     0.049 A 
ATOM     64  H   UNL A   1      40.919  30.578  33.414  1.00  0.00     0.167 HD
ATOM     65  C   UNL A   1      42.745  28.525  32.672  1.00  0.00     0.074 A 
ATOM     66  C   UNL A   1      43.420  27.505  31.897  1.00  0.00     0.031 C 
ATOM     67  C   UNL A   1      43.099  28.891  33.930  1.00  0.00     0.037 A 
BRANCH  54  68
ATOM     68  C   UNL A   1      39.640  33.426  36.331  1.00  0.00     0.064 A 
ATOM     69  C   UNL A   1      40.220  34.705  36.368  1.00  0.00     0.173 A 
ATOM     70  C   UNL A   1      38.788  33.066  37.387  1.00  0.00     0.173 A 
ATOM     71  F   UNL A   1      41.045  35.100  35.388  1.00  0.00    -0.203 F 
ATOM     72  C   UNL A   1      39.985  35.570  37.435  1.00  0.00     0.198 A 
ATOM     73  C   UNL A   1      38.528  33.948  38.434  1.00  0.00     0.198 A 
ATOM     74  F   UNL A   1      38.198  31.862  37.401  1.00  0.00    -0.203 F 
ATOM     75  F   UNL A   1      40.595  36.763  37.473  1.00  0.00    -0.200 F 
ATOM     76  C   UNL A   1      39.135  35.194  38.462  1.00  0.00     0.200 A 
ATOM     77  F   UNL A   1      37.691  33.589  39.418  1.00  0.00    -0.200 F 
ATOM     78  F   UNL A   1      38.905  36.029  39.484  1.00  0.00    -0.200 F 
ENDBRANCH  54  68
BRANCH  55  79
ATOM     79  C   UNL A   1      41.144  27.600  28.338  1.00  0.00     0.064 A 
ATOM     80  C   UNL A   1      42.018  28.024  27.328  1.00  0.00     0.173 A 
ATOM     81  C   UNL A   1      40.525  26.351  28.184  1.00  0.00     0.173 A 
ATOM     82  F   UNL A   1      42.621  29.218  27.421  1.00  0.00    -0.203 F 
ATOM     83  C   UNL A   1      42.248  27.240  26.199  1.00  0.00     0.198 A 
ATOM     84  C   UNL A   1      40.780  25.554  27.071  1.00  0.00     0.198 A 
ATOM     85  F   UNL A   1      39.686  25.895  29.127  1.00  0.00    -0.203 F 
ATOM     86  F   UNL A   1      43.055  27.688  25.228  1.00  0.00    -0.200 F 
ATOM     87  C   UNL A   1      41.635  26.002  26.076  1.00  0.00     0.200 A 
ATOM     88  F   UNL A   1      40.200  24.350  26.963  1.00  0.00    -0.200 F 
ATOM     89  F   UNL A   1      41.865  25.244  24.994  1.00  0.00    -0.200 F 
ENDBRANCH  55  79
BRANCH  67  90
ATOM     90  C   UNL A   1      44.249  28.156  34.560  1.00  0.00     0.064 A 
ATOM     91  C   UNL A   1      45.564  28.635  34.483  1.00  0.00     0.173 A 
ATOM     92  C   UNL A   1      44.022  26.974  35.281  1.00  0.00     0.173 A 
ATOM     93  F   UNL A   1      45.837  29.754  33.793  1.00  0.00    -0.203 F 
ATOM     94  C   UNL A   1      46.615  27.941  35.078  1.00  0.00     0.198 A 
ATOM     95  C   UNL A   1      45.070  26.302  35.905  1.00  0.00     0.198 A 
ATOM     96  F   UNL A   1      42.782  26.475  35.392  1.00  0.00    -0.203 F 
ATOM     97  F   UNL A   1      47.872  28.388  34.943  1.00  0.00    -0.200 F 
ATOM     98  C   UNL A   1      46.366  26.781  35.795  1.00  0.00     0.200 A 
ATOM     99  F   UNL A   1      44.825  25.190  36.611  1.00  0.00    -0.200 F 
ATOM    100  F   UNL A   1      47.378  26.119  36.373  1.00  0.00    -0.200 F 
ENDBRANCH  67  90
ENDBRANCH  41  42
ENDBRANCH  33  36
ENDBRANCH  31  32
ENDBRANCH  30  31
ENDBRANCH   1  30
TORSDOF 16
ENDMDL
