MODEL 1
REMARK VINA RESULT:     -14.1      0.000      0.000
REMARK SMILES O=C(NCCCNC(=O)c1ccc(-c2c3nc(c(-c4c(F)c(F)c(F)c(F)c4F)c4ccc([nH]4)c(-c4c(F)c(F)c(F)c(F)c4F)c4nc(c(-c5c(F)c(F)c(F)c(F)c5F)c5ccc2[nH]5)C=C4)C=C3)cc1)C1=Cc2cc(Cl)cc(C#Cc3ccccc3)c2O[C@@H]1C(F)(F)F
REMARK SMILES IDX 5 1 4 2 3 3 1 4 2 5 73 7 74 8 91 9 75 10 90 11 76 12 89 13
REMARK SMILES IDX 77 14 80 15 78 16 79 17 92 18 93 19 94 20 95 21 81 22 82 23
REMARK SMILES IDX 83 24 84 25 88 26 85 27 87 28 86 29 6 30 7 31 8 32 9 34
REMARK SMILES IDX 10 35 11 36 72 37 12 38 71 39 13 40 14 41 15 42 65 43 16 44
REMARK SMILES IDX 70 45 64 46 66 47 17 48 69 49 63 50 62 51 18 53 50 54 30 55
REMARK SMILES IDX 49 56 31 57 34 58 48 59 67 60 32 61 33 62 47 64 68 65 35 66
REMARK SMILES IDX 19 67 20 68 28 69 21 70 22 71 26 72 29 73 23 74 24 75 27 76
REMARK SMILES IDX 25 77 51 78 52 79 60 80 53 81 54 82 58 83 61 84 55 85 56 86
REMARK SMILES IDX 59 87 57 88 36 89 37 90 45 91 38 92 39 93 43 94 46 95 40 96
REMARK SMILES IDX 41 97 44 98 42 99
REMARK H PARENT 3 6 7 33 66 52 34 63
REMARK Flexibility Score: inf
ROOT
ATOM      1  C   UNL A   1      31.773  28.475  27.272  1.00  0.00     0.042 C 
ENDROOT
BRANCH   1   2
ATOM      2  C   UNL A   1      31.027  27.479  26.420  1.00  0.00     0.118 C 
BRANCH   2   3
ATOM      3  N   UNL A   1      31.068  26.109  26.876  1.00  0.00    -0.352 N 
ATOM      4  O   UNL A   1      31.978  24.072  27.136  1.00  0.00    -0.270 OA
ATOM      5  C   UNL A   1      31.889  25.093  26.459  1.00  0.00     0.251 C 
ATOM      6  H   UNL A   1      30.421  25.874  27.580  1.00  0.00     0.163 HD
BRANCH   5   7
ATOM      7  C   UNL A   1      32.781  25.263  25.271  1.00  0.00     0.067 C 
ATOM      8  C   UNL A   1      34.091  25.530  25.405  1.00  0.00     0.025 C 
ATOM      9  C   UNL A   1      32.343  24.438  24.094  1.00  0.00     0.314 C 
ATOM     10  C   UNL A   1      34.996  24.455  24.944  1.00  0.00     0.020 A 
ATOM     11  O   UNL A   1      33.130  23.225  23.961  1.00  0.00    -0.474 OA
ATOM     12  C   UNL A   1      36.288  24.450  25.493  1.00  0.00     0.032 A 
ATOM     13  C   UNL A   1      34.420  23.260  24.447  1.00  0.00     0.143 A 
ATOM     14  C   UNL A   1      36.956  23.239  25.653  1.00  0.00     0.043 A 
ATOM     15  C   UNL A   1      35.077  22.040  24.686  1.00  0.00     0.069 A 
ATOM     16  Cl  UNL A   1      38.452  23.199  26.505  1.00  0.00    -0.084 Cl
ATOM     17  C   UNL A   1      36.349  22.041  25.279  1.00  0.00     0.041 A 
BRANCH   9  18
ATOM     18  C   UNL A   1      32.352  25.328  22.835  1.00  0.00     0.429 C 
ATOM     19  F   UNL A   1      33.500  25.196  22.134  1.00  0.00    -0.167 F 
ATOM     20  F   UNL A   1      31.338  25.000  21.994  1.00  0.00    -0.167 F 
ATOM     21  F   UNL A   1      32.205  26.644  23.126  1.00  0.00    -0.167 F 
ENDBRANCH   9  18
BRANCH  15  22
ATOM     22  C   UNL A   1      34.410  20.763  24.627  1.00  0.00    -0.058 C 
ATOM     23  C   UNL A   1      34.010  19.633  24.709  1.00  0.00    -0.062 C 
BRANCH  23  24
ATOM     24  C   UNL A   1      33.686  18.235  24.802  1.00  0.00     0.025 A 
ATOM     25  C   UNL A   1      32.552  17.784  25.486  1.00  0.00     0.017 A 
ATOM     26  C   UNL A   1      34.561  17.302  24.239  1.00  0.00     0.017 A 
ATOM     27  C   UNL A   1      32.292  16.411  25.591  1.00  0.00     0.001 A 
ATOM     28  C   UNL A   1      34.303  15.933  24.345  1.00  0.00     0.001 A 
ATOM     29  C   UNL A   1      33.167  15.488  25.017  1.00  0.00     0.000 A 
ENDBRANCH  23  24
ENDBRANCH  15  22
ENDBRANCH   5   7
ENDBRANCH   2   3
ENDBRANCH   1   2
BRANCH   1  30
ATOM     30  C   UNL A   1      32.698  29.330  26.439  1.00  0.00     0.118 C 
BRANCH  30  31
ATOM     31  N   UNL A   1      32.545  30.769  26.667  1.00  0.00    -0.352 N 
ATOM     32  C   UNL A   1      33.370  31.658  27.316  1.00  0.00     0.251 C 
ATOM     33  H   UNL A   1      31.722  31.161  26.297  1.00  0.00     0.163 HD
ATOM     34  O   UNL A   1      33.008  32.817  27.493  1.00  0.00    -0.269 OA
BRANCH  32  35
ATOM     35  C   UNL A   1      34.670  31.201  27.846  1.00  0.00     0.039 A 
ATOM     36  C   UNL A   1      35.712  32.116  28.000  1.00  0.00     0.014 A 
ATOM     37  C   UNL A   1      34.837  29.882  28.255  1.00  0.00     0.014 A 
ATOM     38  C   UNL A   1      36.884  31.716  28.641  1.00  0.00     0.010 A 
ATOM     39  C   UNL A   1      35.904  29.548  29.067  1.00  0.00     0.010 A 
ATOM     40  C   UNL A   1      36.967  30.441  29.223  1.00  0.00    -0.014 A 
BRANCH  40  41
ATOM     41  C   UNL A   1      38.179  29.982  29.940  1.00  0.00     0.031 A 
ATOM     42  C   UNL A   1      38.441  30.469  31.342  1.00  0.00     0.074 A 
ATOM     43  C   UNL A   1      39.065  29.185  29.313  1.00  0.00     0.049 A 
ATOM     44  N   UNL A   1      39.459  30.228  32.128  1.00  0.00    -0.248 NA
ATOM     45  C   UNL A   1      37.453  31.396  31.926  1.00  0.00     0.031 C 
ATOM     46  C   UNL A   1      38.958  28.722  27.927  1.00  0.00     0.029 A 
ATOM     47  N   UNL A   1      40.230  28.621  29.761  1.00  0.00    -0.354 N 
ATOM     48  C   UNL A   1      39.240  30.989  33.269  1.00  0.00     0.074 A 
ATOM     49  C   UNL A   1      38.053  31.776  33.040  1.00  0.00     0.031 C 
ATOM     50  C   UNL A   1      39.985  27.901  27.657  1.00  0.00     0.029 A 
ATOM     51  C   UNL A   1      40.845  27.817  28.833  1.00  0.00     0.049 A 
ATOM     52  H   UNL A   1      40.593  28.778  30.663  1.00  0.00     0.167 HD
ATOM     53  C   UNL A   1      39.940  30.997  34.428  1.00  0.00     0.037 A 
ATOM     54  C   UNL A   1      41.973  27.090  28.929  1.00  0.00     0.037 A 
ATOM     55  C   UNL A   1      41.096  30.177  34.657  1.00  0.00     0.049 A 
ATOM     56  C   UNL A   1      42.720  27.093  30.235  1.00  0.00     0.074 A 
ATOM     57  C   UNL A   1      41.845  30.044  35.812  1.00  0.00     0.029 A 
ATOM     58  N   UNL A   1      41.672  29.348  33.704  1.00  0.00    -0.354 N 
ATOM     59  N   UNL A   1      42.456  27.746  31.341  1.00  0.00    -0.248 NA
ATOM     60  C   UNL A   1      43.915  26.244  30.310  1.00  0.00     0.031 C 
ATOM     61  C   UNL A   1      42.914  29.185  35.537  1.00  0.00     0.029 A 
ATOM     62  C   UNL A   1      42.785  28.721  34.236  1.00  0.00     0.049 A 
ATOM     63  H   UNL A   1      41.338  29.224  32.787  1.00  0.00     0.167 HD
ATOM     64  C   UNL A   1      43.431  27.365  32.254  1.00  0.00     0.074 A 
ATOM     65  C   UNL A   1      44.277  26.405  31.575  1.00  0.00     0.031 C 
ATOM     66  C   UNL A   1      43.612  27.768  33.536  1.00  0.00     0.037 A 
BRANCH  53  67
ATOM     67  C   UNL A   1      39.467  31.915  35.521  1.00  0.00     0.064 A 
ATOM     68  C   UNL A   1      39.945  33.230  35.649  1.00  0.00     0.173 A 
ATOM     69  C   UNL A   1      38.515  31.476  36.453  1.00  0.00     0.173 A 
ATOM     70  F   UNL A   1      40.870  33.700  34.798  1.00  0.00    -0.203 F 
ATOM     71  C   UNL A   1      39.522  34.052  36.691  1.00  0.00     0.198 A 
ATOM     72  C   UNL A   1      38.062  32.314  37.468  1.00  0.00     0.198 A 
ATOM     73  F   UNL A   1      38.022  30.230  36.381  1.00  0.00    -0.203 F 
ATOM     74  F   UNL A   1      40.049  35.275  36.833  1.00  0.00    -0.200 F 
ATOM     75  C   UNL A   1      38.574  33.597  37.593  1.00  0.00     0.200 A 
ATOM     76  F   UNL A   1      37.136  31.877  38.332  1.00  0.00    -0.200 F 
ATOM     77  F   UNL A   1      38.162  34.389  38.593  1.00  0.00    -0.200 F 
ENDBRANCH  53  67
BRANCH  54  78
ATOM     78  C   UNL A   1      42.433  26.274  27.775  1.00  0.00     0.064 A 
ATOM     79  C   UNL A   1      41.911  24.994  27.538  1.00  0.00     0.173 A 
ATOM     80  C   UNL A   1      43.399  26.757  26.879  1.00  0.00     0.173 A 
ATOM     81  F   UNL A   1      40.995  24.480  28.371  1.00  0.00    -0.203 F 
ATOM     82  C   UNL A   1      42.359  24.219  26.469  1.00  0.00     0.198 A 
ATOM     83  C   UNL A   1      43.820  25.995  25.791  1.00  0.00     0.198 A 
ATOM     84  F   UNL A   1      43.923  27.980  27.052  1.00  0.00    -0.203 F 
ATOM     85  F   UNL A   1      41.880  22.979  26.299  1.00  0.00    -0.200 F 
ATOM     86  C   UNL A   1      43.307  24.722  25.593  1.00  0.00     0.200 A 
ATOM     87  F   UNL A   1      44.723  26.494  24.936  1.00  0.00    -0.200 F 
ATOM     88  F   UNL A   1      43.733  23.978  24.563  1.00  0.00    -0.200 F 
ENDBRANCH  54  78
BRANCH  66  89
ATOM     89  C   UNL A   1      44.743  27.138  34.298  1.00  0.00     0.064 A 
ATOM     90  C   UNL A   1      46.015  27.727  34.359  1.00  0.00     0.173 A 
ATOM     91  C   UNL A   1      44.542  25.935  34.992  1.00  0.00     0.173 A 
ATOM     92  F   UNL A   1      46.262  28.873  33.706  1.00  0.00    -0.203 F 
ATOM     93  C   UNL A   1      47.056  27.109  35.046  1.00  0.00     0.198 A 
ATOM     94  C   UNL A   1      45.574  25.343  35.713  1.00  0.00     0.198 A 
ATOM     95  F   UNL A   1      43.341  25.338  34.979  1.00  0.00    -0.203 F 
ATOM     96  F   UNL A   1      48.282  27.650  35.028  1.00  0.00    -0.200 F 
ATOM     97  C   UNL A   1      46.832  25.921  35.727  1.00  0.00     0.200 A 
ATOM     98  F   UNL A   1      45.349  24.208  36.390  1.00  0.00    -0.200 F 
ATOM     99  F   UNL A   1      47.836  25.329  36.389  1.00  0.00    -0.200 F 
ENDBRANCH  66  89
ENDBRANCH  40  41
ENDBRANCH  32  35
ENDBRANCH  30  31
ENDBRANCH   1  30
TORSDOF 13
ENDMDL
MODEL 2
REMARK VINA RESULT:     -13.8      4.577     10.180
REMARK SMILES O=C(NCCCNC(=O)c1ccc(-c2c3nc(c(-c4c(F)c(F)c(F)c(F)c4F)c4ccc([nH]4)c(-c4c(F)c(F)c(F)c(F)c4F)c4nc(c(-c5c(F)c(F)c(F)c(F)c5F)c5ccc2[nH]5)C=C4)C=C3)cc1)C1=Cc2cc(Cl)cc(C#Cc3ccccc3)c2O[C@@H]1C(F)(F)F
REMARK SMILES IDX 5 1 4 2 3 3 1 4 2 5 73 7 74 8 91 9 75 10 90 11 76 12 89 13
REMARK SMILES IDX 77 14 80 15 78 16 79 17 92 18 93 19 94 20 95 21 81 22 82 23
REMARK SMILES IDX 83 24 84 25 88 26 85 27 87 28 86 29 6 30 7 31 8 32 9 34
REMARK SMILES IDX 10 35 11 36 72 37 12 38 71 39 13 40 14 41 15 42 65 43 16 44
REMARK SMILES IDX 70 45 64 46 66 47 17 48 69 49 63 50 62 51 18 53 50 54 30 55
REMARK SMILES IDX 49 56 31 57 34 58 48 59 67 60 32 61 33 62 47 64 68 65 35 66
REMARK SMILES IDX 19 67 20 68 28 69 21 70 22 71 26 72 29 73 23 74 24 75 27 76
REMARK SMILES IDX 25 77 51 78 52 79 60 80 53 81 54 82 58 83 61 84 55 85 56 86
REMARK SMILES IDX 59 87 57 88 36 89 37 90 45 91 38 92 39 93 43 94 46 95 40 96
REMARK SMILES IDX 41 97 44 98 42 99
REMARK H PARENT 3 6 7 33 66 52 34 63
REMARK Flexibility Score: inf
ROOT
ATOM      1  C   UNL A   1      36.282  22.670  24.000  1.00  0.00     0.042 C 
ENDROOT
BRANCH   1   2
ATOM      2  C   UNL A   1      34.802  22.947  23.921  1.00  0.00     0.118 C 
BRANCH   2   3
ATOM      3  N   UNL A   1      34.417  24.064  23.089  1.00  0.00    -0.352 N 
ATOM      4  O   UNL A   1      33.720  26.160  22.684  1.00  0.00    -0.270 OA
ATOM      5  C   UNL A   1      33.724  25.194  23.441  1.00  0.00     0.251 C 
ATOM      6  H   UNL A   1      34.688  24.007  22.145  1.00  0.00     0.163 HD
BRANCH   5   7
ATOM      7  C   UNL A   1      33.092  25.319  24.791  1.00  0.00     0.067 C 
ATOM      8  C   UNL A   1      33.691  25.986  25.791  1.00  0.00     0.025 C 
ATOM      9  C   UNL A   1      31.591  25.333  24.728  1.00  0.00     0.314 C 
ATOM     10  C   UNL A   1      32.996  27.220  26.220  1.00  0.00     0.020 A 
ATOM     11  O   UNL A   1      31.057  26.679  24.838  1.00  0.00    -0.474 OA
ATOM     12  C   UNL A   1      33.783  28.184  26.869  1.00  0.00     0.032 A 
ATOM     13  C   UNL A   1      31.813  27.596  25.537  1.00  0.00     0.143 A 
ATOM     14  C   UNL A   1      33.455  29.531  26.738  1.00  0.00     0.043 A 
ATOM     15  C   UNL A   1      31.542  28.964  25.353  1.00  0.00     0.069 A 
ATOM     16  Cl  UNL A   1      34.523  30.730  27.362  1.00  0.00    -0.084 Cl
ATOM     17  C   UNL A   1      32.362  29.923  25.967  1.00  0.00     0.041 A 
BRANCH   9  18
ATOM     18  C   UNL A   1      31.042  24.357  25.789  1.00  0.00     0.429 C 
ATOM     19  F   UNL A   1      30.550  23.230  25.230  1.00  0.00    -0.167 F 
ATOM     20  F   UNL A   1      32.017  23.974  26.654  1.00  0.00    -0.167 F 
ATOM     21  F   UNL A   1      30.052  24.904  26.537  1.00  0.00    -0.167 F 
ENDBRANCH   9  18
BRANCH  15  22
ATOM     22  C   UNL A   1      30.646  29.458  24.337  1.00  0.00    -0.058 C 
ATOM     23  C   UNL A   1      29.998  30.058  23.522  1.00  0.00    -0.062 C 
BRANCH  23  24
ATOM     24  C   UNL A   1      29.222  30.899  22.650  1.00  0.00     0.025 A 
ATOM     25  C   UNL A   1      28.791  30.461  21.394  1.00  0.00     0.017 A 
ATOM     26  C   UNL A   1      28.942  32.208  23.052  1.00  0.00     0.017 A 
ATOM     27  C   UNL A   1      28.073  31.324  20.555  1.00  0.00     0.001 A 
ATOM     28  C   UNL A   1      28.227  33.068  22.216  1.00  0.00     0.001 A 
ATOM     29  C   UNL A   1      27.789  32.626  20.970  1.00  0.00     0.000 A 
ENDBRANCH  23  24
ENDBRANCH  15  22
ENDBRANCH   5   7
ENDBRANCH   2   3
ENDBRANCH   1   2
BRANCH   1  30
ATOM     30  C   UNL A   1      36.726  22.446  25.425  1.00  0.00     0.118 C 
BRANCH  30  31
ATOM     31  N   UNL A   1      37.736  21.395  25.576  1.00  0.00    -0.352 N 
ATOM     32  C   UNL A   1      39.018  21.459  26.071  1.00  0.00     0.251 C 
ATOM     33  H   UNL A   1      37.452  20.501  25.276  1.00  0.00     0.163 HD
ATOM     34  O   UNL A   1      39.750  20.477  26.015  1.00  0.00    -0.269 OA
BRANCH  32  35
ATOM     35  C   UNL A   1      39.529  22.730  26.623  1.00  0.00     0.039 A 
ATOM     36  C   UNL A   1      40.528  22.707  27.596  1.00  0.00     0.014 A 
ATOM     37  C   UNL A   1      39.069  23.947  26.127  1.00  0.00     0.014 A 
ATOM     38  C   UNL A   1      41.114  23.906  28.003  1.00  0.00     0.010 A 
ATOM     39  C   UNL A   1      39.787  25.100  26.373  1.00  0.00     0.010 A 
ATOM     40  C   UNL A   1      40.780  25.107  27.356  1.00  0.00    -0.014 A 
BRANCH  40  41
ATOM     41  C   UNL A   1      41.398  26.400  27.731  1.00  0.00     0.031 A 
ATOM     42  C   UNL A   1      42.809  26.701  27.295  1.00  0.00     0.074 A 
ATOM     43  C   UNL A   1      40.719  27.264  28.509  1.00  0.00     0.049 A 
ATOM     44  N   UNL A   1      43.551  27.748  27.553  1.00  0.00    -0.248 NA
ATOM     45  C   UNL A   1      43.504  25.667  26.506  1.00  0.00     0.031 C 
ATOM     46  C   UNL A   1      39.381  27.039  29.061  1.00  0.00     0.029 A 
ATOM     47  N   UNL A   1      41.060  28.509  28.966  1.00  0.00    -0.354 N 
ATOM     48  C   UNL A   1      44.789  27.479  26.984  1.00  0.00     0.074 A 
ATOM     49  C   UNL A   1      44.737  26.138  26.457  1.00  0.00     0.031 C 
ATOM     50  C   UNL A   1      38.994  28.132  29.737  1.00  0.00     0.029 A 
ATOM     51  C   UNL A   1      40.072  29.114  29.704  1.00  0.00     0.049 A 
ATOM     52  H   UNL A   1      41.932  28.930  28.784  1.00  0.00     0.167 HD
ATOM     53  C   UNL A   1      45.862  28.296  26.868  1.00  0.00     0.037 A 
ATOM     54  C   UNL A   1      40.044  30.329  30.280  1.00  0.00     0.037 A 
ATOM     55  C   UNL A   1      45.885  29.644  27.361  1.00  0.00     0.049 A 
ATOM     56  C   UNL A   1      41.237  31.231  30.116  1.00  0.00     0.074 A 
ATOM     57  C   UNL A   1      46.885  30.591  27.240  1.00  0.00     0.029 A 
ATOM     58  N   UNL A   1      44.852  30.236  28.075  1.00  0.00    -0.354 N 
ATOM     59  N   UNL A   1      42.371  31.002  29.497  1.00  0.00    -0.248 NA
ATOM     60  C   UNL A   1      41.140  32.566  30.716  1.00  0.00     0.031 C 
ATOM     61  C   UNL A   1      46.484  31.735  27.939  1.00  0.00     0.029 A 
ATOM     62  C   UNL A   1      45.202  31.529  28.427  1.00  0.00     0.049 A 
ATOM     63  H   UNL A   1      43.997  29.802  28.298  1.00  0.00     0.167 HD
ATOM     64  C   UNL A   1      43.110  32.173  29.606  1.00  0.00     0.074 A 
ATOM     65  C   UNL A   1      42.282  33.116  30.331  1.00  0.00     0.031 C 
ATOM     66  C   UNL A   1      44.358  32.447  29.150  1.00  0.00     0.037 A 
BRANCH  53  67
ATOM     67  C   UNL A   1      47.083  27.748  26.182  1.00  0.00     0.064 A 
ATOM     68  C   UNL A   1      48.171  27.225  26.901  1.00  0.00     0.173 A 
ATOM     69  C   UNL A   1      47.166  27.741  24.782  1.00  0.00     0.173 A 
ATOM     70  F   UNL A   1      48.156  27.222  28.243  1.00  0.00    -0.203 F 
ATOM     71  C   UNL A   1      49.309  26.757  26.247  1.00  0.00     0.198 A 
ATOM     72  C   UNL A   1      48.287  27.233  24.130  1.00  0.00     0.198 A 
ATOM     73  F   UNL A   1      46.158  28.228  24.042  1.00  0.00    -0.203 F 
ATOM     74  F   UNL A   1      50.361  26.332  26.959  1.00  0.00    -0.200 F 
ATOM     75  C   UNL A   1      49.361  26.753  24.863  1.00  0.00     0.200 A 
ATOM     76  F   UNL A   1      48.331  27.218  22.790  1.00  0.00    -0.200 F 
ATOM     77  F   UNL A   1      50.453  26.296  24.233  1.00  0.00    -0.200 F 
ENDBRANCH  53  67
BRANCH  54  78
ATOM     78  C   UNL A   1      38.834  30.772  31.023  1.00  0.00     0.064 A 
ATOM     79  C   UNL A   1      38.757  30.655  32.419  1.00  0.00     0.173 A 
ATOM     80  C   UNL A   1      37.732  31.328  30.356  1.00  0.00     0.173 A 
ATOM     81  F   UNL A   1      39.778  30.118  33.102  1.00  0.00    -0.203 F 
ATOM     82  C   UNL A   1      37.614  31.048  33.114  1.00  0.00     0.198 A 
ATOM     83  C   UNL A   1      36.604  31.753  31.056  1.00  0.00     0.198 A 
ATOM     84  F   UNL A   1      37.757  31.474  29.023  1.00  0.00    -0.203 F 
ATOM     85  F   UNL A   1      37.549  30.875  34.441  1.00  0.00    -0.200 F 
ATOM     86  C   UNL A   1      36.542  31.603  32.433  1.00  0.00     0.200 A 
ATOM     87  F   UNL A   1      35.579  32.307  30.396  1.00  0.00    -0.200 F 
ATOM     88  F   UNL A   1      35.447  31.986  33.102  1.00  0.00    -0.200 F 
ENDBRANCH  54  78
BRANCH  66  89
ATOM     89  C   UNL A   1      44.882  33.835  29.384  1.00  0.00     0.064 A 
ATOM     90  C   UNL A   1      45.634  34.162  30.523  1.00  0.00     0.173 A 
ATOM     91  C   UNL A   1      44.641  34.848  28.444  1.00  0.00     0.173 A 
ATOM     92  F   UNL A   1      45.885  33.232  31.457  1.00  0.00    -0.203 F 
ATOM     93  C   UNL A   1      46.083  35.463  30.734  1.00  0.00     0.198 A 
ATOM     94  C   UNL A   1      45.129  36.137  28.637  1.00  0.00     0.198 A 
ATOM     95  F   UNL A   1      43.941  34.586  27.330  1.00  0.00    -0.203 F 
ATOM     96  F   UNL A   1      46.734  35.769  31.864  1.00  0.00    -0.200 F 
ATOM     97  C   UNL A   1      45.836  36.446  29.787  1.00  0.00     0.200 A 
ATOM     98  F   UNL A   1      44.909  37.080  27.710  1.00  0.00    -0.200 F 
ATOM     99  F   UNL A   1      46.271  37.697  29.992  1.00  0.00    -0.200 F 
ENDBRANCH  66  89
ENDBRANCH  40  41
ENDBRANCH  32  35
ENDBRANCH  30  31
ENDBRANCH   1  30
TORSDOF 13
ENDMDL
MODEL 3
REMARK VINA RESULT:     -13.3      1.897      3.194
REMARK SMILES O=C(NCCCNC(=O)c1ccc(-c2c3nc(c(-c4c(F)c(F)c(F)c(F)c4F)c4ccc([nH]4)c(-c4c(F)c(F)c(F)c(F)c4F)c4nc(c(-c5c(F)c(F)c(F)c(F)c5F)c5ccc2[nH]5)C=C4)C=C3)cc1)C1=Cc2cc(Cl)cc(C#Cc3ccccc3)c2O[C@@H]1C(F)(F)F
REMARK SMILES IDX 5 1 4 2 3 3 1 4 2 5 73 7 74 8 91 9 75 10 90 11 76 12 89 13
REMARK SMILES IDX 77 14 80 15 78 16 79 17 92 18 93 19 94 20 95 21 81 22 82 23
REMARK SMILES IDX 83 24 84 25 88 26 85 27 87 28 86 29 6 30 7 31 8 32 9 34
REMARK SMILES IDX 10 35 11 36 72 37 12 38 71 39 13 40 14 41 15 42 65 43 16 44
REMARK SMILES IDX 70 45 64 46 66 47 17 48 69 49 63 50 62 51 18 53 50 54 30 55
REMARK SMILES IDX 49 56 31 57 34 58 48 59 67 60 32 61 33 62 47 64 68 65 35 66
REMARK SMILES IDX 19 67 20 68 28 69 21 70 22 71 26 72 29 73 23 74 24 75 27 76
REMARK SMILES IDX 25 77 51 78 52 79 60 80 53 81 54 82 58 83 61 84 55 85 56 86
REMARK SMILES IDX 59 87 57 88 36 89 37 90 45 91 38 92 39 93 43 94 46 95 40 96
REMARK SMILES IDX 41 97 44 98 42 99
REMARK H PARENT 3 6 7 33 66 52 34 63
REMARK Flexibility Score: inf
ROOT
ATOM      1  C   UNL A   1      33.562  29.299  24.003  1.00  0.00     0.042 C 
ENDROOT
BRANCH   1   2
ATOM      2  C   UNL A   1      32.353  28.612  23.420  1.00  0.00     0.118 C 
BRANCH   2   3
ATOM      3  N   UNL A   1      32.616  27.698  22.332  1.00  0.00    -0.352 N 
ATOM      4  O   UNL A   1      32.272  25.866  21.080  1.00  0.00    -0.270 OA
ATOM      5  C   UNL A   1      32.189  26.404  22.180  1.00  0.00     0.251 C 
ATOM      6  H   UNL A   1      33.175  28.051  21.603  1.00  0.00     0.163 HD
BRANCH   5   7
ATOM      7  C   UNL A   1      31.496  25.687  23.294  1.00  0.00     0.067 C 
ATOM      8  C   UNL A   1      30.920  24.487  23.112  1.00  0.00     0.025 C 
ATOM      9  C   UNL A   1      32.097  25.988  24.639  1.00  0.00     0.314 C 
ATOM     10  C   UNL A   1      31.560  23.372  23.844  1.00  0.00     0.020 A 
ATOM     11  O   UNL A   1      32.977  24.923  25.088  1.00  0.00    -0.474 OA
ATOM     12  C   UNL A   1      31.344  22.084  23.329  1.00  0.00     0.032 A 
ATOM     13  C   UNL A   1      32.708  23.652  24.624  1.00  0.00     0.143 A 
ATOM     14  C   UNL A   1      32.327  21.111  23.493  1.00  0.00     0.043 A 
ATOM     15  C   UNL A   1      33.722  22.681  24.714  1.00  0.00     0.069 A 
ATOM     16  Cl  UNL A   1      32.160  19.593  22.697  1.00  0.00    -0.084 Cl
ATOM     17  C   UNL A   1      33.516  21.410  24.155  1.00  0.00     0.041 A 
BRANCH   9  18
ATOM     18  C   UNL A   1      30.959  26.314  25.627  1.00  0.00     0.429 C 
ATOM     19  F   UNL A   1      31.351  27.197  26.572  1.00  0.00    -0.167 F 
ATOM     20  F   UNL A   1      29.897  26.868  24.988  1.00  0.00    -0.167 F 
ATOM     21  F   UNL A   1      30.495  25.214  26.270  1.00  0.00    -0.167 F 
ENDBRANCH   9  18
BRANCH  15  22
ATOM     22  C   UNL A   1      35.078  22.993  25.091  1.00  0.00    -0.058 C 
ATOM     23  C   UNL A   1      36.238  23.039  25.404  1.00  0.00    -0.062 C 
BRANCH  23  24
ATOM     24  C   UNL A   1      37.596  22.966  25.871  1.00  0.00     0.025 A 
ATOM     25  C   UNL A   1      38.356  21.797  25.751  1.00  0.00     0.017 A 
ATOM     26  C   UNL A   1      38.148  24.079  26.511  1.00  0.00     0.017 A 
ATOM     27  C   UNL A   1      39.662  21.752  26.256  1.00  0.00     0.001 A 
ATOM     28  C   UNL A   1      39.450  24.033  27.015  1.00  0.00     0.001 A 
ATOM     29  C   UNL A   1      40.208  22.872  26.884  1.00  0.00     0.000 A 
ENDBRANCH  23  24
ENDBRANCH  15  22
ENDBRANCH   5   7
ENDBRANCH   2   3
ENDBRANCH   1   2
BRANCH   1  30
ATOM     30  C   UNL A   1      33.551  29.249  25.512  1.00  0.00     0.118 C 
BRANCH  30  31
ATOM     31  N   UNL A   1      33.047  30.470  26.145  1.00  0.00    -0.352 N 
ATOM     32  C   UNL A   1      33.581  31.230  27.160  1.00  0.00     0.251 C 
ATOM     33  H   UNL A   1      32.192  30.800  25.785  1.00  0.00     0.163 HD
ATOM     34  O   UNL A   1      32.946  32.171  27.624  1.00  0.00    -0.269 OA
BRANCH  32  35
ATOM     35  C   UNL A   1      34.899  30.878  27.726  1.00  0.00     0.039 A 
ATOM     36  C   UNL A   1      35.858  31.874  27.910  1.00  0.00     0.014 A 
ATOM     37  C   UNL A   1      35.161  29.575  28.138  1.00  0.00     0.014 A 
ATOM     38  C   UNL A   1      37.041  31.568  28.583  1.00  0.00     0.010 A 
ATOM     39  C   UNL A   1      36.227  29.326  28.979  1.00  0.00     0.010 A 
ATOM     40  C   UNL A   1      37.210  30.301  29.166  1.00  0.00    -0.014 A 
BRANCH  40  41
ATOM     41  C   UNL A   1      38.435  29.939  29.917  1.00  0.00     0.031 A 
ATOM     42  C   UNL A   1      38.611  30.433  31.330  1.00  0.00     0.074 A 
ATOM     43  C   UNL A   1      39.404  29.228  29.310  1.00  0.00     0.049 A 
ATOM     44  N   UNL A   1      39.622  30.270  32.145  1.00  0.00    -0.248 NA
ATOM     45  C   UNL A   1      37.531  31.265  31.890  1.00  0.00     0.031 C 
ATOM     46  C   UNL A   1      39.379  28.772  27.918  1.00  0.00     0.029 A 
ATOM     47  N   UNL A   1      40.599  28.760  29.790  1.00  0.00    -0.354 N 
ATOM     48  C   UNL A   1      39.305  30.998  33.285  1.00  0.00     0.074 A 
ATOM     49  C   UNL A   1      38.063  31.683  33.025  1.00  0.00     0.031 C 
ATOM     50  C   UNL A   1      40.480  28.045  27.673  1.00  0.00     0.029 A 
ATOM     51  C   UNL A   1      41.308  28.022  28.874  1.00  0.00     0.049 A 
ATOM     52  H   UNL A   1      40.920  28.938  30.704  1.00  0.00     0.167 HD
ATOM     53  C   UNL A   1      39.967  31.053  34.464  1.00  0.00     0.037 A 
ATOM     54  C   UNL A   1      42.491  27.393  29.000  1.00  0.00     0.037 A 
ATOM     55  C   UNL A   1      41.181  30.332  34.723  1.00  0.00     0.049 A 
ATOM     56  C   UNL A   1      43.195  27.445  30.328  1.00  0.00     0.074 A 
ATOM     57  C   UNL A   1      41.903  30.250  35.899  1.00  0.00     0.029 A 
ATOM     58  N   UNL A   1      41.854  29.565  33.781  1.00  0.00    -0.354 N 
ATOM     59  N   UNL A   1      42.843  28.061  31.431  1.00  0.00    -0.248 NA
ATOM     60  C   UNL A   1      44.455  26.700  30.434  1.00  0.00     0.031 C 
ATOM     61  C   UNL A   1      43.049  29.488  35.650  1.00  0.00     0.029 A 
ATOM     62  C   UNL A   1      43.001  29.029  34.342  1.00  0.00     0.049 A 
ATOM     63  H   UNL A   1      41.559  29.423  32.853  1.00  0.00     0.167 HD
ATOM     64  C   UNL A   1      43.819  27.754  32.370  1.00  0.00     0.074 A 
ATOM     65  C   UNL A   1      44.764  26.877  31.709  1.00  0.00     0.031 C 
ATOM     66  C   UNL A   1      43.926  28.158  33.661  1.00  0.00     0.037 A 
BRANCH  53  67
ATOM     67  C   UNL A   1      39.384  31.915  35.550  1.00  0.00     0.064 A 
ATOM     68  C   UNL A   1      39.704  33.278  35.672  1.00  0.00     0.173 A 
ATOM     69  C   UNL A   1      38.485  31.373  36.480  1.00  0.00     0.173 A 
ATOM     70  F   UNL A   1      40.573  33.848  34.822  1.00  0.00    -0.203 F 
ATOM     71  C   UNL A   1      39.183  34.051  36.707  1.00  0.00     0.198 A 
ATOM     72  C   UNL A   1      37.933  32.159  37.489  1.00  0.00     0.198 A 
ATOM     73  F   UNL A   1      38.142  30.078  36.414  1.00  0.00    -0.203 F 
ATOM     74  F   UNL A   1      39.563  35.328  36.844  1.00  0.00    -0.200 F 
ATOM     75  C   UNL A   1      38.291  33.492  37.608  1.00  0.00     0.200 A 
ATOM     76  F   UNL A   1      37.059  31.620  38.352  1.00  0.00    -0.200 F 
ATOM     77  F   UNL A   1      37.783  34.237  38.601  1.00  0.00    -0.200 F 
ENDBRANCH  53  67
BRANCH  54  78
ATOM     78  C   UNL A   1      43.053  26.631  27.853  1.00  0.00     0.064 A 
ATOM     79  C   UNL A   1      43.739  27.281  26.817  1.00  0.00     0.173 A 
ATOM     80  C   UNL A   1      42.923  25.237  27.771  1.00  0.00     0.173 A 
ATOM     81  F   UNL A   1      43.880  28.615  26.842  1.00  0.00    -0.203 F 
ATOM     82  C   UNL A   1      44.247  26.571  25.730  1.00  0.00     0.198 A 
ATOM     83  C   UNL A   1      43.461  24.523  26.701  1.00  0.00     0.198 A 
ATOM     84  F   UNL A   1      42.286  24.563  28.740  1.00  0.00    -0.203 F 
ATOM     85  F   UNL A   1      44.851  27.226  24.730  1.00  0.00    -0.200 F 
ATOM     86  C   UNL A   1      44.113  25.193  25.676  1.00  0.00     0.200 A 
ATOM     87  F   UNL A   1      43.347  23.189  26.664  1.00  0.00    -0.200 F 
ATOM     88  F   UNL A   1      44.606  24.510  24.635  1.00  0.00    -0.200 F 
ENDBRANCH  54  78
BRANCH  66  89
ATOM     89  C   UNL A   1      45.083  27.618  34.452  1.00  0.00     0.064 A 
ATOM     90  C   UNL A   1      46.311  28.295  34.527  1.00  0.00     0.173 A 
ATOM     91  C   UNL A   1      44.953  26.414  35.160  1.00  0.00     0.173 A 
ATOM     92  F   UNL A   1      46.489  29.447  33.862  1.00  0.00    -0.203 F 
ATOM     93  C   UNL A   1      47.379  27.760  35.242  1.00  0.00     0.198 A 
ATOM     94  C   UNL A   1      46.009  25.904  35.908  1.00  0.00     0.198 A 
ATOM     95  F   UNL A   1      43.797  25.734  35.134  1.00  0.00    -0.203 F 
ATOM     96  F   UNL A   1      48.564  28.385  35.238  1.00  0.00    -0.200 F 
ATOM     97  C   UNL A   1      47.225  26.569  35.936  1.00  0.00     0.200 A 
ATOM     98  F   UNL A   1      45.852  24.765  36.597  1.00  0.00    -0.200 F 
ATOM     99  F   UNL A   1      48.254  26.057  36.625  1.00  0.00    -0.200 F 
ENDBRANCH  66  89
ENDBRANCH  40  41
ENDBRANCH  32  35
ENDBRANCH  30  31
ENDBRANCH   1  30
TORSDOF 13
ENDMDL
