MODEL 1
REMARK VINA RESULT:     -13.5      0.000      0.000
REMARK SMILES O=C(NCCCNC(=O)[C@H]1[C@H]2CC[C@H](CC2)[C@@H]1C(=O)Nc1ccc(Cc2ccncc2)cc1)c1ccc(-c2c3nc(c(-c4c(F)c(F)c(F)c(F)c4F)c4ccc([nH]4)c(-c4c(F)c(F)c(F)c(F)c4F)c4nc(c(-c5c(F)c(F)c(F)c(F)c5F)c5ccc2[nH]5)C=C4)C=C3)cc1
REMARK SMILES IDX 6 1 5 2 4 3 3 4 1 5 2 6 34 8 35 9 96 10 36 11 95 12 37 13
REMARK SMILES IDX 38 14 39 15 89 16 40 17 94 18 88 19 90 20 41 21 93 22 87 23
REMARK SMILES IDX 86 24 42 26 74 27 54 28 73 29 55 30 58 31 72 32 91 33 56 34
REMARK SMILES IDX 57 35 71 37 92 38 59 39 43 40 44 41 52 42 45 43 46 44 50 45
REMARK SMILES IDX 53 46 47 47 48 48 51 49 49 50 75 51 76 52 84 53 77 54 78 55
REMARK SMILES IDX 82 56 85 57 79 58 80 59 83 60 81 61 60 62 61 63 69 64 62 65
REMARK SMILES IDX 63 66 67 67 70 68 64 69 65 70 68 71 66 72 7 73 8 74 9 76
REMARK SMILES IDX 10 77 11 78 17 79 12 80 16 81 14 82 13 83 15 84 18 85 19 86
REMARK SMILES IDX 20 87 21 89 22 90 33 91 23 92 32 93 24 94 25 95 26 96 27 97
REMARK SMILES IDX 31 98 28 99 30 100 29 101
REMARK H PARENT 3 7 90 25 58 36 7 75 20 88
REMARK Flexibility Score: inf
ROOT
ATOM      1  C   UNL A   1      31.396  30.998  26.032  1.00  0.00     0.117 C 
ENDROOT
BRANCH   1   2
ATOM      2  C   UNL A   1      31.502  32.032  27.136  1.00  0.00     0.042 C 
BRANCH   2   3
ATOM      3  C   UNL A   1      32.751  32.886  26.982  1.00  0.00     0.118 C 
BRANCH   3   4
ATOM      4  N   UNL A   1      32.568  34.211  27.568  1.00  0.00    -0.352 N 
ATOM      5  O   UNL A   1      32.591  35.722  29.244  1.00  0.00    -0.269 OA
ATOM      6  C   UNL A   1      33.102  34.740  28.718  1.00  0.00     0.251 C 
ATOM      7  H   UNL A   1      31.974  34.815  27.065  1.00  0.00     0.163 HD
BRANCH   6   8
ATOM      8  C   UNL A   1      34.296  34.113  29.314  1.00  0.00     0.039 A 
ATOM      9  C   UNL A   1      34.141  33.108  30.268  1.00  0.00     0.014 A 
ATOM     10  C   UNL A   1      35.572  34.503  28.903  1.00  0.00     0.014 A 
ATOM     11  C   UNL A   1      35.244  32.627  30.948  1.00  0.00     0.010 A 
ATOM     12  C   UNL A   1      36.693  33.915  29.494  1.00  0.00     0.010 A 
ATOM     13  C   UNL A   1      36.534  32.992  30.540  1.00  0.00    -0.014 A 
BRANCH  13  14
ATOM     14  C   UNL A   1      37.693  32.321  31.172  1.00  0.00     0.031 A 
ATOM     15  C   UNL A   1      38.460  31.257  30.448  1.00  0.00     0.074 A 
ATOM     16  C   UNL A   1      38.059  32.717  32.406  1.00  0.00     0.049 A 
ATOM     17  N   UNL A   1      39.478  30.549  30.866  1.00  0.00    -0.248 NA
ATOM     18  C   UNL A   1      38.023  30.934  29.082  1.00  0.00     0.031 C 
ATOM     19  C   UNL A   1      37.380  33.750  33.195  1.00  0.00     0.029 A 
ATOM     20  N   UNL A   1      39.094  32.318  33.210  1.00  0.00    -0.354 N 
ATOM     21  C   UNL A   1      39.786  29.681  29.829  1.00  0.00     0.074 A 
ATOM     22  C   UNL A   1      38.832  29.932  28.770  1.00  0.00     0.031 C 
ATOM     23  C   UNL A   1      38.043  33.938  34.343  1.00  0.00     0.029 A 
ATOM     24  C   UNL A   1      39.136  32.979  34.413  1.00  0.00     0.049 A 
ATOM     25  H   UNL A   1      39.742  31.623  32.951  1.00  0.00     0.167 HD
ATOM     26  C   UNL A   1      40.780  28.761  29.773  1.00  0.00     0.037 A 
ATOM     27  C   UNL A   1      39.946  32.808  35.472  1.00  0.00     0.037 A 
ATOM     28  C   UNL A   1      41.726  28.535  30.837  1.00  0.00     0.049 A 
ATOM     29  C   UNL A   1      41.010  31.756  35.397  1.00  0.00     0.074 A 
ATOM     30  C   UNL A   1      42.787  27.647  30.875  1.00  0.00     0.029 A 
ATOM     31  N   UNL A   1      41.720  29.203  32.054  1.00  0.00    -0.354 N 
ATOM     32  N   UNL A   1      41.303  30.947  34.407  1.00  0.00    -0.248 NA
ATOM     33  C   UNL A   1      41.854  31.586  36.585  1.00  0.00     0.031 C 
ATOM     34  C   UNL A   1      43.386  27.738  32.136  1.00  0.00     0.029 A 
ATOM     35  C   UNL A   1      42.742  28.728  32.861  1.00  0.00     0.049 A 
ATOM     36  H   UNL A   1      41.083  29.910  32.308  1.00  0.00     0.167 HD
ATOM     37  C   UNL A   1      42.377  30.187  34.842  1.00  0.00     0.074 A 
ATOM     38  C   UNL A   1      42.694  30.643  36.180  1.00  0.00     0.031 C 
ATOM     39  C   UNL A   1      43.041  29.200  34.190  1.00  0.00     0.037 A 
BRANCH  26  40
ATOM     40  C   UNL A   1      40.869  27.906  28.540  1.00  0.00     0.064 A 
ATOM     41  C   UNL A   1      41.653  28.273  27.435  1.00  0.00     0.173 A 
ATOM     42  C   UNL A   1      40.175  26.688  28.471  1.00  0.00     0.173 A 
ATOM     43  F   UNL A   1      42.327  29.434  27.441  1.00  0.00    -0.203 F 
ATOM     44  C   UNL A   1      41.712  27.470  26.298  1.00  0.00     0.198 A 
ATOM     45  C   UNL A   1      40.263  25.872  27.346  1.00  0.00     0.198 A 
ATOM     46  F   UNL A   1      39.415  26.284  29.499  1.00  0.00    -0.203 F 
ATOM     47  F   UNL A   1      42.423  27.870  25.234  1.00  0.00    -0.200 F 
ATOM     48  C   UNL A   1      41.022  26.268  26.257  1.00  0.00     0.200 A 
ATOM     49  F   UNL A   1      39.605  24.704  27.315  1.00  0.00    -0.200 F 
ATOM     50  F   UNL A   1      41.082  25.496  25.163  1.00  0.00    -0.200 F 
ENDBRANCH  26  40
BRANCH  27  51
ATOM     51  C   UNL A   1      39.754  33.644  36.684  1.00  0.00     0.064 A 
ATOM     52  C   UNL A   1      40.411  34.872  36.826  1.00  0.00     0.173 A 
ATOM     53  C   UNL A   1      38.878  33.249  37.707  1.00  0.00     0.173 A 
ATOM     54  F   UNL A   1      41.268  35.287  35.881  1.00  0.00    -0.203 F 
ATOM     55  C   UNL A   1      40.209  35.669  37.951  1.00  0.00     0.198 A 
ATOM     56  C   UNL A   1      38.651  34.062  38.816  1.00  0.00     0.198 A 
ATOM     57  F   UNL A   1      38.214  32.088  37.614  1.00  0.00    -0.203 F 
ATOM     58  F   UNL A   1      40.877  36.824  38.079  1.00  0.00    -0.200 F 
ATOM     59  C   UNL A   1      39.323  35.268  38.940  1.00  0.00     0.200 A 
ATOM     60  F   UNL A   1      37.777  33.680  39.756  1.00  0.00    -0.200 F 
ATOM     61  F   UNL A   1      39.118  36.041  40.014  1.00  0.00    -0.200 F 
ENDBRANCH  27  51
BRANCH  39  62
ATOM     62  C   UNL A   1      44.205  28.579  34.906  1.00  0.00     0.064 A 
ATOM     63  C   UNL A   1      44.063  27.417  35.678  1.00  0.00     0.173 A 
ATOM     64  C   UNL A   1      45.486  29.138  34.786  1.00  0.00     0.173 A 
ATOM     65  F   UNL A   1      42.855  26.856  35.839  1.00  0.00    -0.203 F 
ATOM     66  C   UNL A   1      45.157  26.852  36.325  1.00  0.00     0.198 A 
ATOM     67  C   UNL A   1      46.584  28.551  35.407  1.00  0.00     0.198 A 
ATOM     68  F   UNL A   1      45.675  30.247  34.055  1.00  0.00    -0.203 F 
ATOM     69  F   UNL A   1      44.990  25.772  37.101  1.00  0.00    -0.200 F 
ATOM     70  C   UNL A   1      46.418  27.414  36.183  1.00  0.00     0.200 A 
ATOM     71  F   UNL A   1      47.802  29.088  35.257  1.00  0.00    -0.200 F 
ATOM     72  F   UNL A   1      47.472  26.864  36.800  1.00  0.00    -0.200 F 
ENDBRANCH  39  62
ENDBRANCH  13  14
ENDBRANCH   6   8
ENDBRANCH   3   4
ENDBRANCH   2   3
ENDBRANCH   1   2
BRANCH   1  73
ATOM     73  N   UNL A   1      31.909  29.717  26.477  1.00  0.00    -0.356 N 
ATOM     74  C   UNL A   1      31.768  28.441  26.075  1.00  0.00     0.224 C 
ATOM     75  H   UNL A   1      32.503  29.802  27.259  1.00  0.00     0.163 HD
ATOM     76  O   UNL A   1      32.056  27.614  26.950  1.00  0.00    -0.275 OA
BRANCH  74  77
ATOM     77  C   UNL A   1      31.315  27.950  24.697  1.00  0.00     0.094 C 
ATOM     78  C   UNL A   1      31.919  28.595  23.436  1.00  0.00     0.002 C 
ATOM     79  C   UNL A   1      31.542  26.404  24.627  1.00  0.00     0.094 C 
ATOM     80  C   UNL A   1      33.424  28.259  23.311  1.00  0.00     0.005 C 
ATOM     81  C   UNL A   1      31.200  28.015  22.204  1.00  0.00     0.005 C 
ATOM     82  C   UNL A   1      32.287  26.030  23.304  1.00  0.00     0.002 C 
ATOM     83  C   UNL A   1      33.645  26.745  23.309  1.00  0.00     0.005 C 
ATOM     84  C   UNL A   1      31.524  26.529  22.061  1.00  0.00     0.005 C 
BRANCH  79  85
ATOM     85  C   UNL A   1      30.232  25.603  24.692  1.00  0.00     0.228 C 
ATOM     86  O   UNL A   1      29.146  26.161  24.867  1.00  0.00    -0.274 OA
ATOM     87  N   UNL A   1      30.238  24.281  24.321  1.00  0.00    -0.326 N 
ATOM     88  H   UNL A   1      29.415  23.964  23.882  1.00  0.00     0.169 HD
BRANCH  87  89
ATOM     89  C   UNL A   1      31.244  23.315  24.473  1.00  0.00     0.041 A 
ATOM     90  C   UNL A   1      31.713  22.643  23.348  1.00  0.00     0.026 A 
ATOM     91  C   UNL A   1      31.722  22.937  25.725  1.00  0.00     0.026 A 
ATOM     92  C   UNL A   1      32.736  21.693  23.472  1.00  0.00     0.006 A 
ATOM     93  C   UNL A   1      32.726  21.977  25.859  1.00  0.00     0.006 A 
ATOM     94  C   UNL A   1      33.266  21.362  24.728  1.00  0.00    -0.043 A 
BRANCH  94  95
ATOM     95  C   UNL A   1      34.388  20.359  24.873  1.00  0.00     0.071 C 
BRANCH  95  96
ATOM     96  C   UNL A   1      33.955  18.913  24.814  1.00  0.00    -0.041 A 
ATOM     97  C   UNL A   1      34.772  17.942  24.227  1.00  0.00     0.024 A 
ATOM     98  C   UNL A   1      32.737  18.503  25.363  1.00  0.00     0.024 A 
ATOM     99  C   UNL A   1      34.341  16.626  24.206  1.00  0.00     0.111 A 
ATOM    100  C   UNL A   1      32.399  17.158  25.303  1.00  0.00     0.111 A 
ATOM    101  N   UNL A   1      33.174  16.210  24.737  1.00  0.00    -0.265 NA
ENDBRANCH  95  96
ENDBRANCH  94  95
ENDBRANCH  87  89
ENDBRANCH  79  85
ENDBRANCH  74  77
ENDBRANCH   1  73
TORSDOF 14
ENDMDL
MODEL 2
REMARK VINA RESULT:     -13.5      0.259      7.161
REMARK SMILES O=C(NCCCNC(=O)[C@H]1[C@H]2CC[C@H](CC2)[C@@H]1C(=O)Nc1ccc(Cc2ccncc2)cc1)c1ccc(-c2c3nc(c(-c4c(F)c(F)c(F)c(F)c4F)c4ccc([nH]4)c(-c4c(F)c(F)c(F)c(F)c4F)c4nc(c(-c5c(F)c(F)c(F)c(F)c5F)c5ccc2[nH]5)C=C4)C=C3)cc1
REMARK SMILES IDX 6 1 5 2 4 3 3 4 1 5 2 6 34 8 35 9 96 10 36 11 95 12 37 13
REMARK SMILES IDX 38 14 39 15 89 16 40 17 94 18 88 19 90 20 41 21 93 22 87 23
REMARK SMILES IDX 86 24 42 26 74 27 54 28 73 29 55 30 58 31 72 32 91 33 56 34
REMARK SMILES IDX 57 35 71 37 92 38 59 39 43 40 44 41 52 42 45 43 46 44 50 45
REMARK SMILES IDX 53 46 47 47 48 48 51 49 49 50 75 51 76 52 84 53 77 54 78 55
REMARK SMILES IDX 82 56 85 57 79 58 80 59 83 60 81 61 60 62 61 63 69 64 62 65
REMARK SMILES IDX 63 66 67 67 70 68 64 69 65 70 68 71 66 72 7 73 8 74 9 76
REMARK SMILES IDX 10 77 11 78 17 79 12 80 16 81 14 82 13 83 15 84 18 85 19 86
REMARK SMILES IDX 20 87 21 89 22 90 33 91 23 92 32 93 24 94 25 95 26 96 27 97
REMARK SMILES IDX 31 98 28 99 30 100 29 101
REMARK H PARENT 3 7 90 25 58 36 7 75 20 88
REMARK Flexibility Score: inf
ROOT
ATOM      1  C   UNL A   1      31.403  30.945  25.798  1.00  0.00     0.117 C 
ENDROOT
BRANCH   1   2
ATOM      2  C   UNL A   1      31.396  31.992  26.896  1.00  0.00     0.042 C 
BRANCH   2   3
ATOM      3  C   UNL A   1      32.743  32.687  27.012  1.00  0.00     0.118 C 
BRANCH   3   4
ATOM      4  N   UNL A   1      32.602  34.044  27.535  1.00  0.00    -0.352 N 
ATOM      5  O   UNL A   1      32.687  35.634  29.134  1.00  0.00    -0.269 OA
ATOM      6  C   UNL A   1      33.165  34.615  28.650  1.00  0.00     0.251 C 
ATOM      7  H   UNL A   1      32.016  34.637  27.010  1.00  0.00     0.163 HD
BRANCH   6   8
ATOM      8  C   UNL A   1      34.352  33.986  29.260  1.00  0.00     0.039 A 
ATOM      9  C   UNL A   1      34.189  32.900  30.120  1.00  0.00     0.014 A 
ATOM     10  C   UNL A   1      35.630  34.459  28.956  1.00  0.00     0.014 A 
ATOM     11  C   UNL A   1      35.274  32.408  30.821  1.00  0.00     0.010 A 
ATOM     12  C   UNL A   1      36.742  33.867  29.560  1.00  0.00     0.010 A 
ATOM     13  C   UNL A   1      36.567  32.856  30.518  1.00  0.00    -0.014 A 
BRANCH  13  14
ATOM     14  C   UNL A   1      37.719  32.180  31.159  1.00  0.00     0.031 A 
ATOM     15  C   UNL A   1      38.142  32.529  32.553  1.00  0.00     0.074 A 
ATOM     16  C   UNL A   1      38.358  31.220  30.463  1.00  0.00     0.049 A 
ATOM     17  N   UNL A   1      39.144  32.058  33.250  1.00  0.00    -0.248 NA
ATOM     18  C   UNL A   1      37.347  33.547  33.255  1.00  0.00     0.031 C 
ATOM     19  C   UNL A   1      38.019  30.802  29.099  1.00  0.00     0.029 A 
ATOM     20  N   UNL A   1      39.408  30.410  30.804  1.00  0.00    -0.354 N 
ATOM     21  C   UNL A   1      39.118  32.739  34.459  1.00  0.00     0.074 A 
ATOM     22  C   UNL A   1      38.016  33.675  34.393  1.00  0.00     0.031 C 
ATOM     23  C   UNL A   1      38.810  29.784  28.739  1.00  0.00     0.029 A 
ATOM     24  C   UNL A   1      39.769  29.538  29.806  1.00  0.00     0.049 A 
ATOM     25  H   UNL A   1      39.862  30.451  31.677  1.00  0.00     0.167 HD
ATOM     26  C   UNL A   1      39.943  32.588  35.524  1.00  0.00     0.037 A 
ATOM     27  C   UNL A   1      40.783  28.658  29.744  1.00  0.00     0.037 A 
ATOM     28  C   UNL A   1      41.028  31.641  35.571  1.00  0.00     0.049 A 
ATOM     29  C   UNL A   1      41.703  28.542  30.922  1.00  0.00     0.074 A 
ATOM     30  C   UNL A   1      41.908  31.388  36.609  1.00  0.00     0.029 A 
ATOM     31  N   UNL A   1      41.384  30.794  34.530  1.00  0.00    -0.354 N 
ATOM     32  N   UNL A   1      41.663  29.180  32.066  1.00  0.00    -0.248 NA
ATOM     33  C   UNL A   1      42.812  27.588  30.800  1.00  0.00     0.031 C 
ATOM     34  C   UNL A   1      42.831  30.430  36.174  1.00  0.00     0.029 A 
ATOM     35  C   UNL A   1      42.487  30.036  34.891  1.00  0.00     0.049 A 
ATOM     36  H   UNL A   1      40.921  30.739  33.663  1.00  0.00     0.167 HD
ATOM     37  C   UNL A   1      42.726  28.693  32.811  1.00  0.00     0.074 A 
ATOM     38  C   UNL A   1      43.382  27.693  31.992  1.00  0.00     0.031 C 
ATOM     39  C   UNL A   1      43.122  29.043  34.060  1.00  0.00     0.037 A 
BRANCH  26  40
ATOM     40  C   UNL A   1      39.726  33.491  36.705  1.00  0.00     0.064 A 
ATOM     41  C   UNL A   1      40.382  34.725  36.830  1.00  0.00     0.173 A 
ATOM     42  C   UNL A   1      38.828  33.125  37.721  1.00  0.00     0.173 A 
ATOM     43  F   UNL A   1      41.261  35.120  35.895  1.00  0.00    -0.203 F 
ATOM     44  C   UNL A   1      40.173  35.541  37.940  1.00  0.00     0.198 A 
ATOM     45  C   UNL A   1      38.597  33.958  38.812  1.00  0.00     0.198 A 
ATOM     46  F   UNL A   1      38.168  31.959  37.652  1.00  0.00    -0.203 F 
ATOM     47  F   UNL A   1      40.855  36.689  38.063  1.00  0.00    -0.200 F 
ATOM     48  C   UNL A   1      39.277  35.160  38.927  1.00  0.00     0.200 A 
ATOM     49  F   UNL A   1      37.720  33.592  39.758  1.00  0.00    -0.200 F 
ATOM     50  F   UNL A   1      39.075  35.947  39.992  1.00  0.00    -0.200 F 
ENDBRANCH  26  40
BRANCH  27  51
ATOM     51  C   UNL A   1      40.977  27.847  28.515  1.00  0.00     0.064 A 
ATOM     52  C   UNL A   1      40.350  26.604  28.365  1.00  0.00     0.173 A 
ATOM     53  C   UNL A   1      41.760  28.318  27.450  1.00  0.00     0.173 A 
ATOM     54  F   UNL A   1      39.602  26.106  29.359  1.00  0.00    -0.203 F 
ATOM     55  C   UNL A   1      40.509  25.856  27.199  1.00  0.00     0.198 A 
ATOM     56  C   UNL A   1      41.892  27.585  26.273  1.00  0.00     0.198 A 
ATOM     57  F   UNL A   1      42.371  29.509  27.539  1.00  0.00    -0.203 F 
ATOM     58  F   UNL A   1      39.928  24.654  27.094  1.00  0.00    -0.200 F 
ATOM     59  C   UNL A   1      41.272  26.351  26.152  1.00  0.00     0.200 A 
ATOM     60  F   UNL A   1      42.611  28.078  25.256  1.00  0.00    -0.200 F 
ATOM     61  F   UNL A   1      41.413  25.638  25.027  1.00  0.00    -0.200 F 
ENDBRANCH  27  51
BRANCH  39  62
ATOM     62  C   UNL A   1      44.297  28.304  34.631  1.00  0.00     0.064 A 
ATOM     63  C   UNL A   1      45.605  28.794  34.513  1.00  0.00     0.173 A 
ATOM     64  C   UNL A   1      44.102  27.107  35.336  1.00  0.00     0.173 A 
ATOM     65  F   UNL A   1      45.845  29.924  33.832  1.00  0.00    -0.203 F 
ATOM     66  C   UNL A   1      46.680  28.097  35.058  1.00  0.00     0.198 A 
ATOM     67  C   UNL A   1      45.174  26.430  35.908  1.00  0.00     0.198 A 
ATOM     68  F   UNL A   1      42.868  26.599  35.480  1.00  0.00    -0.203 F 
ATOM     69  F   UNL A   1      47.928  28.554  34.889  1.00  0.00    -0.200 F 
ATOM     70  C   UNL A   1      46.462  26.921  35.762  1.00  0.00     0.200 A 
ATOM     71  F   UNL A   1      44.961  25.302  36.599  1.00  0.00    -0.200 F 
ATOM     72  F   UNL A   1      47.497  26.256  36.294  1.00  0.00    -0.200 F 
ENDBRANCH  39  62
ENDBRANCH  13  14
ENDBRANCH   6   8
ENDBRANCH   3   4
ENDBRANCH   2   3
ENDBRANCH   1   2
BRANCH   1  73
ATOM     73  N   UNL A   1      31.922  29.686  26.294  1.00  0.00    -0.356 N 
ATOM     74  C   UNL A   1      31.790  28.395  25.939  1.00  0.00     0.224 C 
ATOM     75  H   UNL A   1      32.511  29.803  27.075  1.00  0.00     0.163 HD
ATOM     76  O   UNL A   1      32.079  27.602  26.845  1.00  0.00    -0.275 OA
BRANCH  74  77
ATOM     77  C   UNL A   1      31.346  27.850  24.578  1.00  0.00     0.094 C 
ATOM     78  C   UNL A   1      31.963  28.441  23.297  1.00  0.00     0.002 C 
ATOM     79  C   UNL A   1      31.569  26.302  24.572  1.00  0.00     0.094 C 
ATOM     80  C   UNL A   1      33.468  28.096  23.198  1.00  0.00     0.005 C 
ATOM     81  C   UNL A   1      31.252  27.815  22.083  1.00  0.00     0.005 C 
ATOM     82  C   UNL A   1      32.322  25.872  23.272  1.00  0.00     0.002 C 
ATOM     83  C   UNL A   1      33.684  26.582  23.259  1.00  0.00     0.005 C 
ATOM     84  C   UNL A   1      31.572  26.323  22.003  1.00  0.00     0.005 C 
BRANCH  79  85
ATOM     85  C   UNL A   1      30.255  25.508  24.658  1.00  0.00     0.228 C 
ATOM     86  O   UNL A   1      29.172  26.075  24.829  1.00  0.00    -0.274 OA
ATOM     87  N   UNL A   1      30.252  24.179  24.310  1.00  0.00    -0.326 N 
ATOM     88  H   UNL A   1      29.425  23.858  23.882  1.00  0.00     0.169 HD
BRANCH  87  89
ATOM     89  C   UNL A   1      31.255  23.212  24.475  1.00  0.00     0.041 A 
ATOM     90  C   UNL A   1      31.716  22.518  23.359  1.00  0.00     0.026 A 
ATOM     91  C   UNL A   1      31.737  22.853  25.731  1.00  0.00     0.026 A 
ATOM     92  C   UNL A   1      32.735  21.566  23.495  1.00  0.00     0.006 A 
ATOM     93  C   UNL A   1      32.737  21.891  25.877  1.00  0.00     0.006 A 
ATOM     94  C   UNL A   1      33.269  21.254  24.754  1.00  0.00    -0.043 A 
BRANCH  94  95
ATOM     95  C   UNL A   1      34.387  20.248  24.911  1.00  0.00     0.071 C 
BRANCH  95  96
ATOM     96  C   UNL A   1      33.955  18.804  24.826  1.00  0.00    -0.041 A 
ATOM     97  C   UNL A   1      32.754  18.378  25.403  1.00  0.00     0.024 A 
ATOM     98  C   UNL A   1      34.731  17.857  24.151  1.00  0.00     0.024 A 
ATOM     99  C   UNL A   1      32.389  17.046  25.289  1.00  0.00     0.111 A 
ATOM    100  C   UNL A   1      34.275  16.549  24.081  1.00  0.00     0.111 A 
ATOM    101  N   UNL A   1      33.121  16.121  24.636  1.00  0.00    -0.265 NA
ENDBRANCH  95  96
ENDBRANCH  94  95
ENDBRANCH  87  89
ENDBRANCH  79  85
ENDBRANCH  74  77
ENDBRANCH   1  73
TORSDOF 14
ENDMDL
MODEL 3
REMARK VINA RESULT:     -13.5      3.699      7.182
REMARK SMILES O=C(NCCCNC(=O)[C@H]1[C@H]2CC[C@H](CC2)[C@@H]1C(=O)Nc1ccc(Cc2ccncc2)cc1)c1ccc(-c2c3nc(c(-c4c(F)c(F)c(F)c(F)c4F)c4ccc([nH]4)c(-c4c(F)c(F)c(F)c(F)c4F)c4nc(c(-c5c(F)c(F)c(F)c(F)c5F)c5ccc2[nH]5)C=C4)C=C3)cc1
REMARK SMILES IDX 6 1 5 2 4 3 3 4 1 5 2 6 34 8 35 9 96 10 36 11 95 12 37 13
REMARK SMILES IDX 38 14 39 15 89 16 40 17 94 18 88 19 90 20 41 21 93 22 87 23
REMARK SMILES IDX 86 24 42 26 74 27 54 28 73 29 55 30 58 31 72 32 91 33 56 34
REMARK SMILES IDX 57 35 71 37 92 38 59 39 43 40 44 41 52 42 45 43 46 44 50 45
REMARK SMILES IDX 53 46 47 47 48 48 51 49 49 50 75 51 76 52 84 53 77 54 78 55
REMARK SMILES IDX 82 56 85 57 79 58 80 59 83 60 81 61 60 62 61 63 69 64 62 65
REMARK SMILES IDX 63 66 67 67 70 68 64 69 65 70 68 71 66 72 7 73 8 74 9 76
REMARK SMILES IDX 10 77 11 78 17 79 12 80 16 81 14 82 13 83 15 84 18 85 19 86
REMARK SMILES IDX 20 87 21 89 22 90 33 91 23 92 32 93 24 94 25 95 26 96 27 97
REMARK SMILES IDX 31 98 28 99 30 100 29 101
REMARK H PARENT 3 7 90 25 58 36 7 75 20 88
REMARK Flexibility Score: inf
ROOT
ATOM      1  C   UNL A   1      34.404  25.221  25.523  1.00  0.00     0.117 C 
ENDROOT
BRANCH   1   2
ATOM      2  C   UNL A   1      35.273  24.054  25.952  1.00  0.00     0.042 C 
BRANCH   2   3
ATOM      3  C   UNL A   1      36.587  24.028  25.188  1.00  0.00     0.118 C 
BRANCH   3   4
ATOM      4  N   UNL A   1      37.436  22.921  25.624  1.00  0.00    -0.352 N 
ATOM      5  O   UNL A   1      39.398  21.943  26.158  1.00  0.00    -0.269 OA
ATOM      6  C   UNL A   1      38.699  22.949  26.166  1.00  0.00     0.251 C 
ATOM      7  H   UNL A   1      37.047  22.024  25.513  1.00  0.00     0.163 HD
BRANCH   6   8
ATOM      8  C   UNL A   1      39.203  24.202  26.756  1.00  0.00     0.039 A 
ATOM      9  C   UNL A   1      38.953  24.479  28.100  1.00  0.00     0.014 A 
ATOM     10  C   UNL A   1      39.951  25.091  25.981  1.00  0.00     0.014 A 
ATOM     11  C   UNL A   1      39.278  25.718  28.620  1.00  0.00     0.010 A 
ATOM     12  C   UNL A   1      40.402  26.285  26.549  1.00  0.00     0.010 A 
ATOM     13  C   UNL A   1      40.044  26.616  27.866  1.00  0.00    -0.014 A 
BRANCH  13  14
ATOM     14  C   UNL A   1      40.526  27.856  28.517  1.00  0.00     0.031 A 
ATOM     15  C   UNL A   1      41.970  28.029  28.877  1.00  0.00     0.074 A 
ATOM     16  C   UNL A   1      39.635  28.839  28.749  1.00  0.00     0.049 A 
ATOM     17  N   UNL A   1      42.553  29.035  29.477  1.00  0.00    -0.248 NA
ATOM     18  C   UNL A   1      42.879  26.927  28.530  1.00  0.00     0.031 C 
ATOM     19  C   UNL A   1      38.205  28.771  28.430  1.00  0.00     0.029 A 
ATOM     20  N   UNL A   1      39.792  30.088  29.287  1.00  0.00    -0.354 N 
ATOM     21  C   UNL A   1      43.888  28.677  29.605  1.00  0.00     0.074 A 
ATOM     22  C   UNL A   1      44.026  27.351  29.042  1.00  0.00     0.031 C 
ATOM     23  C   UNL A   1      37.628  29.941  28.731  1.00  0.00     0.029 A 
ATOM     24  C   UNL A   1      38.624  30.807  29.347  1.00  0.00     0.049 A 
ATOM     25  H   UNL A   1      40.658  30.436  29.602  1.00  0.00     0.167 HD
ATOM     26  C   UNL A   1      44.901  29.399  30.143  1.00  0.00     0.037 A 
ATOM     27  C   UNL A   1      38.373  32.019  29.872  1.00  0.00     0.037 A 
ATOM     28  C   UNL A   1      44.742  30.724  30.688  1.00  0.00     0.049 A 
ATOM     29  C   UNL A   1      39.505  32.777  30.496  1.00  0.00     0.074 A 
ATOM     30  C   UNL A   1      45.705  31.554  31.234  1.00  0.00     0.029 A 
ATOM     31  N   UNL A   1      43.537  31.410  30.760  1.00  0.00    -0.354 N 
ATOM     32  N   UNL A   1      40.767  32.437  30.601  1.00  0.00    -0.248 NA
ATOM     33  C   UNL A   1      39.181  34.084  31.079  1.00  0.00     0.031 C 
ATOM     34  C   UNL A   1      45.073  32.717  31.688  1.00  0.00     0.029 A 
ATOM     35  C   UNL A   1      43.727  32.642  31.365  1.00  0.00     0.049 A 
ATOM     36  H   UNL A   1      42.673  31.071  30.429  1.00  0.00     0.167 HD
ATOM     37  C   UNL A   1      41.393  33.493  31.242  1.00  0.00     0.074 A 
ATOM     38  C   UNL A   1      40.373  34.494  31.488  1.00  0.00     0.031 C 
ATOM     39  C   UNL A   1      42.696  33.624  31.596  1.00  0.00     0.037 A 
BRANCH  26  40
ATOM     40  C   UNL A   1      46.258  28.757  30.202  1.00  0.00     0.064 A 
ATOM     41  C   UNL A   1      47.195  28.900  29.168  1.00  0.00     0.173 A 
ATOM     42  C   UNL A   1      46.636  28.002  31.324  1.00  0.00     0.173 A 
ATOM     43  F   UNL A   1      46.884  29.600  28.065  1.00  0.00    -0.203 F 
ATOM     44  C   UNL A   1      48.444  28.287  29.240  1.00  0.00     0.198 A 
ATOM     45  C   UNL A   1      47.897  27.418  31.407  1.00  0.00     0.198 A 
ATOM     46  F   UNL A   1      45.783  27.836  32.345  1.00  0.00    -0.203 F 
ATOM     47  F   UNL A   1      49.301  28.392  28.214  1.00  0.00    -0.200 F 
ATOM     48  C   UNL A   1      48.796  27.551  30.361  1.00  0.00     0.200 A 
ATOM     49  F   UNL A   1      48.239  26.718  32.499  1.00  0.00    -0.200 F 
ATOM     50  F   UNL A   1      49.999  26.964  30.430  1.00  0.00    -0.200 F 
ENDBRANCH  26  40
BRANCH  27  51
ATOM     51  C   UNL A   1      36.991  32.561  29.838  1.00  0.00     0.064 A 
ATOM     52  C   UNL A   1      36.130  32.414  30.932  1.00  0.00     0.173 A 
ATOM     53  C   UNL A   1      36.517  33.272  28.723  1.00  0.00     0.173 A 
ATOM     54  F   UNL A   1      36.532  31.733  32.014  1.00  0.00    -0.203 F 
ATOM     55  C   UNL A   1      34.843  32.948  30.910  1.00  0.00     0.198 A 
ATOM     56  C   UNL A   1      35.242  33.833  28.716  1.00  0.00     0.198 A 
ATOM     57  F   UNL A   1      37.306  33.451  27.654  1.00  0.00    -0.203 F 
ATOM     58  F   UNL A   1      34.026  32.763  31.956  1.00  0.00    -0.200 F 
ATOM     59  C   UNL A   1      34.403  33.664  29.806  1.00  0.00     0.200 A 
ATOM     60  F   UNL A   1      34.831  34.543  27.656  1.00  0.00    -0.200 F 
ATOM     61  F   UNL A   1      33.171  34.189  29.791  1.00  0.00    -0.200 F 
ENDBRANCH  27  51
BRANCH  39  62
ATOM     62  C   UNL A   1      43.096  34.915  32.248  1.00  0.00     0.064 A 
ATOM     63  C   UNL A   1      43.495  36.030  31.496  1.00  0.00     0.173 A 
ATOM     64  C   UNL A   1      43.044  35.046  33.644  1.00  0.00     0.173 A 
ATOM     65  F   UNL A   1      43.579  35.948  30.160  1.00  0.00    -0.203 F 
ATOM     66  C   UNL A   1      43.853  37.220  32.121  1.00  0.00     0.198 A 
ATOM     67  C   UNL A   1      43.371  36.248  34.263  1.00  0.00     0.198 A 
ATOM     68  F   UNL A   1      42.665  34.009  34.407  1.00  0.00    -0.203 F 
ATOM     69  F   UNL A   1      44.282  38.257  31.388  1.00  0.00    -0.200 F 
ATOM     70  C   UNL A   1      43.782  37.331  33.502  1.00  0.00     0.200 A 
ATOM     71  F   UNL A   1      43.289  36.358  35.596  1.00  0.00    -0.200 F 
ATOM     72  F   UNL A   1      44.120  38.481  34.101  1.00  0.00    -0.200 F 
ENDBRANCH  39  62
ENDBRANCH  13  14
ENDBRANCH   6   8
ENDBRANCH   3   4
ENDBRANCH   2   3
ENDBRANCH   1   2
BRANCH   1  73
ATOM     73  N   UNL A   1      33.058  25.077  26.042  1.00  0.00    -0.356 N 
ATOM     74  C   UNL A   1      31.930  25.808  25.984  1.00  0.00     0.224 C 
ATOM     75  H   UNL A   1      32.943  24.247  26.560  1.00  0.00     0.163 HD
ATOM     76  O   UNL A   1      31.118  25.532  26.876  1.00  0.00    -0.275 OA
BRANCH  74  77
ATOM     77  C   UNL A   1      31.580  26.887  24.956  1.00  0.00     0.094 C 
ATOM     78  C   UNL A   1      31.649  28.368  25.371  1.00  0.00     0.002 C 
ATOM     79  C   UNL A   1      32.484  26.678  23.696  1.00  0.00     0.094 C 
ATOM     80  C   UNL A   1      33.108  28.795  25.657  1.00  0.00     0.005 C 
ATOM     81  C   UNL A   1      31.125  29.224  24.203  1.00  0.00     0.005 C 
ATOM     82  C   UNL A   1      33.137  28.034  23.273  1.00  0.00     0.002 C 
ATOM     83  C   UNL A   1      34.000  28.527  24.444  1.00  0.00     0.005 C 
ATOM     84  C   UNL A   1      32.076  29.120  23.012  1.00  0.00     0.005 C 
BRANCH  79  85
ATOM     85  C   UNL A   1      31.712  26.113  22.493  1.00  0.00     0.228 C 
ATOM     86  O   UNL A   1      31.029  26.841  21.769  1.00  0.00    -0.274 OA
ATOM     87  N   UNL A   1      31.966  24.828  22.080  1.00  0.00    -0.326 N 
ATOM     88  H   UNL A   1      31.900  24.678  21.108  1.00  0.00     0.169 HD
BRANCH  87  89
ATOM     89  C   UNL A   1      32.307  23.697  22.838  1.00  0.00     0.041 A 
ATOM     90  C   UNL A   1      33.559  23.114  22.657  1.00  0.00     0.026 A 
ATOM     91  C   UNL A   1      31.400  23.080  23.694  1.00  0.00     0.026 A 
ATOM     92  C   UNL A   1      33.932  22.000  23.421  1.00  0.00     0.006 A 
ATOM     93  C   UNL A   1      31.756  21.958  24.443  1.00  0.00     0.006 A 
ATOM     94  C   UNL A   1      33.040  21.420  24.335  1.00  0.00    -0.043 A 
BRANCH  94  95
ATOM     95  C   UNL A   1      33.439  20.234  25.185  1.00  0.00     0.071 C 
BRANCH  95  96
ATOM     96  C   UNL A   1      33.579  18.934  24.430  1.00  0.00    -0.041 A 
ATOM     97  C   UNL A   1      32.616  18.538  23.498  1.00  0.00     0.024 A 
ATOM     98  C   UNL A   1      34.686  18.103  24.626  1.00  0.00     0.024 A 
ATOM     99  C   UNL A   1      32.792  17.343  22.818  1.00  0.00     0.111 A 
ATOM    100  C   UNL A   1      34.778  16.931  23.888  1.00  0.00     0.111 A 
ATOM    101  N   UNL A   1      33.855  16.532  22.988  1.00  0.00    -0.265 NA
ENDBRANCH  95  96
ENDBRANCH  94  95
ENDBRANCH  87  89
ENDBRANCH  79  85
ENDBRANCH  74  77
ENDBRANCH   1  73
TORSDOF 14
ENDMDL
