MODEL 1
REMARK VINA RESULT:     -12.9      0.000      0.000
REMARK SMILES Cc1cc(Nc2ccc(C(=O)NCCCNC(=O)c3ccc(-c4c5nc(c(-c6c(F)c(F)c(F)c(F)c6F)c6ccc([nH]6)c(-c6c(F)c(F)c(F)c(F)c6F)c6nc(c(-c7c(F)c(F)c(F)c(F)c7F)c7ccc4[nH]7)C=C6)C=C5)cc3)cc2)nc(C(C)C)n1
REMARK SMILES IDX 13 1 12 2 10 3 11 4 9 6 6 7 7 8 83 9 8 10 82 11 5 12 4 14
REMARK SMILES IDX 1 15 2 16 3 17 89 18 85 19 84 20 86 21 87 22 88 23 14 24
REMARK SMILES IDX 15 25 16 26 17 27 18 29 19 30 20 31 81 32 21 33 80 34 22 35
REMARK SMILES IDX 23 36 24 37 74 38 25 39 79 40 73 41 75 42 26 43 78 44 72 45
REMARK SMILES IDX 71 46 27 48 59 49 39 50 58 51 40 52 43 53 57 54 76 55 41 56
REMARK SMILES IDX 42 57 56 59 77 60 44 61 28 62 29 63 37 64 30 65 31 66 35 67
REMARK SMILES IDX 38 68 32 69 33 70 36 71 34 72 60 73 61 74 69 75 62 76 63 77
REMARK SMILES IDX 67 78 70 79 64 80 65 81 68 82 66 83 45 84 46 85 54 86 47 87
REMARK SMILES IDX 48 88 52 89 55 90 49 91 50 92 53 93 51 94
REMARK H PARENT 12 5 5 13 16 28 75 47 43 58
REMARK Flexibility Score: inf
ROOT
ATOM      1  C   UNL A   1      32.130  27.948  23.796  1.00  0.00     0.118 C 
ENDROOT
BRANCH   1   2
ATOM      2  N   UNL A   1      30.701  27.847  23.563  1.00  0.00    -0.352 N 
ATOM      3  C   UNL A   1      29.804  26.830  23.776  1.00  0.00     0.251 C 
ATOM      4  O   UNL A   1      28.616  27.061  23.553  1.00  0.00    -0.269 OA
ATOM      5  H   UNL A   1      30.300  28.660  23.179  1.00  0.00     0.163 HD
BRANCH   3   6
ATOM      6  C   UNL A   1      30.195  25.497  24.307  1.00  0.00     0.039 A 
ATOM      7  C   UNL A   1      30.946  23.043  25.491  1.00  0.00     0.040 A 
ATOM      8  C   UNL A   1      30.474  24.094  26.279  1.00  0.00     0.027 A 
ATOM      9  C   UNL A   1      31.013  23.222  24.106  1.00  0.00     0.027 A 
ATOM     10  C   UNL A   1      30.108  25.312  25.694  1.00  0.00     0.016 A 
ATOM     11  C   UNL A   1      30.603  24.422  23.515  1.00  0.00     0.016 A 
BRANCH   7  12
ATOM     12  N   UNL A   1      31.431  21.871  26.095  1.00  0.00    -0.340 N 
ATOM     13  H   UNL A   1      31.016  21.602  26.946  1.00  0.00     0.168 HD
BRANCH  12  14
ATOM     14  C   UNL A   1      32.457  21.045  25.592  1.00  0.00     0.134 A 
ATOM     15  C   UNL A   1      36.190  21.044  25.232  1.00  0.00     0.067 C 
ATOM     16  C   UNL A   1      34.744  20.658  25.174  1.00  0.00     0.043 A 
ATOM     17  C   UNL A   1      33.766  21.473  25.707  1.00  0.00     0.070 A 
ATOM     18  N   UNL A   1      34.453  19.500  24.553  1.00  0.00    -0.238 NA
ATOM     19  C   UNL A   1      33.156  19.149  24.492  1.00  0.00     0.133 A 
ATOM     20  N   UNL A   1      32.149  19.874  25.009  1.00  0.00    -0.216 NA
BRANCH  19  21
ATOM     21  C   UNL A   1      32.785  17.883  23.751  1.00  0.00     0.051 C 
ATOM     22  C   UNL A   1      32.337  18.205  22.325  1.00  0.00     0.016 C 
ATOM     23  C   UNL A   1      33.941  16.884  23.754  1.00  0.00     0.016 C 
ENDBRANCH  19  21
ENDBRANCH  12  14
ENDBRANCH   7  12
ENDBRANCH   3   6
ENDBRANCH   1   2
BRANCH   1  24
ATOM     24  C   UNL A   1      32.433  28.242  25.266  1.00  0.00     0.042 C 
BRANCH  24  25
ATOM     25  C   UNL A   1      33.573  29.236  25.474  1.00  0.00     0.118 C 
BRANCH  25  26
ATOM     26  N   UNL A   1      33.101  30.510  25.993  1.00  0.00    -0.352 N 
ATOM     27  C   UNL A   1      33.556  31.268  27.041  1.00  0.00     0.251 C 
ATOM     28  H   UNL A   1      32.329  30.889  25.515  1.00  0.00     0.163 HD
ATOM     29  O   UNL A   1      32.883  32.223  27.421  1.00  0.00    -0.269 OA
BRANCH  27  30
ATOM     30  C   UNL A   1      34.830  30.957  27.731  1.00  0.00     0.039 A 
ATOM     31  C   UNL A   1      34.964  29.698  28.326  1.00  0.00     0.014 A 
ATOM     32  C   UNL A   1      35.851  31.901  27.877  1.00  0.00     0.014 A 
ATOM     33  C   UNL A   1      36.121  29.376  29.038  1.00  0.00     0.010 A 
ATOM     34  C   UNL A   1      37.034  31.559  28.538  1.00  0.00     0.010 A 
ATOM     35  C   UNL A   1      37.174  30.299  29.138  1.00  0.00    -0.014 A 
BRANCH  35  36
ATOM     36  C   UNL A   1      38.411  29.946  29.879  1.00  0.00     0.031 A 
ATOM     37  C   UNL A   1      38.645  30.461  31.272  1.00  0.00     0.074 A 
ATOM     38  C   UNL A   1      39.337  29.166  29.288  1.00  0.00     0.049 A 
ATOM     39  N   UNL A   1      39.649  30.232  32.083  1.00  0.00    -0.248 NA
ATOM     40  C   UNL A   1      37.628  31.370  31.822  1.00  0.00     0.031 C 
ATOM     41  C   UNL A   1      39.254  28.648  27.921  1.00  0.00     0.029 A 
ATOM     42  N   UNL A   1      40.527  28.673  29.760  1.00  0.00    -0.354 N 
ATOM     43  C   UNL A   1      39.390  30.974  33.227  1.00  0.00     0.074 A 
ATOM     44  C   UNL A   1      38.159  31.697  32.991  1.00  0.00     0.031 C 
ATOM     45  C   UNL A   1      40.330  27.884  27.676  1.00  0.00     0.029 A 
ATOM     46  C   UNL A   1      41.188  27.876  28.858  1.00  0.00     0.049 A 
ATOM     47  H   UNL A   1      40.874  28.871  30.660  1.00  0.00     0.167 HD
ATOM     48  C   UNL A   1      40.102  31.030  34.379  1.00  0.00     0.037 A 
ATOM     49  C   UNL A   1      42.348  27.203  28.975  1.00  0.00     0.037 A 
ATOM     50  C   UNL A   1      41.314  30.291  34.623  1.00  0.00     0.049 A 
ATOM     51  C   UNL A   1      43.099  27.253  30.277  1.00  0.00     0.074 A 
ATOM     52  C   UNL A   1      42.077  30.238  35.777  1.00  0.00     0.029 A 
ATOM     53  N   UNL A   1      41.938  29.471  33.695  1.00  0.00    -0.354 N 
ATOM     54  N   UNL A   1      42.805  27.900  31.378  1.00  0.00    -0.248 NA
ATOM     55  C   UNL A   1      44.336  26.463  30.356  1.00  0.00     0.031 C 
ATOM     56  C   UNL A   1      43.182  29.413  35.535  1.00  0.00     0.029 A 
ATOM     57  C   UNL A   1      43.084  28.919  34.244  1.00  0.00     0.049 A 
ATOM     58  H   UNL A   1      41.614  29.306  32.780  1.00  0.00     0.167 HD
ATOM     59  C   UNL A   1      43.805  27.580  32.287  1.00  0.00     0.074 A 
ATOM     60  C   UNL A   1      44.702  26.664  31.613  1.00  0.00     0.031 C 
ATOM     61  C   UNL A   1      43.965  28.008  33.563  1.00  0.00     0.037 A 
BRANCH  48  62
ATOM     62  C   UNL A   1      39.583  31.921  35.471  1.00  0.00     0.064 A 
ATOM     63  C   UNL A   1      38.656  31.457  36.416  1.00  0.00     0.173 A 
ATOM     64  C   UNL A   1      40.044  33.239  35.596  1.00  0.00     0.173 A 
ATOM     65  F   UNL A   1      38.176  30.206  36.334  1.00  0.00    -0.203 F 
ATOM     66  C   UNL A   1      38.189  32.289  37.431  1.00  0.00     0.198 A 
ATOM     67  C   UNL A   1      39.595  34.061  36.628  1.00  0.00     0.198 A 
ATOM     68  F   UNL A   1      40.936  33.731  34.723  1.00  0.00    -0.203 F 
ATOM     69  F   UNL A   1      37.270  31.837  38.296  1.00  0.00    -0.200 F 
ATOM     70  C   UNL A   1      38.664  33.587  37.540  1.00  0.00     0.200 A 
ATOM     71  F   UNL A   1      40.063  35.312  36.739  1.00  0.00    -0.200 F 
ATOM     72  F   UNL A   1      38.217  34.386  38.519  1.00  0.00    -0.200 F 
ENDBRANCH  48  62
BRANCH  49  73
ATOM     73  C   UNL A   1      42.844  26.384  27.841  1.00  0.00     0.064 A 
ATOM     74  C   UNL A   1      42.424  25.058  27.676  1.00  0.00     0.173 A 
ATOM     75  C   UNL A   1      43.739  26.910  26.898  1.00  0.00     0.173 A 
ATOM     76  F   UNL A   1      41.583  24.506  28.565  1.00  0.00    -0.203 F 
ATOM     77  C   UNL A   1      42.895  24.280  26.621  1.00  0.00     0.198 A 
ATOM     78  C   UNL A   1      44.189  26.140  25.828  1.00  0.00     0.198 A 
ATOM     79  F   UNL A   1      44.165  28.177  27.009  1.00  0.00    -0.203 F 
ATOM     80  F   UNL A   1      42.509  23.002  26.509  1.00  0.00    -0.200 F 
ATOM     81  C   UNL A   1      43.772  24.823  25.694  1.00  0.00     0.200 A 
ATOM     82  F   UNL A   1      45.027  26.671  24.929  1.00  0.00    -0.200 F 
ATOM     83  F   UNL A   1      44.221  24.077  24.677  1.00  0.00    -0.200 F 
ENDBRANCH  49  73
BRANCH  61  84
ATOM     84  C   UNL A   1      45.143  27.468  34.318  1.00  0.00     0.064 A 
ATOM     85  C   UNL A   1      46.378  28.133  34.324  1.00  0.00     0.173 A 
ATOM     86  C   UNL A   1      45.031  26.281  35.058  1.00  0.00     0.173 A 
ATOM     87  F   UNL A   1      46.540  29.263  33.619  1.00  0.00    -0.203 F 
ATOM     88  C   UNL A   1      47.468  27.612  35.018  1.00  0.00     0.198 A 
ATOM     89  C   UNL A   1      46.114  25.777  35.771  1.00  0.00     0.198 A 
ATOM     90  F   UNL A   1      43.869  25.611  35.088  1.00  0.00    -0.203 F 
ATOM     91  F   UNL A   1      48.652  28.235  34.967  1.00  0.00    -0.200 F 
ATOM     92  C   UNL A   1      47.334  26.438  35.743  1.00  0.00     0.200 A 
ATOM     93  F   UNL A   1      45.981  24.647  36.480  1.00  0.00    -0.200 F 
ATOM     94  F   UNL A   1      48.383  25.936  36.408  1.00  0.00    -0.200 F 
ENDBRANCH  61  84
ENDBRANCH  35  36
ENDBRANCH  27  30
ENDBRANCH  25  26
ENDBRANCH  24  25
ENDBRANCH   1  24
TORSDOF 13
ENDMDL
MODEL 2
REMARK VINA RESULT:     -12.7      4.321      9.895
REMARK SMILES Cc1cc(Nc2ccc(C(=O)NCCCNC(=O)c3ccc(-c4c5nc(c(-c6c(F)c(F)c(F)c(F)c6F)c6ccc([nH]6)c(-c6c(F)c(F)c(F)c(F)c6F)c6nc(c(-c7c(F)c(F)c(F)c(F)c7F)c7ccc4[nH]7)C=C6)C=C5)cc3)cc2)nc(C(C)C)n1
REMARK SMILES IDX 13 1 12 2 10 3 11 4 9 6 6 7 7 8 83 9 8 10 82 11 5 12 4 14
REMARK SMILES IDX 1 15 2 16 3 17 89 18 85 19 84 20 86 21 87 22 88 23 14 24
REMARK SMILES IDX 15 25 16 26 17 27 18 29 19 30 20 31 81 32 21 33 80 34 22 35
REMARK SMILES IDX 23 36 24 37 74 38 25 39 79 40 73 41 75 42 26 43 78 44 72 45
REMARK SMILES IDX 71 46 27 48 59 49 39 50 58 51 40 52 43 53 57 54 76 55 41 56
REMARK SMILES IDX 42 57 56 59 77 60 44 61 28 62 29 63 37 64 30 65 31 66 35 67
REMARK SMILES IDX 38 68 32 69 33 70 36 71 34 72 60 73 61 74 69 75 62 76 63 77
REMARK SMILES IDX 67 78 70 79 64 80 65 81 68 82 66 83 45 84 46 85 54 86 47 87
REMARK SMILES IDX 48 88 52 89 55 90 49 91 50 92 53 93 51 94
REMARK H PARENT 12 5 5 13 16 28 75 47 43 58
REMARK Flexibility Score: inf
ROOT
ATOM      1  C   UNL A   1      33.709  22.491  25.966  1.00  0.00     0.118 C 
ENDROOT
BRANCH   1   2
ATOM      2  N   UNL A   1      33.164  21.539  25.016  1.00  0.00    -0.352 N 
ATOM      3  C   UNL A   1      32.504  21.706  23.824  1.00  0.00     0.251 C 
ATOM      4  O   UNL A   1      32.224  20.694  23.180  1.00  0.00    -0.269 OA
ATOM      5  H   UNL A   1      33.293  20.598  25.274  1.00  0.00     0.163 HD
BRANCH   3   6
ATOM      6  C   UNL A   1      32.162  23.040  23.261  1.00  0.00     0.039 A 
ATOM      7  C   UNL A   1      31.697  25.592  22.140  1.00  0.00     0.040 A 
ATOM      8  C   UNL A   1      32.863  24.886  21.836  1.00  0.00     0.027 A 
ATOM      9  C   UNL A   1      30.757  24.997  22.988  1.00  0.00     0.027 A 
ATOM     10  C   UNL A   1      33.097  23.625  22.395  1.00  0.00     0.016 A 
ATOM     11  C   UNL A   1      30.967  23.717  23.510  1.00  0.00     0.016 A 
BRANCH   7  12
ATOM     12  N   UNL A   1      31.528  26.907  21.678  1.00  0.00    -0.340 N 
ATOM     13  H   UNL A   1      31.782  27.090  20.744  1.00  0.00     0.168 HD
BRANCH  12  14
ATOM     14  C   UNL A   1      31.027  27.990  22.430  1.00  0.00     0.134 A 
ATOM     15  C   UNL A   1      31.881  29.954  25.509  1.00  0.00     0.067 C 
ATOM     16  C   UNL A   1      31.199  29.445  24.276  1.00  0.00     0.043 A 
ATOM     17  C   UNL A   1      31.734  28.405  23.542  1.00  0.00     0.070 A 
ATOM     18  N   UNL A   1      30.034  30.031  23.945  1.00  0.00    -0.238 NA
ATOM     19  C   UNL A   1      29.413  29.576  22.842  1.00  0.00     0.133 A 
ATOM     20  N   UNL A   1      29.881  28.588  22.062  1.00  0.00    -0.216 NA
BRANCH  19  21
ATOM     21  C   UNL A   1      28.072  30.171  22.473  1.00  0.00     0.051 C 
ATOM     22  C   UNL A   1      27.653  31.232  23.491  1.00  0.00     0.016 C 
ATOM     23  C   UNL A   1      28.095  30.745  21.057  1.00  0.00     0.016 C 
ENDBRANCH  19  21
ENDBRANCH  12  14
ENDBRANCH   7  12
ENDBRANCH   3   6
ENDBRANCH   1   2
BRANCH   1  24
ATOM     24  C   UNL A   1      34.953  21.934  26.660  1.00  0.00     0.042 C 
BRANCH  24  25
ATOM     25  C   UNL A   1      36.265  22.476  26.099  1.00  0.00     0.118 C 
BRANCH  25  26
ATOM     26  N   UNL A   1      37.280  21.440  25.980  1.00  0.00    -0.352 N 
ATOM     27  C   UNL A   1      38.645  21.515  26.077  1.00  0.00     0.251 C 
ATOM     28  H   UNL A   1      36.928  20.539  25.799  1.00  0.00     0.163 HD
ATOM     29  O   UNL A   1      39.318  20.541  25.752  1.00  0.00    -0.269 OA
BRANCH  27  30
ATOM     30  C   UNL A   1      39.325  22.742  26.554  1.00  0.00     0.039 A 
ATOM     31  C   UNL A   1      38.972  23.960  25.961  1.00  0.00     0.014 A 
ATOM     32  C   UNL A   1      40.354  22.708  27.500  1.00  0.00     0.014 A 
ATOM     33  C   UNL A   1      39.624  25.138  26.334  1.00  0.00     0.010 A 
ATOM     34  C   UNL A   1      40.965  23.894  27.915  1.00  0.00     0.010 A 
ATOM     35  C   UNL A   1      40.617  25.118  27.326  1.00  0.00    -0.014 A 
BRANCH  35  36
ATOM     36  C   UNL A   1      41.294  26.375  27.732  1.00  0.00     0.031 A 
ATOM     37  C   UNL A   1      42.730  26.626  27.364  1.00  0.00     0.074 A 
ATOM     38  C   UNL A   1      40.615  27.290  28.449  1.00  0.00     0.049 A 
ATOM     39  N   UNL A   1      43.475  27.678  27.605  1.00  0.00    -0.248 NA
ATOM     40  C   UNL A   1      43.430  25.549  26.649  1.00  0.00     0.031 C 
ATOM     41  C   UNL A   1      39.236  27.140  28.916  1.00  0.00     0.029 A 
ATOM     42  N   UNL A   1      40.991  28.527  28.910  1.00  0.00    -0.354 N 
ATOM     43  C   UNL A   1      44.728  27.384  27.083  1.00  0.00     0.074 A 
ATOM     44  C   UNL A   1      44.658  26.038  26.553  1.00  0.00     0.031 C 
ATOM     45  C   UNL A   1      38.870  28.255  29.569  1.00  0.00     0.029 A 
ATOM     46  C   UNL A   1      39.994  29.187  29.586  1.00  0.00     0.049 A 
ATOM     47  H   UNL A   1      41.889  28.905  28.769  1.00  0.00     0.167 HD
ATOM     48  C   UNL A   1      45.829  28.171  27.030  1.00  0.00     0.037 A 
ATOM     49  C   UNL A   1      39.984  30.412  30.144  1.00  0.00     0.037 A 
ATOM     50  C   UNL A   1      45.891  29.519  27.535  1.00  0.00     0.049 A 
ATOM     51  C   UNL A   1      41.207  31.280  30.039  1.00  0.00     0.074 A 
ATOM     52  C   UNL A   1      46.944  30.416  27.478  1.00  0.00     0.029 A 
ATOM     53  N   UNL A   1      44.851  30.164  28.188  1.00  0.00    -0.354 N 
ATOM     54  N   UNL A   1      42.362  31.017  29.477  1.00  0.00    -0.248 NA
ATOM     55  C   UNL A   1      41.118  32.622  30.631  1.00  0.00     0.031 C 
ATOM     56  C   UNL A   1      46.552  31.593  28.127  1.00  0.00     0.029 A 
ATOM     57  C   UNL A   1      45.242  31.443  28.552  1.00  0.00     0.049 A 
ATOM     58  H   UNL A   1      43.967  29.771  28.367  1.00  0.00     0.167 HD
ATOM     59  C   UNL A   1      43.128  32.165  29.628  1.00  0.00     0.074 A 
ATOM     60  C   UNL A   1      42.299  33.133  30.315  1.00  0.00     0.031 C 
ATOM     61  C   UNL A   1      44.405  32.395  29.233  1.00  0.00     0.037 A 
BRANCH  48  62
ATOM     62  C   UNL A   1      47.063  27.594  26.396  1.00  0.00     0.064 A 
ATOM     63  C   UNL A   1      48.022  26.906  27.153  1.00  0.00     0.173 A 
ATOM     64  C   UNL A   1      47.269  27.699  25.013  1.00  0.00     0.173 A 
ATOM     65  F   UNL A   1      47.877  26.788  28.482  1.00  0.00    -0.203 F 
ATOM     66  C   UNL A   1      49.157  26.367  26.552  1.00  0.00     0.198 A 
ATOM     67  C   UNL A   1      48.392  27.136  24.411  1.00  0.00     0.198 A 
ATOM     68  F   UNL A   1      46.378  28.341  24.242  1.00  0.00    -0.203 F 
ATOM     69  F   UNL A   1      50.083  25.752  27.302  1.00  0.00    -0.200 F 
ATOM     70  C   UNL A   1      49.338  26.477  25.181  1.00  0.00     0.200 A 
ATOM     71  F   UNL A   1      48.559  27.232  23.085  1.00  0.00    -0.200 F 
ATOM     72  F   UNL A   1      50.428  25.954  24.604  1.00  0.00    -0.200 F 
ENDBRANCH  48  62
BRANCH  49  73
ATOM     73  C   UNL A   1      38.754  30.908  30.810  1.00  0.00     0.064 A 
ATOM     74  C   UNL A   1      38.596  30.801  32.198  1.00  0.00     0.173 A 
ATOM     75  C   UNL A   1      37.718  31.505  30.078  1.00  0.00     0.173 A 
ATOM     76  F   UNL A   1      39.553  30.219  32.938  1.00  0.00    -0.203 F 
ATOM     77  C   UNL A   1      37.440  31.254  32.828  1.00  0.00     0.198 A 
ATOM     78  C   UNL A   1      36.572  31.982  30.712  1.00  0.00     0.198 A 
ATOM     79  F   UNL A   1      37.825  31.637  28.747  1.00  0.00    -0.203 F 
ATOM     80  F   UNL A   1      37.296  31.103  34.152  1.00  0.00    -0.200 F 
ATOM     81  C   UNL A   1      36.431  31.850  32.085  1.00  0.00     0.200 A 
ATOM     82  F   UNL A   1      35.605  32.567  29.993  1.00  0.00    -0.200 F 
ATOM     83  F   UNL A   1      35.321  32.290  32.692  1.00  0.00    -0.200 F 
ENDBRANCH  49  73
BRANCH  61  84
ATOM     84  C   UNL A   1      44.969  33.755  29.516  1.00  0.00     0.064 A 
ATOM     85  C   UNL A   1      45.662  34.029  30.705  1.00  0.00     0.173 A 
ATOM     86  C   UNL A   1      44.831  34.791  28.581  1.00  0.00     0.173 A 
ATOM     87  F   UNL A   1      45.807  33.076  31.637  1.00  0.00    -0.203 F 
ATOM     88  C   UNL A   1      46.168  35.301  30.961  1.00  0.00     0.198 A 
ATOM     89  C   UNL A   1      45.360  36.055  28.829  1.00  0.00     0.198 A 
ATOM     90  F   UNL A   1      44.182  34.578  27.427  1.00  0.00    -0.203 F 
ATOM     91  F   UNL A   1      46.779  35.555  32.126  1.00  0.00    -0.200 F 
ATOM     92  C   UNL A   1      46.020  36.311  30.022  1.00  0.00     0.200 A 
ATOM     93  F   UNL A   1      45.226  37.027  27.917  1.00  0.00    -0.200 F 
ATOM     94  F   UNL A   1      46.505  37.535  30.271  1.00  0.00    -0.200 F 
ENDBRANCH  61  84
ENDBRANCH  35  36
ENDBRANCH  27  30
ENDBRANCH  25  26
ENDBRANCH  24  25
ENDBRANCH   1  24
TORSDOF 13
ENDMDL
MODEL 3
REMARK VINA RESULT:     -12.6      0.857      2.247
REMARK SMILES Cc1cc(Nc2ccc(C(=O)NCCCNC(=O)c3ccc(-c4c5nc(c(-c6c(F)c(F)c(F)c(F)c6F)c6ccc([nH]6)c(-c6c(F)c(F)c(F)c(F)c6F)c6nc(c(-c7c(F)c(F)c(F)c(F)c7F)c7ccc4[nH]7)C=C6)C=C5)cc3)cc2)nc(C(C)C)n1
REMARK SMILES IDX 13 1 12 2 10 3 11 4 9 6 6 7 7 8 83 9 8 10 82 11 5 12 4 14
REMARK SMILES IDX 1 15 2 16 3 17 89 18 85 19 84 20 86 21 87 22 88 23 14 24
REMARK SMILES IDX 15 25 16 26 17 27 18 29 19 30 20 31 81 32 21 33 80 34 22 35
REMARK SMILES IDX 23 36 24 37 74 38 25 39 79 40 73 41 75 42 26 43 78 44 72 45
REMARK SMILES IDX 71 46 27 48 59 49 39 50 58 51 40 52 43 53 57 54 76 55 41 56
REMARK SMILES IDX 42 57 56 59 77 60 44 61 28 62 29 63 37 64 30 65 31 66 35 67
REMARK SMILES IDX 38 68 32 69 33 70 36 71 34 72 60 73 61 74 69 75 62 76 63 77
REMARK SMILES IDX 67 78 70 79 64 80 65 81 68 82 66 83 45 84 46 85 54 86 47 87
REMARK SMILES IDX 48 88 52 89 55 90 49 91 50 92 53 93 51 94
REMARK H PARENT 12 5 5 13 16 28 75 47 43 58
REMARK Flexibility Score: inf
ROOT
ATOM      1  C   UNL A   1      31.379  28.326  25.487  1.00  0.00     0.118 C 
ENDROOT
BRANCH   1   2
ATOM      2  N   UNL A   1      30.889  28.666  24.163  1.00  0.00    -0.352 N 
ATOM      3  C   UNL A   1      30.707  27.913  23.030  1.00  0.00     0.251 C 
ATOM      4  O   UNL A   1      30.190  28.463  22.057  1.00  0.00    -0.269 OA
ATOM      5  H   UNL A   1      30.641  29.613  24.059  1.00  0.00     0.163 HD
BRANCH   3   6
ATOM      6  C   UNL A   1      31.055  26.469  22.946  1.00  0.00     0.039 A 
ATOM      7  C   UNL A   1      31.840  23.771  22.648  1.00  0.00     0.040 A 
ATOM      8  C   UNL A   1      32.625  24.799  22.122  1.00  0.00     0.027 A 
ATOM      9  C   UNL A   1      30.676  24.107  23.346  1.00  0.00     0.027 A 
ATOM     10  C   UNL A   1      32.234  26.136  22.264  1.00  0.00     0.016 A 
ATOM     11  C   UNL A   1      30.308  25.445  23.529  1.00  0.00     0.016 A 
BRANCH   7  12
ATOM     12  N   UNL A   1      32.171  22.430  22.393  1.00  0.00    -0.340 N 
ATOM     13  H   UNL A   1      31.996  22.091  21.485  1.00  0.00     0.168 HD
BRANCH  12  14
ATOM     14  C   UNL A   1      32.731  21.525  23.319  1.00  0.00     0.134 A 
ATOM     15  C   UNL A   1      35.229  21.496  26.115  1.00  0.00     0.067 C 
ATOM     16  C   UNL A   1      34.207  21.082  25.102  1.00  0.00     0.043 A 
ATOM     17  C   UNL A   1      33.652  22.000  24.232  1.00  0.00     0.070 A 
ATOM     18  N   UNL A   1      33.885  19.776  25.067  1.00  0.00    -0.238 NA
ATOM     19  C   UNL A   1      32.972  19.396  24.155  1.00  0.00     0.133 A 
ATOM     20  N   UNL A   1      32.368  20.231  23.293  1.00  0.00    -0.216 NA
BRANCH  19  21
ATOM     21  C   UNL A   1      32.629  17.926  24.047  1.00  0.00     0.051 C 
ATOM     22  C   UNL A   1      33.646  17.199  23.169  1.00  0.00     0.016 C 
ATOM     23  C   UNL A   1      32.531  17.280  25.428  1.00  0.00     0.016 C 
ENDBRANCH  19  21
ENDBRANCH  12  14
ENDBRANCH   7  12
ENDBRANCH   3   6
ENDBRANCH   1   2
BRANCH   1  24
ATOM     24  C   UNL A   1      32.881  28.039  25.466  1.00  0.00     0.042 C 
BRANCH  24  25
ATOM     25  C   UNL A   1      33.743  29.282  25.252  1.00  0.00     0.118 C 
BRANCH  25  26
ATOM     26  N   UNL A   1      33.186  30.455  25.906  1.00  0.00    -0.352 N 
ATOM     27  C   UNL A   1      33.566  31.099  27.054  1.00  0.00     0.251 C 
ATOM     28  H   UNL A   1      32.409  30.850  25.450  1.00  0.00     0.163 HD
ATOM     29  O   UNL A   1      32.829  31.964  27.523  1.00  0.00    -0.269 OA
BRANCH  27  30
ATOM     30  C   UNL A   1      34.834  30.772  27.748  1.00  0.00     0.039 A 
ATOM     31  C   UNL A   1      34.898  29.572  28.466  1.00  0.00     0.014 A 
ATOM     32  C   UNL A   1      35.920  31.652  27.777  1.00  0.00     0.014 A 
ATOM     33  C   UNL A   1      36.050  29.245  29.184  1.00  0.00     0.010 A 
ATOM     34  C   UNL A   1      37.094  31.297  28.446  1.00  0.00     0.010 A 
ATOM     35  C   UNL A   1      37.165  30.097  29.169  1.00  0.00    -0.014 A 
BRANCH  35  36
ATOM     36  C   UNL A   1      38.394  29.735  29.918  1.00  0.00     0.031 A 
ATOM     37  C   UNL A   1      38.634  30.269  31.303  1.00  0.00     0.074 A 
ATOM     38  C   UNL A   1      39.308  28.931  29.341  1.00  0.00     0.049 A 
ATOM     39  N   UNL A   1      39.633  30.036  32.119  1.00  0.00    -0.248 NA
ATOM     40  C   UNL A   1      37.631  31.202  31.836  1.00  0.00     0.031 C 
ATOM     41  C   UNL A   1      39.219  28.393  27.983  1.00  0.00     0.029 A 
ATOM     42  N   UNL A   1      40.489  28.425  29.823  1.00  0.00    -0.354 N 
ATOM     43  C   UNL A   1      39.384  30.800  33.252  1.00  0.00     0.074 A 
ATOM     44  C   UNL A   1      38.166  31.540  33.001  1.00  0.00     0.031 C 
ATOM     45  C   UNL A   1      40.283  27.607  27.752  1.00  0.00     0.029 A 
ATOM     46  C   UNL A   1      41.138  27.603  28.935  1.00  0.00     0.049 A 
ATOM     47  H   UNL A   1      40.837  28.632  30.721  1.00  0.00     0.167 HD
ATOM     48  C   UNL A   1      40.095  30.862  34.403  1.00  0.00     0.037 A 
ATOM     49  C   UNL A   1      42.286  26.914  29.066  1.00  0.00     0.037 A 
ATOM     50  C   UNL A   1      41.294  30.107  34.662  1.00  0.00     0.049 A 
ATOM     51  C   UNL A   1      43.036  26.971  30.368  1.00  0.00     0.074 A 
ATOM     52  C   UNL A   1      42.054  30.060  35.818  1.00  0.00     0.029 A 
ATOM     53  N   UNL A   1      41.905  29.262  33.748  1.00  0.00    -0.354 N 
ATOM     54  N   UNL A   1      42.751  27.640  31.458  1.00  0.00    -0.248 NA
ATOM     55  C   UNL A   1      44.259  26.162  30.462  1.00  0.00     0.031 C 
ATOM     56  C   UNL A   1      43.145  29.212  35.591  1.00  0.00     0.029 A 
ATOM     57  C   UNL A   1      43.041  28.700  34.309  1.00  0.00     0.049 A 
ATOM     58  H   UNL A   1      41.581  29.088  32.835  1.00  0.00     0.167 HD
ATOM     59  C   UNL A   1      43.743  27.318  32.374  1.00  0.00     0.074 A 
ATOM     60  C   UNL A   1      44.627  26.377  31.717  1.00  0.00     0.031 C 
ATOM     61  C   UNL A   1      43.908  27.763  33.643  1.00  0.00     0.037 A 
BRANCH  48  62
ATOM     62  C   UNL A   1      39.589  31.779  35.481  1.00  0.00     0.064 A 
ATOM     63  C   UNL A   1      40.090  33.080  35.631  1.00  0.00     0.173 A 
ATOM     64  C   UNL A   1      38.567  31.364  36.347  1.00  0.00     0.173 A 
ATOM     65  F   UNL A   1      41.075  33.520  34.834  1.00  0.00    -0.203 F 
ATOM     66  C   UNL A   1      39.606  33.924  36.627  1.00  0.00     0.198 A 
ATOM     67  C   UNL A   1      38.066  32.221  37.325  1.00  0.00     0.198 A 
ATOM     68  F   UNL A   1      38.047  30.132  36.242  1.00  0.00    -0.203 F 
ATOM     69  F   UNL A   1      40.131  35.148  36.780  1.00  0.00    -0.200 F 
ATOM     70  C   UNL A   1      38.590  33.496  37.469  1.00  0.00     0.200 A 
ATOM     71  F   UNL A   1      37.076  31.810  38.131  1.00  0.00    -0.200 F 
ATOM     72  F   UNL A   1      38.122  34.311  38.424  1.00  0.00    -0.200 F 
ENDBRANCH  48  62
BRANCH  49  73
ATOM     73  C   UNL A   1      42.771  26.069  27.946  1.00  0.00     0.064 A 
ATOM     74  C   UNL A   1      43.651  26.585  26.985  1.00  0.00     0.173 A 
ATOM     75  C   UNL A   1      42.372  24.731  27.816  1.00  0.00     0.173 A 
ATOM     76  F   UNL A   1      44.044  27.866  27.058  1.00  0.00    -0.203 F 
ATOM     77  C   UNL A   1      44.099  25.801  25.925  1.00  0.00     0.198 A 
ATOM     78  C   UNL A   1      42.841  23.939  26.770  1.00  0.00     0.198 A 
ATOM     79  F   UNL A   1      41.535  24.188  28.714  1.00  0.00    -0.203 F 
ATOM     80  F   UNL A   1      44.909  26.331  24.998  1.00  0.00    -0.200 F 
ATOM     81  C   UNL A   1      43.699  24.477  25.822  1.00  0.00     0.200 A 
ATOM     82  F   UNL A   1      42.462  22.658  26.679  1.00  0.00    -0.200 F 
ATOM     83  F   UNL A   1      44.135  23.722  24.805  1.00  0.00    -0.200 F 
ENDBRANCH  49  73
BRANCH  61  84
ATOM     84  C   UNL A   1      45.076  27.216  34.409  1.00  0.00     0.064 A 
ATOM     85  C   UNL A   1      44.971  26.038  35.164  1.00  0.00     0.173 A 
ATOM     86  C   UNL A   1      46.317  27.868  34.375  1.00  0.00     0.173 A 
ATOM     87  F   UNL A   1      43.801  25.387  35.240  1.00  0.00    -0.203 F 
ATOM     88  C   UNL A   1      46.060  25.550  35.882  1.00  0.00     0.198 A 
ATOM     89  C   UNL A   1      47.410  27.363  35.074  1.00  0.00     0.198 A 
ATOM     90  F   UNL A   1      46.470  28.995  33.664  1.00  0.00    -0.203 F 
ATOM     91  F   UNL A   1      45.924  24.452  36.638  1.00  0.00    -0.200 F 
ATOM     92  C   UNL A   1      47.278  26.210  35.833  1.00  0.00     0.200 A 
ATOM     93  F   UNL A   1      48.590  27.996  35.018  1.00  0.00    -0.200 F 
ATOM     94  F   UNL A   1      48.324  25.740  36.527  1.00  0.00    -0.200 F 
ENDBRANCH  61  84
ENDBRANCH  35  36
ENDBRANCH  27  30
ENDBRANCH  25  26
ENDBRANCH  24  25
ENDBRANCH   1  24
TORSDOF 13
ENDMDL
