MODEL 1
REMARK VINA RESULT:     -12.5      0.000      0.000
REMARK SMILES CC1=C(C)C[C@@H](C(=O)N[C@H](C)C(C)(C)C)[C@@H](C(=O)NCCCNC(=O)c2ccc(-c3c4nc(c(-c5c(F)c(F)c(F)c(F)c5F)c5ccc([nH]5)c(-c5c(F)c(F)c(F)c(F)c5F)c5nc(c(-c6c(F)c(F)c(F)c(F)c6F)c6ccc3[nH]6)C=C5)C=C4)cc2)C1
REMARK SMILES IDX 20 1 19 2 17 3 18 4 16 6 1 7 2 8 3 9 89 10 4 11 5 12 6 13
REMARK SMILES IDX 7 14 8 15 9 16 10 18 11 19 12 20 13 21 14 22 15 23 21 24
REMARK SMILES IDX 22 25 23 26 24 27 25 29 26 30 27 31 88 32 28 33 87 34 29 35
REMARK SMILES IDX 30 36 31 37 81 38 32 39 86 40 80 41 82 42 33 43 85 44 79 45
REMARK SMILES IDX 78 46 34 48 66 49 46 50 65 51 47 52 50 53 64 54 83 55 48 56
REMARK SMILES IDX 49 57 63 59 84 60 51 61 35 62 36 63 44 64 37 65 38 66 42 67
REMARK SMILES IDX 45 68 39 69 40 70 43 71 41 72 67 73 68 74 76 75 69 76 70 77
REMARK SMILES IDX 74 78 77 79 71 80 72 81 75 82 73 83 52 84 53 85 61 86 54 87
REMARK SMILES IDX 55 88 59 89 62 90 56 91 57 92 60 93 58 94
REMARK H PARENT 19 5 9 17 23 28 82 47 50 58
REMARK Flexibility Score: inf
ROOT
ATOM      1  C   UNL A   1      31.430  30.726  26.545  1.00  0.00     0.117 C 
ENDROOT
BRANCH   1   2
ATOM      2  N   UNL A   1      32.699  30.097  26.239  1.00  0.00    -0.356 N 
ATOM      3  C   UNL A   1      33.043  29.058  25.444  1.00  0.00     0.224 C 
ATOM      4  O   UNL A   1      34.212  28.684  25.570  1.00  0.00    -0.275 OA
ATOM      5  H   UNL A   1      33.465  30.509  26.701  1.00  0.00     0.163 HD
BRANCH   3   6
ATOM      6  C   UNL A   1      32.054  28.318  24.541  1.00  0.00     0.095 C 
ATOM      7  C   UNL A   1      32.890  25.635  21.788  1.00  0.00     0.039 C 
ATOM      8  C   UNL A   1      32.077  26.264  22.894  1.00  0.00    -0.074 C 
ATOM      9  C   UNL A   1      30.959  25.757  23.444  1.00  0.00    -0.074 C 
ATOM     10  C   UNL A   1      32.671  27.566  23.356  1.00  0.00     0.045 C 
ATOM     11  C   UNL A   1      30.319  24.455  23.033  1.00  0.00     0.039 C 
ATOM     12  C   UNL A   1      30.250  26.461  24.580  1.00  0.00     0.045 C 
ATOM     13  C   UNL A   1      31.073  27.475  25.382  1.00  0.00     0.095 C 
BRANCH  13  14
ATOM     14  C   UNL A   1      31.520  26.924  26.755  1.00  0.00     0.224 C 
ATOM     15  O   UNL A   1      31.353  27.622  27.765  1.00  0.00    -0.275 OA
ATOM     16  N   UNL A   1      32.046  25.690  26.972  1.00  0.00    -0.353 N 
ATOM     17  H   UNL A   1      32.488  25.587  27.846  1.00  0.00     0.163 HD
BRANCH  16  18
ATOM     18  C   UNL A   1      32.073  24.494  26.143  1.00  0.00     0.084 C 
ATOM     19  C   UNL A   1      31.187  23.426  26.792  1.00  0.00     0.031 C 
BRANCH  18  20
ATOM     20  C   UNL A   1      33.522  23.978  25.823  1.00  0.00    -0.018 C 
ATOM     21  C   UNL A   1      33.476  23.088  24.561  1.00  0.00     0.013 C 
ATOM     22  C   UNL A   1      34.482  25.149  25.523  1.00  0.00     0.013 C 
ATOM     23  C   UNL A   1      34.126  23.154  26.977  1.00  0.00     0.013 C 
ENDBRANCH  18  20
ENDBRANCH  16  18
ENDBRANCH  13  14
ENDBRANCH   3   6
ENDBRANCH   1   2
BRANCH   1  24
ATOM     24  C   UNL A   1      31.514  32.235  26.465  1.00  0.00     0.042 C 
BRANCH  24  25
ATOM     25  C   UNL A   1      32.626  32.818  27.319  1.00  0.00     0.118 C 
BRANCH  25  26
ATOM     26  N   UNL A   1      32.419  34.223  27.642  1.00  0.00    -0.352 N 
ATOM     27  C   UNL A   1      33.012  35.005  28.609  1.00  0.00     0.251 C 
ATOM     28  H   UNL A   1      31.752  34.685  27.084  1.00  0.00     0.163 HD
ATOM     29  O   UNL A   1      32.574  36.116  28.861  1.00  0.00    -0.269 OA
BRANCH  27  30
ATOM     30  C   UNL A   1      34.159  34.466  29.371  1.00  0.00     0.039 A 
ATOM     31  C   UNL A   1      33.925  33.752  30.548  1.00  0.00     0.014 A 
ATOM     32  C   UNL A   1      35.461  34.627  28.897  1.00  0.00     0.014 A 
ATOM     33  C   UNL A   1      34.991  33.114  31.186  1.00  0.00     0.010 A 
ATOM     34  C   UNL A   1      36.490  33.879  29.449  1.00  0.00     0.010 A 
ATOM     35  C   UNL A   1      36.271  33.123  30.609  1.00  0.00    -0.014 A 
BRANCH  35  36
ATOM     36  C   UNL A   1      37.402  32.364  31.201  1.00  0.00     0.031 A 
ATOM     37  C   UNL A   1      37.913  32.728  32.569  1.00  0.00     0.074 A 
ATOM     38  C   UNL A   1      38.020  31.410  30.477  1.00  0.00     0.049 A 
ATOM     39  N   UNL A   1      38.944  32.253  33.223  1.00  0.00    -0.248 NA
ATOM     40  C   UNL A   1      37.197  33.798  33.283  1.00  0.00     0.031 C 
ATOM     41  C   UNL A   1      37.662  31.012  29.114  1.00  0.00     0.029 A 
ATOM     42  N   UNL A   1      39.088  30.603  30.785  1.00  0.00    -0.354 N 
ATOM     43  C   UNL A   1      39.007  32.979  34.405  1.00  0.00     0.074 A 
ATOM     44  C   UNL A   1      37.960  33.974  34.351  1.00  0.00     0.031 C 
ATOM     45  C   UNL A   1      38.470  30.017  28.718  1.00  0.00     0.029 A 
ATOM     46  C   UNL A   1      39.433  29.736  29.777  1.00  0.00     0.049 A 
ATOM     47  H   UNL A   1      39.562  30.644  31.647  1.00  0.00     0.167 HD
ATOM     48  C   UNL A   1      39.840  32.810  35.458  1.00  0.00     0.037 A 
ATOM     49  C   UNL A   1      40.419  28.820  29.715  1.00  0.00     0.037 A 
ATOM     50  C   UNL A   1      40.855  31.793  35.523  1.00  0.00     0.049 A 
ATOM     51  C   UNL A   1      41.329  28.649  30.902  1.00  0.00     0.074 A 
ATOM     52  C   UNL A   1      41.704  31.488  36.571  1.00  0.00     0.029 A 
ATOM     53  N   UNL A   1      41.157  30.914  34.492  1.00  0.00    -0.354 N 
ATOM     54  N   UNL A   1      41.328  29.287  32.047  1.00  0.00    -0.248 NA
ATOM     55  C   UNL A   1      42.376  27.624  30.788  1.00  0.00     0.031 C 
ATOM     56  C   UNL A   1      42.556  30.460  36.156  1.00  0.00     0.029 A 
ATOM     57  C   UNL A   1      42.198  30.083  34.871  1.00  0.00     0.049 A 
ATOM     58  H   UNL A   1      40.699  30.886  33.621  1.00  0.00     0.167 HD
ATOM     59  C   UNL A   1      42.348  28.723  32.800  1.00  0.00     0.074 A 
ATOM     60  C   UNL A   1      42.937  27.679  31.987  1.00  0.00     0.031 C 
ATOM     61  C   UNL A   1      42.764  29.043  34.050  1.00  0.00     0.037 A 
BRANCH  48  62
ATOM     62  C   UNL A   1      39.680  33.736  36.629  1.00  0.00     0.064 A 
ATOM     63  C   UNL A   1      40.324  34.983  36.677  1.00  0.00     0.173 A 
ATOM     64  C   UNL A   1      38.847  33.390  37.703  1.00  0.00     0.173 A 
ATOM     65  F   UNL A   1      41.143  35.359  35.682  1.00  0.00    -0.203 F 
ATOM     66  C   UNL A   1      40.166  35.832  37.769  1.00  0.00     0.198 A 
ATOM     67  C   UNL A   1      38.664  34.256  38.778  1.00  0.00     0.198 A 
ATOM     68  F   UNL A   1      38.204  32.212  37.709  1.00  0.00    -0.203 F 
ATOM     69  F   UNL A   1      40.836  36.991  37.817  1.00  0.00    -0.200 F 
ATOM     70  C   UNL A   1      39.329  35.472  38.815  1.00  0.00     0.200 A 
ATOM     71  F   UNL A   1      37.843  33.913  39.781  1.00  0.00    -0.200 F 
ATOM     72  F   UNL A   1      39.170  36.294  39.861  1.00  0.00    -0.200 F 
ENDBRANCH  48  62
BRANCH  49  73
ATOM     73  C   UNL A   1      40.582  27.979  28.499  1.00  0.00     0.064 A 
ATOM     74  C   UNL A   1      41.348  28.427  27.412  1.00  0.00     0.173 A 
ATOM     75  C   UNL A   1      39.974  26.720  28.392  1.00  0.00     0.173 A 
ATOM     76  F   UNL A   1      41.935  29.631  27.458  1.00  0.00    -0.203 F 
ATOM     77  C   UNL A   1      41.478  27.659  26.257  1.00  0.00     0.198 A 
ATOM     78  C   UNL A   1      40.131  25.940  27.248  1.00  0.00     0.198 A 
ATOM     79  F   UNL A   1      39.238  26.240  29.405  1.00  0.00    -0.203 F 
ATOM     80  F   UNL A   1      42.172  28.134  25.214  1.00  0.00    -0.200 F 
ATOM     81  C   UNL A   1      40.873  26.414  26.178  1.00  0.00     0.200 A 
ATOM     82  F   UNL A   1      39.560  24.729  27.182  1.00  0.00    -0.200 F 
ATOM     83  F   UNL A   1      41.001  25.674  25.068  1.00  0.00    -0.200 F 
ENDBRANCH  49  73
BRANCH  61  84
ATOM     84  C   UNL A   1      43.886  28.231  34.631  1.00  0.00     0.064 A 
ATOM     85  C   UNL A   1      45.222  28.642  34.528  1.00  0.00     0.173 A 
ATOM     86  C   UNL A   1      43.612  27.048  35.334  1.00  0.00     0.173 A 
ATOM     87  F   UNL A   1      45.537  29.757  33.854  1.00  0.00    -0.203 F 
ATOM     88  C   UNL A   1      46.248  27.882  35.085  1.00  0.00     0.198 A 
ATOM     89  C   UNL A   1      44.637  26.309  35.919  1.00  0.00     0.198 A 
ATOM     90  F   UNL A   1      42.349  26.616  35.468  1.00  0.00    -0.203 F 
ATOM     91  F   UNL A   1      47.523  28.265  34.931  1.00  0.00    -0.200 F 
ATOM     92  C   UNL A   1      45.954  26.722  35.786  1.00  0.00     0.200 A 
ATOM     93  F   UNL A   1      44.349  25.198  36.610  1.00  0.00    -0.200 F 
ATOM     94  F   UNL A   1      46.942  25.997  36.329  1.00  0.00    -0.200 F 
ENDBRANCH  61  84
ENDBRANCH  35  36
ENDBRANCH  27  30
ENDBRANCH  25  26
ENDBRANCH  24  25
ENDBRANCH   1  24
TORSDOF 13
ENDMDL
MODEL 2
REMARK VINA RESULT:     -12.5      0.065      1.594
REMARK SMILES CC1=C(C)C[C@@H](C(=O)N[C@H](C)C(C)(C)C)[C@@H](C(=O)NCCCNC(=O)c2ccc(-c3c4nc(c(-c5c(F)c(F)c(F)c(F)c5F)c5ccc([nH]5)c(-c5c(F)c(F)c(F)c(F)c5F)c5nc(c(-c6c(F)c(F)c(F)c(F)c6F)c6ccc3[nH]6)C=C5)C=C4)cc2)C1
REMARK SMILES IDX 20 1 19 2 17 3 18 4 16 6 1 7 2 8 3 9 89 10 4 11 5 12 6 13
REMARK SMILES IDX 7 14 8 15 9 16 10 18 11 19 12 20 13 21 14 22 15 23 21 24
REMARK SMILES IDX 22 25 23 26 24 27 25 29 26 30 27 31 88 32 28 33 87 34 29 35
REMARK SMILES IDX 30 36 31 37 81 38 32 39 86 40 80 41 82 42 33 43 85 44 79 45
REMARK SMILES IDX 78 46 34 48 66 49 46 50 65 51 47 52 50 53 64 54 83 55 48 56
REMARK SMILES IDX 49 57 63 59 84 60 51 61 35 62 36 63 44 64 37 65 38 66 42 67
REMARK SMILES IDX 45 68 39 69 40 70 43 71 41 72 67 73 68 74 76 75 69 76 70 77
REMARK SMILES IDX 74 78 77 79 71 80 72 81 75 82 73 83 52 84 53 85 61 86 54 87
REMARK SMILES IDX 55 88 59 89 62 90 56 91 57 92 60 93 58 94
REMARK H PARENT 19 5 9 17 23 28 82 47 50 58
REMARK Flexibility Score: inf
ROOT
ATOM      1  C   UNL A   1      31.397  30.715  26.537  1.00  0.00     0.117 C 
ENDROOT
BRANCH   1   2
ATOM      2  N   UNL A   1      32.670  30.109  26.197  1.00  0.00    -0.356 N 
ATOM      3  C   UNL A   1      33.011  29.078  25.392  1.00  0.00     0.224 C 
ATOM      4  O   UNL A   1      34.190  28.725  25.487  1.00  0.00    -0.275 OA
ATOM      5  H   UNL A   1      33.439  30.534  26.642  1.00  0.00     0.163 HD
BRANCH   3   6
ATOM      6  C   UNL A   1      32.013  28.324  24.511  1.00  0.00     0.095 C 
ATOM      7  C   UNL A   1      32.827  25.655  21.738  1.00  0.00     0.039 C 
ATOM      8  C   UNL A   1      32.030  26.271  22.863  1.00  0.00    -0.074 C 
ATOM      9  C   UNL A   1      30.933  25.746  23.438  1.00  0.00    -0.074 C 
ATOM     10  C   UNL A   1      32.614  27.581  23.312  1.00  0.00     0.045 C 
ATOM     11  C   UNL A   1      30.303  24.434  23.042  1.00  0.00     0.039 C 
ATOM     12  C   UNL A   1      30.240  26.438  24.591  1.00  0.00     0.045 C 
ATOM     13  C   UNL A   1      31.065  27.466  25.375  1.00  0.00     0.095 C 
BRANCH  13  14
ATOM     14  C   UNL A   1      31.553  26.921  26.737  1.00  0.00     0.224 C 
ATOM     15  O   UNL A   1      31.400  27.617  27.750  1.00  0.00    -0.275 OA
ATOM     16  N   UNL A   1      32.102  25.694  26.940  1.00  0.00    -0.353 N 
ATOM     17  H   UNL A   1      32.566  25.598  27.804  1.00  0.00     0.163 HD
BRANCH  16  18
ATOM     18  C   UNL A   1      32.126  24.499  26.111  1.00  0.00     0.084 C 
ATOM     19  C   UNL A   1      31.278  23.415  26.785  1.00  0.00     0.031 C 
BRANCH  18  20
ATOM     20  C   UNL A   1      33.574  24.009  25.749  1.00  0.00    -0.018 C 
ATOM     21  C   UNL A   1      33.508  23.119  24.487  1.00  0.00     0.013 C 
ATOM     22  C   UNL A   1      34.504  25.197  25.423  1.00  0.00     0.013 C 
ATOM     23  C   UNL A   1      34.225  23.194  26.884  1.00  0.00     0.013 C 
ENDBRANCH  18  20
ENDBRANCH  16  18
ENDBRANCH  13  14
ENDBRANCH   3   6
ENDBRANCH   1   2
BRANCH   1  24
ATOM     24  C   UNL A   1      31.456  32.226  26.472  1.00  0.00     0.042 C 
BRANCH  24  25
ATOM     25  C   UNL A   1      32.579  32.817  27.306  1.00  0.00     0.118 C 
BRANCH  25  26
ATOM     26  N   UNL A   1      32.378  34.227  27.615  1.00  0.00    -0.352 N 
ATOM     27  C   UNL A   1      32.984  35.019  28.565  1.00  0.00     0.251 C 
ATOM     28  H   UNL A   1      31.705  34.683  27.059  1.00  0.00     0.163 HD
ATOM     29  O   UNL A   1      32.550  36.133  28.809  1.00  0.00    -0.269 OA
BRANCH  27  30
ATOM     30  C   UNL A   1      34.139  34.487  29.320  1.00  0.00     0.039 A 
ATOM     31  C   UNL A   1      33.922  33.832  30.533  1.00  0.00     0.014 A 
ATOM     32  C   UNL A   1      35.430  34.596  28.804  1.00  0.00     0.014 A 
ATOM     33  C   UNL A   1      34.990  33.198  31.171  1.00  0.00     0.010 A 
ATOM     34  C   UNL A   1      36.457  33.849  29.363  1.00  0.00     0.010 A 
ATOM     35  C   UNL A   1      36.254  33.151  30.560  1.00  0.00    -0.014 A 
BRANCH  35  36
ATOM     36  C   UNL A   1      37.384  32.393  31.155  1.00  0.00     0.031 A 
ATOM     37  C   UNL A   1      37.893  32.759  32.523  1.00  0.00     0.074 A 
ATOM     38  C   UNL A   1      38.002  31.436  30.434  1.00  0.00     0.049 A 
ATOM     39  N   UNL A   1      38.923  32.284  33.179  1.00  0.00    -0.248 NA
ATOM     40  C   UNL A   1      37.176  33.831  33.234  1.00  0.00     0.031 C 
ATOM     41  C   UNL A   1      37.645  31.036  29.071  1.00  0.00     0.029 A 
ATOM     42  N   UNL A   1      39.069  30.630  30.746  1.00  0.00    -0.354 N 
ATOM     43  C   UNL A   1      38.985  33.013  34.360  1.00  0.00     0.074 A 
ATOM     44  C   UNL A   1      37.938  34.009  34.303  1.00  0.00     0.031 C 
ATOM     45  C   UNL A   1      38.454  30.040  28.678  1.00  0.00     0.029 A 
ATOM     46  C   UNL A   1      39.415  29.760  29.740  1.00  0.00     0.049 A 
ATOM     47  H   UNL A   1      39.542  30.672  31.608  1.00  0.00     0.167 HD
ATOM     48  C   UNL A   1      39.816  32.845  35.415  1.00  0.00     0.037 A 
ATOM     49  C   UNL A   1      40.400  28.844  29.680  1.00  0.00     0.037 A 
ATOM     50  C   UNL A   1      40.830  31.828  35.483  1.00  0.00     0.049 A 
ATOM     51  C   UNL A   1      41.309  28.674  30.869  1.00  0.00     0.074 A 
ATOM     52  C   UNL A   1      41.678  31.525  36.533  1.00  0.00     0.029 A 
ATOM     53  N   UNL A   1      41.133  30.947  34.455  1.00  0.00    -0.354 N 
ATOM     54  N   UNL A   1      41.306  29.314  32.013  1.00  0.00    -0.248 NA
ATOM     55  C   UNL A   1      42.356  27.648  30.759  1.00  0.00     0.031 C 
ATOM     56  C   UNL A   1      42.529  30.495  36.121  1.00  0.00     0.029 A 
ATOM     57  C   UNL A   1      42.173  30.116  34.837  1.00  0.00     0.049 A 
ATOM     58  H   UNL A   1      40.676  30.917  33.582  1.00  0.00     0.167 HD
ATOM     59  C   UNL A   1      42.325  28.752  32.768  1.00  0.00     0.074 A 
ATOM     60  C   UNL A   1      42.914  27.705  31.959  1.00  0.00     0.031 C 
ATOM     61  C   UNL A   1      42.739  29.074  34.018  1.00  0.00     0.037 A 
BRANCH  48  62
ATOM     62  C   UNL A   1      39.655  33.774  36.584  1.00  0.00     0.064 A 
ATOM     63  C   UNL A   1      38.855  33.439  37.688  1.00  0.00     0.173 A 
ATOM     64  C   UNL A   1      40.333  35.001  36.618  1.00  0.00     0.173 A 
ATOM     65  F   UNL A   1      38.173  32.283  37.702  1.00  0.00    -0.203 F 
ATOM     66  C   UNL A   1      38.714  34.310  38.765  1.00  0.00     0.198 A 
ATOM     67  C   UNL A   1      40.218  35.855  37.711  1.00  0.00     0.198 A 
ATOM     68  F   UNL A   1      41.114  35.372  35.592  1.00  0.00    -0.203 F 
ATOM     69  F   UNL A   1      37.900  33.992  39.780  1.00  0.00    -0.200 F 
ATOM     70  C   UNL A   1      39.403  35.514  38.780  1.00  0.00     0.200 A 
ATOM     71  F   UNL A   1      40.896  37.011  37.731  1.00  0.00    -0.200 F 
ATOM     72  F   UNL A   1      39.275  36.347  39.821  1.00  0.00    -0.200 F 
ENDBRANCH  48  62
BRANCH  49  73
ATOM     73  C   UNL A   1      40.565  28.001  28.467  1.00  0.00     0.064 A 
ATOM     74  C   UNL A   1      39.963  26.737  28.382  1.00  0.00     0.173 A 
ATOM     75  C   UNL A   1      41.330  28.432  27.373  1.00  0.00     0.173 A 
ATOM     76  F   UNL A   1      39.236  26.272  29.407  1.00  0.00    -0.203 F 
ATOM     77  C   UNL A   1      40.140  25.927  27.261  1.00  0.00     0.198 A 
ATOM     78  C   UNL A   1      41.481  27.634  26.241  1.00  0.00     0.198 A 
ATOM     79  F   UNL A   1      41.921  29.635  27.398  1.00  0.00    -0.203 F 
ATOM     80  F   UNL A   1      39.596  24.703  27.229  1.00  0.00    -0.200 F 
ATOM     81  C   UNL A   1      40.895  26.379  26.190  1.00  0.00     0.200 A 
ATOM     82  F   UNL A   1      42.197  28.081  25.199  1.00  0.00    -0.200 F 
ATOM     83  F   UNL A   1      41.063  25.601  25.111  1.00  0.00    -0.200 F 
ENDBRANCH  49  73
BRANCH  61  84
ATOM     84  C   UNL A   1      43.860  28.262  34.603  1.00  0.00     0.064 A 
ATOM     85  C   UNL A   1      45.197  28.671  34.499  1.00  0.00     0.173 A 
ATOM     86  C   UNL A   1      43.584  27.083  35.310  1.00  0.00     0.173 A 
ATOM     87  F   UNL A   1      45.514  29.783  33.820  1.00  0.00    -0.203 F 
ATOM     88  C   UNL A   1      46.221  27.912  35.058  1.00  0.00     0.198 A 
ATOM     89  C   UNL A   1      44.608  26.345  35.898  1.00  0.00     0.198 A 
ATOM     90  F   UNL A   1      42.321  26.653  35.445  1.00  0.00    -0.203 F 
ATOM     91  F   UNL A   1      47.497  28.292  34.903  1.00  0.00    -0.200 F 
ATOM     92  C   UNL A   1      45.925  26.754  35.764  1.00  0.00     0.200 A 
ATOM     93  F   UNL A   1      44.318  25.237  36.593  1.00  0.00    -0.200 F 
ATOM     94  F   UNL A   1      46.913  26.031  36.310  1.00  0.00    -0.200 F 
ENDBRANCH  61  84
ENDBRANCH  35  36
ENDBRANCH  27  30
ENDBRANCH  25  26
ENDBRANCH  24  25
ENDBRANCH   1  24
TORSDOF 13
ENDMDL
MODEL 3
REMARK VINA RESULT:     -12.4      0.572      7.425
REMARK SMILES CC1=C(C)C[C@@H](C(=O)N[C@H](C)C(C)(C)C)[C@@H](C(=O)NCCCNC(=O)c2ccc(-c3c4nc(c(-c5c(F)c(F)c(F)c(F)c5F)c5ccc([nH]5)c(-c5c(F)c(F)c(F)c(F)c5F)c5nc(c(-c6c(F)c(F)c(F)c(F)c6F)c6ccc3[nH]6)C=C5)C=C4)cc2)C1
REMARK SMILES IDX 20 1 19 2 17 3 18 4 16 6 1 7 2 8 3 9 89 10 4 11 5 12 6 13
REMARK SMILES IDX 7 14 8 15 9 16 10 18 11 19 12 20 13 21 14 22 15 23 21 24
REMARK SMILES IDX 22 25 23 26 24 27 25 29 26 30 27 31 88 32 28 33 87 34 29 35
REMARK SMILES IDX 30 36 31 37 81 38 32 39 86 40 80 41 82 42 33 43 85 44 79 45
REMARK SMILES IDX 78 46 34 48 66 49 46 50 65 51 47 52 50 53 64 54 83 55 48 56
REMARK SMILES IDX 49 57 63 59 84 60 51 61 35 62 36 63 44 64 37 65 38 66 42 67
REMARK SMILES IDX 45 68 39 69 40 70 43 71 41 72 67 73 68 74 76 75 69 76 70 77
REMARK SMILES IDX 74 78 77 79 71 80 72 81 75 82 73 83 52 84 53 85 61 86 54 87
REMARK SMILES IDX 55 88 59 89 62 90 56 91 57 92 60 93 58 94
REMARK H PARENT 19 5 9 17 23 28 82 47 50 58
REMARK Flexibility Score: inf
ROOT
ATOM      1  C   UNL A   1      31.599  30.917  25.993  1.00  0.00     0.117 C 
ENDROOT
BRANCH   1   2
ATOM      2  N   UNL A   1      32.809  30.125  25.902  1.00  0.00    -0.356 N 
ATOM      3  C   UNL A   1      33.099  28.956  25.288  1.00  0.00     0.224 C 
ATOM      4  O   UNL A   1      34.202  28.485  25.581  1.00  0.00    -0.275 OA
ATOM      5  H   UNL A   1      33.573  30.517  26.385  1.00  0.00     0.163 HD
BRANCH   3   6
ATOM      6  C   UNL A   1      32.115  28.202  24.391  1.00  0.00     0.095 C 
ATOM      7  C   UNL A   1      32.950  25.369  21.793  1.00  0.00     0.039 C 
ATOM      8  C   UNL A   1      32.125  26.073  22.843  1.00  0.00    -0.074 C 
ATOM      9  C   UNL A   1      30.977  25.624  23.381  1.00  0.00    -0.074 C 
ATOM     10  C   UNL A   1      32.744  27.377  23.262  1.00  0.00     0.045 C 
ATOM     11  C   UNL A   1      30.310  24.323  23.012  1.00  0.00     0.039 C 
ATOM     12  C   UNL A   1      30.257  26.401  24.461  1.00  0.00     0.045 C 
ATOM     13  C   UNL A   1      31.086  27.429  25.240  1.00  0.00     0.095 C 
BRANCH  13  14
ATOM     14  C   UNL A   1      31.476  26.931  26.651  1.00  0.00     0.224 C 
ATOM     15  O   UNL A   1      31.291  27.676  27.622  1.00  0.00    -0.275 OA
ATOM     16  N   UNL A   1      31.970  25.697  26.939  1.00  0.00    -0.353 N 
ATOM     17  H   UNL A   1      32.381  25.625  27.831  1.00  0.00     0.163 HD
BRANCH  16  18
ATOM     18  C   UNL A   1      32.000  24.466  26.164  1.00  0.00     0.084 C 
ATOM     19  C   UNL A   1      31.080  23.441  26.835  1.00  0.00     0.031 C 
BRANCH  18  20
ATOM     20  C   UNL A   1      33.448  23.915  25.907  1.00  0.00    -0.018 C 
ATOM     21  C   UNL A   1      33.424  22.980  24.676  1.00  0.00     0.013 C 
ATOM     22  C   UNL A   1      34.437  25.058  25.594  1.00  0.00     0.013 C 
ATOM     23  C   UNL A   1      34.003  23.122  27.107  1.00  0.00     0.013 C 
ENDBRANCH  18  20
ENDBRANCH  16  18
ENDBRANCH  13  14
ENDBRANCH   3   6
ENDBRANCH   1   2
BRANCH   1  24
ATOM     24  C   UNL A   1      31.595  31.805  27.219  1.00  0.00     0.042 C 
BRANCH  24  25
ATOM     25  C   UNL A   1      32.824  32.690  27.319  1.00  0.00     0.118 C 
BRANCH  25  26
ATOM     26  N   UNL A   1      32.500  34.088  27.573  1.00  0.00    -0.352 N 
ATOM     27  C   UNL A   1      32.997  34.953  28.524  1.00  0.00     0.251 C 
ATOM     28  H   UNL A   1      31.822  34.474  26.972  1.00  0.00     0.163 HD
ATOM     29  O   UNL A   1      32.467  36.036  28.711  1.00  0.00    -0.269 OA
BRANCH  27  30
ATOM     30  C   UNL A   1      34.152  34.535  29.347  1.00  0.00     0.039 A 
ATOM     31  C   UNL A   1      33.929  33.984  30.610  1.00  0.00     0.014 A 
ATOM     32  C   UNL A   1      35.450  34.646  28.851  1.00  0.00     0.014 A 
ATOM     33  C   UNL A   1      35.004  33.451  31.325  1.00  0.00     0.010 A 
ATOM     34  C   UNL A   1      36.490  33.992  29.496  1.00  0.00     0.010 A 
ATOM     35  C   UNL A   1      36.283  33.397  30.747  1.00  0.00    -0.014 A 
BRANCH  35  36
ATOM     36  C   UNL A   1      37.425  32.739  31.432  1.00  0.00     0.031 A 
ATOM     37  C   UNL A   1      38.128  31.584  30.773  1.00  0.00     0.074 A 
ATOM     38  C   UNL A   1      37.772  33.126  32.676  1.00  0.00     0.049 A 
ATOM     39  N   UNL A   1      39.082  30.818  31.241  1.00  0.00    -0.248 NA
ATOM     40  C   UNL A   1      37.671  31.209  29.424  1.00  0.00     0.031 C 
ATOM     41  C   UNL A   1      37.124  34.188  33.448  1.00  0.00     0.029 A 
ATOM     42  N   UNL A   1      38.755  32.663  33.515  1.00  0.00    -0.354 N 
ATOM     43  C   UNL A   1      39.319  29.867  30.256  1.00  0.00     0.074 A 
ATOM     44  C   UNL A   1      38.363  30.103  29.197  1.00  0.00     0.031 C 
ATOM     45  C   UNL A   1      37.746  34.318  34.629  1.00  0.00     0.029 A 
ATOM     46  C   UNL A   1      38.807  33.321  34.720  1.00  0.00     0.049 A 
ATOM     47  H   UNL A   1      39.364  31.927  33.277  1.00  0.00     0.167 HD
ATOM     48  C   UNL A   1      40.270  28.905  30.220  1.00  0.00     0.037 A 
ATOM     49  C   UNL A   1      39.617  33.135  35.780  1.00  0.00     0.037 A 
ATOM     50  C   UNL A   1      41.242  28.699  31.259  1.00  0.00     0.049 A 
ATOM     51  C   UNL A   1      40.670  32.061  35.713  1.00  0.00     0.074 A 
ATOM     52  C   UNL A   1      42.293  27.801  31.291  1.00  0.00     0.029 A 
ATOM     53  N   UNL A   1      41.280  29.404  32.453  1.00  0.00    -0.354 N 
ATOM     54  N   UNL A   1      40.936  31.221  34.743  1.00  0.00    -0.248 NA
ATOM     55  C   UNL A   1      41.539  31.913  36.889  1.00  0.00     0.031 C 
ATOM     56  C   UNL A   1      42.936  27.926  32.526  1.00  0.00     0.029 A 
ATOM     57  C   UNL A   1      42.322  28.943  33.241  1.00  0.00     0.049 A 
ATOM     58  H   UNL A   1      40.658  30.125  32.705  1.00  0.00     0.167 HD
ATOM     59  C   UNL A   1      42.018  30.468  35.175  1.00  0.00     0.074 A 
ATOM     60  C   UNL A   1      42.370  30.962  36.491  1.00  0.00     0.031 C 
ATOM     61  C   UNL A   1      42.661  29.455  34.544  1.00  0.00     0.037 A 
BRANCH  48  62
ATOM     62  C   UNL A   1      40.311  28.011  29.014  1.00  0.00     0.064 A 
ATOM     63  C   UNL A   1      39.600  26.802  28.967  1.00  0.00     0.173 A 
ATOM     64  C   UNL A   1      41.044  28.382  27.877  1.00  0.00     0.173 A 
ATOM     65  F   UNL A   1      38.892  26.392  30.032  1.00  0.00    -0.203 F 
ATOM     66  C   UNL A   1      39.647  25.983  27.842  1.00  0.00     0.198 A 
ATOM     67  C   UNL A   1      41.062  27.578  26.741  1.00  0.00     0.198 A 
ATOM     68  F   UNL A   1      41.740  29.529  27.865  1.00  0.00    -0.203 F 
ATOM     69  F   UNL A   1      39.005  24.807  27.843  1.00  0.00    -0.200 F 
ATOM     70  C   UNL A   1      40.371  26.376  26.726  1.00  0.00     0.200 A 
ATOM     71  F   UNL A   1      41.750  27.966  25.658  1.00  0.00    -0.200 F 
ATOM     72  F   UNL A   1      40.409  25.592  25.640  1.00  0.00    -0.200 F 
ENDBRANCH  48  62
BRANCH  49  73
ATOM     73  C   UNL A   1      39.484  33.999  36.983  1.00  0.00     0.064 A 
ATOM     74  C   UNL A   1      40.120  35.248  37.047  1.00  0.00     0.173 A 
ATOM     75  C   UNL A   1      38.728  33.596  38.094  1.00  0.00     0.173 A 
ATOM     76  F   UNL A   1      40.868  35.670  36.018  1.00  0.00    -0.203 F 
ATOM     77  C   UNL A   1      40.026  36.048  38.184  1.00  0.00     0.198 A 
ATOM     78  C   UNL A   1      38.611  34.412  39.219  1.00  0.00     0.198 A 
ATOM     79  F   UNL A   1      38.093  32.416  38.084  1.00  0.00    -0.203 F 
ATOM     80  F   UNL A   1      40.687  37.212  38.237  1.00  0.00    -0.200 F 
ATOM     81  C   UNL A   1      39.268  35.631  39.267  1.00  0.00     0.200 A 
ATOM     82  F   UNL A   1      37.862  34.014  40.257  1.00  0.00    -0.200 F 
ATOM     83  F   UNL A   1      39.176  36.402  40.359  1.00  0.00    -0.200 F 
ENDBRANCH  49  73
BRANCH  61  84
ATOM     84  C   UNL A   1      43.834  28.838  35.250  1.00  0.00     0.064 A 
ATOM     85  C   UNL A   1      43.685  27.732  36.099  1.00  0.00     0.173 A 
ATOM     86  C   UNL A   1      45.129  29.337  35.041  1.00  0.00     0.173 A 
ATOM     87  F   UNL A   1      42.466  27.226  36.343  1.00  0.00    -0.203 F 
ATOM     88  C   UNL A   1      44.786  27.165  36.735  1.00  0.00     0.198 A 
ATOM     89  C   UNL A   1      46.231  28.746  35.651  1.00  0.00     0.198 A 
ATOM     90  F   UNL A   1      45.327  30.388  34.232  1.00  0.00    -0.203 F 
ATOM     91  F   UNL A   1      44.614  26.141  37.582  1.00  0.00    -0.200 F 
ATOM     92  C   UNL A   1      46.058  27.667  36.504  1.00  0.00     0.200 A 
ATOM     93  F   UNL A   1      47.461  29.222  35.414  1.00  0.00    -0.200 F 
ATOM     94  F   UNL A   1      47.118  27.113  37.110  1.00  0.00    -0.200 F 
ENDBRANCH  61  84
ENDBRANCH  35  36
ENDBRANCH  27  30
ENDBRANCH  25  26
ENDBRANCH  24  25
ENDBRANCH   1  24
TORSDOF 13
ENDMDL
