MODEL 1
REMARK VINA RESULT:     -10.2      0.000      0.000
REMARK SMILES CCc1ccc(C(=O)[C@@H](Br)CC(=O)NCCCNC(=O)c2ccc(-c3c4nc(c(-c5c(F)c(F)c(F)c(F)c5F)c5ccc([nH]5)c(-c5c(F)c(F)c(F)c(F)c5F)c5nc(c(-c6c(F)c(F)c(F)c(F)c6F)c6ccc3[nH]6)C=C5)C=C4)cc2)cc1
REMARK SMILES IDX 15 1 14 2 12 3 13 4 11 6 9 7 10 8 7 9 8 10 6 11 3 12 4 13
REMARK SMILES IDX 85 14 5 15 84 16 2 17 1 18 16 19 17 20 18 21 19 22 20 24
REMARK SMILES IDX 21 25 22 26 83 27 23 28 82 29 24 30 25 31 26 32 76 33 27 34
REMARK SMILES IDX 81 35 75 36 77 37 28 38 80 39 74 40 73 41 29 43 61 44 41 45
REMARK SMILES IDX 60 46 42 47 45 48 59 49 78 50 43 51 44 52 58 54 79 55 46 56
REMARK SMILES IDX 30 57 31 58 39 59 32 60 33 61 37 62 40 63 34 64 35 65 38 66
REMARK SMILES IDX 36 67 62 68 63 69 71 70 64 71 65 72 69 73 72 74 66 75 67 76
REMARK SMILES IDX 70 77 68 78 47 79 48 80 56 81 49 82 50 83 54 84 57 85 51 86
REMARK SMILES IDX 52 87 55 88 53 89
REMARK H PARENT 14 5 18 23 77 42 45 53
REMARK Flexibility Score: inf
ROOT
ATOM      1  C   UNL A   1      42.257  19.586  26.876  1.00  0.00     0.117 C 
ENDROOT
BRANCH   1   2
ATOM      2  N   UNL A   1      42.871  19.233  25.611  1.00  0.00    -0.356 N 
ATOM      3  C   UNL A   1      43.908  19.822  24.954  1.00  0.00     0.221 C 
ATOM      4  O   UNL A   1      44.186  19.430  23.822  1.00  0.00    -0.275 OA
ATOM      5  H   UNL A   1      42.480  18.450  25.159  1.00  0.00     0.163 HD
BRANCH   3   6
ATOM      6  C   UNL A   1      44.703  20.924  25.619  1.00  0.00     0.123 C 
BRANCH   6   7
ATOM      7  C   UNL A   1      44.494  22.258  24.922  1.00  0.00     0.138 C 
ATOM      8  Br  UNL A   1      46.196  22.944  24.219  1.00  0.00    -0.080 Br
BRANCH   7   9
ATOM      9  C   UNL A   1      43.886  23.419  25.707  1.00  0.00     0.176 C 
ATOM     10  O   UNL A   1      43.244  24.287  25.106  1.00  0.00    -0.293 OA
BRANCH   9  11
ATOM     11  C   UNL A   1      43.979  23.543  27.200  1.00  0.00     0.019 A 
ATOM     12  C   UNL A   1      44.034  23.474  30.024  1.00  0.00    -0.048 A 
ATOM     13  C   UNL A   1      42.843  23.230  29.335  1.00  0.00     0.004 A 
ATOM     14  C   UNL A   1      45.184  23.794  29.291  1.00  0.00     0.004 A 
ATOM     15  C   UNL A   1      42.814  23.278  27.940  1.00  0.00     0.012 A 
ATOM     16  C   UNL A   1      45.154  23.843  27.891  1.00  0.00     0.012 A 
BRANCH  12  17
ATOM     17  C   UNL A   1      44.074  23.386  31.529  1.00  0.00     0.032 C 
ATOM     18  C   UNL A   1      44.455  24.710  32.176  1.00  0.00     0.009 C 
ENDBRANCH  12  17
ENDBRANCH   9  11
ENDBRANCH   7   9
ENDBRANCH   6   7
ENDBRANCH   3   6
ENDBRANCH   1   2
BRANCH   1  19
ATOM     19  C   UNL A   1      40.809  20.019  26.671  1.00  0.00     0.042 C 
BRANCH  19  20
ATOM     20  C   UNL A   1      40.626  21.526  26.717  1.00  0.00     0.118 C 
BRANCH  20  21
ATOM     21  N   UNL A   1      39.447  21.944  25.968  1.00  0.00    -0.352 N 
ATOM     22  C   UNL A   1      38.708  23.100  26.028  1.00  0.00     0.251 C 
ATOM     23  H   UNL A   1      39.127  21.287  25.308  1.00  0.00     0.163 HD
ATOM     24  O   UNL A   1      37.606  23.131  25.489  1.00  0.00    -0.269 OA
BRANCH  22  25
ATOM     25  C   UNL A   1      39.211  24.299  26.737  1.00  0.00     0.039 A 
ATOM     26  C   UNL A   1      39.992  25.221  26.032  1.00  0.00     0.014 A 
ATOM     27  C   UNL A   1      38.972  24.499  28.097  1.00  0.00     0.014 A 
ATOM     28  C   UNL A   1      40.483  26.361  26.676  1.00  0.00     0.010 A 
ATOM     29  C   UNL A   1      39.369  25.682  28.711  1.00  0.00     0.010 A 
ATOM     30  C   UNL A   1      40.148  26.617  28.015  1.00  0.00    -0.014 A 
BRANCH  30  31
ATOM     31  C   UNL A   1      40.623  27.834  28.720  1.00  0.00     0.031 A 
ATOM     32  C   UNL A   1      42.063  27.947  29.140  1.00  0.00     0.074 A 
ATOM     33  C   UNL A   1      39.749  28.806  29.043  1.00  0.00     0.049 A 
ATOM     34  N   UNL A   1      42.655  28.880  29.842  1.00  0.00    -0.248 NA
ATOM     35  C   UNL A   1      42.952  26.841  28.747  1.00  0.00     0.031 C 
ATOM     36  C   UNL A   1      38.320  28.797  28.728  1.00  0.00     0.029 A 
ATOM     37  N   UNL A   1      39.934  29.987  29.716  1.00  0.00    -0.354 N 
ATOM     38  C   UNL A   1      43.972  28.463  29.992  1.00  0.00     0.074 A 
ATOM     39  C   UNL A   1      44.076  27.162  29.367  1.00  0.00     0.031 C 
ATOM     40  C   UNL A   1      37.765  29.935  29.175  1.00  0.00     0.029 A 
ATOM     41  C   UNL A   1      38.788  30.731  29.846  1.00  0.00     0.049 A 
ATOM     42  H   UNL A   1      40.806  30.273  30.073  1.00  0.00     0.167 HD
ATOM     43  C   UNL A   1      45.007  29.114  30.573  1.00  0.00     0.037 A 
ATOM     44  C   UNL A   1      38.586  31.921  30.441  1.00  0.00     0.037 A 
ATOM     45  C   UNL A   1      44.903  30.419  31.173  1.00  0.00     0.049 A 
ATOM     46  C   UNL A   1      39.745  32.618  31.099  1.00  0.00     0.074 A 
ATOM     47  C   UNL A   1      45.900  31.192  31.741  1.00  0.00     0.029 A 
ATOM     48  N   UNL A   1      43.724  31.143  31.283  1.00  0.00    -0.354 N 
ATOM     49  N   UNL A   1      40.998  32.242  31.184  1.00  0.00    -0.248 NA
ATOM     50  C   UNL A   1      39.458  33.906  31.745  1.00  0.00     0.031 C 
ATOM     51  C   UNL A   1      45.316  32.364  32.236  1.00  0.00     0.029 A 
ATOM     52  C   UNL A   1      43.964  32.344  31.930  1.00  0.00     0.049 A 
ATOM     53  H   UNL A   1      42.846  30.845  30.951  1.00  0.00     0.167 HD
ATOM     54  C   UNL A   1      41.657  33.259  31.863  1.00  0.00     0.074 A 
ATOM     55  C   UNL A   1      40.664  34.273  32.158  1.00  0.00     0.031 C 
ATOM     56  C   UNL A   1      42.965  33.346  32.207  1.00  0.00     0.037 A 
BRANCH  43  57
ATOM     57  C   UNL A   1      46.339  28.417  30.584  1.00  0.00     0.064 A 
ATOM     58  C   UNL A   1      47.220  28.492  29.493  1.00  0.00     0.173 A 
ATOM     59  C   UNL A   1      46.738  27.658  31.694  1.00  0.00     0.173 A 
ATOM     60  F   UNL A   1      46.884  29.195  28.401  1.00  0.00    -0.203 F 
ATOM     61  C   UNL A   1      48.425  27.795  29.493  1.00  0.00     0.198 A 
ATOM     62  C   UNL A   1      47.961  26.990  31.705  1.00  0.00     0.198 A 
ATOM     63  F   UNL A   1      45.942  27.557  32.769  1.00  0.00    -0.203 F 
ATOM     64  F   UNL A   1      49.214  27.823  28.410  1.00  0.00    -0.200 F 
ATOM     65  C   UNL A   1      48.797  27.048  30.601  1.00  0.00     0.200 A 
ATOM     66  F   UNL A   1      48.326  26.281  32.782  1.00  0.00    -0.200 F 
ATOM     67  F   UNL A   1      49.955  26.373  30.597  1.00  0.00    -0.200 F 
ENDBRANCH  43  57
BRANCH  44  68
ATOM     68  C   UNL A   1      37.241  32.551  30.396  1.00  0.00     0.064 A 
ATOM     69  C   UNL A   1      36.860  33.337  29.300  1.00  0.00     0.173 A 
ATOM     70  C   UNL A   1      36.307  32.369  31.426  1.00  0.00     0.173 A 
ATOM     71  F   UNL A   1      37.727  33.555  28.300  1.00  0.00    -0.203 F 
ATOM     72  C   UNL A   1      35.600  33.928  29.240  1.00  0.00     0.198 A 
ATOM     73  C   UNL A   1      35.038  32.940  31.354  1.00  0.00     0.198 A 
ATOM     74  F   UNL A   1      36.622  31.623  32.495  1.00  0.00    -0.203 F 
ATOM     75  F   UNL A   1      35.276  34.703  28.197  1.00  0.00    -0.200 F 
ATOM     76  C   UNL A   1      34.688  33.723  30.264  1.00  0.00     0.200 A 
ATOM     77  F   UNL A   1      34.153  32.729  32.338  1.00  0.00    -0.200 F 
ATOM     78  F   UNL A   1      33.472  34.284  30.202  1.00  0.00    -0.200 F 
ENDBRANCH  44  68
BRANCH  56  79
ATOM     79  C   UNL A   1      43.408  34.599  32.907  1.00  0.00     0.064 A 
ATOM     80  C   UNL A   1      43.730  35.766  32.198  1.00  0.00     0.173 A 
ATOM     81  C   UNL A   1      43.472  34.642  34.308  1.00  0.00     0.173 A 
ATOM     82  F   UNL A   1      43.699  35.771  30.857  1.00  0.00    -0.203 F 
ATOM     83  C   UNL A   1      44.126  36.921  32.867  1.00  0.00     0.198 A 
ATOM     84  C   UNL A   1      43.838  35.808  34.974  1.00  0.00     0.198 A 
ATOM     85  F   UNL A   1      43.168  33.555  35.033  1.00  0.00    -0.203 F 
ATOM     86  F   UNL A   1      44.477  38.009  32.168  1.00  0.00    -0.200 F 
ATOM     87  C   UNL A   1      44.172  36.943  34.253  1.00  0.00     0.200 A 
ATOM     88  F   UNL A   1      43.869  35.832  36.313  1.00  0.00    -0.200 F 
ATOM     89  F   UNL A   1      44.546  38.060  34.894  1.00  0.00    -0.200 F 
ENDBRANCH  56  79
ENDBRANCH  30  31
ENDBRANCH  22  25
ENDBRANCH  20  21
ENDBRANCH  19  20
ENDBRANCH   1  19
TORSDOF 14
ENDMDL
MODEL 2
REMARK VINA RESULT:     -10.2      1.329      1.925
REMARK SMILES CCc1ccc(C(=O)[C@@H](Br)CC(=O)NCCCNC(=O)c2ccc(-c3c4nc(c(-c5c(F)c(F)c(F)c(F)c5F)c5ccc([nH]5)c(-c5c(F)c(F)c(F)c(F)c5F)c5nc(c(-c6c(F)c(F)c(F)c(F)c6F)c6ccc3[nH]6)C=C5)C=C4)cc2)cc1
REMARK SMILES IDX 15 1 14 2 12 3 13 4 11 6 9 7 10 8 7 9 8 10 6 11 3 12 4 13
REMARK SMILES IDX 85 14 5 15 84 16 2 17 1 18 16 19 17 20 18 21 19 22 20 24
REMARK SMILES IDX 21 25 22 26 83 27 23 28 82 29 24 30 25 31 26 32 76 33 27 34
REMARK SMILES IDX 81 35 75 36 77 37 28 38 80 39 74 40 73 41 29 43 61 44 41 45
REMARK SMILES IDX 60 46 42 47 45 48 59 49 78 50 43 51 44 52 58 54 79 55 46 56
REMARK SMILES IDX 30 57 31 58 39 59 32 60 33 61 37 62 40 63 34 64 35 65 38 66
REMARK SMILES IDX 36 67 62 68 63 69 71 70 64 71 65 72 69 73 72 74 66 75 67 76
REMARK SMILES IDX 70 77 68 78 47 79 48 80 56 81 49 82 50 83 54 84 57 85 51 86
REMARK SMILES IDX 52 87 55 88 53 89
REMARK H PARENT 14 5 18 23 77 42 45 53
REMARK Flexibility Score: inf
ROOT
ATOM      1  C   UNL A   1      42.263  19.411  26.741  1.00  0.00     0.117 C 
ENDROOT
BRANCH   1   2
ATOM      2  N   UNL A   1      43.079  18.736  25.751  1.00  0.00    -0.356 N 
ATOM      3  C   UNL A   1      44.250  19.129  25.177  1.00  0.00     0.221 C 
ATOM      4  O   UNL A   1      44.709  18.453  24.257  1.00  0.00    -0.275 OA
ATOM      5  H   UNL A   1      42.736  17.864  25.449  1.00  0.00     0.163 HD
BRANCH   3   6
ATOM      6  C   UNL A   1      44.967  20.363  25.677  1.00  0.00     0.123 C 
BRANCH   6   7
ATOM      7  C   UNL A   1      44.588  21.592  24.866  1.00  0.00     0.138 C 
ATOM      8  Br  UNL A   1      46.198  22.540  24.255  1.00  0.00    -0.080 Br
BRANCH   7   9
ATOM      9  C   UNL A   1      43.710  22.664  25.508  1.00  0.00     0.176 C 
ATOM     10  O   UNL A   1      42.779  23.153  24.860  1.00  0.00    -0.293 OA
BRANCH   9  11
ATOM     11  C   UNL A   1      43.881  23.130  26.925  1.00  0.00     0.019 A 
ATOM     12  C   UNL A   1      44.055  23.731  29.680  1.00  0.00    -0.048 A 
ATOM     13  C   UNL A   1      42.817  23.454  29.095  1.00  0.00     0.004 A 
ATOM     14  C   UNL A   1      45.197  23.746  28.869  1.00  0.00     0.004 A 
ATOM     15  C   UNL A   1      42.731  23.171  27.730  1.00  0.00     0.012 A 
ATOM     16  C   UNL A   1      45.109  23.462  27.499  1.00  0.00     0.012 A 
BRANCH  12  17
ATOM     17  C   UNL A   1      44.154  24.000  31.161  1.00  0.00     0.032 C 
ATOM     18  C   UNL A   1      44.181  25.489  31.477  1.00  0.00     0.009 C 
ENDBRANCH  12  17
ENDBRANCH   9  11
ENDBRANCH   7   9
ENDBRANCH   6   7
ENDBRANCH   3   6
ENDBRANCH   1   2
BRANCH   1  19
ATOM     19  C   UNL A   1      40.934  19.850  26.137  1.00  0.00     0.042 C 
BRANCH  19  20
ATOM     20  C   UNL A   1      40.471  21.207  26.638  1.00  0.00     0.118 C 
BRANCH  20  21
ATOM     21  N   UNL A   1      39.193  21.586  26.050  1.00  0.00    -0.352 N 
ATOM     22  C   UNL A   1      38.480  22.757  26.128  1.00  0.00     0.251 C 
ATOM     23  H   UNL A   1      38.769  20.884  25.505  1.00  0.00     0.163 HD
ATOM     24  O   UNL A   1      37.308  22.767  25.766  1.00  0.00    -0.269 OA
BRANCH  22  25
ATOM     25  C   UNL A   1      39.096  24.000  26.648  1.00  0.00     0.039 A 
ATOM     26  C   UNL A   1      39.807  24.821  25.765  1.00  0.00     0.014 A 
ATOM     27  C   UNL A   1      39.033  24.338  28.001  1.00  0.00     0.014 A 
ATOM     28  C   UNL A   1      40.402  25.998  26.229  1.00  0.00     0.010 A 
ATOM     29  C   UNL A   1      39.532  25.559  28.441  1.00  0.00     0.010 A 
ATOM     30  C   UNL A   1      40.241  26.394  27.566  1.00  0.00    -0.014 A 
BRANCH  30  31
ATOM     31  C   UNL A   1      40.830  27.654  28.084  1.00  0.00     0.031 A 
ATOM     32  C   UNL A   1      42.323  27.835  28.104  1.00  0.00     0.074 A 
ATOM     33  C   UNL A   1      40.029  28.606  28.599  1.00  0.00     0.049 A 
ATOM     34  N   UNL A   1      43.037  28.817  28.596  1.00  0.00    -0.248 NA
ATOM     35  C   UNL A   1      43.126  26.748  27.521  1.00  0.00     0.031 C 
ATOM     36  C   UNL A   1      38.569  28.533  28.676  1.00  0.00     0.029 A 
ATOM     37  N   UNL A   1      40.332  29.819  29.165  1.00  0.00    -0.354 N 
ATOM     38  C   UNL A   1      44.364  28.454  28.403  1.00  0.00     0.074 A 
ATOM     39  C   UNL A   1      44.358  27.134  27.811  1.00  0.00     0.031 C 
ATOM     40  C   UNL A   1      38.101  29.667  29.220  1.00  0.00     0.029 A 
ATOM     41  C   UNL A   1      39.227  30.526  29.572  1.00  0.00     0.049 A 
ATOM     42  H   UNL A   1      41.253  30.150  29.269  1.00  0.00     0.167 HD
ATOM     43  C   UNL A   1      45.485  29.165  28.669  1.00  0.00     0.037 A 
ATOM     44  C   UNL A   1      39.136  31.731  30.164  1.00  0.00     0.037 A 
ATOM     45  C   UNL A   1      45.484  30.488  29.237  1.00  0.00     0.049 A 
ATOM     46  C   UNL A   1      40.395  32.495  30.471  1.00  0.00     0.074 A 
ATOM     47  C   UNL A   1      46.559  31.319  29.498  1.00  0.00     0.029 A 
ATOM     48  N   UNL A   1      44.344  31.173  29.635  1.00  0.00    -0.354 N 
ATOM     49  N   UNL A   1      41.642  32.168  30.231  1.00  0.00    -0.248 NA
ATOM     50  C   UNL A   1      40.231  33.797  31.132  1.00  0.00     0.031 C 
ATOM     51  C   UNL A   1      46.074  32.488  30.095  1.00  0.00     0.029 A 
ATOM     52  C   UNL A   1      44.691  32.407  30.160  1.00  0.00     0.049 A 
ATOM     53  H   UNL A   1      43.424  30.831  29.557  1.00  0.00     0.167 HD
ATOM     54  C   UNL A   1      42.409  33.234  30.681  1.00  0.00     0.074 A 
ATOM     55  C   UNL A   1      41.485  34.223  31.199  1.00  0.00     0.031 C 
ATOM     56  C   UNL A   1      43.757  33.382  30.663  1.00  0.00     0.037 A 
BRANCH  43  57
ATOM     57  C   UNL A   1      46.802  28.517  28.347  1.00  0.00     0.064 A 
ATOM     58  C   UNL A   1      47.421  28.685  27.096  1.00  0.00     0.173 A 
ATOM     59  C   UNL A   1      47.454  27.713  29.294  1.00  0.00     0.173 A 
ATOM     60  F   UNL A   1      46.836  29.434  26.149  1.00  0.00    -0.203 F 
ATOM     61  C   UNL A   1      48.612  28.033  26.790  1.00  0.00     0.198 A 
ATOM     62  C   UNL A   1      48.664  27.091  28.997  1.00  0.00     0.198 A 
ATOM     63  F   UNL A   1      46.915  27.524  30.508  1.00  0.00    -0.203 F 
ATOM     64  F   UNL A   1      49.143  28.149  25.566  1.00  0.00    -0.200 F 
ATOM     65  C   UNL A   1      49.235  27.240  27.743  1.00  0.00     0.200 A 
ATOM     66  F   UNL A   1      49.273  26.337  29.922  1.00  0.00    -0.200 F 
ATOM     67  F   UNL A   1      50.380  26.608  27.445  1.00  0.00    -0.200 F 
ENDBRANCH  43  57
BRANCH  44  68
ATOM     68  C   UNL A   1      37.800  32.309  30.460  1.00  0.00     0.064 A 
ATOM     69  C   UNL A   1      37.163  33.140  29.528  1.00  0.00     0.173 A 
ATOM     70  C   UNL A   1      37.126  32.034  31.659  1.00  0.00     0.173 A 
ATOM     71  F   UNL A   1      37.777  33.447  28.376  1.00  0.00    -0.203 F 
ATOM     72  C   UNL A   1      35.907  33.684  29.788  1.00  0.00     0.198 A 
ATOM     73  C   UNL A   1      35.859  32.558  31.907  1.00  0.00     0.198 A 
ATOM     74  F   UNL A   1      37.691  31.242  32.581  1.00  0.00    -0.203 F 
ATOM     75  F   UNL A   1      35.337  34.503  28.894  1.00  0.00    -0.200 F 
ATOM     76  C   UNL A   1      35.253  33.387  30.974  1.00  0.00     0.200 A 
ATOM     77  F   UNL A   1      35.223  32.258  33.048  1.00  0.00    -0.200 F 
ATOM     78  F   UNL A   1      34.041  33.903  31.220  1.00  0.00    -0.200 F 
ENDBRANCH  44  68
BRANCH  56  79
ATOM     79  C   UNL A   1      44.311  34.677  31.183  1.00  0.00     0.064 A 
ATOM     80  C   UNL A   1      44.715  34.825  32.518  1.00  0.00     0.173 A 
ATOM     81  C   UNL A   1      44.477  35.773  30.321  1.00  0.00     0.173 A 
ATOM     82  F   UNL A   1      44.563  33.813  33.385  1.00  0.00    -0.203 F 
ATOM     83  C   UNL A   1      45.239  36.031  32.977  1.00  0.00     0.198 A 
ATOM     84  C   UNL A   1      45.029  36.967  30.776  1.00  0.00     0.198 A 
ATOM     85  F   UNL A   1      44.112  35.681  29.033  1.00  0.00    -0.203 F 
ATOM     86  F   UNL A   1      45.572  36.166  34.267  1.00  0.00    -0.200 F 
ATOM     87  C   UNL A   1      45.403  37.097  32.104  1.00  0.00     0.200 A 
ATOM     88  F   UNL A   1      45.199  37.990  29.928  1.00  0.00    -0.200 F 
ATOM     89  F   UNL A   1      45.914  38.254  32.547  1.00  0.00    -0.200 F 
ENDBRANCH  56  79
ENDBRANCH  30  31
ENDBRANCH  22  25
ENDBRANCH  20  21
ENDBRANCH  19  20
ENDBRANCH   1  19
TORSDOF 14
ENDMDL
MODEL 3
REMARK VINA RESULT:     -10.2      4.049     10.347
REMARK SMILES CCc1ccc(C(=O)[C@@H](Br)CC(=O)NCCCNC(=O)c2ccc(-c3c4nc(c(-c5c(F)c(F)c(F)c(F)c5F)c5ccc([nH]5)c(-c5c(F)c(F)c(F)c(F)c5F)c5nc(c(-c6c(F)c(F)c(F)c(F)c6F)c6ccc3[nH]6)C=C5)C=C4)cc2)cc1
REMARK SMILES IDX 15 1 14 2 12 3 13 4 11 6 9 7 10 8 7 9 8 10 6 11 3 12 4 13
REMARK SMILES IDX 85 14 5 15 84 16 2 17 1 18 16 19 17 20 18 21 19 22 20 24
REMARK SMILES IDX 21 25 22 26 83 27 23 28 82 29 24 30 25 31 26 32 76 33 27 34
REMARK SMILES IDX 81 35 75 36 77 37 28 38 80 39 74 40 73 41 29 43 61 44 41 45
REMARK SMILES IDX 60 46 42 47 45 48 59 49 78 50 43 51 44 52 58 54 79 55 46 56
REMARK SMILES IDX 30 57 31 58 39 59 32 60 33 61 37 62 40 63 34 64 35 65 38 66
REMARK SMILES IDX 36 67 62 68 63 69 71 70 64 71 65 72 69 73 72 74 66 75 67 76
REMARK SMILES IDX 70 77 68 78 47 79 48 80 56 81 49 82 50 83 54 84 57 85 51 86
REMARK SMILES IDX 52 87 55 88 53 89
REMARK H PARENT 14 5 18 23 77 42 45 53
REMARK Flexibility Score: inf
ROOT
ATOM      1  C   UNL A   1      34.238  34.731  29.769  1.00  0.00     0.117 C 
ENDROOT
BRANCH   1   2
ATOM      2  N   UNL A   1      33.762  34.201  31.032  1.00  0.00    -0.356 N 
ATOM      3  C   UNL A   1      34.379  33.363  31.910  1.00  0.00     0.221 C 
ATOM      4  O   UNL A   1      33.735  32.937  32.867  1.00  0.00    -0.275 OA
ATOM      5  H   UNL A   1      32.858  34.491  31.293  1.00  0.00     0.163 HD
BRANCH   3   6
ATOM      6  C   UNL A   1      35.829  32.983  31.710  1.00  0.00     0.123 C 
BRANCH   6   7
ATOM      7  C   UNL A   1      36.712  33.570  32.799  1.00  0.00     0.138 C 
ATOM      8  Br  UNL A   1      38.413  34.200  32.044  1.00  0.00    -0.080 Br
BRANCH   7   9
ATOM      9  C   UNL A   1      37.100  32.697  33.991  1.00  0.00     0.176 C 
ATOM     10  O   UNL A   1      36.599  32.926  35.097  1.00  0.00    -0.293 OA
BRANCH   9  11
ATOM     11  C   UNL A   1      38.030  31.524  33.887  1.00  0.00     0.019 A 
ATOM     12  C   UNL A   1      39.736  29.333  33.368  1.00  0.00    -0.048 A 
ATOM     13  C   UNL A   1      38.415  29.321  32.915  1.00  0.00     0.004 A 
ATOM     14  C   UNL A   1      40.184  30.428  34.117  1.00  0.00     0.004 A 
ATOM     15  C   UNL A   1      37.569  30.399  33.184  1.00  0.00     0.012 A 
ATOM     16  C   UNL A   1      39.334  31.509  34.387  1.00  0.00     0.012 A 
BRANCH  12  17
ATOM     17  C   UNL A   1      40.661  28.185  33.045  1.00  0.00     0.032 C 
ATOM     18  C   UNL A   1      42.092  28.455  33.489  1.00  0.00     0.009 C 
ENDBRANCH  12  17
ENDBRANCH   9  11
ENDBRANCH   7   9
ENDBRANCH   6   7
ENDBRANCH   3   6
ENDBRANCH   1   2
BRANCH   1  19
ATOM     19  C   UNL A   1      33.692  33.917  28.602  1.00  0.00     0.042 C 
BRANCH  19  20
ATOM     20  C   UNL A   1      34.628  32.803  28.162  1.00  0.00     0.118 C 
BRANCH  20  21
ATOM     21  N   UNL A   1      33.904  31.562  27.919  1.00  0.00    -0.352 N 
ATOM     22  C   UNL A   1      34.357  30.278  27.740  1.00  0.00     0.251 C 
ATOM     23  H   UNL A   1      32.925  31.661  27.875  1.00  0.00     0.163 HD
ATOM     24  O   UNL A   1      33.589  29.431  27.293  1.00  0.00    -0.269 OA
BRANCH  22  25
ATOM     25  C   UNL A   1      35.752  29.902  28.066  1.00  0.00     0.039 A 
ATOM     26  C   UNL A   1      36.743  30.076  27.093  1.00  0.00     0.014 A 
ATOM     27  C   UNL A   1      36.088  29.328  29.294  1.00  0.00     0.014 A 
ATOM     28  C   UNL A   1      38.067  29.726  27.372  1.00  0.00     0.010 A 
ATOM     29  C   UNL A   1      37.419  29.080  29.609  1.00  0.00     0.010 A 
ATOM     30  C   UNL A   1      38.423  29.255  28.646  1.00  0.00    -0.014 A 
BRANCH  30  31
ATOM     31  C   UNL A   1      39.825  28.907  28.986  1.00  0.00     0.031 A 
ATOM     32  C   UNL A   1      40.670  29.871  29.773  1.00  0.00     0.074 A 
ATOM     33  C   UNL A   1      40.360  27.758  28.531  1.00  0.00     0.049 A 
ATOM     34  N   UNL A   1      41.938  29.798  30.094  1.00  0.00    -0.248 NA
ATOM     35  C   UNL A   1      40.008  31.103  30.233  1.00  0.00     0.031 C 
ATOM     36  C   UNL A   1      39.658  26.760  27.724  1.00  0.00     0.029 A 
ATOM     37  N   UNL A   1      41.623  27.242  28.675  1.00  0.00    -0.354 N 
ATOM     38  C   UNL A   1      42.226  30.978  30.768  1.00  0.00     0.074 A 
ATOM     39  C   UNL A   1      41.021  31.778  30.753  1.00  0.00     0.031 C 
ATOM     40  C   UNL A   1      40.487  25.734  27.476  1.00  0.00     0.029 A 
ATOM     41  C   UNL A   1      41.791  26.022  28.067  1.00  0.00     0.049 A 
ATOM     42  H   UNL A   1      42.340  27.702  29.168  1.00  0.00     0.167 HD
ATOM     43  C   UNL A   1      43.381  31.350  31.370  1.00  0.00     0.037 A 
ATOM     44  C   UNL A   1      42.875  25.230  27.992  1.00  0.00     0.037 A 
ATOM     45  C   UNL A   1      44.570  30.539  31.403  1.00  0.00     0.049 A 
ATOM     46  C   UNL A   1      44.154  25.672  28.649  1.00  0.00     0.074 A 
ATOM     47  C   UNL A   1      45.776  30.797  32.030  1.00  0.00     0.029 A 
ATOM     48  N   UNL A   1      44.700  29.308  30.776  1.00  0.00    -0.354 N 
ATOM     49  N   UNL A   1      44.399  26.762  29.335  1.00  0.00    -0.248 NA
ATOM     50  C   UNL A   1      45.306  24.770  28.521  1.00  0.00     0.031 C 
ATOM     51  C   UNL A   1      46.651  29.742  31.744  1.00  0.00     0.029 A 
ATOM     52  C   UNL A   1      45.974  28.803  30.982  1.00  0.00     0.049 A 
ATOM     53  H   UNL A   1      43.992  28.860  30.259  1.00  0.00     0.167 HD
ATOM     54  C   UNL A   1      45.722  26.665  29.747  1.00  0.00     0.074 A 
ATOM     55  C   UNL A   1      46.223  25.402  29.241  1.00  0.00     0.031 C 
ATOM     56  C   UNL A   1      46.453  27.540  30.479  1.00  0.00     0.037 A 
BRANCH  43  57
ATOM     57  C   UNL A   1      43.404  32.696  32.039  1.00  0.00     0.064 A 
ATOM     58  C   UNL A   1      43.588  33.881  31.306  1.00  0.00     0.173 A 
ATOM     59  C   UNL A   1      43.246  32.806  33.428  1.00  0.00     0.173 A 
ATOM     60  F   UNL A   1      43.755  33.833  29.976  1.00  0.00    -0.203 F 
ATOM     61  C   UNL A   1      43.665  35.116  31.944  1.00  0.00     0.198 A 
ATOM     62  C   UNL A   1      43.288  34.047  34.060  1.00  0.00     0.198 A 
ATOM     63  F   UNL A   1      43.058  31.710  34.178  1.00  0.00    -0.203 F 
ATOM     64  F   UNL A   1      43.917  36.222  31.232  1.00  0.00    -0.200 F 
ATOM     65  C   UNL A   1      43.510  35.198  33.320  1.00  0.00     0.200 A 
ATOM     66  F   UNL A   1      43.123  34.128  35.387  1.00  0.00    -0.200 F 
ATOM     67  F   UNL A   1      43.589  36.387  33.934  1.00  0.00    -0.200 F 
ENDBRANCH  43  57
BRANCH  44  68
ATOM     68  C   UNL A   1      42.782  23.913  27.310  1.00  0.00     0.064 A 
ATOM     69  C   UNL A   1      43.167  23.778  25.969  1.00  0.00     0.173 A 
ATOM     70  C   UNL A   1      42.329  22.766  27.979  1.00  0.00     0.173 A 
ATOM     71  F   UNL A   1      43.588  24.851  25.283  1.00  0.00    -0.203 F 
ATOM     72  C   UNL A   1      43.092  22.549  25.318  1.00  0.00     0.198 A 
ATOM     73  C   UNL A   1      42.278  21.532  27.334  1.00  0.00     0.198 A 
ATOM     74  F   UNL A   1      41.953  22.842  29.264  1.00  0.00    -0.203 F 
ATOM     75  F   UNL A   1      43.432  22.456  24.026  1.00  0.00    -0.200 F 
ATOM     76  C   UNL A   1      42.655  21.426  26.003  1.00  0.00     0.200 A 
ATOM     77  F   UNL A   1      41.869  20.445  28.002  1.00  0.00    -0.200 F 
ATOM     78  F   UNL A   1      42.591  20.241  25.379  1.00  0.00    -0.200 F 
ENDBRANCH  44  68
BRANCH  56  79
ATOM     79  C   UNL A   1      47.862  27.144  30.813  1.00  0.00     0.064 A 
ATOM     80  C   UNL A   1      48.161  26.351  31.931  1.00  0.00     0.173 A 
ATOM     81  C   UNL A   1      48.923  27.532  29.980  1.00  0.00     0.173 A 
ATOM     82  F   UNL A   1      47.185  25.967  32.767  1.00  0.00    -0.203 F 
ATOM     83  C   UNL A   1      49.474  25.984  32.216  1.00  0.00     0.198 A 
ATOM     84  C   UNL A   1      50.230  27.137  30.251  1.00  0.00     0.198 A 
ATOM     85  F   UNL A   1      48.690  28.286  28.895  1.00  0.00    -0.203 F 
ATOM     86  F   UNL A   1      49.743  25.267  33.316  1.00  0.00    -0.200 F 
ATOM     87  C   UNL A   1      50.505  26.370  31.372  1.00  0.00     0.200 A 
ATOM     88  F   UNL A   1      51.222  27.500  29.428  1.00  0.00    -0.200 F 
ATOM     89  F   UNL A   1      51.767  26.009  31.645  1.00  0.00    -0.200 F 
ENDBRANCH  56  79
ENDBRANCH  30  31
ENDBRANCH  22  25
ENDBRANCH  20  21
ENDBRANCH  19  20
ENDBRANCH   1  19
TORSDOF 14
ENDMDL
