MODEL 1
REMARK VINA RESULT:     -13.0      0.000      0.000
REMARK SMILES O=C(NCCCNC(=O)[C@H]1Cc2ccc(Cl)cc2C[N@@H+]1Cc1ccc(Cl)cc1)c1ccc(-c2c3nc(c(-c4c(F)c(F)c(F)c(F)c4F)c4ccc([nH]4)c(-c4c(F)c(F)c(F)c(F)c4F)c4nc(c(-c5c(F)c(F)c(F)c(F)c5F)c5ccc2[nH]5)C=C4)C=C3)cc1
REMARK SMILES IDX 5 1 4 2 3 3 1 4 2 5 29 7 30 8 91 9 31 10 90 11 32 12 33 13
REMARK SMILES IDX 34 14 84 15 35 16 89 17 83 18 85 19 36 20 88 21 82 22 81 23
REMARK SMILES IDX 37 25 69 26 49 27 68 28 50 29 53 30 67 31 86 32 51 33 52 34
REMARK SMILES IDX 66 36 87 37 54 38 38 39 39 40 47 41 40 42 41 43 45 44 48 45
REMARK SMILES IDX 42 46 43 47 46 48 44 49 70 50 71 51 79 52 72 53 73 54 77 55
REMARK SMILES IDX 80 56 74 57 75 58 78 59 76 60 55 61 56 62 64 63 57 64 58 65
REMARK SMILES IDX 62 66 65 67 59 68 60 69 63 70 61 71 6 72 7 73 8 74 9 76
REMARK SMILES IDX 10 77 11 78 20 79 12 80 19 81 13 83 18 84 14 85 17 86 15 87
REMARK SMILES IDX 16 88 21 89 22 90 23 91 28 92 24 93 27 94 25 95 26 96
REMARK H PARENT 3 6 85 24 53 35 7 75 20 82
REMARK Flexibility Score: inf
ROOT
ATOM      1  C   UNL A   1      32.636  27.679  25.603  1.00  0.00     0.042 C 
ENDROOT
BRANCH   1   2
ATOM      2  C   UNL A   1      33.378  28.914  25.092  1.00  0.00     0.118 C 
BRANCH   2   3
ATOM      3  N   UNL A   1      32.852  30.134  25.682  1.00  0.00    -0.352 N 
ATOM      4  O   UNL A   1      32.526  31.700  27.250  1.00  0.00    -0.269 OA
ATOM      5  C   UNL A   1      33.271  30.839  26.780  1.00  0.00     0.251 C 
ATOM      6  H   UNL A   1      32.069  30.514  25.219  1.00  0.00     0.163 HD
BRANCH   5   7
ATOM      7  C   UNL A   1      34.593  30.608  27.412  1.00  0.00     0.039 A 
ATOM      8  C   UNL A   1      34.875  29.329  27.910  1.00  0.00     0.014 A 
ATOM      9  C   UNL A   1      35.500  31.648  27.643  1.00  0.00     0.014 A 
ATOM     10  C   UNL A   1      36.052  29.092  28.629  1.00  0.00     0.010 A 
ATOM     11  C   UNL A   1      36.697  31.400  28.324  1.00  0.00     0.010 A 
ATOM     12  C   UNL A   1      36.973  30.126  28.848  1.00  0.00    -0.014 A 
BRANCH  12  13
ATOM     13  C   UNL A   1      38.180  29.911  29.691  1.00  0.00     0.031 A 
ATOM     14  C   UNL A   1      39.334  29.104  29.154  1.00  0.00     0.074 A 
ATOM     15  C   UNL A   1      38.256  30.436  30.929  1.00  0.00     0.049 A 
ATOM     16  N   UNL A   1      40.431  28.719  29.757  1.00  0.00    -0.248 NA
ATOM     17  C   UNL A   1      39.238  28.667  27.752  1.00  0.00     0.031 C 
ATOM     18  C   UNL A   1      37.229  31.261  31.563  1.00  0.00     0.029 A 
ATOM     19  N   UNL A   1      39.248  30.353  31.877  1.00  0.00    -0.354 N 
ATOM     20  C   UNL A   1      41.146  27.988  28.816  1.00  0.00     0.074 A 
ATOM     21  C   UNL A   1      40.346  27.954  27.611  1.00  0.00     0.031 C 
ATOM     22  C   UNL A   1      37.653  31.628  32.784  1.00  0.00     0.029 A 
ATOM     23  C   UNL A   1      38.961  31.030  33.037  1.00  0.00     0.049 A 
ATOM     24  H   UNL A   1      40.086  29.855  31.737  1.00  0.00     0.167 HD
ATOM     25  C   UNL A   1      42.365  27.413  28.938  1.00  0.00     0.037 A 
ATOM     26  C   UNL A   1      39.669  31.146  34.178  1.00  0.00     0.037 A 
ATOM     27  C   UNL A   1      43.178  27.463  30.125  1.00  0.00     0.049 A 
ATOM     28  C   UNL A   1      41.005  30.462  34.299  1.00  0.00     0.074 A 
ATOM     29  C   UNL A   1      44.414  26.881  30.349  1.00  0.00     0.029 A 
ATOM     30  N   UNL A   1      42.846  28.155  31.279  1.00  0.00    -0.354 N 
ATOM     31  N   UNL A   1      41.652  29.745  33.414  1.00  0.00    -0.248 NA
ATOM     32  C   UNL A   1      41.709  30.602  35.584  1.00  0.00     0.031 C 
ATOM     33  C   UNL A   1      44.825  27.207  31.646  1.00  0.00     0.029 A 
ATOM     34  C   UNL A   1      43.860  28.021  32.215  1.00  0.00     0.049 A 
ATOM     35  H   UNL A   1      42.016  28.665  31.413  1.00  0.00     0.167 HD
ATOM     36  C   UNL A   1      42.848  29.381  34.018  1.00  0.00     0.074 A 
ATOM     37  C   UNL A   1      42.844  29.959  35.345  1.00  0.00     0.031 C 
ATOM     38  C   UNL A   1      43.859  28.632  33.516  1.00  0.00     0.037 A 
BRANCH  25  39
ATOM     39  C   UNL A   1      42.916  26.683  27.751  1.00  0.00     0.064 A 
ATOM     40  C   UNL A   1      43.658  27.352  26.767  1.00  0.00     0.173 A 
ATOM     41  C   UNL A   1      42.778  25.291  27.640  1.00  0.00     0.173 A 
ATOM     42  F   UNL A   1      43.806  28.684  26.824  1.00  0.00    -0.203 F 
ATOM     43  C   UNL A   1      44.237  26.654  25.711  1.00  0.00     0.198 A 
ATOM     44  C   UNL A   1      43.379  24.594  26.596  1.00  0.00     0.198 A 
ATOM     45  F   UNL A   1      42.085  24.605  28.561  1.00  0.00    -0.203 F 
ATOM     46  F   UNL A   1      44.925  27.316  24.770  1.00  0.00    -0.200 F 
ATOM     47  C   UNL A   1      44.107  25.275  25.632  1.00  0.00     0.200 A 
ATOM     48  F   UNL A   1      43.262  23.260  26.527  1.00  0.00    -0.200 F 
ATOM     49  F   UNL A   1      44.682  24.603  24.625  1.00  0.00    -0.200 F 
ENDBRANCH  25  39
BRANCH  26  50
ATOM     50  C   UNL A   1      39.144  31.963  35.301  1.00  0.00     0.064 A 
ATOM     51  C   UNL A   1      39.414  33.337  35.375  1.00  0.00     0.173 A 
ATOM     52  C   UNL A   1      38.389  31.390  36.334  1.00  0.00     0.173 A 
ATOM     53  F   UNL A   1      40.158  33.925  34.425  1.00  0.00    -0.203 F 
ATOM     54  C   UNL A   1      38.966  34.103  36.449  1.00  0.00     0.198 A 
ATOM     55  C   UNL A   1      37.919  32.162  37.395  1.00  0.00     0.198 A 
ATOM     56  F   UNL A   1      38.107  30.079  36.312  1.00  0.00    -0.203 F 
ATOM     57  F   UNL A   1      39.280  35.404  36.519  1.00  0.00    -0.200 F 
ATOM     58  C   UNL A   1      38.214  33.516  37.456  1.00  0.00     0.200 A 
ATOM     59  F   UNL A   1      37.187  31.593  38.362  1.00  0.00    -0.200 F 
ATOM     60  F   UNL A   1      37.785  34.252  38.490  1.00  0.00    -0.200 F 
ENDBRANCH  26  50
BRANCH  38  61
ATOM     61  C   UNL A   1      45.074  28.440  34.373  1.00  0.00     0.064 A 
ATOM     62  C   UNL A   1      45.203  27.340  35.232  1.00  0.00     0.173 A 
ATOM     63  C   UNL A   1      46.149  29.338  34.285  1.00  0.00     0.173 A 
ATOM     64  F   UNL A   1      44.197  26.461  35.357  1.00  0.00    -0.203 F 
ATOM     65  C   UNL A   1      46.358  27.154  35.985  1.00  0.00     0.198 A 
ATOM     66  C   UNL A   1      47.311  29.137  35.023  1.00  0.00     0.198 A 
ATOM     67  F   UNL A   1      46.076  30.402  33.472  1.00  0.00    -0.203 F 
ATOM     68  F   UNL A   1      46.447  26.113  36.825  1.00  0.00    -0.200 F 
ATOM     69  C   UNL A   1      47.413  28.047  35.876  1.00  0.00     0.200 A 
ATOM     70  F   UNL A   1      48.335  29.995  34.908  1.00  0.00    -0.200 F 
ATOM     71  F   UNL A   1      48.528  27.862  36.596  1.00  0.00    -0.200 F 
ENDBRANCH  38  61
ENDBRANCH  12  13
ENDBRANCH   5   7
ENDBRANCH   2   3
ENDBRANCH   1   2
BRANCH   1  72
ATOM     72  C   UNL A   1      33.385  26.363  25.403  1.00  0.00     0.118 C 
BRANCH  72  73
ATOM     73  N   UNL A   1      33.557  26.053  23.993  1.00  0.00    -0.351 N 
ATOM     74  C   UNL A   1      33.833  24.865  23.372  1.00  0.00     0.278 C 
ATOM     75  H   UNL A   1      33.460  26.823  23.388  1.00  0.00     0.163 HD
ATOM     76  O   UNL A   1      34.028  24.914  22.154  1.00  0.00    -0.268 OA
BRANCH  74  77
ATOM     77  C   UNL A   1      33.806  23.544  24.177  1.00  0.00     0.279 C 
ATOM     78  C   UNL A   1      33.040  22.551  23.267  1.00  0.00     0.111 C 
ATOM     79  N   UNL A   1      35.166  23.028  24.476  1.00  0.00    -0.317 N 
ATOM     80  C   UNL A   1      33.100  21.124  23.738  1.00  0.00    -0.033 A 
ATOM     81  C   UNL A   1      35.136  21.714  25.127  1.00  0.00     0.300 C 
ATOM     82  H   UNL A   1      35.581  22.918  23.551  1.00  0.00     0.349 HD
ATOM     83  C   UNL A   1      32.153  20.184  23.307  1.00  0.00     0.006 A 
ATOM     84  C   UNL A   1      34.149  20.719  24.571  1.00  0.00     0.011 A 
ATOM     85  C   UNL A   1      32.224  18.858  23.741  1.00  0.00     0.021 A 
ATOM     86  C   UNL A   1      34.216  19.383  25.001  1.00  0.00     0.030 A 
ATOM     87  C   UNL A   1      33.254  18.463  24.589  1.00  0.00     0.041 A 
ATOM     88  Cl  UNL A   1      33.330  16.840  25.153  1.00  0.00    -0.084 Cl
BRANCH  79  89
ATOM     89  C   UNL A   1      36.081  23.962  25.165  1.00  0.00     0.299 C 
BRANCH  89  90
ATOM     90  C   UNL A   1      37.379  23.400  25.726  1.00  0.00     0.006 A 
ATOM     91  C   UNL A   1      37.861  22.130  25.370  1.00  0.00     0.011 A 
ATOM     92  C   UNL A   1      38.157  24.175  26.601  1.00  0.00     0.011 A 
ATOM     93  C   UNL A   1      39.005  21.595  25.966  1.00  0.00     0.021 A 
ATOM     94  C   UNL A   1      39.330  23.658  27.168  1.00  0.00     0.021 A 
ATOM     95  C   UNL A   1      39.728  22.357  26.876  1.00  0.00     0.041 A 
ATOM     96  Cl  UNL A   1      41.112  21.690  27.648  1.00  0.00    -0.084 Cl
ENDBRANCH  89  90
ENDBRANCH  79  89
ENDBRANCH  74  77
ENDBRANCH  72  73
ENDBRANCH   1  72
TORSDOF 12
ENDMDL
MODEL 2
REMARK VINA RESULT:     -13.0      3.336      8.199
REMARK SMILES O=C(NCCCNC(=O)[C@H]1Cc2ccc(Cl)cc2C[N@@H+]1Cc1ccc(Cl)cc1)c1ccc(-c2c3nc(c(-c4c(F)c(F)c(F)c(F)c4F)c4ccc([nH]4)c(-c4c(F)c(F)c(F)c(F)c4F)c4nc(c(-c5c(F)c(F)c(F)c(F)c5F)c5ccc2[nH]5)C=C4)C=C3)cc1
REMARK SMILES IDX 5 1 4 2 3 3 1 4 2 5 29 7 30 8 91 9 31 10 90 11 32 12 33 13
REMARK SMILES IDX 34 14 84 15 35 16 89 17 83 18 85 19 36 20 88 21 82 22 81 23
REMARK SMILES IDX 37 25 69 26 49 27 68 28 50 29 53 30 67 31 86 32 51 33 52 34
REMARK SMILES IDX 66 36 87 37 54 38 38 39 39 40 47 41 40 42 41 43 45 44 48 45
REMARK SMILES IDX 42 46 43 47 46 48 44 49 70 50 71 51 79 52 72 53 73 54 77 55
REMARK SMILES IDX 80 56 74 57 75 58 78 59 76 60 55 61 56 62 64 63 57 64 58 65
REMARK SMILES IDX 62 66 65 67 59 68 60 69 63 70 61 71 6 72 7 73 8 74 9 76
REMARK SMILES IDX 10 77 11 78 20 79 12 80 19 81 13 83 18 84 14 85 17 86 15 87
REMARK SMILES IDX 16 88 21 89 22 90 23 91 28 92 24 93 27 94 25 95 26 96
REMARK H PARENT 3 6 85 24 53 35 7 75 20 82
REMARK Flexibility Score: inf
ROOT
ATOM      1  C   UNL A   1      33.978  28.198  25.996  1.00  0.00     0.042 C 
ENDROOT
BRANCH   1   2
ATOM      2  C   UNL A   1      33.460  28.638  27.367  1.00  0.00     0.118 C 
BRANCH   2   3
ATOM      3  N   UNL A   1      33.621  30.069  27.562  1.00  0.00    -0.352 N 
ATOM      4  O   UNL A   1      34.478  31.958  28.408  1.00  0.00    -0.269 OA
ATOM      5  C   UNL A   1      34.659  30.777  28.109  1.00  0.00     0.251 C 
ATOM      6  H   UNL A   1      32.863  30.618  27.252  1.00  0.00     0.163 HD
BRANCH   5   7
ATOM      7  C   UNL A   1      35.994  30.172  28.341  1.00  0.00     0.039 A 
ATOM      8  C   UNL A   1      36.275  29.654  29.612  1.00  0.00     0.014 A 
ATOM      9  C   UNL A   1      37.013  30.226  27.384  1.00  0.00     0.014 A 
ATOM     10  C   UNL A   1      37.559  29.192  29.922  1.00  0.00     0.010 A 
ATOM     11  C   UNL A   1      38.285  29.723  27.680  1.00  0.00     0.010 A 
ATOM     12  C   UNL A   1      38.579  29.227  28.960  1.00  0.00    -0.014 A 
BRANCH  12  13
ATOM     13  C   UNL A   1      39.970  28.828  29.304  1.00  0.00     0.031 A 
ATOM     14  C   UNL A   1      40.799  29.705  30.207  1.00  0.00     0.074 A 
ATOM     15  C   UNL A   1      40.497  27.685  28.823  1.00  0.00     0.049 A 
ATOM     16  N   UNL A   1      42.057  29.592  30.551  1.00  0.00    -0.248 NA
ATOM     17  C   UNL A   1      40.122  30.872  30.797  1.00  0.00     0.031 C 
ATOM     18  C   UNL A   1      39.801  26.728  27.965  1.00  0.00     0.029 A 
ATOM     19  N   UNL A   1      41.746  27.136  28.991  1.00  0.00    -0.354 N 
ATOM     20  C   UNL A   1      42.324  30.671  31.383  1.00  0.00     0.074 A 
ATOM     21  C   UNL A   1      41.107  31.450  31.468  1.00  0.00     0.031 C 
ATOM     22  C   UNL A   1      40.623  25.698  27.701  1.00  0.00     0.029 A 
ATOM     23  C   UNL A   1      41.916  25.941  28.333  1.00  0.00     0.049 A 
ATOM     24  H   UNL A   1      42.452  27.559  29.531  1.00  0.00     0.167 HD
ATOM     25  C   UNL A   1      43.472  30.978  32.032  1.00  0.00     0.037 A 
ATOM     26  C   UNL A   1      42.996  25.140  28.244  1.00  0.00     0.037 A 
ATOM     27  C   UNL A   1      44.679  30.197  31.973  1.00  0.00     0.049 A 
ATOM     28  C   UNL A   1      44.271  25.528  28.945  1.00  0.00     0.074 A 
ATOM     29  C   UNL A   1      45.901  30.450  32.573  1.00  0.00     0.029 A 
ATOM     30  N   UNL A   1      44.809  28.998  31.291  1.00  0.00    -0.354 N 
ATOM     31  N   UNL A   1      44.520  26.570  29.698  1.00  0.00    -0.248 NA
ATOM     32  C   UNL A   1      45.422  24.625  28.777  1.00  0.00     0.031 C 
ATOM     33  C   UNL A   1      46.776  29.411  32.242  1.00  0.00     0.029 A 
ATOM     34  C   UNL A   1      46.088  28.495  31.464  1.00  0.00     0.049 A 
ATOM     35  H   UNL A   1      44.098  28.568  30.763  1.00  0.00     0.167 HD
ATOM     36  C   UNL A   1      45.834  26.430  30.123  1.00  0.00     0.074 A 
ATOM     37  C   UNL A   1      46.334  25.200  29.548  1.00  0.00     0.031 C 
ATOM     38  C   UNL A   1      46.561  27.251  30.918  1.00  0.00     0.037 A 
BRANCH  25  39
ATOM     39  C   UNL A   1      43.486  32.211  32.884  1.00  0.00     0.064 A 
ATOM     40  C   UNL A   1      43.781  33.468  32.337  1.00  0.00     0.173 A 
ATOM     41  C   UNL A   1      43.116  32.151  34.236  1.00  0.00     0.173 A 
ATOM     42  F   UNL A   1      44.152  33.574  31.053  1.00  0.00    -0.203 F 
ATOM     43  C   UNL A   1      43.711  34.621  33.115  1.00  0.00     0.198 A 
ATOM     44  C   UNL A   1      43.024  33.308  35.005  1.00  0.00     0.198 A 
ATOM     45  F   UNL A   1      42.816  30.973  34.803  1.00  0.00    -0.203 F 
ATOM     46  F   UNL A   1      44.017  35.809  32.578  1.00  0.00    -0.200 F 
ATOM     47  C   UNL A   1      43.323  34.541  34.445  1.00  0.00     0.200 A 
ATOM     48  F   UNL A   1      42.637  33.231  36.286  1.00  0.00    -0.200 F 
ATOM     49  F   UNL A   1      43.236  35.654  35.186  1.00  0.00    -0.200 F 
ENDBRANCH  25  39
BRANCH  26  50
ATOM     50  C   UNL A   1      42.921  23.871  27.477  1.00  0.00     0.064 A 
ATOM     51  C   UNL A   1      43.282  23.830  26.123  1.00  0.00     0.173 A 
ATOM     52  C   UNL A   1      42.464  22.684  28.067  1.00  0.00     0.173 A 
ATOM     53  F   UNL A   1      43.698  24.948  25.508  1.00  0.00    -0.203 F 
ATOM     54  C   UNL A   1      43.172  22.655  25.383  1.00  0.00     0.198 A 
ATOM     55  C   UNL A   1      42.378  21.503  27.332  1.00  0.00     0.198 A 
ATOM     56  F   UNL A   1      42.102  22.671  29.358  1.00  0.00    -0.203 F 
ATOM     57  F   UNL A   1      43.478  22.656  24.078  1.00  0.00    -0.200 F 
ATOM     58  C   UNL A   1      42.724  21.491  25.989  1.00  0.00     0.200 A 
ATOM     59  F   UNL A   1      41.952  20.378  27.923  1.00  0.00    -0.200 F 
ATOM     60  F   UNL A   1      42.615  20.362  25.277  1.00  0.00    -0.200 F 
ENDBRANCH  26  50
BRANCH  38  61
ATOM     61  C   UNL A   1      47.955  26.826  31.268  1.00  0.00     0.064 A 
ATOM     62  C   UNL A   1      48.215  25.974  32.350  1.00  0.00     0.173 A 
ATOM     63  C   UNL A   1      49.037  27.230  30.471  1.00  0.00     0.173 A 
ATOM     64  F   UNL A   1      47.214  25.571  33.146  1.00  0.00    -0.203 F 
ATOM     65  C   UNL A   1      49.512  25.554  32.632  1.00  0.00     0.198 A 
ATOM     66  C   UNL A   1      50.329  26.791  30.743  1.00  0.00     0.198 A 
ATOM     67  F   UNL A   1      48.838  28.040  29.420  1.00  0.00    -0.203 F 
ATOM     68  F   UNL A   1      49.743  24.766  33.691  1.00  0.00    -0.200 F 
ATOM     69  C   UNL A   1      50.566  25.956  31.825  1.00  0.00     0.200 A 
ATOM     70  F   UNL A   1      51.346  27.171  29.956  1.00  0.00    -0.200 F 
ATOM     71  F   UNL A   1      51.813  25.544  32.094  1.00  0.00    -0.200 F 
ENDBRANCH  38  61
ENDBRANCH  12  13
ENDBRANCH   5   7
ENDBRANCH   2   3
ENDBRANCH   1   2
BRANCH   1  72
ATOM     72  C   UNL A   1      33.747  26.723  25.676  1.00  0.00     0.118 C 
BRANCH  72  73
ATOM     73  N   UNL A   1      32.591  26.196  26.383  1.00  0.00    -0.351 N 
ATOM     74  C   UNL A   1      31.865  25.055  26.173  1.00  0.00     0.278 C 
ATOM     75  H   UNL A   1      32.281  26.750  27.135  1.00  0.00     0.163 HD
ATOM     76  O   UNL A   1      30.859  24.907  26.871  1.00  0.00    -0.268 OA
BRANCH  74  77
ATOM     77  C   UNL A   1      32.364  23.993  25.163  1.00  0.00     0.279 C 
ATOM     78  C   UNL A   1      32.008  22.636  25.821  1.00  0.00     0.111 C 
ATOM     79  N   UNL A   1      31.709  24.112  23.836  1.00  0.00    -0.317 N 
ATOM     80  C   UNL A   1      32.181  21.453  24.907  1.00  0.00    -0.033 A 
ATOM     81  C   UNL A   1      32.090  23.029  22.924  1.00  0.00     0.300 C 
ATOM     82  H   UNL A   1      30.718  24.012  24.057  1.00  0.00     0.349 HD
ATOM     83  C   UNL A   1      32.317  20.158  25.426  1.00  0.00     0.006 A 
ATOM     84  C   UNL A   1      32.146  21.645  23.522  1.00  0.00     0.011 A 
ATOM     85  C   UNL A   1      32.465  19.065  24.569  1.00  0.00     0.021 A 
ATOM     86  C   UNL A   1      32.292  20.540  22.666  1.00  0.00     0.030 A 
ATOM     87  C   UNL A   1      32.455  19.261  23.191  1.00  0.00     0.041 A 
ATOM     88  Cl  UNL A   1      32.668  17.924  22.130  1.00  0.00    -0.084 Cl
BRANCH  79  89
ATOM     89  C   UNL A   1      31.793  25.436  23.183  1.00  0.00     0.299 C 
BRANCH  89  90
ATOM     90  C   UNL A   1      30.575  26.344  23.262  1.00  0.00     0.006 A 
ATOM     91  C   UNL A   1      29.371  25.933  23.856  1.00  0.00     0.011 A 
ATOM     92  C   UNL A   1      30.646  27.655  22.764  1.00  0.00     0.011 A 
ATOM     93  C   UNL A   1      28.237  26.748  23.836  1.00  0.00     0.021 A 
ATOM     94  C   UNL A   1      29.522  28.491  22.781  1.00  0.00     0.021 A 
ATOM     95  C   UNL A   1      28.313  28.021  23.283  1.00  0.00     0.041 A 
ATOM     96  Cl  UNL A   1      26.910  29.012  23.214  1.00  0.00    -0.084 Cl
ENDBRANCH  89  90
ENDBRANCH  79  89
ENDBRANCH  74  77
ENDBRANCH  72  73
ENDBRANCH   1  72
TORSDOF 12
ENDMDL
MODEL 3
REMARK VINA RESULT:     -13.0      0.351      1.613
REMARK SMILES O=C(NCCCNC(=O)[C@H]1Cc2ccc(Cl)cc2C[N@@H+]1Cc1ccc(Cl)cc1)c1ccc(-c2c3nc(c(-c4c(F)c(F)c(F)c(F)c4F)c4ccc([nH]4)c(-c4c(F)c(F)c(F)c(F)c4F)c4nc(c(-c5c(F)c(F)c(F)c(F)c5F)c5ccc2[nH]5)C=C4)C=C3)cc1
REMARK SMILES IDX 5 1 4 2 3 3 1 4 2 5 29 7 30 8 91 9 31 10 90 11 32 12 33 13
REMARK SMILES IDX 34 14 84 15 35 16 89 17 83 18 85 19 36 20 88 21 82 22 81 23
REMARK SMILES IDX 37 25 69 26 49 27 68 28 50 29 53 30 67 31 86 32 51 33 52 34
REMARK SMILES IDX 66 36 87 37 54 38 38 39 39 40 47 41 40 42 41 43 45 44 48 45
REMARK SMILES IDX 42 46 43 47 46 48 44 49 70 50 71 51 79 52 72 53 73 54 77 55
REMARK SMILES IDX 80 56 74 57 75 58 78 59 76 60 55 61 56 62 64 63 57 64 58 65
REMARK SMILES IDX 62 66 65 67 59 68 60 69 63 70 61 71 6 72 7 73 8 74 9 76
REMARK SMILES IDX 10 77 11 78 20 79 12 80 19 81 13 83 18 84 14 85 17 86 15 87
REMARK SMILES IDX 16 88 21 89 22 90 23 91 28 92 24 93 27 94 25 95 26 96
REMARK H PARENT 3 6 85 24 53 35 7 75 20 82
REMARK Flexibility Score: inf
ROOT
ATOM      1  C   UNL A   1      32.753  27.662  25.923  1.00  0.00     0.042 C 
ENDROOT
BRANCH   1   2
ATOM      2  C   UNL A   1      33.451  28.877  25.311  1.00  0.00     0.118 C 
BRANCH   2   3
ATOM      3  N   UNL A   1      32.935  30.120  25.861  1.00  0.00    -0.352 N 
ATOM      4  O   UNL A   1      32.649  31.755  27.366  1.00  0.00    -0.269 OA
ATOM      5  C   UNL A   1      33.384  30.876  26.913  1.00  0.00     0.251 C 
ATOM      6  H   UNL A   1      32.137  30.475  25.407  1.00  0.00     0.163 HD
BRANCH   5   7
ATOM      7  C   UNL A   1      34.727  30.680  27.513  1.00  0.00     0.039 A 
ATOM      8  C   UNL A   1      35.047  29.414  28.020  1.00  0.00     0.014 A 
ATOM      9  C   UNL A   1      35.618  31.741  27.707  1.00  0.00     0.014 A 
ATOM     10  C   UNL A   1      36.246  29.210  28.712  1.00  0.00     0.010 A 
ATOM     11  C   UNL A   1      36.837  31.526  28.360  1.00  0.00     0.010 A 
ATOM     12  C   UNL A   1      37.152  30.266  28.892  1.00  0.00    -0.014 A 
BRANCH  12  13
ATOM     13  C   UNL A   1      38.384  30.086  29.706  1.00  0.00     0.031 A 
ATOM     14  C   UNL A   1      39.541  29.297  29.150  1.00  0.00     0.074 A 
ATOM     15  C   UNL A   1      38.481  30.628  30.937  1.00  0.00     0.049 A 
ATOM     16  N   UNL A   1      40.661  28.943  29.728  1.00  0.00    -0.248 NA
ATOM     17  C   UNL A   1      39.419  28.841  27.756  1.00  0.00     0.031 C 
ATOM     18  C   UNL A   1      37.453  31.439  31.587  1.00  0.00     0.029 A 
ATOM     19  N   UNL A   1      39.499  30.577  31.859  1.00  0.00    -0.354 N 
ATOM     20  C   UNL A   1      41.367  28.215  28.778  1.00  0.00     0.074 A 
ATOM     21  C   UNL A   1      40.538  28.150  27.594  1.00  0.00     0.031 C 
ATOM     22  C   UNL A   1      37.900  31.829  32.793  1.00  0.00     0.029 A 
ATOM     23  C   UNL A   1      39.227  31.262  33.019  1.00  0.00     0.049 A 
ATOM     24  H   UNL A   1      40.343  30.095  31.703  1.00  0.00     0.167 HD
ATOM     25  C   UNL A   1      42.602  27.668  28.876  1.00  0.00     0.037 A 
ATOM     26  C   UNL A   1      39.961  31.407  34.139  1.00  0.00     0.037 A 
ATOM     27  C   UNL A   1      43.444  27.749  30.040  1.00  0.00     0.049 A 
ATOM     28  C   UNL A   1      41.314  30.752  34.233  1.00  0.00     0.074 A 
ATOM     29  C   UNL A   1      44.697  27.196  30.239  1.00  0.00     0.029 A 
ATOM     30  N   UNL A   1      43.127  28.447  31.194  1.00  0.00    -0.354 N 
ATOM     31  N   UNL A   1      41.954  30.038  33.341  1.00  0.00    -0.248 NA
ATOM     32  C   UNL A   1      42.048  30.923  35.498  1.00  0.00     0.031 C 
ATOM     33  C   UNL A   1      45.133  27.546  31.520  1.00  0.00     0.029 A 
ATOM     34  C   UNL A   1      44.166  28.346  32.105  1.00  0.00     0.049 A 
ATOM     35  H   UNL A   1      42.289  28.942  31.344  1.00  0.00     0.167 HD
ATOM     36  C   UNL A   1      43.172  29.707  33.917  1.00  0.00     0.074 A 
ATOM     37  C   UNL A   1      43.189  30.301  35.237  1.00  0.00     0.031 C 
ATOM     38  C   UNL A   1      44.186  28.973  33.399  1.00  0.00     0.037 A 
BRANCH  25  39
ATOM     39  C   UNL A   1      43.138  26.934  27.683  1.00  0.00     0.064 A 
ATOM     40  C   UNL A   1      43.871  27.601  26.691  1.00  0.00     0.173 A 
ATOM     41  C   UNL A   1      42.994  25.543  27.575  1.00  0.00     0.173 A 
ATOM     42  F   UNL A   1      44.024  28.932  26.745  1.00  0.00    -0.203 F 
ATOM     43  C   UNL A   1      44.437  26.900  25.629  1.00  0.00     0.198 A 
ATOM     44  C   UNL A   1      43.580  24.843  26.524  1.00  0.00     0.198 A 
ATOM     45  F   UNL A   1      42.307  24.860  28.503  1.00  0.00    -0.203 F 
ATOM     46  F   UNL A   1      45.116  27.559  24.681  1.00  0.00    -0.200 F 
ATOM     47  C   UNL A   1      44.301  25.522  25.552  1.00  0.00     0.200 A 
ATOM     48  F   UNL A   1      43.459  23.510  26.458  1.00  0.00    -0.200 F 
ATOM     49  F   UNL A   1      44.863  24.847  24.540  1.00  0.00    -0.200 F 
ENDBRANCH  25  39
BRANCH  26  50
ATOM     50  C   UNL A   1      39.448  32.226  35.266  1.00  0.00     0.064 A 
ATOM     51  C   UNL A   1      38.662  31.647  36.273  1.00  0.00     0.173 A 
ATOM     52  C   UNL A   1      39.705  33.602  35.349  1.00  0.00     0.173 A 
ATOM     53  F   UNL A   1      38.366  30.339  36.220  1.00  0.00    -0.203 F 
ATOM     54  C   UNL A   1      38.137  32.416  37.309  1.00  0.00     0.198 A 
ATOM     55  C   UNL A   1      39.200  34.365  36.400  1.00  0.00     0.198 A 
ATOM     56  F   UNL A   1      40.447  34.204  34.408  1.00  0.00    -0.203 F 
ATOM     57  F   UNL A   1      37.350  31.846  38.231  1.00  0.00    -0.200 F 
ATOM     58  C   UNL A   1      38.411  33.774  37.375  1.00  0.00     0.200 A 
ATOM     59  F   UNL A   1      39.473  35.676  36.464  1.00  0.00    -0.200 F 
ATOM     60  F   UNL A   1      37.904  34.514  38.370  1.00  0.00    -0.200 F 
ENDBRANCH  26  50
BRANCH  38  61
ATOM     61  C   UNL A   1      45.426  28.817  34.226  1.00  0.00     0.064 A 
ATOM     62  C   UNL A   1      46.485  29.731  34.145  1.00  0.00     0.173 A 
ATOM     63  C   UNL A   1      45.528  27.769  35.154  1.00  0.00     0.173 A 
ATOM     64  F   UNL A   1      46.438  30.742  33.265  1.00  0.00    -0.203 F 
ATOM     65  C   UNL A   1      47.609  29.594  34.955  1.00  0.00     0.198 A 
ATOM     66  C   UNL A   1      46.643  27.647  35.977  1.00  0.00     0.198 A 
ATOM     67  F   UNL A   1      44.537  26.872  35.273  1.00  0.00    -0.203 F 
ATOM     68  F   UNL A   1      48.625  30.461  34.839  1.00  0.00    -0.200 F 
ATOM     69  C   UNL A   1      47.685  28.558  35.874  1.00  0.00     0.200 A 
ATOM     70  F   UNL A   1      46.710  26.652  36.872  1.00  0.00    -0.200 F 
ATOM     71  F   UNL A   1      48.765  28.432  36.657  1.00  0.00    -0.200 F 
ENDBRANCH  38  61
ENDBRANCH  12  13
ENDBRANCH   5   7
ENDBRANCH   2   3
ENDBRANCH   1   2
BRANCH   1  72
ATOM     72  C   UNL A   1      33.457  26.332  25.666  1.00  0.00     0.118 C 
BRANCH  72  73
ATOM     73  N   UNL A   1      33.655  26.095  24.245  1.00  0.00    -0.351 N 
ATOM     74  C   UNL A   1      33.958  24.944  23.570  1.00  0.00     0.278 C 
ATOM     75  H   UNL A   1      33.556  26.893  23.678  1.00  0.00     0.163 HD
ATOM     76  O   UNL A   1      34.171  25.056  22.360  1.00  0.00    -0.268 OA
BRANCH  74  77
ATOM     77  C   UNL A   1      33.938  23.584  24.308  1.00  0.00     0.279 C 
ATOM     78  C   UNL A   1      33.186  22.631  23.343  1.00  0.00     0.111 C 
ATOM     79  N   UNL A   1      35.300  23.064  24.589  1.00  0.00    -0.317 N 
ATOM     80  C   UNL A   1      33.256  21.183  23.743  1.00  0.00    -0.033 A 
ATOM     81  C   UNL A   1      35.278  21.720  25.173  1.00  0.00     0.300 C 
ATOM     82  H   UNL A   1      35.722  23.005  23.663  1.00  0.00     0.349 HD
ATOM     83  C   UNL A   1      32.319  20.258  23.259  1.00  0.00     0.006 A 
ATOM     84  C   UNL A   1      34.303  20.745  24.561  1.00  0.00     0.011 A 
ATOM     85  C   UNL A   1      32.400  18.912  23.626  1.00  0.00     0.021 A 
ATOM     86  C   UNL A   1      34.379  19.390  24.924  1.00  0.00     0.030 A 
ATOM     87  C   UNL A   1      33.428  18.484  24.460  1.00  0.00     0.041 A 
ATOM     88  Cl  UNL A   1      33.515  16.835  24.942  1.00  0.00    -0.084 Cl
BRANCH  79  89
ATOM     89  C   UNL A   1      36.203  23.971  25.330  1.00  0.00     0.299 C 
BRANCH  89  90
ATOM     90  C   UNL A   1      37.523  23.404  25.831  1.00  0.00     0.006 A 
ATOM     91  C   UNL A   1      37.984  22.133  25.453  1.00  0.00     0.011 A 
ATOM     92  C   UNL A   1      38.342  24.175  26.671  1.00  0.00     0.011 A 
ATOM     93  C   UNL A   1      39.152  21.594  25.997  1.00  0.00     0.021 A 
ATOM     94  C   UNL A   1      39.537  23.654  27.184  1.00  0.00     0.021 A 
ATOM     95  C   UNL A   1      39.918  22.352  26.874  1.00  0.00     0.041 A 
ATOM     96  Cl  UNL A   1      41.333  21.679  27.582  1.00  0.00    -0.084 Cl
ENDBRANCH  89  90
ENDBRANCH  79  89
ENDBRANCH  74  77
ENDBRANCH  72  73
ENDBRANCH   1  72
TORSDOF 12
ENDMDL
