MODEL 1
REMARK VINA RESULT:     -12.0      0.000      0.000
REMARK SMILES CC[C@@H](C)N(C)C(=O)N1[C@@H](C(=O)NCCCNC(=O)c2ccc(-c3c4nc(c(-c5c(F)c(F)c(F)c(F)c5F)c5ccc([nH]5)c(-c5c(F)c(F)c(F)c(F)c5F)c5nc(c(-c6c(F)c(F)c(F)c(F)c6F)c6ccc3[nH]6)C=C5)C=C4)cc2)CC[C@H]2CCCC[C@H]21
REMARK SMILES IDX 14 1 13 2 11 3 12 4 10 6 9 7 90 8 83 9 85 10 89 11 84 12
REMARK SMILES IDX 86 13 88 14 87 15 7 16 8 17 5 18 6 19 3 20 4 21 2 22 1 23
REMARK SMILES IDX 15 24 16 25 17 26 18 27 19 29 20 30 21 31 82 32 22 33 81 34
REMARK SMILES IDX 23 35 24 36 25 37 75 38 26 39 80 40 74 41 76 42 27 43 79 44
REMARK SMILES IDX 73 45 72 46 28 48 60 49 40 50 59 51 41 52 44 53 58 54 77 55
REMARK SMILES IDX 42 56 43 57 57 59 78 60 45 61 29 62 30 63 38 64 31 65 32 66
REMARK SMILES IDX 36 67 39 68 33 69 34 70 37 71 35 72 61 73 62 74 70 75 63 76
REMARK SMILES IDX 64 77 68 78 71 79 65 80 66 81 69 82 67 83 46 84 47 85 55 86
REMARK SMILES IDX 48 87 49 88 53 89 56 90 50 91 51 92 54 93 52 94
REMARK H PARENT 13 5 17 28 76 47 44 58
REMARK Flexibility Score: inf
ROOT
ATOM      1  C   UNL A   1      31.818  30.726  26.095  1.00  0.00     0.117 C 
ENDROOT
BRANCH   1   2
ATOM      2  N   UNL A   1      31.410  29.613  26.932  1.00  0.00    -0.354 N 
ATOM      3  C   UNL A   1      31.712  28.291  26.803  1.00  0.00     0.242 C 
ATOM      4  O   UNL A   1      31.127  27.496  27.546  1.00  0.00    -0.273 OA
ATOM      5  H   UNL A   1      30.836  29.845  27.696  1.00  0.00     0.163 HD
BRANCH   3   6
ATOM      6  C   UNL A   1      32.620  27.781  25.663  1.00  0.00     0.176 C 
ATOM      7  N   UNL A   1      31.941  27.307  24.428  1.00  0.00    -0.309 N 
ATOM      8  C   UNL A   1      32.798  26.573  23.474  1.00  0.00     0.091 C 
ATOM      9  C   UNL A   1      33.503  26.683  26.313  1.00  0.00     0.036 C 
ATOM     10  C   UNL A   1      33.562  25.410  24.119  1.00  0.00     0.012 C 
ATOM     11  C   UNL A   1      32.184  26.085  22.152  1.00  0.00     0.025 C 
ATOM     12  C   UNL A   1      34.358  25.898  25.329  1.00  0.00     0.008 C 
ATOM     13  C   UNL A   1      32.680  24.190  24.429  1.00  0.00     0.006 C 
ATOM     14  C   UNL A   1      31.455  24.740  22.217  1.00  0.00     0.002 C 
ATOM     15  C   UNL A   1      31.417  24.060  23.581  1.00  0.00     0.000 C 
BRANCH   7  16
ATOM     16  C   UNL A   1      30.647  27.633  24.064  1.00  0.00     0.320 C 
ATOM     17  O   UNL A   1      29.731  26.873  24.385  1.00  0.00    -0.248 OA
BRANCH  16  18
ATOM     18  N   UNL A   1      30.369  28.803  23.386  1.00  0.00    -0.325 N 
ATOM     19  C   UNL A   1      31.203  29.393  22.348  1.00  0.00     0.149 C 
BRANCH  18  20
ATOM     20  C   UNL A   1      29.005  29.392  23.509  1.00  0.00     0.083 C 
ATOM     21  C   UNL A   1      28.054  28.940  22.393  1.00  0.00     0.031 C 
BRANCH  20  22
ATOM     22  C   UNL A   1      29.074  30.929  23.672  1.00  0.00     0.021 C 
ATOM     23  C   UNL A   1      27.757  31.648  23.426  1.00  0.00     0.006 C 
ENDBRANCH  20  22
ENDBRANCH  18  20
ENDBRANCH  16  18
ENDBRANCH   7  16
ENDBRANCH   3   6
ENDBRANCH   1   2
BRANCH   1  24
ATOM     24  C   UNL A   1      31.506  32.060  26.737  1.00  0.00     0.042 C 
BRANCH  24  25
ATOM     25  C   UNL A   1      32.752  32.829  27.136  1.00  0.00     0.118 C 
BRANCH  25  26
ATOM     26  N   UNL A   1      32.458  34.169  27.623  1.00  0.00    -0.352 N 
ATOM     27  C   UNL A   1      33.024  34.870  28.657  1.00  0.00     0.251 C 
ATOM     28  H   UNL A   1      31.745  34.645  27.137  1.00  0.00     0.163 HD
ATOM     29  O   UNL A   1      32.531  35.926  29.032  1.00  0.00    -0.269 OA
BRANCH  27  30
ATOM     30  C   UNL A   1      34.218  34.328  29.337  1.00  0.00     0.039 A 
ATOM     31  C   UNL A   1      34.038  33.495  30.441  1.00  0.00     0.014 A 
ATOM     32  C   UNL A   1      35.505  34.627  28.881  1.00  0.00     0.014 A 
ATOM     33  C   UNL A   1      35.149  32.914  31.050  1.00  0.00     0.010 A 
ATOM     34  C   UNL A   1      36.600  33.963  29.419  1.00  0.00     0.010 A 
ATOM     35  C   UNL A   1      36.435  33.110  30.517  1.00  0.00    -0.014 A 
BRANCH  35  36
ATOM     36  C   UNL A   1      37.608  32.423  31.109  1.00  0.00     0.031 A 
ATOM     37  C   UNL A   1      38.101  32.797  32.478  1.00  0.00     0.074 A 
ATOM     38  C   UNL A   1      38.246  31.478  30.391  1.00  0.00     0.049 A 
ATOM     39  N   UNL A   1      39.090  32.288  33.167  1.00  0.00    -0.248 NA
ATOM     40  C   UNL A   1      37.412  33.908  33.154  1.00  0.00     0.031 C 
ATOM     41  C   UNL A   1      37.902  31.082  29.023  1.00  0.00     0.029 A 
ATOM     42  N   UNL A   1      39.310  30.675  30.711  1.00  0.00    -0.354 N 
ATOM     43  C   UNL A   1      39.140  33.014  34.350  1.00  0.00     0.074 A 
ATOM     44  C   UNL A   1      38.132  34.046  34.257  1.00  0.00     0.031 C 
ATOM     45  C   UNL A   1      38.707  30.079  28.641  1.00  0.00     0.029 A 
ATOM     46  C   UNL A   1      39.648  29.788  29.718  1.00  0.00     0.049 A 
ATOM     47  H   UNL A   1      39.786  30.728  31.572  1.00  0.00     0.167 HD
ATOM     48  C   UNL A   1      39.937  32.818  35.428  1.00  0.00     0.037 A 
ATOM     49  C   UNL A   1      40.606  28.844  29.684  1.00  0.00     0.037 A 
ATOM     50  C   UNL A   1      40.928  31.779  35.517  1.00  0.00     0.049 A 
ATOM     51  C   UNL A   1      41.476  28.648  30.896  1.00  0.00     0.074 A 
ATOM     52  C   UNL A   1      41.745  31.455  36.586  1.00  0.00     0.029 A 
ATOM     53  N   UNL A   1      41.243  30.897  34.492  1.00  0.00    -0.354 N 
ATOM     54  N   UNL A   1      41.455  29.282  32.042  1.00  0.00    -0.248 NA
ATOM     55  C   UNL A   1      42.497  27.596  30.809  1.00  0.00     0.031 C 
ATOM     56  C   UNL A   1      42.595  30.417  36.188  1.00  0.00     0.029 A 
ATOM     57  C   UNL A   1      42.265  30.050  34.893  1.00  0.00     0.049 A 
ATOM     58  H   UNL A   1      40.806  30.878  33.610  1.00  0.00     0.167 HD
ATOM     59  C   UNL A   1      42.440  28.692  32.822  1.00  0.00     0.074 A 
ATOM     60  C   UNL A   1      43.021  27.632  32.025  1.00  0.00     0.031 C 
ATOM     61  C   UNL A   1      42.834  29.004  34.083  1.00  0.00     0.037 A 
BRANCH  48  62
ATOM     62  C   UNL A   1      39.764  33.745  36.598  1.00  0.00     0.064 A 
ATOM     63  C   UNL A   1      40.421  34.985  36.660  1.00  0.00     0.173 A 
ATOM     64  C   UNL A   1      38.905  33.407  37.654  1.00  0.00     0.173 A 
ATOM     65  F   UNL A   1      41.265  35.352  35.683  1.00  0.00    -0.203 F 
ATOM     66  C   UNL A   1      40.247  35.837  37.747  1.00  0.00     0.198 A 
ATOM     67  C   UNL A   1      38.706  34.277  38.724  1.00  0.00     0.198 A 
ATOM     68  F   UNL A   1      38.249  32.237  37.647  1.00  0.00    -0.203 F 
ATOM     69  F   UNL A   1      40.926  36.991  37.808  1.00  0.00    -0.200 F 
ATOM     70  C   UNL A   1      39.384  35.487  38.774  1.00  0.00     0.200 A 
ATOM     71  F   UNL A   1      37.861  33.944  39.708  1.00  0.00    -0.200 F 
ATOM     72  F   UNL A   1      39.210  36.312  39.815  1.00  0.00    -0.200 F 
ENDBRANCH  48  62
BRANCH  49  73
ATOM     73  C   UNL A   1      40.770  27.994  28.475  1.00  0.00     0.064 A 
ATOM     74  C   UNL A   1      41.552  28.421  27.392  1.00  0.00     0.173 A 
ATOM     75  C   UNL A   1      40.147  26.741  28.374  1.00  0.00     0.173 A 
ATOM     76  F   UNL A   1      42.155  29.618  27.433  1.00  0.00    -0.203 F 
ATOM     77  C   UNL A   1      41.683  27.640  26.246  1.00  0.00     0.198 A 
ATOM     78  C   UNL A   1      40.307  25.946  27.241  1.00  0.00     0.198 A 
ATOM     79  F   UNL A   1      39.394  26.282  29.385  1.00  0.00    -0.203 F 
ATOM     80  F   UNL A   1      42.393  28.097  25.206  1.00  0.00    -0.200 F 
ATOM     81  C   UNL A   1      41.065  26.401  26.174  1.00  0.00     0.200 A 
ATOM     82  F   UNL A   1      39.722  24.742  27.184  1.00  0.00    -0.200 F 
ATOM     83  F   UNL A   1      41.194  25.648  25.073  1.00  0.00    -0.200 F 
ENDBRANCH  49  73
BRANCH  61  84
ATOM     84  C   UNL A   1      43.930  28.168  34.682  1.00  0.00     0.064 A 
ATOM     85  C   UNL A   1      45.282  28.520  34.549  1.00  0.00     0.173 A 
ATOM     86  C   UNL A   1      43.623  27.008  35.410  1.00  0.00     0.173 A 
ATOM     87  F   UNL A   1      45.631  29.610  33.851  1.00  0.00    -0.203 F 
ATOM     88  C   UNL A   1      46.286  27.719  35.089  1.00  0.00     0.198 A 
ATOM     89  C   UNL A   1      44.627  26.232  35.979  1.00  0.00     0.198 A 
ATOM     90  F   UNL A   1      42.345  26.630  35.575  1.00  0.00    -0.203 F 
ATOM     91  F   UNL A   1      47.573  28.040  34.892  1.00  0.00    -0.200 F 
ATOM     92  C   UNL A   1      45.958  26.580  35.808  1.00  0.00     0.200 A 
ATOM     93  F   UNL A   1      44.308  25.140  36.690  1.00  0.00    -0.200 F 
ATOM     94  F   UNL A   1      46.926  25.813  36.328  1.00  0.00    -0.200 F 
ENDBRANCH  61  84
ENDBRANCH  35  36
ENDBRANCH  27  30
ENDBRANCH  25  26
ENDBRANCH  24  25
ENDBRANCH   1  24
TORSDOF 14
ENDMDL
MODEL 2
REMARK VINA RESULT:     -12.0      0.634      7.218
REMARK SMILES CC[C@@H](C)N(C)C(=O)N1[C@@H](C(=O)NCCCNC(=O)c2ccc(-c3c4nc(c(-c5c(F)c(F)c(F)c(F)c5F)c5ccc([nH]5)c(-c5c(F)c(F)c(F)c(F)c5F)c5nc(c(-c6c(F)c(F)c(F)c(F)c6F)c6ccc3[nH]6)C=C5)C=C4)cc2)CC[C@H]2CCCC[C@H]21
REMARK SMILES IDX 14 1 13 2 11 3 12 4 10 6 9 7 90 8 83 9 85 10 89 11 84 12
REMARK SMILES IDX 86 13 88 14 87 15 7 16 8 17 5 18 6 19 3 20 4 21 2 22 1 23
REMARK SMILES IDX 15 24 16 25 17 26 18 27 19 29 20 30 21 31 82 32 22 33 81 34
REMARK SMILES IDX 23 35 24 36 25 37 75 38 26 39 80 40 74 41 76 42 27 43 79 44
REMARK SMILES IDX 73 45 72 46 28 48 60 49 40 50 59 51 41 52 44 53 58 54 77 55
REMARK SMILES IDX 42 56 43 57 57 59 78 60 45 61 29 62 30 63 38 64 31 65 32 66
REMARK SMILES IDX 36 67 39 68 33 69 34 70 37 71 35 72 61 73 62 74 70 75 63 76
REMARK SMILES IDX 64 77 68 78 71 79 65 80 66 81 69 82 67 83 46 84 47 85 55 86
REMARK SMILES IDX 48 87 49 88 53 89 56 90 50 91 51 92 54 93 52 94
REMARK H PARENT 13 5 17 28 76 47 44 58
REMARK Flexibility Score: inf
ROOT
ATOM      1  C   UNL A   1      31.783  30.811  25.996  1.00  0.00     0.117 C 
ENDROOT
BRANCH   1   2
ATOM      2  N   UNL A   1      31.410  29.731  26.891  1.00  0.00    -0.354 N 
ATOM      3  C   UNL A   1      31.731  28.410  26.816  1.00  0.00     0.242 C 
ATOM      4  O   UNL A   1      31.173  27.640  27.605  1.00  0.00    -0.273 OA
ATOM      5  H   UNL A   1      30.846  29.988  27.655  1.00  0.00     0.163 HD
BRANCH   3   6
ATOM      6  C   UNL A   1      32.624  27.862  25.681  1.00  0.00     0.176 C 
ATOM      7  N   UNL A   1      31.930  27.336  24.478  1.00  0.00    -0.309 N 
ATOM      8  C   UNL A   1      32.778  26.571  23.539  1.00  0.00     0.091 C 
ATOM      9  C   UNL A   1      33.526  26.797  26.359  1.00  0.00     0.036 C 
ATOM     10  C   UNL A   1      33.562  25.440  24.216  1.00  0.00     0.012 C 
ATOM     11  C   UNL A   1      32.148  26.027  22.247  1.00  0.00     0.025 C 
ATOM     12  C   UNL A   1      34.373  25.982  25.394  1.00  0.00     0.008 C 
ATOM     13  C   UNL A   1      32.696  24.226  24.588  1.00  0.00     0.006 C 
ATOM     14  C   UNL A   1      31.431  24.679  22.376  1.00  0.00     0.002 C 
ATOM     15  C   UNL A   1      31.420  24.053  23.766  1.00  0.00     0.000 C 
BRANCH   7  16
ATOM     16  C   UNL A   1      30.628  27.636  24.121  1.00  0.00     0.320 C 
ATOM     17  O   UNL A   1      29.725  26.878  24.479  1.00  0.00    -0.248 OA
BRANCH  16  18
ATOM     18  N   UNL A   1      30.328  28.782  23.411  1.00  0.00    -0.325 N 
ATOM     19  C   UNL A   1      31.152  29.359  22.358  1.00  0.00     0.149 C 
BRANCH  18  20
ATOM     20  C   UNL A   1      28.953  29.347  23.517  1.00  0.00     0.083 C 
ATOM     21  C   UNL A   1      28.028  28.891  22.381  1.00  0.00     0.031 C 
BRANCH  20  22
ATOM     22  C   UNL A   1      28.994  30.884  23.696  1.00  0.00     0.021 C 
ATOM     23  C   UNL A   1      27.654  31.577  23.501  1.00  0.00     0.006 C 
ENDBRANCH  20  22
ENDBRANCH  18  20
ENDBRANCH  16  18
ENDBRANCH   7  16
ENDBRANCH   3   6
ENDBRANCH   1   2
BRANCH   1  24
ATOM     24  C   UNL A   1      31.462  32.168  26.584  1.00  0.00     0.042 C 
BRANCH  24  25
ATOM     25  C   UNL A   1      32.656  32.816  27.260  1.00  0.00     0.118 C 
BRANCH  25  26
ATOM     26  N   UNL A   1      32.416  34.204  27.625  1.00  0.00    -0.352 N 
ATOM     27  C   UNL A   1      32.981  34.958  28.622  1.00  0.00     0.251 C 
ATOM     28  H   UNL A   1      31.747  34.673  27.075  1.00  0.00     0.163 HD
ATOM     29  O   UNL A   1      32.530  36.064  28.892  1.00  0.00    -0.269 OA
BRANCH  27  30
ATOM     30  C   UNL A   1      34.119  34.416  29.391  1.00  0.00     0.039 A 
ATOM     31  C   UNL A   1      33.861  33.760  30.595  1.00  0.00     0.014 A 
ATOM     32  C   UNL A   1      35.430  34.539  28.921  1.00  0.00     0.014 A 
ATOM     33  C   UNL A   1      34.914  33.176  31.297  1.00  0.00     0.010 A 
ATOM     34  C   UNL A   1      36.460  33.864  29.564  1.00  0.00     0.010 A 
ATOM     35  C   UNL A   1      36.216  33.188  30.765  1.00  0.00    -0.014 A 
BRANCH  35  36
ATOM     36  C   UNL A   1      37.321  32.491  31.465  1.00  0.00     0.031 A 
ATOM     37  C   UNL A   1      38.036  31.344  30.809  1.00  0.00     0.074 A 
ATOM     38  C   UNL A   1      37.657  32.879  32.711  1.00  0.00     0.049 A 
ATOM     39  N   UNL A   1      39.043  30.635  31.254  1.00  0.00    -0.248 NA
ATOM     40  C   UNL A   1      37.543  30.917  29.490  1.00  0.00     0.031 C 
ATOM     41  C   UNL A   1      36.986  33.932  33.476  1.00  0.00     0.029 A 
ATOM     42  N   UNL A   1      38.649  32.440  33.550  1.00  0.00    -0.354 N 
ATOM     43  C   UNL A   1      39.297  29.683  30.276  1.00  0.00     0.074 A 
ATOM     44  C   UNL A   1      38.297  29.857  29.246  1.00  0.00     0.031 C 
ATOM     45  C   UNL A   1      37.616  34.091  34.651  1.00  0.00     0.029 A 
ATOM     46  C   UNL A   1      38.707  33.126  34.738  1.00  0.00     0.049 A 
ATOM     47  H   UNL A   1      39.262  31.704  33.321  1.00  0.00     0.167 HD
ATOM     48  C   UNL A   1      40.294  28.768  30.227  1.00  0.00     0.037 A 
ATOM     49  C   UNL A   1      39.550  32.994  35.778  1.00  0.00     0.037 A 
ATOM     50  C   UNL A   1      41.293  28.612  31.250  1.00  0.00     0.049 A 
ATOM     51  C   UNL A   1      40.648  31.968  35.698  1.00  0.00     0.074 A 
ATOM     52  C   UNL A   1      42.381  27.757  31.271  1.00  0.00     0.029 A 
ATOM     53  N   UNL A   1      41.322  29.324  32.442  1.00  0.00    -0.354 N 
ATOM     54  N   UNL A   1      40.934  31.134  34.728  1.00  0.00    -0.248 NA
ATOM     55  C   UNL A   1      41.547  31.874  36.855  1.00  0.00     0.031 C 
ATOM     56  C   UNL A   1      43.034  27.910  32.500  1.00  0.00     0.029 A 
ATOM     57  C   UNL A   1      42.392  28.906  33.218  1.00  0.00     0.049 A 
ATOM     58  H   UNL A   1      40.678  30.023  32.697  1.00  0.00     0.167 HD
ATOM     59  C   UNL A   1      42.057  30.434  35.145  1.00  0.00     0.074 A 
ATOM     60  C   UNL A   1      42.415  30.961  36.446  1.00  0.00     0.031 C 
ATOM     61  C   UNL A   1      42.729  29.439  34.513  1.00  0.00     0.037 A 
BRANCH  48  62
ATOM     62  C   UNL A   1      40.352  27.866  29.026  1.00  0.00     0.064 A 
ATOM     63  C   UNL A   1      41.126  28.187  27.899  1.00  0.00     0.173 A 
ATOM     64  C   UNL A   1      39.655  26.648  29.015  1.00  0.00     0.173 A 
ATOM     65  F   UNL A   1      41.802  29.345  27.851  1.00  0.00    -0.203 F 
ATOM     66  C   UNL A   1      41.176  27.338  26.796  1.00  0.00     0.198 A 
ATOM     67  C   UNL A   1      39.736  25.786  27.924  1.00  0.00     0.198 A 
ATOM     68  F   UNL A   1      38.903  26.288  30.065  1.00  0.00    -0.203 F 
ATOM     69  F   UNL A   1      41.879  27.693  25.711  1.00  0.00    -0.200 F 
ATOM     70  C   UNL A   1      40.488  26.135  26.813  1.00  0.00     0.200 A 
ATOM     71  F   UNL A   1      39.082  24.616  27.948  1.00  0.00    -0.200 F 
ATOM     72  F   UNL A   1      40.545  25.315  25.755  1.00  0.00    -0.200 F 
ENDBRANCH  48  62
BRANCH  49  73
ATOM     73  C   UNL A   1      39.408  33.874  36.968  1.00  0.00     0.064 A 
ATOM     74  C   UNL A   1      39.999  35.145  37.002  1.00  0.00     0.173 A 
ATOM     75  C   UNL A   1      38.684  33.463  38.097  1.00  0.00     0.173 A 
ATOM     76  F   UNL A   1      40.716  35.578  35.954  1.00  0.00    -0.203 F 
ATOM     77  C   UNL A   1      39.893  35.959  38.127  1.00  0.00     0.198 A 
ATOM     78  C   UNL A   1      38.551  34.292  39.209  1.00  0.00     0.198 A 
ATOM     79  F   UNL A   1      38.093  32.258  38.114  1.00  0.00    -0.203 F 
ATOM     80  F   UNL A   1      40.512  37.148  38.151  1.00  0.00    -0.200 F 
ATOM     81  C   UNL A   1      39.164  35.534  39.227  1.00  0.00     0.200 A 
ATOM     82  F   UNL A   1      37.831  33.883  40.262  1.00  0.00    -0.200 F 
ATOM     83  F   UNL A   1      39.059  36.320  40.308  1.00  0.00    -0.200 F 
ENDBRANCH  49  73
BRANCH  61  84
ATOM     84  C   UNL A   1      43.934  28.877  35.214  1.00  0.00     0.064 A 
ATOM     85  C   UNL A   1      45.220  29.398  35.002  1.00  0.00     0.173 A 
ATOM     86  C   UNL A   1      43.798  27.813  36.119  1.00  0.00     0.173 A 
ATOM     87  F   UNL A   1      45.407  30.405  34.136  1.00  0.00    -0.203 F 
ATOM     88  C   UNL A   1      46.329  28.847  35.640  1.00  0.00     0.198 A 
ATOM     89  C   UNL A   1      44.904  27.290  36.783  1.00  0.00     0.198 A 
ATOM     90  F   UNL A   1      42.589  27.283  36.365  1.00  0.00    -0.203 F 
ATOM     91  F   UNL A   1      47.555  29.318  35.372  1.00  0.00    -0.200 F 
ATOM     92  C   UNL A   1      46.169  27.799  36.534  1.00  0.00     0.200 A 
ATOM     93  F   UNL A   1      44.745  26.289  37.660  1.00  0.00    -0.200 F 
ATOM     94  F   UNL A   1      47.237  27.272  37.148  1.00  0.00    -0.200 F 
ENDBRANCH  61  84
ENDBRANCH  35  36
ENDBRANCH  27  30
ENDBRANCH  25  26
ENDBRANCH  24  25
ENDBRANCH   1  24
TORSDOF 14
ENDMDL
MODEL 3
REMARK VINA RESULT:     -11.6      4.924     10.375
REMARK SMILES CC[C@@H](C)N(C)C(=O)N1[C@@H](C(=O)NCCCNC(=O)c2ccc(-c3c4nc(c(-c5c(F)c(F)c(F)c(F)c5F)c5ccc([nH]5)c(-c5c(F)c(F)c(F)c(F)c5F)c5nc(c(-c6c(F)c(F)c(F)c(F)c6F)c6ccc3[nH]6)C=C5)C=C4)cc2)CC[C@H]2CCCC[C@H]21
REMARK SMILES IDX 14 1 13 2 11 3 12 4 10 6 9 7 90 8 83 9 85 10 89 11 84 12
REMARK SMILES IDX 86 13 88 14 87 15 7 16 8 17 5 18 6 19 3 20 4 21 2 22 1 23
REMARK SMILES IDX 15 24 16 25 17 26 18 27 19 29 20 30 21 31 82 32 22 33 81 34
REMARK SMILES IDX 23 35 24 36 25 37 75 38 26 39 80 40 74 41 76 42 27 43 79 44
REMARK SMILES IDX 73 45 72 46 28 48 60 49 40 50 59 51 41 52 44 53 58 54 77 55
REMARK SMILES IDX 42 56 43 57 57 59 78 60 45 61 29 62 30 63 38 64 31 65 32 66
REMARK SMILES IDX 36 67 39 68 33 69 34 70 37 71 35 72 61 73 62 74 70 75 63 76
REMARK SMILES IDX 64 77 68 78 71 79 65 80 66 81 69 82 67 83 46 84 47 85 55 86
REMARK SMILES IDX 48 87 49 88 53 89 56 90 50 91 51 92 54 93 52 94
REMARK H PARENT 13 5 17 28 76 47 44 58
REMARK Flexibility Score: inf
ROOT
ATOM      1  C   UNL A   1      35.780  23.226  25.683  1.00  0.00     0.117 C 
ENDROOT
BRANCH   1   2
ATOM      2  N   UNL A   1      35.498  23.731  24.353  1.00  0.00    -0.354 N 
ATOM      3  C   UNL A   1      34.574  24.655  23.968  1.00  0.00     0.242 C 
ATOM      4  O   UNL A   1      34.403  24.822  22.756  1.00  0.00    -0.273 OA
ATOM      5  H   UNL A   1      36.047  23.354  23.630  1.00  0.00     0.163 HD
BRANCH   3   6
ATOM      6  C   UNL A   1      33.653  25.348  24.995  1.00  0.00     0.176 C 
ATOM      7  N   UNL A   1      32.198  25.063  24.888  1.00  0.00    -0.309 N 
ATOM      8  C   UNL A   1      31.318  25.941  25.689  1.00  0.00     0.091 C 
ATOM      9  C   UNL A   1      33.972  26.861  24.866  1.00  0.00     0.036 C 
ATOM     10  C   UNL A   1      31.569  27.434  25.445  1.00  0.00     0.012 C 
ATOM     11  C   UNL A   1      29.802  25.687  25.668  1.00  0.00     0.025 C 
ATOM     12  C   UNL A   1      33.045  27.771  25.658  1.00  0.00     0.008 C 
ATOM     13  C   UNL A   1      31.025  27.938  24.098  1.00  0.00     0.006 C 
ATOM     14  C   UNL A   1      29.039  26.328  24.504  1.00  0.00     0.002 C 
ATOM     15  C   UNL A   1      29.876  27.123  23.508  1.00  0.00     0.000 C 
BRANCH   7  16
ATOM     16  C   UNL A   1      31.652  23.975  24.233  1.00  0.00     0.320 C 
ATOM     17  O   UNL A   1      31.164  24.140  23.112  1.00  0.00    -0.248 OA
BRANCH  16  18
ATOM     18  N   UNL A   1      31.681  22.714  24.794  1.00  0.00    -0.325 N 
ATOM     19  C   UNL A   1      30.720  22.202  25.762  1.00  0.00     0.149 C 
BRANCH  18  20
ATOM     20  C   UNL A   1      32.585  21.689  24.201  1.00  0.00     0.083 C 
ATOM     21  C   UNL A   1      32.153  21.251  22.795  1.00  0.00     0.031 C 
BRANCH  20  22
ATOM     22  C   UNL A   1      32.800  20.505  25.173  1.00  0.00     0.021 C 
ATOM     23  C   UNL A   1      33.682  19.392  24.627  1.00  0.00     0.006 C 
ENDBRANCH  20  22
ENDBRANCH  18  20
ENDBRANCH  16  18
ENDBRANCH   7  16
ENDBRANCH   3   6
ENDBRANCH   1   2
BRANCH   1  24
ATOM     24  C   UNL A   1      36.360  21.829  25.646  1.00  0.00     0.042 C 
BRANCH  24  25
ATOM     25  C   UNL A   1      37.778  21.794  25.105  1.00  0.00     0.118 C 
BRANCH  25  26
ATOM     26  N   UNL A   1      38.605  20.785  25.751  1.00  0.00    -0.352 N 
ATOM     27  C   UNL A   1      39.746  20.934  26.497  1.00  0.00     0.251 C 
ATOM     28  H   UNL A   1      38.300  19.855  25.634  1.00  0.00     0.163 HD
ATOM     29  O   UNL A   1      40.406  19.954  26.820  1.00  0.00    -0.269 OA
BRANCH  27  30
ATOM     30  C   UNL A   1      40.191  22.287  26.886  1.00  0.00     0.039 A 
ATOM     31  C   UNL A   1      41.143  22.413  27.898  1.00  0.00     0.014 A 
ATOM     32  C   UNL A   1      39.686  23.424  26.248  1.00  0.00     0.014 A 
ATOM     33  C   UNL A   1      41.631  23.676  28.227  1.00  0.00     0.010 A 
ATOM     34  C   UNL A   1      40.252  24.667  26.500  1.00  0.00     0.010 A 
ATOM     35  C   UNL A   1      41.220  24.808  27.502  1.00  0.00    -0.014 A 
BRANCH  35  36
ATOM     36  C   UNL A   1      41.804  26.140  27.791  1.00  0.00     0.031 A 
ATOM     37  C   UNL A   1      43.185  26.486  27.312  1.00  0.00     0.074 A 
ATOM     38  C   UNL A   1      41.092  27.026  28.515  1.00  0.00     0.049 A 
ATOM     39  N   UNL A   1      43.848  27.608  27.444  1.00  0.00    -0.248 NA
ATOM     40  C   UNL A   1      43.935  25.429  26.616  1.00  0.00     0.031 C 
ATOM     41  C   UNL A   1      39.771  26.774  29.094  1.00  0.00     0.029 A 
ATOM     42  N   UNL A   1      41.375  28.316  28.881  1.00  0.00    -0.354 N 
ATOM     43  C   UNL A   1      45.084  27.388  26.852  1.00  0.00     0.074 A 
ATOM     44  C   UNL A   1      45.111  26.008  26.424  1.00  0.00     0.031 C 
ATOM     45  C   UNL A   1      39.337  27.890  29.700  1.00  0.00     0.029 A 
ATOM     46  C   UNL A   1      40.363  28.921  29.588  1.00  0.00     0.049 A 
ATOM     47  H   UNL A   1      42.222  28.767  28.658  1.00  0.00     0.167 HD
ATOM     48  C   UNL A   1      46.095  28.268  26.657  1.00  0.00     0.037 A 
ATOM     49  C   UNL A   1      40.275  30.168  30.083  1.00  0.00     0.037 A 
ATOM     50  C   UNL A   1      46.055  29.645  27.074  1.00  0.00     0.049 A 
ATOM     51  C   UNL A   1      41.413  31.125  29.852  1.00  0.00     0.074 A 
ATOM     52  C   UNL A   1      46.999  30.636  26.871  1.00  0.00     0.029 A 
ATOM     53  N   UNL A   1      45.014  30.225  27.787  1.00  0.00    -0.354 N 
ATOM     54  N   UNL A   1      42.541  30.933  29.213  1.00  0.00    -0.248 NA
ATOM     55  C   UNL A   1      41.258  32.477  30.404  1.00  0.00     0.031 C 
ATOM     56  C   UNL A   1      46.556  31.799  27.512  1.00  0.00     0.029 A 
ATOM     57  C   UNL A   1      45.307  31.552  28.059  1.00  0.00     0.049 A 
ATOM     58  H   UNL A   1      44.190  29.760  28.059  1.00  0.00     0.167 HD
ATOM     59  C   UNL A   1      43.220  32.142  29.264  1.00  0.00     0.074 A 
ATOM     60  C   UNL A   1      42.363  33.069  29.975  1.00  0.00     0.031 C 
ATOM     61  C   UNL A   1      44.444  32.457  28.773  1.00  0.00     0.037 A 
BRANCH  48  62
ATOM     62  C   UNL A   1      47.329  27.768  25.959  1.00  0.00     0.064 A 
ATOM     63  C   UNL A   1      48.432  27.275  26.675  1.00  0.00     0.173 A 
ATOM     64  C   UNL A   1      47.397  27.747  24.558  1.00  0.00     0.173 A 
ATOM     65  F   UNL A   1      48.427  27.284  28.016  1.00  0.00    -0.203 F 
ATOM     66  C   UNL A   1      49.566  26.808  26.015  1.00  0.00     0.198 A 
ATOM     67  C   UNL A   1      48.518  27.247  23.901  1.00  0.00     0.198 A 
ATOM     68  F   UNL A   1      46.371  28.203  23.824  1.00  0.00    -0.203 F 
ATOM     69  F   UNL A   1      50.627  26.392  26.720  1.00  0.00    -0.200 F 
ATOM     70  C   UNL A   1      49.605  26.787  24.629  1.00  0.00     0.200 A 
ATOM     71  F   UNL A   1      48.548  27.214  22.562  1.00  0.00    -0.200 F 
ATOM     72  F   UNL A   1      50.693  26.328  23.995  1.00  0.00    -0.200 F 
ENDBRANCH  48  62
BRANCH  49  73
ATOM     73  C   UNL A   1      39.054  30.592  30.819  1.00  0.00     0.064 A 
ATOM     74  C   UNL A   1      38.966  30.458  32.212  1.00  0.00     0.173 A 
ATOM     75  C   UNL A   1      37.948  31.133  30.146  1.00  0.00     0.173 A 
ATOM     76  F   UNL A   1      39.989  29.930  32.899  1.00  0.00    -0.203 F 
ATOM     77  C   UNL A   1      37.811  30.826  32.899  1.00  0.00     0.198 A 
ATOM     78  C   UNL A   1      36.807  31.532  30.838  1.00  0.00     0.198 A 
ATOM     79  F   UNL A   1      37.983  31.289  28.813  1.00  0.00    -0.203 F 
ATOM     80  F   UNL A   1      37.735  30.638  34.224  1.00  0.00    -0.200 F 
ATOM     81  C   UNL A   1      36.735  31.368  32.212  1.00  0.00     0.200 A 
ATOM     82  F   UNL A   1      35.777  32.071  30.172  1.00  0.00    -0.200 F 
ATOM     83  F   UNL A   1      35.626  31.724  32.875  1.00  0.00    -0.200 F 
ENDBRANCH  49  73
BRANCH  61  84
ATOM     84  C   UNL A   1      44.915  33.871  28.969  1.00  0.00     0.064 A 
ATOM     85  C   UNL A   1      44.610  34.885  28.049  1.00  0.00     0.173 A 
ATOM     86  C   UNL A   1      45.670  34.218  30.101  1.00  0.00     0.173 A 
ATOM     87  F   UNL A   1      43.904  34.603  26.943  1.00  0.00    -0.203 F 
ATOM     88  C   UNL A   1      45.077  36.184  28.233  1.00  0.00     0.198 A 
ATOM     89  C   UNL A   1      46.102  35.526  30.300  1.00  0.00     0.198 A 
ATOM     90  F   UNL A   1      45.982  33.289  31.018  1.00  0.00    -0.203 F 
ATOM     91  F   UNL A   1      44.828  37.120  27.307  1.00  0.00    -0.200 F 
ATOM     92  C   UNL A   1      45.817  36.505  29.361  1.00  0.00     0.200 A 
ATOM     93  F   UNL A   1      46.802  35.838  31.400  1.00  0.00    -0.200 F 
ATOM     94  F   UNL A   1      46.263  37.756  29.538  1.00  0.00    -0.200 F 
ENDBRANCH  61  84
ENDBRANCH  35  36
ENDBRANCH  27  30
ENDBRANCH  25  26
ENDBRANCH  24  25
ENDBRANCH   1  24
TORSDOF 14
ENDMDL
