MODEL 1
REMARK VINA RESULT:     -12.4      0.000      0.000
REMARK SMILES CCc1nn(-c2ccncn2)c(Cl)c1C(=O)NCCCNC(=O)c1ccc(-c2c3nc(c(-c4c(F)c(F)c(F)c(F)c4F)c4ccc([nH]4)c(-c4c(F)c(F)c(F)c(F)c4F)c4nc(c(-c5c(F)c(F)c(F)c(F)c5F)c5ccc2[nH]5)C=C4)C=C3)cc1
REMARK SMILES IDX 19 1 18 2 17 3 15 4 16 5 14 7 3 8 4 9 5 10 12 11 13 12 2 13
REMARK SMILES IDX 1 14 6 15 7 16 11 17 8 18 10 19 9 20 20 21 21 22 22 23 23 25
REMARK SMILES IDX 24 26 25 27 86 28 26 29 85 30 27 31 28 32 29 33 79 34 30 35
REMARK SMILES IDX 84 36 78 37 80 38 31 39 83 40 77 41 76 42 32 44 64 45 44 46
REMARK SMILES IDX 63 47 45 48 48 49 62 50 81 51 46 52 47 53 61 55 82 56 49 57
REMARK SMILES IDX 33 58 34 59 42 60 35 61 36 62 40 63 43 64 37 65 38 66 41 67
REMARK SMILES IDX 39 68 65 69 66 70 74 71 67 72 68 73 72 74 75 75 69 76 70 77
REMARK SMILES IDX 73 78 71 79 50 80 51 81 59 82 52 83 53 84 57 85 60 86 54 87
REMARK SMILES IDX 55 88 58 89 56 90
REMARK H PARENT 17 6 21 24 80 43 48 54
REMARK Flexibility Score: inf
ROOT
ATOM      1  C   UNL A   1      45.363  38.689  27.068  1.00  0.00     0.042 C 
ENDROOT
BRANCH   1   2
ATOM      2  C   UNL A   1      46.254  39.935  27.146  1.00  0.00     0.118 C 
BRANCH   2   3
ATOM      3  N   UNL A   1      45.586  41.033  27.802  1.00  0.00    -0.352 N 
ATOM      4  C   UNL A   1      44.485  41.800  27.544  1.00  0.00     0.256 C 
ATOM      5  O   UNL A   1      44.294  42.652  28.418  1.00  0.00    -0.269 OA
ATOM      6  H   UNL A   1      46.032  41.293  28.640  1.00  0.00     0.163 HD
BRANCH   4   7
ATOM      7  C   UNL A   1      43.584  41.686  26.391  1.00  0.00     0.100 A 
ATOM      8  C   UNL A   1      42.395  40.952  26.035  1.00  0.00     0.077 A 
ATOM      9  N   UNL A   1      41.935  41.277  24.818  1.00  0.00    -0.169 NA
ATOM     10  N   UNL A   1      42.864  42.109  24.293  1.00  0.00    -0.203 N 
ATOM     11  C   UNL A   1      43.806  42.431  25.238  1.00  0.00     0.147 A 
ATOM     12  Cl  UNL A   1      44.905  43.726  24.947  1.00  0.00    -0.061 Cl
BRANCH   8  13
ATOM     13  C   UNL A   1      41.622  39.929  26.802  1.00  0.00     0.056 C 
ATOM     14  C   UNL A   1      41.946  39.703  28.268  1.00  0.00     0.011 C 
ENDBRANCH   8  13
BRANCH  10  15
ATOM     15  C   UNL A   1      42.770  42.531  22.932  1.00  0.00     0.158 A 
ATOM     16  C   UNL A   1      41.556  42.982  22.444  1.00  0.00     0.069 A 
ATOM     17  N   UNL A   1      43.882  42.450  22.164  1.00  0.00    -0.217 NA
ATOM     18  C   UNL A   1      41.520  43.279  21.102  1.00  0.00     0.117 A 
ATOM     19  C   UNL A   1      43.718  42.741  20.867  1.00  0.00     0.224 A 
ATOM     20  N   UNL A   1      42.579  43.149  20.287  1.00  0.00    -0.245 NA
ENDBRANCH  10  15
ENDBRANCH   4   7
ENDBRANCH   2   3
ENDBRANCH   1   2
BRANCH   1  21
ATOM     21  C   UNL A   1      46.148  37.398  27.112  1.00  0.00     0.118 C 
BRANCH  21  22
ATOM     22  N   UNL A   1      45.678  36.451  26.094  1.00  0.00    -0.352 N 
ATOM     23  C   UNL A   1      44.880  35.330  26.247  1.00  0.00     0.251 C 
ATOM     24  H   UNL A   1      45.973  36.639  25.173  1.00  0.00     0.163 HD
ATOM     25  O   UNL A   1      44.857  34.449  25.410  1.00  0.00    -0.269 OA
BRANCH  23  26
ATOM     26  C   UNL A   1      44.056  35.245  27.462  1.00  0.00     0.039 A 
ATOM     27  C   UNL A   1      42.956  36.073  27.676  1.00  0.00     0.014 A 
ATOM     28  C   UNL A   1      44.359  34.210  28.337  1.00  0.00     0.014 A 
ATOM     29  C   UNL A   1      42.122  35.781  28.749  1.00  0.00     0.010 A 
ATOM     30  C   UNL A   1      43.385  33.752  29.170  1.00  0.00     0.010 A 
ATOM     31  C   UNL A   1      42.332  34.591  29.473  1.00  0.00    -0.014 A 
BRANCH  31  32
ATOM     32  C   UNL A   1      41.407  34.130  30.494  1.00  0.00     0.031 A 
ATOM     33  C   UNL A   1      42.045  34.007  31.820  1.00  0.00     0.074 A 
ATOM     34  C   UNL A   1      40.074  34.012  30.303  1.00  0.00     0.049 A 
ATOM     35  N   UNL A   1      42.517  32.927  32.343  1.00  0.00    -0.248 NA
ATOM     36  C   UNL A   1      42.406  35.229  32.557  1.00  0.00     0.031 C 
ATOM     37  C   UNL A   1      39.273  34.455  29.150  1.00  0.00     0.029 A 
ATOM     38  N   UNL A   1      39.123  33.516  31.146  1.00  0.00    -0.354 N 
ATOM     39  C   UNL A   1      42.952  33.292  33.610  1.00  0.00     0.074 A 
ATOM     40  C   UNL A   1      43.104  34.721  33.578  1.00  0.00     0.031 C 
ATOM     41  C   UNL A   1      37.957  34.413  29.456  1.00  0.00     0.029 A 
ATOM     42  C   UNL A   1      37.811  33.751  30.736  1.00  0.00     0.049 A 
ATOM     43  H   UNL A   1      39.344  33.032  31.973  1.00  0.00     0.167 HD
ATOM     44  C   UNL A   1      42.774  32.424  34.645  1.00  0.00     0.037 A 
ATOM     45  C   UNL A   1      36.683  33.389  31.394  1.00  0.00     0.037 A 
ATOM     46  C   UNL A   1      42.379  31.130  34.134  1.00  0.00     0.049 A 
ATOM     47  C   UNL A   1      37.046  32.272  32.294  1.00  0.00     0.074 A 
ATOM     48  C   UNL A   1      42.988  30.061  33.517  1.00  0.00     0.029 A 
ATOM     49  N   UNL A   1      41.039  31.047  33.861  1.00  0.00    -0.354 N 
ATOM     50  N   UNL A   1      37.417  31.099  31.858  1.00  0.00    -0.248 NA
ATOM     51  C   UNL A   1      37.373  32.559  33.686  1.00  0.00     0.031 C 
ATOM     52  C   UNL A   1      41.971  29.395  32.766  1.00  0.00     0.029 A 
ATOM     53  C   UNL A   1      40.754  30.033  32.988  1.00  0.00     0.049 A 
ATOM     54  H   UNL A   1      40.360  31.647  34.246  1.00  0.00     0.167 HD
ATOM     55  C   UNL A   1      38.380  30.695  32.759  1.00  0.00     0.074 A 
ATOM     56  C   UNL A   1      38.185  31.528  33.939  1.00  0.00     0.031 C 
ATOM     57  C   UNL A   1      39.462  29.976  32.344  1.00  0.00     0.037 A 
BRANCH  44  58
ATOM     58  C   UNL A   1      42.417  32.811  36.066  1.00  0.00     0.064 A 
ATOM     59  C   UNL A   1      43.174  32.256  37.121  1.00  0.00     0.173 A 
ATOM     60  C   UNL A   1      41.205  33.420  36.454  1.00  0.00     0.173 A 
ATOM     61  F   UNL A   1      44.340  31.638  36.874  1.00  0.00    -0.203 F 
ATOM     62  C   UNL A   1      42.713  32.244  38.441  1.00  0.00     0.198 A 
ATOM     63  C   UNL A   1      40.771  33.449  37.778  1.00  0.00     0.198 A 
ATOM     64  F   UNL A   1      40.334  33.916  35.570  1.00  0.00    -0.203 F 
ATOM     65  F   UNL A   1      43.412  31.600  39.385  1.00  0.00    -0.200 F 
ATOM     66  C   UNL A   1      41.508  32.835  38.768  1.00  0.00     0.200 A 
ATOM     67  F   UNL A   1      39.586  34.006  38.069  1.00  0.00    -0.200 F 
ATOM     68  F   UNL A   1      41.034  32.775  40.018  1.00  0.00    -0.200 F 
ENDBRANCH  44  58
BRANCH  45  69
ATOM     69  C   UNL A   1      35.376  34.077  31.492  1.00  0.00     0.064 A 
ATOM     70  C   UNL A   1      35.128  35.036  32.487  1.00  0.00     0.173 A 
ATOM     71  C   UNL A   1      34.474  34.040  30.413  1.00  0.00     0.173 A 
ATOM     72  F   UNL A   1      35.963  35.157  33.529  1.00  0.00    -0.203 F 
ATOM     73  C   UNL A   1      34.066  35.941  32.384  1.00  0.00     0.198 A 
ATOM     74  C   UNL A   1      33.417  34.946  30.309  1.00  0.00     0.198 A 
ATOM     75  F   UNL A   1      34.673  33.198  29.388  1.00  0.00    -0.203 F 
ATOM     76  F   UNL A   1      33.903  36.891  33.316  1.00  0.00    -0.200 F 
ATOM     77  C   UNL A   1      33.223  35.907  31.286  1.00  0.00     0.200 A 
ATOM     78  F   UNL A   1      32.633  34.933  29.221  1.00  0.00    -0.200 F 
ATOM     79  F   UNL A   1      32.256  36.824  31.145  1.00  0.00    -0.200 F 
ENDBRANCH  45  69
BRANCH  57  80
ATOM     80  C   UNL A   1      39.323  29.185  31.083  1.00  0.00     0.064 A 
ATOM     81  C   UNL A   1      39.601  29.669  29.794  1.00  0.00     0.173 A 
ATOM     82  C   UNL A   1      38.944  27.842  31.203  1.00  0.00     0.173 A 
ATOM     83  F   UNL A   1      40.031  30.923  29.606  1.00  0.00    -0.203 F 
ATOM     84  C   UNL A   1      39.471  28.846  28.675  1.00  0.00     0.198 A 
ATOM     85  C   UNL A   1      38.848  27.015  30.091  1.00  0.00     0.198 A 
ATOM     86  F   UNL A   1      38.698  27.322  32.416  1.00  0.00    -0.203 F 
ATOM     87  F   UNL A   1      39.725  29.330  27.450  1.00  0.00    -0.200 F 
ATOM     88  C   UNL A   1      39.101  27.519  28.826  1.00  0.00     0.200 A 
ATOM     89  F   UNL A   1      38.526  25.724  30.249  1.00  0.00    -0.200 F 
ATOM     90  F   UNL A   1      39.005  26.718  27.755  1.00  0.00    -0.200 F 
ENDBRANCH  57  80
ENDBRANCH  31  32
ENDBRANCH  23  26
ENDBRANCH  21  22
ENDBRANCH   1  21
TORSDOF 12
ENDMDL
MODEL 2
REMARK VINA RESULT:     -12.2      5.684     10.400
REMARK SMILES CCc1nn(-c2ccncn2)c(Cl)c1C(=O)NCCCNC(=O)c1ccc(-c2c3nc(c(-c4c(F)c(F)c(F)c(F)c4F)c4ccc([nH]4)c(-c4c(F)c(F)c(F)c(F)c4F)c4nc(c(-c5c(F)c(F)c(F)c(F)c5F)c5ccc2[nH]5)C=C4)C=C3)cc1
REMARK SMILES IDX 19 1 18 2 17 3 15 4 16 5 14 7 3 8 4 9 5 10 12 11 13 12 2 13
REMARK SMILES IDX 1 14 6 15 7 16 11 17 8 18 10 19 9 20 20 21 21 22 22 23 23 25
REMARK SMILES IDX 24 26 25 27 86 28 26 29 85 30 27 31 28 32 29 33 79 34 30 35
REMARK SMILES IDX 84 36 78 37 80 38 31 39 83 40 77 41 76 42 32 44 64 45 44 46
REMARK SMILES IDX 63 47 45 48 48 49 62 50 81 51 46 52 47 53 61 55 82 56 49 57
REMARK SMILES IDX 33 58 34 59 42 60 35 61 36 62 40 63 43 64 37 65 38 66 41 67
REMARK SMILES IDX 39 68 65 69 66 70 74 71 67 72 68 73 72 74 75 75 69 76 70 77
REMARK SMILES IDX 73 78 71 79 50 80 51 81 59 82 52 83 53 84 57 85 60 86 54 87
REMARK SMILES IDX 55 88 58 89 56 90
REMARK H PARENT 17 6 21 24 80 43 48 54
REMARK Flexibility Score: inf
ROOT
ATOM      1  C   UNL A   1      43.081  24.193  24.898  1.00  0.00     0.042 C 
ENDROOT
BRANCH   1   2
ATOM      2  C   UNL A   1      42.884  25.653  25.326  1.00  0.00     0.118 C 
BRANCH   2   3
ATOM      3  N   UNL A   1      43.758  26.016  26.415  1.00  0.00    -0.352 N 
ATOM      4  C   UNL A   1      45.109  26.109  26.592  1.00  0.00     0.256 C 
ATOM      5  O   UNL A   1      45.406  26.471  27.736  1.00  0.00    -0.269 OA
ATOM      6  H   UNL A   1      43.258  26.255  27.229  1.00  0.00     0.163 HD
BRANCH   4   7
ATOM      7  C   UNL A   1      46.149  25.833  25.594  1.00  0.00     0.100 A 
ATOM      8  C   UNL A   1      46.781  24.679  25.003  1.00  0.00     0.077 A 
ATOM      9  N   UNL A   1      47.678  25.009  24.063  1.00  0.00    -0.169 NA
ATOM     10  N   UNL A   1      47.764  26.359  24.106  1.00  0.00    -0.203 N 
ATOM     11  C   UNL A   1      46.807  26.872  24.946  1.00  0.00     0.147 A 
ATOM     12  Cl  UNL A   1      46.470  28.561  24.930  1.00  0.00    -0.061 Cl
BRANCH   8  13
ATOM     13  C   UNL A   1      46.580  23.223  25.267  1.00  0.00     0.056 C 
ATOM     14  C   UNL A   1      46.135  22.319  24.131  1.00  0.00     0.011 C 
ENDBRANCH   8  13
BRANCH  10  15
ATOM     15  C   UNL A   1      48.751  27.046  23.335  1.00  0.00     0.158 A 
ATOM     16  C   UNL A   1      49.985  27.318  23.899  1.00  0.00     0.069 A 
ATOM     17  N   UNL A   1      48.423  27.426  22.078  1.00  0.00    -0.217 NA
ATOM     18  C   UNL A   1      50.846  28.065  23.132  1.00  0.00     0.117 A 
ATOM     19  C   UNL A   1      49.331  28.171  21.437  1.00  0.00     0.224 A 
ATOM     20  N   UNL A   1      50.538  28.522  21.907  1.00  0.00    -0.245 NA
ENDBRANCH  10  15
ENDBRANCH   4   7
ENDBRANCH   2   3
ENDBRANCH   1   2
BRANCH   1  21
ATOM     21  C   UNL A   1      42.817  23.209  26.013  1.00  0.00     0.118 C 
BRANCH  21  22
ATOM     22  N   UNL A   1      41.450  22.679  25.948  1.00  0.00    -0.352 N 
ATOM     23  C   UNL A   1      40.358  22.980  26.744  1.00  0.00     0.251 C 
ATOM     24  H   UNL A   1      41.287  22.015  25.238  1.00  0.00     0.163 HD
ATOM     25  O   UNL A   1      39.403  22.232  26.820  1.00  0.00    -0.269 OA
BRANCH  23  26
ATOM     26  C   UNL A   1      40.395  24.243  27.496  1.00  0.00     0.039 A 
ATOM     27  C   UNL A   1      41.349  24.495  28.481  1.00  0.00     0.014 A 
ATOM     28  C   UNL A   1      39.503  25.225  27.090  1.00  0.00     0.014 A 
ATOM     29  C   UNL A   1      41.433  25.787  28.988  1.00  0.00     0.010 A 
ATOM     30  C   UNL A   1      39.800  26.528  27.353  1.00  0.00     0.010 A 
ATOM     31  C   UNL A   1      40.669  26.807  28.388  1.00  0.00    -0.014 A 
BRANCH  31  32
ATOM     32  C   UNL A   1      40.826  28.206  28.745  1.00  0.00     0.031 A 
ATOM     33  C   UNL A   1      41.994  28.827  28.089  1.00  0.00     0.074 A 
ATOM     34  C   UNL A   1      39.907  28.914  29.439  1.00  0.00     0.049 A 
ATOM     35  N   UNL A   1      43.164  28.989  28.606  1.00  0.00    -0.248 NA
ATOM     36  C   UNL A   1      41.943  29.098  26.643  1.00  0.00     0.031 C 
ATOM     37  C   UNL A   1      38.545  28.512  29.825  1.00  0.00     0.029 A 
ATOM     38  N   UNL A   1      39.976  30.195  29.903  1.00  0.00    -0.354 N 
ATOM     39  C   UNL A   1      43.901  29.667  27.644  1.00  0.00     0.074 A 
ATOM     40  C   UNL A   1      43.206  29.468  26.402  1.00  0.00     0.031 C 
ATOM     41  C   UNL A   1      37.849  29.587  30.258  1.00  0.00     0.029 A 
ATOM     42  C   UNL A   1      38.767  30.702  30.377  1.00  0.00     0.049 A 
ATOM     43  H   UNL A   1      40.810  30.718  29.904  1.00  0.00     0.167 HD
ATOM     44  C   UNL A   1      44.784  30.625  28.043  1.00  0.00     0.037 A 
ATOM     45  C   UNL A   1      38.551  31.946  30.869  1.00  0.00     0.037 A 
ATOM     46  C   UNL A   1      44.967  30.554  29.475  1.00  0.00     0.049 A 
ATOM     47  C   UNL A   1      39.861  32.468  31.316  1.00  0.00     0.074 A 
ATOM     48  C   UNL A   1      45.641  29.751  30.368  1.00  0.00     0.029 A 
ATOM     49  N   UNL A   1      43.982  31.201  30.174  1.00  0.00    -0.354 N 
ATOM     50  N   UNL A   1      40.525  31.962  32.319  1.00  0.00    -0.248 NA
ATOM     51  C   UNL A   1      40.632  33.316  30.414  1.00  0.00     0.031 C 
ATOM     52  C   UNL A   1      44.945  29.857  31.611  1.00  0.00     0.029 A 
ATOM     53  C   UNL A   1      43.901  30.767  31.469  1.00  0.00     0.049 A 
ATOM     54  H   UNL A   1      43.401  31.897  29.791  1.00  0.00     0.167 HD
ATOM     55  C   UNL A   1      41.845  32.065  31.933  1.00  0.00     0.074 A 
ATOM     56  C   UNL A   1      41.863  33.051  30.860  1.00  0.00     0.031 C 
ATOM     57  C   UNL A   1      42.745  31.097  32.270  1.00  0.00     0.037 A 
BRANCH  44  58
ATOM     58  C   UNL A   1      45.061  31.924  27.313  1.00  0.00     0.064 A 
ATOM     59  C   UNL A   1      46.352  32.129  26.777  1.00  0.00     0.173 A 
ATOM     60  C   UNL A   1      44.255  33.079  27.392  1.00  0.00     0.173 A 
ATOM     61  F   UNL A   1      47.215  31.107  26.664  1.00  0.00    -0.203 F 
ATOM     62  C   UNL A   1      46.818  33.399  26.427  1.00  0.00     0.198 A 
ATOM     63  C   UNL A   1      44.707  34.337  26.997  1.00  0.00     0.198 A 
ATOM     64  F   UNL A   1      43.041  33.072  27.952  1.00  0.00    -0.203 F 
ATOM     65  F   UNL A   1      48.090  33.558  26.036  1.00  0.00    -0.200 F 
ATOM     66  C   UNL A   1      45.997  34.504  26.543  1.00  0.00     0.200 A 
ATOM     67  F   UNL A   1      43.901  35.400  27.141  1.00  0.00    -0.200 F 
ATOM     68  F   UNL A   1      46.457  35.730  26.266  1.00  0.00    -0.200 F 
ENDBRANCH  44  58
BRANCH  45  69
ATOM     69  C   UNL A   1      37.357  32.814  30.769  1.00  0.00     0.064 A 
ATOM     70  C   UNL A   1      37.000  33.428  29.557  1.00  0.00     0.173 A 
ATOM     71  C   UNL A   1      36.373  32.785  31.774  1.00  0.00     0.173 A 
ATOM     72  F   UNL A   1      37.871  33.464  28.539  1.00  0.00    -0.203 F 
ATOM     73  C   UNL A   1      35.716  33.941  29.346  1.00  0.00     0.198 A 
ATOM     74  C   UNL A   1      35.090  33.293  31.561  1.00  0.00     0.198 A 
ATOM     75  F   UNL A   1      36.608  32.163  32.939  1.00  0.00    -0.203 F 
ATOM     76  F   UNL A   1      35.388  34.454  28.151  1.00  0.00    -0.200 F 
ATOM     77  C   UNL A   1      34.757  33.856  30.341  1.00  0.00     0.200 A 
ATOM     78  F   UNL A   1      34.157  33.168  32.515  1.00  0.00    -0.200 F 
ATOM     79  F   UNL A   1      33.503  34.272  30.112  1.00  0.00    -0.200 F 
ENDBRANCH  45  69
BRANCH  57  80
ATOM     80  C   UNL A   1      42.440  30.258  33.470  1.00  0.00     0.064 A 
ATOM     81  C   UNL A   1      42.588  30.675  34.803  1.00  0.00     0.173 A 
ATOM     82  C   UNL A   1      41.908  28.982  33.244  1.00  0.00     0.173 A 
ATOM     83  F   UNL A   1      43.027  31.905  35.097  1.00  0.00    -0.203 F 
ATOM     84  C   UNL A   1      42.247  29.830  35.860  1.00  0.00     0.198 A 
ATOM     85  C   UNL A   1      41.538  28.156  34.299  1.00  0.00     0.198 A 
ATOM     86  F   UNL A   1      41.717  28.549  31.988  1.00  0.00    -0.203 F 
ATOM     87  F   UNL A   1      42.410  30.239  37.128  1.00  0.00    -0.200 F 
ATOM     88  C   UNL A   1      41.717  28.575  35.606  1.00  0.00     0.200 A 
ATOM     89  F   UNL A   1      40.992  26.959  34.044  1.00  0.00    -0.200 F 
ATOM     90  F   UNL A   1      41.361  27.774  36.621  1.00  0.00    -0.200 F 
ENDBRANCH  57  80
ENDBRANCH  31  32
ENDBRANCH  23  26
ENDBRANCH  21  22
ENDBRANCH   1  21
TORSDOF 12
ENDMDL
MODEL 3
REMARK VINA RESULT:     -12.2      9.231     16.021
REMARK SMILES CCc1nn(-c2ccncn2)c(Cl)c1C(=O)NCCCNC(=O)c1ccc(-c2c3nc(c(-c4c(F)c(F)c(F)c(F)c4F)c4ccc([nH]4)c(-c4c(F)c(F)c(F)c(F)c4F)c4nc(c(-c5c(F)c(F)c(F)c(F)c5F)c5ccc2[nH]5)C=C4)C=C3)cc1
REMARK SMILES IDX 19 1 18 2 17 3 15 4 16 5 14 7 3 8 4 9 5 10 12 11 13 12 2 13
REMARK SMILES IDX 1 14 6 15 7 16 11 17 8 18 10 19 9 20 20 21 21 22 22 23 23 25
REMARK SMILES IDX 24 26 25 27 86 28 26 29 85 30 27 31 28 32 29 33 79 34 30 35
REMARK SMILES IDX 84 36 78 37 80 38 31 39 83 40 77 41 76 42 32 44 64 45 44 46
REMARK SMILES IDX 63 47 45 48 48 49 62 50 81 51 46 52 47 53 61 55 82 56 49 57
REMARK SMILES IDX 33 58 34 59 42 60 35 61 36 62 40 63 43 64 37 65 38 66 41 67
REMARK SMILES IDX 39 68 65 69 66 70 74 71 67 72 68 73 72 74 75 75 69 76 70 77
REMARK SMILES IDX 73 78 71 79 50 80 51 81 59 82 52 83 53 84 57 85 60 86 54 87
REMARK SMILES IDX 55 88 58 89 56 90
REMARK H PARENT 17 6 21 24 80 43 48 54
REMARK Flexibility Score: inf
ROOT
ATOM      1  C   UNL A   1      46.807  23.695  38.241  1.00  0.00     0.042 C 
ENDROOT
BRANCH   1   2
ATOM      2  C   UNL A   1      46.158  22.352  37.885  1.00  0.00     0.118 C 
BRANCH   2   3
ATOM      3  N   UNL A   1      46.935  21.235  38.364  1.00  0.00    -0.352 N 
ATOM      4  C   UNL A   1      47.876  20.401  37.831  1.00  0.00     0.256 C 
ATOM      5  O   UNL A   1      48.272  19.561  38.647  1.00  0.00    -0.269 OA
ATOM      6  H   UNL A   1      46.738  21.021  39.304  1.00  0.00     0.163 HD
BRANCH   4   7
ATOM      7  C   UNL A   1      48.410  20.436  36.464  1.00  0.00     0.100 A 
ATOM      8  C   UNL A   1      47.896  20.409  35.117  1.00  0.00     0.077 A 
ATOM      9  N   UNL A   1      48.863  20.518  34.195  1.00  0.00    -0.169 NA
ATOM     10  N   UNL A   1      50.025  20.477  34.887  1.00  0.00    -0.203 N 
ATOM     11  C   UNL A   1      49.780  20.514  36.237  1.00  0.00     0.147 A 
ATOM     12  Cl  UNL A   1      51.073  20.812  37.336  1.00  0.00    -0.061 Cl
BRANCH   8  13
ATOM     13  C   UNL A   1      46.493  20.295  34.618  1.00  0.00     0.056 C 
ATOM     14  C   UNL A   1      45.549  19.307  35.282  1.00  0.00     0.011 C 
ENDBRANCH   8  13
BRANCH  10  15
ATOM     15  C   UNL A   1      51.275  20.413  34.198  1.00  0.00     0.158 A 
ATOM     16  C   UNL A   1      51.618  21.425  33.319  1.00  0.00     0.069 A 
ATOM     17  N   UNL A   1      52.070  19.340  34.423  1.00  0.00    -0.217 NA
ATOM     18  C   UNL A   1      52.789  21.247  32.623  1.00  0.00     0.117 A 
ATOM     19  C   UNL A   1      53.172  19.262  33.667  1.00  0.00     0.224 A 
ATOM     20  N   UNL A   1      53.575  20.166  32.762  1.00  0.00    -0.245 NA
ENDBRANCH  10  15
ENDBRANCH   4   7
ENDBRANCH   2   3
ENDBRANCH   1   2
BRANCH   1  21
ATOM     21  C   UNL A   1      45.958  24.884  37.855  1.00  0.00     0.118 C 
BRANCH  21  22
ATOM     22  N   UNL A   1      44.548  24.508  37.705  1.00  0.00    -0.352 N 
ATOM     23  C   UNL A   1      43.717  24.654  36.606  1.00  0.00     0.251 C 
ATOM     24  H   UNL A   1      44.133  24.094  38.497  1.00  0.00     0.163 HD
ATOM     25  O   UNL A   1      42.508  24.636  36.719  1.00  0.00    -0.269 OA
BRANCH  23  26
ATOM     26  C   UNL A   1      44.356  24.832  35.293  1.00  0.00     0.039 A 
ATOM     27  C   UNL A   1      45.068  23.811  34.667  1.00  0.00     0.014 A 
ATOM     28  C   UNL A   1      44.110  26.037  34.650  1.00  0.00     0.014 A 
ATOM     29  C   UNL A   1      45.456  24.005  33.346  1.00  0.00     0.010 A 
ATOM     30  C   UNL A   1      44.210  26.087  33.293  1.00  0.00     0.010 A 
ATOM     31  C   UNL A   1      44.990  25.142  32.658  1.00  0.00    -0.014 A 
BRANCH  31  32
ATOM     32  C   UNL A   1      45.207  25.330  31.234  1.00  0.00     0.031 A 
ATOM     33  C   UNL A   1      46.310  26.271  30.951  1.00  0.00     0.074 A 
ATOM     34  C   UNL A   1      44.605  24.588  30.276  1.00  0.00     0.049 A 
ATOM     35  N   UNL A   1      46.192  27.525  30.681  1.00  0.00    -0.248 NA
ATOM     36  C   UNL A   1      47.695  25.847  31.208  1.00  0.00     0.031 C 
ATOM     37  C   UNL A   1      43.776  23.384  30.440  1.00  0.00     0.029 A 
ATOM     38  N   UNL A   1      44.661  24.723  28.920  1.00  0.00    -0.354 N 
ATOM     39  C   UNL A   1      47.483  27.970  30.430  1.00  0.00     0.074 A 
ATOM     40  C   UNL A   1      48.358  26.993  31.018  1.00  0.00     0.031 C 
ATOM     41  C   UNL A   1      43.596  22.779  29.245  1.00  0.00     0.029 A 
ATOM     42  C   UNL A   1      44.115  23.653  28.213  1.00  0.00     0.049 A 
ATOM     43  H   UNL A   1      45.055  25.509  28.478  1.00  0.00     0.167 HD
ATOM     44  C   UNL A   1      47.685  28.888  29.443  1.00  0.00     0.037 A 
ATOM     45  C   UNL A   1      44.061  23.520  26.865  1.00  0.00     0.037 A 
ATOM     46  C   UNL A   1      46.415  29.428  29.012  1.00  0.00     0.049 A 
ATOM     47  C   UNL A   1      44.171  24.880  26.291  1.00  0.00     0.074 A 
ATOM     48  C   UNL A   1      45.493  30.335  29.482  1.00  0.00     0.029 A 
ATOM     49  N   UNL A   1      45.772  28.627  28.105  1.00  0.00    -0.354 N 
ATOM     50  N   UNL A   1      43.252  25.793  26.445  1.00  0.00    -0.248 NA
ATOM     51  C   UNL A   1      45.477  25.366  25.862  1.00  0.00     0.031 C 
ATOM     52  C   UNL A   1      44.237  29.971  28.904  1.00  0.00     0.029 A 
ATOM     53  C   UNL A   1      44.431  28.890  28.047  1.00  0.00     0.049 A 
ATOM     54  H   UNL A   1      46.221  27.941  27.560  1.00  0.00     0.167 HD
ATOM     55  C   UNL A   1      43.964  26.969  26.558  1.00  0.00     0.074 A 
ATOM     56  C   UNL A   1      45.287  26.679  26.019  1.00  0.00     0.031 C 
ATOM     57  C   UNL A   1      43.539  27.962  27.391  1.00  0.00     0.037 A 
BRANCH  44  58
ATOM     58  C   UNL A   1      48.874  28.922  28.503  1.00  0.00     0.064 A 
ATOM     59  C   UNL A   1      49.548  30.150  28.322  1.00  0.00     0.173 A 
ATOM     60  C   UNL A   1      49.178  27.925  27.553  1.00  0.00     0.173 A 
ATOM     61  F   UNL A   1      49.332  31.179  29.156  1.00  0.00    -0.203 F 
ATOM     62  C   UNL A   1      50.392  30.380  27.232  1.00  0.00     0.198 A 
ATOM     63  C   UNL A   1      50.057  28.143  26.494  1.00  0.00     0.198 A 
ATOM     64  F   UNL A   1      48.563  26.739  27.534  1.00  0.00    -0.203 F 
ATOM     65  F   UNL A   1      50.914  31.599  27.038  1.00  0.00    -0.200 F 
ATOM     66  C   UNL A   1      50.641  29.378  26.313  1.00  0.00     0.200 A 
ATOM     67  F   UNL A   1      50.265  27.164  25.600  1.00  0.00    -0.200 F 
ATOM     68  F   UNL A   1      51.401  29.611  25.236  1.00  0.00    -0.200 F 
ENDBRANCH  44  58
BRANCH  45  69
ATOM     69  C   UNL A   1      44.164  22.307  26.024  1.00  0.00     0.064 A 
ATOM     70  C   UNL A   1      45.409  21.823  25.591  1.00  0.00     0.173 A 
ATOM     71  C   UNL A   1      43.072  21.427  25.912  1.00  0.00     0.173 A 
ATOM     72  F   UNL A   1      46.504  22.588  25.698  1.00  0.00    -0.203 F 
ATOM     73  C   UNL A   1      45.563  20.514  25.118  1.00  0.00     0.198 A 
ATOM     74  C   UNL A   1      43.227  20.121  25.445  1.00  0.00     0.198 A 
ATOM     75  F   UNL A   1      41.861  21.786  26.361  1.00  0.00    -0.203 F 
ATOM     76  F   UNL A   1      46.780  20.062  24.782  1.00  0.00    -0.200 F 
ATOM     77  C   UNL A   1      44.475  19.659  25.063  1.00  0.00     0.200 A 
ATOM     78  F   UNL A   1      42.177  19.287  25.436  1.00  0.00    -0.200 F 
ATOM     79  F   UNL A   1      44.635  18.382  24.689  1.00  0.00    -0.200 F 
ENDBRANCH  45  69
BRANCH  57  80
ATOM     80  C   UNL A   1      42.084  28.001  27.733  1.00  0.00     0.064 A 
ATOM     81  C   UNL A   1      41.507  27.415  28.871  1.00  0.00     0.173 A 
ATOM     82  C   UNL A   1      41.243  28.729  26.882  1.00  0.00     0.173 A 
ATOM     83  F   UNL A   1      42.258  26.759  29.765  1.00  0.00    -0.203 F 
ATOM     84  C   UNL A   1      40.140  27.530  29.122  1.00  0.00     0.198 A 
ATOM     85  C   UNL A   1      39.887  28.871  27.152  1.00  0.00     0.198 A 
ATOM     86  F   UNL A   1      41.751  29.335  25.797  1.00  0.00    -0.203 F 
ATOM     87  F   UNL A   1      39.603  26.950  30.207  1.00  0.00    -0.200 F 
ATOM     88  C   UNL A   1      39.334  28.263  28.266  1.00  0.00     0.200 A 
ATOM     89  F   UNL A   1      39.122  29.612  26.339  1.00  0.00    -0.200 F 
ATOM     90  F   UNL A   1      38.025  28.400  28.522  1.00  0.00    -0.200 F 
ENDBRANCH  57  80
ENDBRANCH  31  32
ENDBRANCH  23  26
ENDBRANCH  21  22
ENDBRANCH   1  21
TORSDOF 12
ENDMDL
