MODEL 1
REMARK VINA RESULT:     -12.1      0.000      0.000
REMARK SMILES COc1ccc([C@H](C)[N@H+]2CC[C@H](C(=O)NCCCNC(=O)c3ccc(-c4c5nc(c(-c6c(F)c(F)c(F)c(F)c6F)c6ccc([nH]6)c(-c6c(F)c(F)c(F)c(F)c6F)c6nc(c(-c7c(F)c(F)c(F)c(F)c7F)c7ccc4[nH]7)C=C6)C=C5)cc3)[C@@H]2C)cc1
REMARK SMILES IDX 16 1 15 2 13 3 14 4 12 6 9 7 10 8 85 9 11 11 86 12 7 13 8 14
REMARK SMILES IDX 6 15 3 16 4 17 88 18 5 19 87 20 2 21 1 22 17 23 18 24 19 25
REMARK SMILES IDX 20 26 21 28 22 29 23 30 84 31 24 32 83 33 25 34 26 35 27 36
REMARK SMILES IDX 77 37 28 38 82 39 76 40 78 41 29 42 81 43 75 44 74 45 30 47
REMARK SMILES IDX 62 48 42 49 61 50 43 51 46 52 60 53 79 54 44 55 45 56 59 58
REMARK SMILES IDX 80 59 47 60 31 61 32 62 40 63 33 64 34 65 38 66 41 67 35 68
REMARK SMILES IDX 36 69 39 70 37 71 63 72 64 73 72 74 65 75 66 76 70 77 73 78
REMARK SMILES IDX 67 79 68 80 71 81 69 82 48 83 49 84 57 85 50 86 51 87 55 88
REMARK SMILES IDX 58 89 52 90 53 91 56 92 54 93
REMARK H PARENT 15 5 9 10 19 27 78 46 46 57
REMARK Flexibility Score: inf
ROOT
ATOM      1  C   UNL A   1      31.379  30.776  26.471  1.00  0.00     0.117 C 
ENDROOT
BRANCH   1   2
ATOM      2  N   UNL A   1      31.717  30.237  25.170  1.00  0.00    -0.356 N 
ATOM      3  C   UNL A   1      31.705  28.974  24.680  1.00  0.00     0.229 C 
ATOM      4  O   UNL A   1      31.941  28.864  23.470  1.00  0.00    -0.275 OA
ATOM      5  H   UNL A   1      32.010  30.915  24.520  1.00  0.00     0.163 HD
BRANCH   3   6
ATOM      6  C   UNL A   1      31.413  27.713  25.492  1.00  0.00     0.142 C 
ATOM      7  N   UNL A   1      32.720  25.690  25.570  1.00  0.00    -0.326 N 
ATOM      8  C   UNL A   1      31.629  25.472  24.618  1.00  0.00     0.264 C 
ATOM      9  C   UNL A   1      32.570  27.010  26.207  1.00  0.00     0.194 C 
ATOM     10  H   UNL A   1      33.600  25.720  25.055  1.00  0.00     0.348 HD
ATOM     11  C   UNL A   1      30.641  26.601  24.811  1.00  0.00     0.081 C 
ATOM     12  C   UNL A   1      33.889  27.776  26.248  1.00  0.00     0.076 C 
BRANCH   7  13
ATOM     13  C   UNL A   1      32.959  24.550  26.485  1.00  0.00     0.212 C 
ATOM     14  C   UNL A   1      31.716  23.667  26.715  1.00  0.00     0.081 C 
BRANCH  13  15
ATOM     15  C   UNL A   1      34.193  23.779  26.000  1.00  0.00     0.009 A 
ATOM     16  C   UNL A   1      36.582  22.373  25.486  1.00  0.00     0.118 A 
ATOM     17  C   UNL A   1      35.501  21.723  26.078  1.00  0.00     0.047 A 
ATOM     18  C   UNL A   1      36.448  23.697  25.078  1.00  0.00     0.047 A 
ATOM     19  C   UNL A   1      34.320  22.421  26.343  1.00  0.00     0.013 A 
ATOM     20  C   UNL A   1      35.263  24.393  25.331  1.00  0.00     0.013 A 
BRANCH  16  21
ATOM     21  O   UNL A   1      37.717  21.630  25.315  1.00  0.00    -0.497 OA
ATOM     22  C   UNL A   1      37.469  20.264  24.986  1.00  0.00     0.278 C 
ENDBRANCH  16  21
ENDBRANCH  13  15
ENDBRANCH   7  13
ENDBRANCH   3   6
ENDBRANCH   1   2
BRANCH   1  23
ATOM     23  C   UNL A   1      31.419  32.301  26.502  1.00  0.00     0.042 C 
BRANCH  23  24
ATOM     24  C   UNL A   1      32.689  32.872  27.119  1.00  0.00     0.118 C 
BRANCH  24  25
ATOM     25  N   UNL A   1      32.492  34.220  27.631  1.00  0.00    -0.352 N 
ATOM     26  C   UNL A   1      33.074  34.856  28.700  1.00  0.00     0.251 C 
ATOM     27  H   UNL A   1      31.839  34.762  27.132  1.00  0.00     0.163 HD
ATOM     28  O   UNL A   1      32.619  35.927  29.088  1.00  0.00    -0.269 OA
BRANCH  26  29
ATOM     29  C   UNL A   1      34.236  34.260  29.399  1.00  0.00     0.039 A 
ATOM     30  C   UNL A   1      34.001  33.383  30.463  1.00  0.00     0.014 A 
ATOM     31  C   UNL A   1      35.547  34.585  29.044  1.00  0.00     0.014 A 
ATOM     32  C   UNL A   1      35.077  32.801  31.136  1.00  0.00     0.010 A 
ATOM     33  C   UNL A   1      36.616  33.933  29.650  1.00  0.00     0.010 A 
ATOM     34  C   UNL A   1      36.393  33.048  30.715  1.00  0.00    -0.014 A 
BRANCH  34  35
ATOM     35  C   UNL A   1      37.551  32.410  31.391  1.00  0.00     0.031 A 
ATOM     36  C   UNL A   1      38.264  31.257  30.741  1.00  0.00     0.074 A 
ATOM     37  C   UNL A   1      37.914  32.823  32.620  1.00  0.00     0.049 A 
ATOM     38  N   UNL A   1      39.251  30.527  31.196  1.00  0.00    -0.248 NA
ATOM     39  C   UNL A   1      37.775  30.843  29.416  1.00  0.00     0.031 C 
ATOM     40  C   UNL A   1      37.260  33.888  33.378  1.00  0.00     0.029 A 
ATOM     41  N   UNL A   1      38.914  32.386  33.451  1.00  0.00    -0.354 N 
ATOM     42  C   UNL A   1      39.484  29.561  30.227  1.00  0.00     0.074 A 
ATOM     43  C   UNL A   1      38.494  29.755  29.191  1.00  0.00     0.031 C 
ATOM     44  C   UNL A   1      37.886  34.037  34.555  1.00  0.00     0.029 A 
ATOM     45  C   UNL A   1      38.961  33.053  34.651  1.00  0.00     0.049 A 
ATOM     46  H   UNL A   1      39.538  31.663  33.212  1.00  0.00     0.167 HD
ATOM     47  C   UNL A   1      40.453  28.614  30.190  1.00  0.00     0.037 A 
ATOM     48  C   UNL A   1      39.773  32.886  35.711  1.00  0.00     0.037 A 
ATOM     49  C   UNL A   1      41.447  28.444  31.217  1.00  0.00     0.049 A 
ATOM     50  C   UNL A   1      40.852  31.840  35.647  1.00  0.00     0.074 A 
ATOM     51  C   UNL A   1      42.520  27.570  31.247  1.00  0.00     0.029 A 
ATOM     52  N   UNL A   1      41.483  29.159  32.407  1.00  0.00    -0.354 N 
ATOM     53  N   UNL A   1      41.120  30.988  34.688  1.00  0.00    -0.248 NA
ATOM     54  C   UNL A   1      41.745  31.741  36.808  1.00  0.00     0.031 C 
ATOM     55  C   UNL A   1      43.168  27.716  32.478  1.00  0.00     0.029 A 
ATOM     56  C   UNL A   1      42.539  28.724  33.192  1.00  0.00     0.049 A 
ATOM     57  H   UNL A   1      40.850  29.872  32.656  1.00  0.00     0.167 HD
ATOM     58  C   UNL A   1      42.223  30.263  35.118  1.00  0.00     0.074 A 
ATOM     59  C   UNL A   1      42.585  30.790  36.417  1.00  0.00     0.031 C 
ATOM     60  C   UNL A   1      42.878  29.254  34.490  1.00  0.00     0.037 A 
BRANCH  47  61
ATOM     61  C   UNL A   1      40.467  27.686  29.006  1.00  0.00     0.064 A 
ATOM     62  C   UNL A   1      41.263  27.937  27.875  1.00  0.00     0.173 A 
ATOM     63  C   UNL A   1      39.666  26.534  28.995  1.00  0.00     0.173 A 
ATOM     64  F   UNL A   1      42.041  29.030  27.827  1.00  0.00    -0.203 F 
ATOM     65  C   UNL A   1      41.213  27.103  26.762  1.00  0.00     0.198 A 
ATOM     66  C   UNL A   1      39.649  25.681  27.895  1.00  0.00     0.198 A 
ATOM     67  F   UNL A   1      38.892  26.237  30.050  1.00  0.00    -0.203 F 
ATOM     68  F   UNL A   1      41.922  27.408  25.666  1.00  0.00    -0.200 F 
ATOM     69  C   UNL A   1      40.410  25.973  26.774  1.00  0.00     0.200 A 
ATOM     70  F   UNL A   1      38.884  24.581  27.914  1.00  0.00    -0.200 F 
ATOM     71  F   UNL A   1      40.360  25.174  25.699  1.00  0.00    -0.200 F 
ENDBRANCH  47  61
BRANCH  48  72
ATOM     72  C   UNL A   1      39.604  33.757  36.903  1.00  0.00     0.064 A 
ATOM     73  C   UNL A   1      40.207  35.020  36.965  1.00  0.00     0.173 A 
ATOM     74  C   UNL A   1      38.794  33.366  37.980  1.00  0.00     0.173 A 
ATOM     75  F   UNL A   1      41.002  35.432  35.968  1.00  0.00    -0.203 F 
ATOM     76  C   UNL A   1      40.011  35.857  38.062  1.00  0.00     0.198 A 
ATOM     77  C   UNL A   1      38.577  34.214  39.063  1.00  0.00     0.198 A 
ATOM     78  F   UNL A   1      38.186  32.170  37.964  1.00  0.00    -0.203 F 
ATOM     79  F   UNL A   1      40.620  37.050  38.109  1.00  0.00    -0.200 F 
ATOM     80  C   UNL A   1      39.188  35.458  39.105  1.00  0.00     0.200 A 
ATOM     81  F   UNL A   1      37.766  33.833  40.058  1.00  0.00    -0.200 F 
ATOM     82  F   UNL A   1      38.985  36.271  40.150  1.00  0.00    -0.200 F 
ENDBRANCH  48  72
BRANCH  60  83
ATOM     83  C   UNL A   1      44.066  28.664  35.194  1.00  0.00     0.064 A 
ATOM     84  C   UNL A   1      45.356  29.191  35.031  1.00  0.00     0.173 A 
ATOM     85  C   UNL A   1      43.905  27.583  36.076  1.00  0.00     0.173 A 
ATOM     86  F   UNL A   1      45.567  30.214  34.189  1.00  0.00    -0.203 F 
ATOM     87  C   UNL A   1      46.444  28.641  35.705  1.00  0.00     0.198 A 
ATOM     88  C   UNL A   1      44.990  27.059  36.772  1.00  0.00     0.198 A 
ATOM     89  F   UNL A   1      42.692  27.046  36.272  1.00  0.00    -0.203 F 
ATOM     90  F   UNL A   1      47.675  29.129  35.495  1.00  0.00    -0.200 F 
ATOM     91  C   UNL A   1      46.259  27.582  36.580  1.00  0.00     0.200 A 
ATOM     92  F   UNL A   1      44.806  26.045  37.630  1.00  0.00    -0.200 F 
ATOM     93  F   UNL A   1      47.306  27.060  37.234  1.00  0.00    -0.200 F 
ENDBRANCH  60  83
ENDBRANCH  34  35
ENDBRANCH  26  29
ENDBRANCH  24  25
ENDBRANCH  23  24
ENDBRANCH   1  23
TORSDOF 13
ENDMDL
MODEL 2
REMARK VINA RESULT:     -12.1      5.500     11.215
REMARK SMILES COc1ccc([C@H](C)[N@H+]2CC[C@H](C(=O)NCCCNC(=O)c3ccc(-c4c5nc(c(-c6c(F)c(F)c(F)c(F)c6F)c6ccc([nH]6)c(-c6c(F)c(F)c(F)c(F)c6F)c6nc(c(-c7c(F)c(F)c(F)c(F)c7F)c7ccc4[nH]7)C=C6)C=C5)cc3)[C@@H]2C)cc1
REMARK SMILES IDX 16 1 15 2 13 3 14 4 12 6 9 7 10 8 85 9 11 11 86 12 7 13 8 14
REMARK SMILES IDX 6 15 3 16 4 17 88 18 5 19 87 20 2 21 1 22 17 23 18 24 19 25
REMARK SMILES IDX 20 26 21 28 22 29 23 30 84 31 24 32 83 33 25 34 26 35 27 36
REMARK SMILES IDX 77 37 28 38 82 39 76 40 78 41 29 42 81 43 75 44 74 45 30 47
REMARK SMILES IDX 62 48 42 49 61 50 43 51 46 52 60 53 79 54 44 55 45 56 59 58
REMARK SMILES IDX 80 59 47 60 31 61 32 62 40 63 33 64 34 65 38 66 41 67 35 68
REMARK SMILES IDX 36 69 39 70 37 71 63 72 64 73 72 74 65 75 66 76 70 77 73 78
REMARK SMILES IDX 67 79 68 80 71 81 69 82 48 83 49 84 57 85 50 86 51 87 55 88
REMARK SMILES IDX 58 89 52 90 53 91 56 92 54 93
REMARK H PARENT 15 5 9 10 19 27 78 46 46 57
REMARK Flexibility Score: inf
ROOT
ATOM      1  C   UNL A   1      37.277  20.633  24.598  1.00  0.00     0.117 C 
ENDROOT
BRANCH   1   2
ATOM      2  N   UNL A   1      36.056  20.666  25.376  1.00  0.00    -0.356 N 
ATOM      3  C   UNL A   1      34.874  21.299  25.182  1.00  0.00     0.229 C 
ATOM      4  O   UNL A   1      33.976  21.020  25.986  1.00  0.00    -0.275 OA
ATOM      5  H   UNL A   1      36.090  20.126  26.199  1.00  0.00     0.163 HD
BRANCH   3   6
ATOM      6  C   UNL A   1      34.577  22.295  24.062  1.00  0.00     0.142 C 
ATOM      7  N   UNL A   1      33.792  24.561  24.290  1.00  0.00    -0.326 N 
ATOM      8  C   UNL A   1      32.627  23.718  24.010  1.00  0.00     0.264 C 
ATOM      9  C   UNL A   1      35.021  23.751  24.230  1.00  0.00     0.194 C 
ATOM     10  H   UNL A   1      33.722  24.904  25.249  1.00  0.00     0.348 HD
ATOM     11  C   UNL A   1      33.152  22.376  23.552  1.00  0.00     0.081 C 
ATOM     12  C   UNL A   1      35.947  24.031  25.410  1.00  0.00     0.076 C 
BRANCH   7  13
ATOM     13  C   UNL A   1      33.814  25.833  23.531  1.00  0.00     0.212 C 
ATOM     14  C   UNL A   1      32.938  25.812  22.261  1.00  0.00     0.081 C 
BRANCH  13  15
ATOM     15  C   UNL A   1      33.495  26.986  24.490  1.00  0.00     0.009 A 
ATOM     16  C   UNL A   1      33.244  29.274  26.118  1.00  0.00     0.118 A 
ATOM     17  C   UNL A   1      32.918  29.339  24.766  1.00  0.00     0.047 A 
ATOM     18  C   UNL A   1      33.618  28.054  26.679  1.00  0.00     0.047 A 
ATOM     19  C   UNL A   1      33.052  28.209  23.955  1.00  0.00     0.013 A 
ATOM     20  C   UNL A   1      33.740  26.920  25.871  1.00  0.00     0.013 A 
BRANCH  16  21
ATOM     21  O   UNL A   1      33.138  30.440  26.826  1.00  0.00    -0.497 OA
ATOM     22  C   UNL A   1      31.885  31.101  26.663  1.00  0.00     0.278 C 
ENDBRANCH  16  21
ENDBRANCH  13  15
ENDBRANCH   7  13
ENDBRANCH   3   6
ENDBRANCH   1   2
BRANCH   1  23
ATOM     23  C   UNL A   1      38.206  19.496  25.015  1.00  0.00     0.042 C 
BRANCH  23  24
ATOM     24  C   UNL A   1      39.287  19.914  26.002  1.00  0.00     0.118 C 
BRANCH  24  25
ATOM     25  N   UNL A   1      40.420  18.999  25.996  1.00  0.00    -0.352 N 
ATOM     26  C   UNL A   1      41.767  19.258  26.043  1.00  0.00     0.251 C 
ATOM     27  H   UNL A   1      40.182  18.045  25.952  1.00  0.00     0.163 HD
ATOM     28  O   UNL A   1      42.564  18.352  25.820  1.00  0.00    -0.269 OA
BRANCH  26  29
ATOM     29  C   UNL A   1      42.271  20.617  26.345  1.00  0.00     0.039 A 
ATOM     30  C   UNL A   1      42.615  21.457  25.282  1.00  0.00     0.014 A 
ATOM     31  C   UNL A   1      42.446  21.055  27.660  1.00  0.00     0.014 A 
ATOM     32  C   UNL A   1      43.086  22.747  25.536  1.00  0.00     0.010 A 
ATOM     33  C   UNL A   1      42.824  22.369  27.912  1.00  0.00     0.010 A 
ATOM     34  C   UNL A   1      43.166  23.224  26.854  1.00  0.00    -0.014 A 
BRANCH  34  35
ATOM     35  C   UNL A   1      43.627  24.604  27.147  1.00  0.00     0.031 A 
ATOM     36  C   UNL A   1      42.647  25.647  27.609  1.00  0.00     0.074 A 
ATOM     37  C   UNL A   1      44.914  24.935  26.929  1.00  0.00     0.049 A 
ATOM     38  N   UNL A   1      42.840  26.919  27.854  1.00  0.00    -0.248 NA
ATOM     39  C   UNL A   1      41.253  25.209  27.781  1.00  0.00     0.031 C 
ATOM     40  C   UNL A   1      45.943  24.029  26.422  1.00  0.00     0.029 A 
ATOM     41  N   UNL A   1      45.571  26.128  27.093  1.00  0.00    -0.354 N 
ATOM     42  C   UNL A   1      41.595  27.432  28.186  1.00  0.00     0.074 A 
ATOM     43  C   UNL A   1      40.642  26.353  28.047  1.00  0.00     0.031 C 
ATOM     44  C   UNL A   1      47.107  24.691  26.335  1.00  0.00     0.029 A 
ATOM     45  C   UNL A   1      46.898  26.077  26.743  1.00  0.00     0.049 A 
ATOM     46  H   UNL A   1      45.134  26.944  27.429  1.00  0.00     0.167 HD
ATOM     47  C   UNL A   1      41.276  28.684  28.596  1.00  0.00     0.037 A 
ATOM     48  C   UNL A   1      47.838  27.041  26.742  1.00  0.00     0.037 A 
ATOM     49  C   UNL A   1      42.237  29.745  28.752  1.00  0.00     0.049 A 
ATOM     50  C   UNL A   1      47.470  28.420  27.215  1.00  0.00     0.074 A 
ATOM     51  C   UNL A   1      42.039  31.027  29.234  1.00  0.00     0.029 A 
ATOM     52  N   UNL A   1      43.580  29.649  28.416  1.00  0.00    -0.354 N 
ATOM     53  N   UNL A   1      46.307  28.875  27.611  1.00  0.00    -0.248 NA
ATOM     54  C   UNL A   1      48.549  29.416  27.249  1.00  0.00     0.031 C 
ATOM     55  C   UNL A   1      43.249  31.723  29.134  1.00  0.00     0.029 A 
ATOM     56  C   UNL A   1      44.217  30.858  28.649  1.00  0.00     0.049 A 
ATOM     57  H   UNL A   1      44.017  28.839  28.064  1.00  0.00     0.167 HD
ATOM     58  C   UNL A   1      46.513  30.202  27.960  1.00  0.00     0.074 A 
ATOM     59  C   UNL A   1      47.920  30.474  27.746  1.00  0.00     0.031 C 
ATOM     60  C   UNL A   1      45.618  31.113  28.419  1.00  0.00     0.037 A 
BRANCH  47  61
ATOM     61  C   UNL A   1      39.828  28.967  28.889  1.00  0.00     0.064 A 
ATOM     62  C   UNL A   1      39.289  28.822  30.178  1.00  0.00     0.173 A 
ATOM     63  C   UNL A   1      38.963  29.380  27.864  1.00  0.00     0.173 A 
ATOM     64  F   UNL A   1      40.068  28.420  31.195  1.00  0.00    -0.203 F 
ATOM     65  C   UNL A   1      37.932  29.024  30.417  1.00  0.00     0.198 A 
ATOM     66  C   UNL A   1      37.614  29.620  28.116  1.00  0.00     0.198 A 
ATOM     67  F   UNL A   1      39.423  29.545  26.615  1.00  0.00    -0.203 F 
ATOM     68  F   UNL A   1      37.429  28.803  31.639  1.00  0.00    -0.200 F 
ATOM     69  C   UNL A   1      37.097  29.428  29.387  1.00  0.00     0.200 A 
ATOM     70  F   UNL A   1      36.811  30.024  27.122  1.00  0.00    -0.200 F 
ATOM     71  F   UNL A   1      35.790  29.617  29.617  1.00  0.00    -0.200 F 
ENDBRANCH  47  61
BRANCH  48  72
ATOM     72  C   UNL A   1      49.219  26.710  26.306  1.00  0.00     0.064 A 
ATOM     73  C   UNL A   1      49.643  26.965  24.995  1.00  0.00     0.173 A 
ATOM     74  C   UNL A   1      50.158  26.180  27.204  1.00  0.00     0.173 A 
ATOM     75  F   UNL A   1      48.778  27.456  24.096  1.00  0.00    -0.203 F 
ATOM     76  C   UNL A   1      50.952  26.698  24.597  1.00  0.00     0.198 A 
ATOM     77  C   UNL A   1      51.473  25.940  26.813  1.00  0.00     0.198 A 
ATOM     78  F   UNL A   1      49.805  25.928  28.474  1.00  0.00    -0.203 F 
ATOM     79  F   UNL A   1      51.325  26.927  23.331  1.00  0.00    -0.200 F 
ATOM     80  C   UNL A   1      51.868  26.196  25.509  1.00  0.00     0.200 A 
ATOM     81  F   UNL A   1      52.360  25.474  27.702  1.00  0.00    -0.200 F 
ATOM     82  F   UNL A   1      53.131  25.958  25.131  1.00  0.00    -0.200 F 
ENDBRANCH  48  72
BRANCH  60  83
ATOM     83  C   UNL A   1      46.137  32.485  28.738  1.00  0.00     0.064 A 
ATOM     84  C   UNL A   1      46.136  33.515  27.785  1.00  0.00     0.173 A 
ATOM     85  C   UNL A   1      46.605  32.785  30.028  1.00  0.00     0.173 A 
ATOM     86  F   UNL A   1      45.713  33.277  26.534  1.00  0.00    -0.203 F 
ATOM     87  C   UNL A   1      46.605  34.787  28.104  1.00  0.00     0.198 A 
ATOM     88  C   UNL A   1      47.043  34.066  30.351  1.00  0.00     0.198 A 
ATOM     89  F   UNL A   1      46.623  31.839  30.978  1.00  0.00    -0.203 F 
ATOM     90  F   UNL A   1      46.641  35.741  27.163  1.00  0.00    -0.200 F 
ATOM     91  C   UNL A   1      47.051  35.063  29.388  1.00  0.00     0.200 A 
ATOM     92  F   UNL A   1      47.458  34.336  31.597  1.00  0.00    -0.200 F 
ATOM     93  F   UNL A   1      47.494  36.290  29.695  1.00  0.00    -0.200 F 
ENDBRANCH  60  83
ENDBRANCH  34  35
ENDBRANCH  26  29
ENDBRANCH  24  25
ENDBRANCH  23  24
ENDBRANCH   1  23
TORSDOF 13
ENDMDL
MODEL 3
REMARK VINA RESULT:     -12.0      3.574      8.757
REMARK SMILES COc1ccc([C@H](C)[N@H+]2CC[C@H](C(=O)NCCCNC(=O)c3ccc(-c4c5nc(c(-c6c(F)c(F)c(F)c(F)c6F)c6ccc([nH]6)c(-c6c(F)c(F)c(F)c(F)c6F)c6nc(c(-c7c(F)c(F)c(F)c(F)c7F)c7ccc4[nH]7)C=C6)C=C5)cc3)[C@@H]2C)cc1
REMARK SMILES IDX 16 1 15 2 13 3 14 4 12 6 9 7 10 8 85 9 11 11 86 12 7 13 8 14
REMARK SMILES IDX 6 15 3 16 4 17 88 18 5 19 87 20 2 21 1 22 17 23 18 24 19 25
REMARK SMILES IDX 20 26 21 28 22 29 23 30 84 31 24 32 83 33 25 34 26 35 27 36
REMARK SMILES IDX 77 37 28 38 82 39 76 40 78 41 29 42 81 43 75 44 74 45 30 47
REMARK SMILES IDX 62 48 42 49 61 50 43 51 46 52 60 53 79 54 44 55 45 56 59 58
REMARK SMILES IDX 80 59 47 60 31 61 32 62 40 63 33 64 34 65 38 66 41 67 35 68
REMARK SMILES IDX 36 69 39 70 37 71 63 72 64 73 72 74 65 75 66 76 70 77 73 78
REMARK SMILES IDX 67 79 68 80 71 81 69 82 48 83 49 84 57 85 50 86 51 87 55 88
REMARK SMILES IDX 58 89 52 90 53 91 56 92 54 93
REMARK H PARENT 15 5 9 10 19 27 78 46 46 57
REMARK Flexibility Score: inf
ROOT
ATOM      1  C   UNL A   1      32.173  26.887  25.748  1.00  0.00     0.117 C 
ENDROOT
BRANCH   1   2
ATOM      2  N   UNL A   1      31.477  25.793  26.390  1.00  0.00    -0.356 N 
ATOM      3  C   UNL A   1      31.843  24.516  26.655  1.00  0.00     0.229 C 
ATOM      4  O   UNL A   1      31.046  23.858  27.336  1.00  0.00    -0.275 OA
ATOM      5  H   UNL A   1      30.567  26.018  26.692  1.00  0.00     0.163 HD
BRANCH   3   6
ATOM      6  C   UNL A   1      33.142  23.855  26.198  1.00  0.00     0.142 C 
ATOM      7  N   UNL A   1      33.448  21.576  25.476  1.00  0.00    -0.326 N 
ATOM      8  C   UNL A   1      33.842  21.648  26.884  1.00  0.00     0.264 C 
ATOM      9  C   UNL A   1      33.110  22.923  24.983  1.00  0.00     0.194 C 
ATOM     10  H   UNL A   1      32.593  21.023  25.405  1.00  0.00     0.348 HD
ATOM     11  C   UNL A   1      33.959  23.114  27.237  1.00  0.00     0.081 C 
ATOM     12  C   UNL A   1      31.814  22.926  24.178  1.00  0.00     0.076 C 
BRANCH   7  13
ATOM     13  C   UNL A   1      34.372  20.788  24.629  1.00  0.00     0.212 C 
ATOM     14  C   UNL A   1      35.853  21.192  24.784  1.00  0.00     0.081 C 
BRANCH  13  15
ATOM     15  C   UNL A   1      34.105  19.296  24.862  1.00  0.00     0.009 A 
ATOM     16  C   UNL A   1      33.584  16.525  24.896  1.00  0.00     0.118 A 
ATOM     17  C   UNL A   1      34.852  16.995  24.561  1.00  0.00     0.047 A 
ATOM     18  C   UNL A   1      32.598  17.426  25.290  1.00  0.00     0.047 A 
ATOM     19  C   UNL A   1      35.109  18.368  24.534  1.00  0.00     0.013 A 
ATOM     20  C   UNL A   1      32.858  18.800  25.275  1.00  0.00     0.013 A 
BRANCH  16  21
ATOM     21  O   UNL A   1      33.404  15.170  24.842  1.00  0.00    -0.497 OA
ATOM     22  C   UNL A   1      32.278  14.709  25.585  1.00  0.00     0.278 C 
ENDBRANCH  16  21
ENDBRANCH  13  15
ENDBRANCH   7  13
ENDBRANCH   3   6
ENDBRANCH   1   2
BRANCH   1  23
ATOM     23  C   UNL A   1      33.404  27.338  26.530  1.00  0.00     0.042 C 
BRANCH  23  24
ATOM     24  C   UNL A   1      34.143  28.508  25.896  1.00  0.00     0.118 C 
BRANCH  24  25
ATOM     25  N   UNL A   1      33.780  29.781  26.501  1.00  0.00    -0.352 N 
ATOM     26  C   UNL A   1      34.392  30.493  27.503  1.00  0.00     0.251 C 
ATOM     27  H   UNL A   1      32.967  30.197  26.134  1.00  0.00     0.163 HD
ATOM     28  O   UNL A   1      33.810  31.446  28.010  1.00  0.00    -0.269 OA
BRANCH  26  29
ATOM     29  C   UNL A   1      35.740  30.117  27.989  1.00  0.00     0.039 A 
ATOM     30  C   UNL A   1      35.863  29.564  29.266  1.00  0.00     0.014 A 
ATOM     31  C   UNL A   1      36.882  30.341  27.216  1.00  0.00     0.014 A 
ATOM     32  C   UNL A   1      37.120  29.194  29.748  1.00  0.00     0.010 A 
ATOM     33  C   UNL A   1      38.121  29.885  27.656  1.00  0.00     0.010 A 
ATOM     34  C   UNL A   1      38.256  29.324  28.934  1.00  0.00    -0.014 A 
BRANCH  34  35
ATOM     35  C   UNL A   1      39.597  28.901  29.410  1.00  0.00     0.031 A 
ATOM     36  C   UNL A   1      40.377  29.778  30.351  1.00  0.00     0.074 A 
ATOM     37  C   UNL A   1      40.142  27.764  28.939  1.00  0.00     0.049 A 
ATOM     38  N   UNL A   1      41.585  29.617  30.829  1.00  0.00    -0.248 NA
ATOM     39  C   UNL A   1      39.724  31.024  30.783  1.00  0.00     0.031 C 
ATOM     40  C   UNL A   1      39.511  26.864  27.975  1.00  0.00     0.029 A 
ATOM     41  N   UNL A   1      41.355  27.178  29.198  1.00  0.00    -0.354 N 
ATOM     42  C   UNL A   1      41.842  30.746  31.595  1.00  0.00     0.074 A 
ATOM     43  C   UNL A   1      40.692  31.614  31.465  1.00  0.00     0.031 C 
ATOM     44  C   UNL A   1      40.331  25.829  27.738  1.00  0.00     0.029 A 
ATOM     45  C   UNL A   1      41.562  26.012  28.503  1.00  0.00     0.049 A 
ATOM     46  H   UNL A   1      42.016  27.557  29.823  1.00  0.00     0.167 HD
ATOM     47  C   UNL A   1      42.926  31.022  32.359  1.00  0.00     0.037 A 
ATOM     48  C   UNL A   1      42.625  25.188  28.478  1.00  0.00     0.037 A 
ATOM     49  C   UNL A   1      44.056  30.140  32.498  1.00  0.00     0.049 A 
ATOM     50  C   UNL A   1      43.814  25.502  29.344  1.00  0.00     0.074 A 
ATOM     51  C   UNL A   1      45.171  30.283  33.304  1.00  0.00     0.029 A 
ATOM     52  N   UNL A   1      44.217  28.951  31.800  1.00  0.00    -0.354 N 
ATOM     53  N   UNL A   1      44.012  26.530  30.134  1.00  0.00    -0.248 NA
ATOM     54  C   UNL A   1      44.921  24.539  29.322  1.00  0.00     0.031 C 
ATOM     55  C   UNL A   1      46.034  29.211  33.050  1.00  0.00     0.029 A 
ATOM     56  C   UNL A   1      45.429  28.365  32.133  1.00  0.00     0.049 A 
ATOM     57  H   UNL A   1      43.566  28.577  31.163  1.00  0.00     0.167 HD
ATOM     58  C   UNL A   1      45.255  26.330  30.718  1.00  0.00     0.074 A 
ATOM     59  C   UNL A   1      45.757  25.072  30.205  1.00  0.00     0.031 C 
ATOM     60  C   UNL A   1      45.919  27.116  31.602  1.00  0.00     0.037 A 
BRANCH  47  61
ATOM     61  C   UNL A   1      42.939  32.338  33.088  1.00  0.00     0.064 A 
ATOM     62  C   UNL A   1      43.496  33.496  32.521  1.00  0.00     0.173 A 
ATOM     63  C   UNL A   1      42.396  32.441  34.379  1.00  0.00     0.173 A 
ATOM     64  F   UNL A   1      44.039  33.453  31.294  1.00  0.00    -0.203 F 
ATOM     65  C   UNL A   1      43.559  34.688  33.237  1.00  0.00     0.198 A 
ATOM     66  C   UNL A   1      42.425  33.646  35.076  1.00  0.00     0.198 A 
ATOM     67  F   UNL A   1      41.842  31.371  34.968  1.00  0.00    -0.203 F 
ATOM     68  F   UNL A   1      44.165  35.757  32.703  1.00  0.00    -0.200 F 
ATOM     69  C   UNL A   1      43.019  34.764  34.511  1.00  0.00     0.200 A 
ATOM     70  F   UNL A   1      41.889  33.722  36.302  1.00  0.00    -0.200 F 
ATOM     71  F   UNL A   1      43.084  35.912  35.201  1.00  0.00    -0.200 F 
ENDBRANCH  47  61
BRANCH  48  72
ATOM     72  C   UNL A   1      42.586  23.974  27.622  1.00  0.00     0.064 A 
ATOM     73  C   UNL A   1      42.944  24.033  26.268  1.00  0.00     0.173 A 
ATOM     74  C   UNL A   1      42.241  22.722  28.152  1.00  0.00     0.173 A 
ATOM     75  F   UNL A   1      43.266  25.210  25.712  1.00  0.00    -0.203 F 
ATOM     76  C   UNL A   1      42.952  22.888  25.476  1.00  0.00     0.198 A 
ATOM     77  C   UNL A   1      42.275  21.573  27.365  1.00  0.00     0.198 A 
ATOM     78  F   UNL A   1      41.901  22.610  29.444  1.00  0.00    -0.203 F 
ATOM     79  F   UNL A   1      43.273  22.976  24.177  1.00  0.00    -0.200 F 
ATOM     80  C   UNL A   1      42.628  21.657  26.027  1.00  0.00     0.200 A 
ATOM     81  F   UNL A   1      41.982  20.383  27.907  1.00  0.00    -0.200 F 
ATOM     82  F   UNL A   1      42.656  20.552  25.269  1.00  0.00    -0.200 F 
ENDBRANCH  48  72
BRANCH  60  83
ATOM     83  C   UNL A   1      47.254  26.630  32.086  1.00  0.00     0.064 A 
ATOM     84  C   UNL A   1      47.369  25.729  33.154  1.00  0.00     0.173 A 
ATOM     85  C   UNL A   1      48.434  27.041  31.444  1.00  0.00     0.173 A 
ATOM     86  F   UNL A   1      46.273  25.316  33.811  1.00  0.00    -0.203 F 
ATOM     87  C   UNL A   1      48.615  25.275  33.578  1.00  0.00     0.198 A 
ATOM     88  C   UNL A   1      49.675  26.560  31.850  1.00  0.00     0.198 A 
ATOM     89  F   UNL A   1      48.381  27.897  30.413  1.00  0.00    -0.203 F 
ATOM     90  F   UNL A   1      48.703  24.453  34.634  1.00  0.00    -0.200 F 
ATOM     91  C   UNL A   1      49.766  25.685  32.921  1.00  0.00     0.200 A 
ATOM     92  F   UNL A   1      50.785  26.944  31.203  1.00  0.00    -0.200 F 
ATOM     93  F   UNL A   1      50.964  25.240  33.326  1.00  0.00    -0.200 F 
ENDBRANCH  60  83
ENDBRANCH  34  35
ENDBRANCH  26  29
ENDBRANCH  24  25
ENDBRANCH  23  24
ENDBRANCH   1  23
TORSDOF 13
ENDMDL
