MODEL 1
REMARK VINA RESULT:     -13.0      0.000      0.000
REMARK SMILES C[C@@H]1CCc2sc(NC(=O)/C=C/C(=O)NCCCNC(=O)c3ccc(-c4c5nc(c(-c6c(F)c(F)c(F)c(F)c6F)c6ccc([nH]6)c(-c6c(F)c(F)c(F)c(F)c6F)c6nc(c(-c7c(F)c(F)c(F)c(F)c7F)c7ccc4[nH]7)C=C6)C=C5)cc3)c(C#N)c2C1
REMARK SMILES IDX 16 1 15 2 13 3 14 4 12 6 11 7 9 8 8 9 10 11 7 12 1 13 2 14
REMARK SMILES IDX 3 15 89 16 4 17 88 18 5 19 85 20 6 21 86 22 87 23 17 24
REMARK SMILES IDX 18 25 19 26 20 27 21 29 22 30 23 31 84 32 24 33 83 34 25 35
REMARK SMILES IDX 26 36 27 37 77 38 28 39 82 40 76 41 78 42 29 43 81 44 75 45
REMARK SMILES IDX 74 46 30 48 62 49 42 50 61 51 43 52 46 53 60 54 79 55 44 56
REMARK SMILES IDX 45 57 59 59 80 60 47 61 31 62 32 63 40 64 33 65 34 66 38 67
REMARK SMILES IDX 41 68 35 69 36 70 39 71 37 72 63 73 64 74 72 75 65 76 66 77
REMARK SMILES IDX 70 78 73 79 67 80 68 81 71 82 69 83 48 84 49 85 57 86 50 87
REMARK SMILES IDX 51 88 55 89 58 90 52 91 53 92 56 93 54 94
REMARK H PARENT 15 5 8 10 19 28 78 47 46 58
REMARK Flexibility Score: inf
ROOT
ATOM      1  C   UNL A   1      36.737  20.468  25.015  1.00  0.00     0.118 C 
ENDROOT
BRANCH   1   2
ATOM      2  N   UNL A   1      36.992  21.724  24.332  1.00  0.00    -0.352 N 
ATOM      3  C   UNL A   1      36.182  22.547  23.623  1.00  0.00     0.244 C 
ATOM      4  O   UNL A   1      36.692  23.383  22.876  1.00  0.00    -0.270 OA
ATOM      5  H   UNL A   1      37.924  22.034  24.395  1.00  0.00     0.163 HD
BRANCH   3   6
ATOM      6  C   UNL A   1      34.701  22.556  23.754  1.00  0.00     0.077 C 
ATOM      7  C   UNL A   1      33.829  22.572  22.740  1.00  0.00     0.077 C 
BRANCH   7   8
ATOM      8  C   UNL A   1      32.407  22.211  22.825  1.00  0.00     0.249 C 
ATOM      9  N   UNL A   1      31.439  23.142  23.019  1.00  0.00    -0.313 N 
ATOM     10  H   UNL A   1      30.529  22.770  23.069  1.00  0.00     0.171 HD
ATOM     11  O   UNL A   1      32.110  21.017  22.781  1.00  0.00    -0.270 OA
BRANCH   9  12
ATOM     12  C   UNL A   1      31.497  24.506  23.158  1.00  0.00     0.114 A 
ATOM     13  C   UNL A   1      33.348  28.992  23.357  1.00  0.00     0.008 C 
ATOM     14  C   UNL A   1      31.829  29.197  23.411  1.00  0.00    -0.009 C 
ATOM     15  C   UNL A   1      31.244  29.067  24.840  1.00  0.00     0.009 C 
ATOM     16  C   UNL A   1      31.132  28.188  22.483  1.00  0.00     0.041 C 
ATOM     17  C   UNL A   1      31.330  27.655  25.453  1.00  0.00     0.047 C 
ATOM     18  C   UNL A   1      31.280  26.805  23.044  1.00  0.00    -0.014 A 
ATOM     19  C   UNL A   1      31.241  26.589  24.408  1.00  0.00     0.011 A 
ATOM     20  C   UNL A   1      31.734  25.622  22.377  1.00  0.00     0.090 A 
ATOM     21  S   UNL A   1      31.267  24.940  24.799  1.00  0.00    -0.121 S 
BRANCH  20  22
ATOM     22  C   UNL A   1      32.418  25.665  21.123  1.00  0.00     0.103 C 
ATOM     23  N   UNL A   1      32.979  25.632  20.097  1.00  0.00    -0.192 NA
ENDBRANCH  20  22
ENDBRANCH   9  12
ENDBRANCH   7   8
ENDBRANCH   3   6
ENDBRANCH   1   2
BRANCH   1  24
ATOM     24  C   UNL A   1      37.958  19.550  24.942  1.00  0.00     0.042 C 
BRANCH  24  25
ATOM     25  C   UNL A   1      39.074  20.137  25.783  1.00  0.00     0.118 C 
BRANCH  25  26
ATOM     26  N   UNL A   1      40.238  19.238  25.815  1.00  0.00    -0.352 N 
ATOM     27  C   UNL A   1      41.579  19.555  25.900  1.00  0.00     0.251 C 
ATOM     28  H   UNL A   1      40.033  18.276  25.769  1.00  0.00     0.163 HD
ATOM     29  O   UNL A   1      42.444  18.762  25.554  1.00  0.00    -0.269 OA
BRANCH  27  30
ATOM     30  C   UNL A   1      41.940  20.861  26.463  1.00  0.00     0.039 A 
ATOM     31  C   UNL A   1      42.332  21.948  25.681  1.00  0.00     0.014 A 
ATOM     32  C   UNL A   1      41.802  20.983  27.838  1.00  0.00     0.014 A 
ATOM     33  C   UNL A   1      42.598  23.151  26.329  1.00  0.00     0.010 A 
ATOM     34  C   UNL A   1      41.685  22.225  28.370  1.00  0.00     0.010 A 
ATOM     35  C   UNL A   1      42.285  23.261  27.692  1.00  0.00    -0.014 A 
BRANCH  35  36
ATOM     36  C   UNL A   1      42.395  24.495  28.445  1.00  0.00     0.031 A 
ATOM     37  C   UNL A   1      41.220  25.360  28.226  1.00  0.00     0.074 A 
ATOM     38  C   UNL A   1      43.337  24.694  29.398  1.00  0.00     0.049 A 
ATOM     39  N   UNL A   1      41.183  26.427  27.505  1.00  0.00    -0.248 NA
ATOM     40  C   UNL A   1      39.892  24.867  28.630  1.00  0.00     0.031 C 
ATOM     41  C   UNL A   1      44.361  23.772  29.906  1.00  0.00     0.029 A 
ATOM     42  N   UNL A   1      43.518  25.790  30.190  1.00  0.00    -0.354 N 
ATOM     43  C   UNL A   1      39.877  26.886  27.593  1.00  0.00     0.074 A 
ATOM     44  C   UNL A   1      39.095  25.775  28.061  1.00  0.00     0.031 C 
ATOM     45  C   UNL A   1      44.884  24.253  31.060  1.00  0.00     0.029 A 
ATOM     46  C   UNL A   1      44.350  25.578  31.298  1.00  0.00     0.049 A 
ATOM     47  H   UNL A   1      43.099  26.660  29.998  1.00  0.00     0.167 HD
ATOM     48  C   UNL A   1      39.636  28.225  27.589  1.00  0.00     0.037 A 
ATOM     49  C   UNL A   1      44.506  26.451  32.333  1.00  0.00     0.037 A 
ATOM     50  C   UNL A   1      40.786  28.943  27.084  1.00  0.00     0.049 A 
ATOM     51  C   UNL A   1      44.076  27.788  31.820  1.00  0.00     0.074 A 
ATOM     52  C   UNL A   1      41.514  28.882  25.908  1.00  0.00     0.029 A 
ATOM     53  N   UNL A   1      41.623  29.533  28.004  1.00  0.00    -0.354 N 
ATOM     54  N   UNL A   1      44.719  28.426  30.877  1.00  0.00    -0.248 NA
ATOM     55  C   UNL A   1      42.659  28.107  31.947  1.00  0.00     0.031 C 
ATOM     56  C   UNL A   1      42.880  28.939  26.319  1.00  0.00     0.029 A 
ATOM     57  C   UNL A   1      42.910  29.167  27.694  1.00  0.00     0.049 A 
ATOM     58  H   UNL A   1      41.348  30.116  28.749  1.00  0.00     0.167 HD
ATOM     59  C   UNL A   1      43.723  28.871  30.019  1.00  0.00     0.074 A 
ATOM     60  C   UNL A   1      42.468  28.656  30.743  1.00  0.00     0.031 C 
ATOM     61  C   UNL A   1      43.955  29.062  28.686  1.00  0.00     0.037 A 
BRANCH  48  62
ATOM     62  C   UNL A   1      38.576  28.891  28.434  1.00  0.00     0.064 A 
ATOM     63  C   UNL A   1      37.767  29.877  27.838  1.00  0.00     0.173 A 
ATOM     64  C   UNL A   1      38.518  28.831  29.845  1.00  0.00     0.173 A 
ATOM     65  F   UNL A   1      37.754  30.036  26.506  1.00  0.00    -0.203 F 
ATOM     66  C   UNL A   1      37.033  30.789  28.600  1.00  0.00     0.198 A 
ATOM     67  C   UNL A   1      37.743  29.708  30.598  1.00  0.00     0.198 A 
ATOM     68  F   UNL A   1      39.285  28.009  30.567  1.00  0.00    -0.203 F 
ATOM     69  F   UNL A   1      36.386  31.792  27.993  1.00  0.00    -0.200 F 
ATOM     70  C   UNL A   1      37.027  30.708  29.980  1.00  0.00     0.200 A 
ATOM     71  F   UNL A   1      37.771  29.624  31.937  1.00  0.00    -0.200 F 
ATOM     72  F   UNL A   1      36.376  31.617  30.715  1.00  0.00    -0.200 F 
ENDBRANCH  48  62
BRANCH  49  73
ATOM     73  C   UNL A   1      44.589  26.157  33.792  1.00  0.00     0.064 A 
ATOM     74  C   UNL A   1      43.436  25.885  34.554  1.00  0.00     0.173 A 
ATOM     75  C   UNL A   1      45.818  25.839  34.405  1.00  0.00     0.173 A 
ATOM     76  F   UNL A   1      42.219  26.114  34.040  1.00  0.00    -0.203 F 
ATOM     77  C   UNL A   1      43.509  25.301  35.828  1.00  0.00     0.198 A 
ATOM     78  C   UNL A   1      45.889  25.256  35.673  1.00  0.00     0.198 A 
ATOM     79  F   UNL A   1      46.974  25.995  33.747  1.00  0.00    -0.203 F 
ATOM     80  F   UNL A   1      42.385  25.000  36.495  1.00  0.00    -0.200 F 
ATOM     81  C   UNL A   1      44.736  24.973  36.380  1.00  0.00     0.200 A 
ATOM     82  F   UNL A   1      47.081  24.911  36.180  1.00  0.00    -0.200 F 
ATOM     83  F   UNL A   1      44.805  24.351  37.564  1.00  0.00    -0.200 F 
ENDBRANCH  49  73
BRANCH  61  84
ATOM     84  C   UNL A   1      45.370  28.981  28.177  1.00  0.00     0.064 A 
ATOM     85  C   UNL A   1      45.993  27.805  27.719  1.00  0.00     0.173 A 
ATOM     86  C   UNL A   1      46.066  30.184  27.991  1.00  0.00     0.173 A 
ATOM     87  F   UNL A   1      45.358  26.627  27.759  1.00  0.00    -0.203 F 
ATOM     88  C   UNL A   1      47.266  27.833  27.144  1.00  0.00     0.198 A 
ATOM     89  C   UNL A   1      47.317  30.214  27.386  1.00  0.00     0.198 A 
ATOM     90  F   UNL A   1      45.501  31.345  28.355  1.00  0.00    -0.203 F 
ATOM     91  F   UNL A   1      47.840  26.697  26.720  1.00  0.00    -0.200 F 
ATOM     92  C   UNL A   1      47.924  29.040  26.973  1.00  0.00     0.200 A 
ATOM     93  F   UNL A   1      47.923  31.390  27.176  1.00  0.00    -0.200 F 
ATOM     94  F   UNL A   1      49.129  29.075  26.388  1.00  0.00    -0.200 F 
ENDBRANCH  61  84
ENDBRANCH  35  36
ENDBRANCH  27  30
ENDBRANCH  25  26
ENDBRANCH  24  25
ENDBRANCH   1  24
TORSDOF 13
ENDMDL
MODEL 2
REMARK VINA RESULT:     -13.0      3.060      7.946
REMARK SMILES C[C@@H]1CCc2sc(NC(=O)/C=C/C(=O)NCCCNC(=O)c3ccc(-c4c5nc(c(-c6c(F)c(F)c(F)c(F)c6F)c6ccc([nH]6)c(-c6c(F)c(F)c(F)c(F)c6F)c6nc(c(-c7c(F)c(F)c(F)c(F)c7F)c7ccc4[nH]7)C=C6)C=C5)cc3)c(C#N)c2C1
REMARK SMILES IDX 16 1 15 2 13 3 14 4 12 6 11 7 9 8 8 9 10 11 7 12 1 13 2 14
REMARK SMILES IDX 3 15 89 16 4 17 88 18 5 19 85 20 6 21 86 22 87 23 17 24
REMARK SMILES IDX 18 25 19 26 20 27 21 29 22 30 23 31 84 32 24 33 83 34 25 35
REMARK SMILES IDX 26 36 27 37 77 38 28 39 82 40 76 41 78 42 29 43 81 44 75 45
REMARK SMILES IDX 74 46 30 48 62 49 42 50 61 51 43 52 46 53 60 54 79 55 44 56
REMARK SMILES IDX 45 57 59 59 80 60 47 61 31 62 32 63 40 64 33 65 34 66 38 67
REMARK SMILES IDX 41 68 35 69 36 70 39 71 37 72 63 73 64 74 72 75 65 76 66 77
REMARK SMILES IDX 70 78 73 79 67 80 68 81 71 82 69 83 48 84 49 85 57 86 50 87
REMARK SMILES IDX 51 88 55 89 58 90 52 91 53 92 56 93 54 94
REMARK H PARENT 15 5 8 10 19 28 78 47 46 58
REMARK Flexibility Score: inf
ROOT
ATOM      1  C   UNL A   1      37.813  22.916  25.820  1.00  0.00     0.118 C 
ENDROOT
BRANCH   1   2
ATOM      2  N   UNL A   1      37.636  23.076  24.388  1.00  0.00    -0.352 N 
ATOM      3  C   UNL A   1      36.525  23.239  23.628  1.00  0.00     0.244 C 
ATOM      4  O   UNL A   1      36.600  23.034  22.415  1.00  0.00    -0.270 OA
ATOM      5  H   UNL A   1      38.476  23.061  23.874  1.00  0.00     0.163 HD
BRANCH   3   6
ATOM      6  C   UNL A   1      35.230  23.734  24.162  1.00  0.00     0.077 C 
ATOM      7  C   UNL A   1      34.201  24.175  23.428  1.00  0.00     0.077 C 
BRANCH   7   8
ATOM      8  C   UNL A   1      32.814  24.312  23.890  1.00  0.00     0.249 C 
ATOM      9  N   UNL A   1      32.066  23.238  24.249  1.00  0.00    -0.313 N 
ATOM     10  H   UNL A   1      31.149  23.462  24.528  1.00  0.00     0.171 HD
ATOM     11  O   UNL A   1      32.310  25.435  23.881  1.00  0.00    -0.270 OA
BRANCH   9  12
ATOM     12  C   UNL A   1      32.354  21.897  24.295  1.00  0.00     0.114 A 
ATOM     13  C   UNL A   1      34.954  17.799  24.488  1.00  0.00     0.008 C 
ATOM     14  C   UNL A   1      33.499  17.343  24.656  1.00  0.00    -0.009 C 
ATOM     15  C   UNL A   1      32.759  17.147  23.308  1.00  0.00     0.009 C 
ATOM     16  C   UNL A   1      32.729  18.359  25.516  1.00  0.00     0.041 C 
ATOM     17  C   UNL A   1      32.527  18.439  22.500  1.00  0.00     0.047 C 
ATOM     18  C   UNL A   1      32.568  19.641  24.754  1.00  0.00    -0.014 A 
ATOM     19  C   UNL A   1      32.353  19.629  23.389  1.00  0.00     0.011 A 
ATOM     20  C   UNL A   1      32.866  20.973  25.187  1.00  0.00     0.090 A 
ATOM     21  S   UNL A   1      32.042  21.176  22.773  1.00  0.00    -0.121 S 
BRANCH  20  22
ATOM     22  C   UNL A   1      33.669  21.242  26.338  1.00  0.00     0.103 C 
ATOM     23  N   UNL A   1      34.283  21.426  27.317  1.00  0.00    -0.192 NA
ENDBRANCH  20  22
ENDBRANCH   9  12
ENDBRANCH   7   8
ENDBRANCH   3   6
ENDBRANCH   1   2
BRANCH   1  24
ATOM     24  C   UNL A   1      38.897  21.880  26.123  1.00  0.00     0.042 C 
BRANCH  24  25
ATOM     25  C   UNL A   1      39.912  22.485  27.072  1.00  0.00     0.118 C 
BRANCH  25  26
ATOM     26  N   UNL A   1      41.280  22.319  26.556  1.00  0.00    -0.352 N 
ATOM     27  C   UNL A   1      42.169  23.282  26.123  1.00  0.00     0.251 C 
ATOM     28  H   UNL A   1      41.607  21.391  26.513  1.00  0.00     0.163 HD
ATOM     29  O   UNL A   1      43.108  23.001  25.391  1.00  0.00    -0.269 OA
BRANCH  27  30
ATOM     30  C   UNL A   1      41.980  24.655  26.606  1.00  0.00     0.039 A 
ATOM     31  C   UNL A   1      41.053  25.539  26.053  1.00  0.00     0.014 A 
ATOM     32  C   UNL A   1      42.739  25.016  27.710  1.00  0.00     0.014 A 
ATOM     33  C   UNL A   1      40.929  26.798  26.632  1.00  0.00     0.010 A 
ATOM     34  C   UNL A   1      42.325  26.060  28.468  1.00  0.00     0.010 A 
ATOM     35  C   UNL A   1      41.599  27.047  27.841  1.00  0.00    -0.014 A 
BRANCH  35  36
ATOM     36  C   UNL A   1      41.449  28.269  28.605  1.00  0.00     0.031 A 
ATOM     37  C   UNL A   1      42.494  29.249  28.254  1.00  0.00     0.074 A 
ATOM     38  C   UNL A   1      40.351  28.541  29.351  1.00  0.00     0.049 A 
ATOM     39  N   UNL A   1      43.521  29.557  28.968  1.00  0.00    -0.248 NA
ATOM     40  C   UNL A   1      42.557  29.753  26.871  1.00  0.00     0.031 C 
ATOM     41  C   UNL A   1      39.118  27.761  29.518  1.00  0.00     0.029 A 
ATOM     42  N   UNL A   1      40.083  29.663  30.081  1.00  0.00    -0.354 N 
ATOM     43  C   UNL A   1      44.214  30.504  28.229  1.00  0.00     0.074 A 
ATOM     44  C   UNL A   1      43.733  30.386  26.880  1.00  0.00     0.031 C 
ATOM     45  C   UNL A   1      38.159  28.529  30.090  1.00  0.00     0.029 A 
ATOM     46  C   UNL A   1      38.743  29.799  30.470  1.00  0.00     0.049 A 
ATOM     47  H   UNL A   1      40.775  30.322  30.317  1.00  0.00     0.167 HD
ATOM     48  C   UNL A   1      44.868  31.510  28.871  1.00  0.00     0.037 A 
ATOM     49  C   UNL A   1      38.201  30.925  31.015  1.00  0.00     0.037 A 
ATOM     50  C   UNL A   1      45.055  31.177  30.267  1.00  0.00     0.049 A 
ATOM     51  C   UNL A   1      39.345  31.713  31.568  1.00  0.00     0.074 A 
ATOM     52  C   UNL A   1      45.650  30.116  30.928  1.00  0.00     0.029 A 
ATOM     53  N   UNL A   1      44.190  31.739  31.178  1.00  0.00    -0.354 N 
ATOM     54  N   UNL A   1      40.075  31.297  32.570  1.00  0.00    -0.248 NA
ATOM     55  C   UNL A   1      39.999  32.639  30.651  1.00  0.00     0.031 C 
ATOM     56  C   UNL A   1      44.741  29.783  31.978  1.00  0.00     0.029 A 
ATOM     57  C   UNL A   1      43.721  30.732  31.986  1.00  0.00     0.049 A 
ATOM     58  H   UNL A   1      43.953  32.693  31.241  1.00  0.00     0.167 HD
ATOM     59  C   UNL A   1      41.382  31.538  32.170  1.00  0.00     0.074 A 
ATOM     60  C   UNL A   1      41.269  32.384  30.980  1.00  0.00     0.031 C 
ATOM     61  C   UNL A   1      42.423  30.776  32.620  1.00  0.00     0.037 A 
BRANCH  48  62
ATOM     62  C   UNL A   1      44.930  32.930  28.365  1.00  0.00     0.064 A 
ATOM     63  C   UNL A   1      46.196  33.516  28.170  1.00  0.00     0.173 A 
ATOM     64  C   UNL A   1      43.839  33.829  28.354  1.00  0.00     0.173 A 
ATOM     65  F   UNL A   1      47.305  32.762  28.176  1.00  0.00    -0.203 F 
ATOM     66  C   UNL A   1      46.361  34.900  28.065  1.00  0.00     0.198 A 
ATOM     67  C   UNL A   1      44.003  35.202  28.197  1.00  0.00     0.198 A 
ATOM     68  F   UNL A   1      42.584  33.447  28.607  1.00  0.00    -0.203 F 
ATOM     69  F   UNL A   1      47.594  35.419  28.015  1.00  0.00    -0.200 F 
ATOM     70  C   UNL A   1      45.264  35.742  28.085  1.00  0.00     0.200 A 
ATOM     71  F   UNL A   1      42.927  36.001  28.241  1.00  0.00    -0.200 F 
ATOM     72  F   UNL A   1      45.423  37.070  28.048  1.00  0.00    -0.200 F 
ENDBRANCH  48  62
BRANCH  49  73
ATOM     73  C   UNL A   1      36.878  31.549  30.730  1.00  0.00     0.064 A 
ATOM     74  C   UNL A   1      35.957  31.822  31.761  1.00  0.00     0.173 A 
ATOM     75  C   UNL A   1      36.611  32.165  29.492  1.00  0.00     0.173 A 
ATOM     76  F   UNL A   1      36.148  31.315  32.988  1.00  0.00    -0.203 F 
ATOM     77  C   UNL A   1      34.865  32.682  31.572  1.00  0.00     0.198 A 
ATOM     78  C   UNL A   1      35.523  33.023  29.305  1.00  0.00     0.198 A 
ATOM     79  F   UNL A   1      37.455  32.028  28.460  1.00  0.00    -0.203 F 
ATOM     80  F   UNL A   1      34.047  32.967  32.597  1.00  0.00    -0.200 F 
ATOM     81  C   UNL A   1      34.658  33.294  30.347  1.00  0.00     0.200 A 
ATOM     82  F   UNL A   1      35.357  33.636  28.124  1.00  0.00    -0.200 F 
ATOM     83  F   UNL A   1      33.658  34.171  30.184  1.00  0.00    -0.200 F 
ENDBRANCH  49  73
BRANCH  61  84
ATOM     84  C   UNL A   1      42.173  29.786  33.726  1.00  0.00     0.064 A 
ATOM     85  C   UNL A   1      41.743  28.460  33.535  1.00  0.00     0.173 A 
ATOM     86  C   UNL A   1      42.548  30.152  35.026  1.00  0.00     0.173 A 
ATOM     87  F   UNL A   1      41.466  27.993  32.311  1.00  0.00    -0.203 F 
ATOM     88  C   UNL A   1      41.654  27.563  34.603  1.00  0.00     0.198 A 
ATOM     89  C   UNL A   1      42.493  29.248  36.081  1.00  0.00     0.198 A 
ATOM     90  F   UNL A   1      43.020  31.385  35.263  1.00  0.00    -0.203 F 
ATOM     91  F   UNL A   1      41.235  26.305  34.394  1.00  0.00    -0.200 F 
ATOM     92  C   UNL A   1      42.035  27.958  35.874  1.00  0.00     0.200 A 
ATOM     93  F   UNL A   1      42.915  29.622  37.297  1.00  0.00    -0.200 F 
ATOM     94  F   UNL A   1      41.986  27.090  36.894  1.00  0.00    -0.200 F 
ENDBRANCH  61  84
ENDBRANCH  35  36
ENDBRANCH  27  30
ENDBRANCH  25  26
ENDBRANCH  24  25
ENDBRANCH   1  24
TORSDOF 13
ENDMDL
MODEL 3
REMARK VINA RESULT:     -12.9      2.521      7.122
REMARK SMILES C[C@@H]1CCc2sc(NC(=O)/C=C/C(=O)NCCCNC(=O)c3ccc(-c4c5nc(c(-c6c(F)c(F)c(F)c(F)c6F)c6ccc([nH]6)c(-c6c(F)c(F)c(F)c(F)c6F)c6nc(c(-c7c(F)c(F)c(F)c(F)c7F)c7ccc4[nH]7)C=C6)C=C5)cc3)c(C#N)c2C1
REMARK SMILES IDX 16 1 15 2 13 3 14 4 12 6 11 7 9 8 8 9 10 11 7 12 1 13 2 14
REMARK SMILES IDX 3 15 89 16 4 17 88 18 5 19 85 20 6 21 86 22 87 23 17 24
REMARK SMILES IDX 18 25 19 26 20 27 21 29 22 30 23 31 84 32 24 33 83 34 25 35
REMARK SMILES IDX 26 36 27 37 77 38 28 39 82 40 76 41 78 42 29 43 81 44 75 45
REMARK SMILES IDX 74 46 30 48 62 49 42 50 61 51 43 52 46 53 60 54 79 55 44 56
REMARK SMILES IDX 45 57 59 59 80 60 47 61 31 62 32 63 40 64 33 65 34 66 38 67
REMARK SMILES IDX 41 68 35 69 36 70 39 71 37 72 63 73 64 74 72 75 65 76 66 77
REMARK SMILES IDX 70 78 73 79 67 80 68 81 71 82 69 83 48 84 49 85 57 86 50 87
REMARK SMILES IDX 51 88 55 89 58 90 52 91 53 92 56 93 54 94
REMARK H PARENT 15 5 8 10 19 28 78 47 46 58
REMARK Flexibility Score: inf
ROOT
ATOM      1  C   UNL A   1      38.090  22.750  25.948  1.00  0.00     0.118 C 
ENDROOT
BRANCH   1   2
ATOM      2  N   UNL A   1      37.667  23.170  24.624  1.00  0.00    -0.352 N 
ATOM      3  C   UNL A   1      36.613  22.805  23.855  1.00  0.00     0.244 C 
ATOM      4  O   UNL A   1      36.640  23.059  22.650  1.00  0.00    -0.270 OA
ATOM      5  H   UNL A   1      38.255  23.842  24.208  1.00  0.00     0.163 HD
BRANCH   3   6
ATOM      6  C   UNL A   1      35.376  22.184  24.397  1.00  0.00     0.077 C 
ATOM      7  C   UNL A   1      34.500  22.779  25.216  1.00  0.00     0.077 C 
BRANCH   7   8
ATOM      8  C   UNL A   1      33.120  22.340  25.461  1.00  0.00     0.249 C 
ATOM      9  N   UNL A   1      32.055  23.145  25.220  1.00  0.00    -0.313 N 
ATOM     10  H   UNL A   1      31.185  22.738  25.437  1.00  0.00     0.171 HD
ATOM     11  O   UNL A   1      32.947  21.229  25.962  1.00  0.00    -0.270 OA
BRANCH   9  12
ATOM     12  C   UNL A   1      31.969  24.424  24.729  1.00  0.00     0.114 A 
ATOM     13  C   UNL A   1      33.351  28.707  22.903  1.00  0.00     0.008 C 
ATOM     14  C   UNL A   1      31.819  28.736  22.842  1.00  0.00    -0.009 C 
ATOM     15  C   UNL A   1      31.161  29.192  24.170  1.00  0.00     0.009 C 
ATOM     16  C   UNL A   1      31.285  27.346  22.462  1.00  0.00     0.041 C 
ATOM     17  C   UNL A   1      31.348  28.224  25.354  1.00  0.00     0.047 C 
ATOM     18  C   UNL A   1      31.533  26.387  23.588  1.00  0.00    -0.014 A 
ATOM     19  C   UNL A   1      31.430  26.800  24.902  1.00  0.00     0.011 A 
ATOM     20  C   UNL A   1      32.143  25.092  23.531  1.00  0.00     0.090 A 
ATOM     21  S   UNL A   1      31.595  25.516  25.995  1.00  0.00    -0.121 S 
BRANCH  20  22
ATOM     22  C   UNL A   1      32.896  24.650  22.401  1.00  0.00     0.103 C 
ATOM     23  N   UNL A   1      33.458  24.299  21.437  1.00  0.00    -0.192 NA
ENDBRANCH  20  22
ENDBRANCH   9  12
ENDBRANCH   7   8
ENDBRANCH   3   6
ENDBRANCH   1   2
BRANCH   1  24
ATOM     24  C   UNL A   1      38.966  21.499  25.869  1.00  0.00     0.042 C 
BRANCH  24  25
ATOM     25  C   UNL A   1      40.164  21.671  26.782  1.00  0.00     0.118 C 
BRANCH  25  26
ATOM     26  N   UNL A   1      41.406  21.793  26.004  1.00  0.00    -0.352 N 
ATOM     27  C   UNL A   1      42.175  22.914  25.764  1.00  0.00     0.251 C 
ATOM     28  H   UNL A   1      41.735  20.959  25.597  1.00  0.00     0.163 HD
ATOM     29  O   UNL A   1      42.957  22.961  24.824  1.00  0.00    -0.269 OA
BRANCH  27  30
ATOM     30  C   UNL A   1      42.060  24.037  26.700  1.00  0.00     0.039 A 
ATOM     31  C   UNL A   1      42.872  24.181  27.826  1.00  0.00     0.014 A 
ATOM     32  C   UNL A   1      41.126  25.008  26.365  1.00  0.00     0.014 A 
ATOM     33  C   UNL A   1      42.701  25.318  28.609  1.00  0.00     0.010 A 
ATOM     34  C   UNL A   1      41.258  26.246  26.902  1.00  0.00     0.010 A 
ATOM     35  C   UNL A   1      41.864  26.339  28.134  1.00  0.00    -0.014 A 
BRANCH  35  36
ATOM     36  C   UNL A   1      41.705  27.620  28.793  1.00  0.00     0.031 A 
ATOM     37  C   UNL A   1      42.756  28.568  28.376  1.00  0.00     0.074 A 
ATOM     38  C   UNL A   1      40.598  27.953  29.498  1.00  0.00     0.049 A 
ATOM     39  N   UNL A   1      43.774  28.934  29.076  1.00  0.00    -0.248 NA
ATOM     40  C   UNL A   1      42.838  28.956  26.956  1.00  0.00     0.031 C 
ATOM     41  C   UNL A   1      39.361  27.189  29.712  1.00  0.00     0.029 A 
ATOM     42  N   UNL A   1      40.321  29.131  30.129  1.00  0.00    -0.354 N 
ATOM     43  C   UNL A   1      44.477  29.817  28.270  1.00  0.00     0.074 A 
ATOM     44  C   UNL A   1      44.014  29.587  26.929  1.00  0.00     0.031 C 
ATOM     45  C   UNL A   1      38.396  28.002  30.206  1.00  0.00     0.029 A 
ATOM     46  C   UNL A   1      38.976  29.299  30.487  1.00  0.00     0.049 A 
ATOM     47  H   UNL A   1      41.010  29.808  30.319  1.00  0.00     0.167 HD
ATOM     48  C   UNL A   1      45.123  30.872  28.836  1.00  0.00     0.037 A 
ATOM     49  C   UNL A   1      38.428  30.466  30.929  1.00  0.00     0.037 A 
ATOM     50  C   UNL A   1      45.292  30.656  30.257  1.00  0.00     0.049 A 
ATOM     51  C   UNL A   1      39.565  31.297  31.431  1.00  0.00     0.074 A 
ATOM     52  C   UNL A   1      45.876  29.653  31.012  1.00  0.00     0.029 A 
ATOM     53  N   UNL A   1      44.415  31.292  31.106  1.00  0.00    -0.354 N 
ATOM     54  N   UNL A   1      40.281  30.966  32.473  1.00  0.00    -0.248 NA
ATOM     55  C   UNL A   1      40.232  32.145  30.449  1.00  0.00     0.031 C 
ATOM     56  C   UNL A   1      44.952  29.408  32.073  1.00  0.00     0.029 A 
ATOM     57  C   UNL A   1      43.933  30.355  31.988  1.00  0.00     0.049 A 
ATOM     58  H   UNL A   1      44.177  32.247  31.087  1.00  0.00     0.167 HD
ATOM     59  C   UNL A   1      41.593  31.173  32.073  1.00  0.00     0.074 A 
ATOM     60  C   UNL A   1      41.497  31.918  30.816  1.00  0.00     0.031 C 
ATOM     61  C   UNL A   1      42.627  30.452  32.599  1.00  0.00     0.037 A 
BRANCH  48  62
ATOM     62  C   UNL A   1      45.194  32.246  28.215  1.00  0.00     0.064 A 
ATOM     63  C   UNL A   1      46.459  32.845  28.057  1.00  0.00     0.173 A 
ATOM     64  C   UNL A   1      44.090  33.113  28.052  1.00  0.00     0.173 A 
ATOM     65  F   UNL A   1      47.579  32.122  28.204  1.00  0.00    -0.203 F 
ATOM     66  C   UNL A   1      46.605  34.218  27.845  1.00  0.00     0.198 A 
ATOM     67  C   UNL A   1      44.238  34.472  27.788  1.00  0.00     0.198 A 
ATOM     68  F   UNL A   1      42.827  32.722  28.250  1.00  0.00    -0.203 F 
ATOM     69  F   UNL A   1      47.828  34.762  27.835  1.00  0.00    -0.200 F 
ATOM     70  C   UNL A   1      45.493  35.031  27.718  1.00  0.00     0.200 A 
ATOM     71  F   UNL A   1      43.146  35.244  27.690  1.00  0.00    -0.200 F 
ATOM     72  F   UNL A   1      45.629  36.356  27.578  1.00  0.00    -0.200 F 
ENDBRANCH  48  62
BRANCH  49  73
ATOM     73  C   UNL A   1      37.109  31.065  30.576  1.00  0.00     0.064 A 
ATOM     74  C   UNL A   1      36.176  31.426  31.568  1.00  0.00     0.173 A 
ATOM     75  C   UNL A   1      36.858  31.572  29.286  1.00  0.00     0.173 A 
ATOM     76  F   UNL A   1      36.352  31.026  32.837  1.00  0.00    -0.203 F 
ATOM     77  C   UNL A   1      35.088  32.267  31.293  1.00  0.00     0.198 A 
ATOM     78  C   UNL A   1      35.775  32.412  29.013  1.00  0.00     0.198 A 
ATOM     79  F   UNL A   1      37.715  31.346  28.281  1.00  0.00    -0.203 F 
ATOM     80  F   UNL A   1      34.258  32.639  32.279  1.00  0.00    -0.200 F 
ATOM     81  C   UNL A   1      34.897  32.772  30.018  1.00  0.00     0.200 A 
ATOM     82  F   UNL A   1      35.623  32.922  27.782  1.00  0.00    -0.200 F 
ATOM     83  F   UNL A   1      33.901  33.632  29.767  1.00  0.00    -0.200 F 
ENDBRANCH  49  73
BRANCH  61  84
ATOM     84  C   UNL A   1      42.361  29.556  33.779  1.00  0.00     0.064 A 
ATOM     85  C   UNL A   1      41.903  28.228  33.694  1.00  0.00     0.173 A 
ATOM     86  C   UNL A   1      42.748  30.015  35.046  1.00  0.00     0.173 A 
ATOM     87  F   UNL A   1      41.612  27.673  32.510  1.00  0.00    -0.203 F 
ATOM     88  C   UNL A   1      41.800  27.420  34.829  1.00  0.00     0.198 A 
ATOM     89  C   UNL A   1      42.679  29.198  36.169  1.00  0.00     0.198 A 
ATOM     90  F   UNL A   1      43.246  31.253  35.184  1.00  0.00    -0.203 F 
ATOM     91  F   UNL A   1      41.355  26.158  34.720  1.00  0.00    -0.200 F 
ATOM     92  C   UNL A   1      42.194  27.905  36.065  1.00  0.00     0.200 A 
ATOM     93  F   UNL A   1      43.112  29.657  37.350  1.00  0.00    -0.200 F 
ATOM     94  F   UNL A   1      42.131  27.121  37.149  1.00  0.00    -0.200 F 
ENDBRANCH  61  84
ENDBRANCH  35  36
ENDBRANCH  27  30
ENDBRANCH  25  26
ENDBRANCH  24  25
ENDBRANCH   1  24
TORSDOF 13
ENDMDL
