MODEL 1
REMARK VINA RESULT:     -11.0      0.000      0.000
REMARK SMILES C=CCN(CC(=O)NCCCNC(=O)c1ccc(-c2c3nc(c(-c4c(F)c(F)c(F)c(F)c4F)c4ccc([nH]4)c(-c4c(F)c(F)c(F)c(F)c4F)c4nc(c(-c5c(F)c(F)c(F)c(F)c5F)c5ccc2[nH]5)C=C4)C=C3)cc1)S(=O)(=O)c1ccccc1OC
REMARK SMILES IDX 9 1 8 2 6 3 7 4 5 6 4 7 3 8 2 9 1 10 78 11 79 12 80 13 81 14
REMARK SMILES IDX 82 15 86 16 83 17 85 18 84 19 87 20 88 21 10 22 11 23 12 24
REMARK SMILES IDX 13 25 14 27 15 28 16 29 77 30 17 31 76 32 18 33 19 34 20 35
REMARK SMILES IDX 70 36 21 37 75 38 69 39 71 40 22 41 74 42 68 43 67 44 23 46
REMARK SMILES IDX 55 47 35 48 54 49 36 50 39 51 53 52 72 53 37 54 38 55 52 57
REMARK SMILES IDX 73 58 40 59 24 60 25 61 33 62 26 63 27 64 31 65 34 66 28 67
REMARK SMILES IDX 29 68 32 69 30 70 56 71 57 72 65 73 58 74 59 75 63 76 66 77
REMARK SMILES IDX 60 78 61 79 64 80 62 81 41 82 42 83 50 84 43 85 44 86 48 87
REMARK SMILES IDX 51 88 45 89 46 90 49 91 47 92
REMARK H PARENT 8 5 12 26 71 45 39 56
REMARK Flexibility Score: inf
ROOT
ATOM      1  C   UNL A   1      32.294  28.228  22.749  1.00  0.00     0.117 C 
ENDROOT
BRANCH   1   2
ATOM      2  N   UNL A   1      32.859  27.403  21.695  1.00  0.00    -0.355 N 
ATOM      3  C   UNL A   1      32.697  26.076  21.422  1.00  0.00     0.235 C 
ATOM      4  O   UNL A   1      33.278  25.620  20.432  1.00  0.00    -0.274 OA
ATOM      5  H   UNL A   1      33.457  27.881  21.076  1.00  0.00     0.163 HD
BRANCH   3   6
ATOM      6  C   UNL A   1      31.786  25.192  22.260  1.00  0.00     0.202 C 
BRANCH   6   7
ATOM      7  N   UNL A   1      32.363  24.277  23.301  1.00  0.00    -0.185 NA
BRANCH   7   8
ATOM      8  C   UNL A   1      31.568  23.029  23.400  1.00  0.00     0.130 C 
BRANCH   8   9
ATOM      9  C   UNL A   1      32.227  21.803  22.871  1.00  0.00    -0.018 C 
ATOM     10  C   UNL A   1      32.445  20.691  23.588  1.00  0.00     0.005 C 
ENDBRANCH   8   9
ENDBRANCH   7   8
BRANCH   7  11
ATOM     11  S   UNL A   1      32.949  25.014  24.741  1.00  0.00     0.247 S 
ATOM     12  O   UNL A   1      34.140  25.745  24.356  1.00  0.00    -0.207 OA
ATOM     13  O   UNL A   1      31.852  25.672  25.416  1.00  0.00    -0.207 OA
BRANCH  11  14
ATOM     14  C   UNL A   1      33.352  23.651  25.805  1.00  0.00     0.124 A 
ATOM     15  C   UNL A   1      32.563  23.423  26.943  1.00  0.00     0.026 A 
ATOM     16  C   UNL A   1      34.501  22.889  25.592  1.00  0.00     0.138 A 
ATOM     17  C   UNL A   1      32.903  22.413  27.842  1.00  0.00     0.002 A 
ATOM     18  C   UNL A   1      34.847  21.887  26.505  1.00  0.00     0.048 A 
ATOM     19  C   UNL A   1      34.043  21.642  27.621  1.00  0.00     0.004 A 
BRANCH  16  20
ATOM     20  O   UNL A   1      35.394  23.203  24.606  1.00  0.00    -0.495 OA
ATOM     21  C   UNL A   1      36.712  23.361  25.130  1.00  0.00     0.278 C 
ENDBRANCH  16  20
ENDBRANCH  11  14
ENDBRANCH   7  11
ENDBRANCH   6   7
ENDBRANCH   3   6
ENDBRANCH   1   2
BRANCH   1  22
ATOM     22  C   UNL A   1      33.355  29.067  23.459  1.00  0.00     0.042 C 
BRANCH  22  23
ATOM     23  C   UNL A   1      33.274  29.022  24.982  1.00  0.00     0.118 C 
BRANCH  23  24
ATOM     24  N   UNL A   1      32.718  30.246  25.541  1.00  0.00    -0.352 N 
ATOM     25  C   UNL A   1      33.072  30.983  26.646  1.00  0.00     0.251 C 
ATOM     26  H   UNL A   1      31.952  30.610  25.041  1.00  0.00     0.163 HD
ATOM     27  O   UNL A   1      32.313  31.874  27.026  1.00  0.00    -0.269 OA
BRANCH  25  28
ATOM     28  C   UNL A   1      34.328  30.737  27.399  1.00  0.00     0.039 A 
ATOM     29  C   UNL A   1      34.518  29.475  27.980  1.00  0.00     0.014 A 
ATOM     30  C   UNL A   1      35.276  31.737  27.626  1.00  0.00     0.014 A 
ATOM     31  C   UNL A   1      35.666  29.206  28.736  1.00  0.00     0.010 A 
ATOM     32  C   UNL A   1      36.456  31.449  28.318  1.00  0.00     0.010 A 
ATOM     33  C   UNL A   1      36.659  30.184  28.890  1.00  0.00    -0.014 A 
BRANCH  33  34
ATOM     34  C   UNL A   1      37.896  29.914  29.671  1.00  0.00     0.031 A 
ATOM     35  C   UNL A   1      38.954  28.992  29.125  1.00  0.00     0.074 A 
ATOM     36  C   UNL A   1      38.051  30.449  30.896  1.00  0.00     0.049 A 
ATOM     37  N   UNL A   1      40.052  28.558  29.693  1.00  0.00    -0.248 NA
ATOM     38  C   UNL A   1      38.737  28.470  27.767  1.00  0.00     0.031 C 
ATOM     39  C   UNL A   1      37.092  31.331  31.563  1.00  0.00     0.029 A 
ATOM     40  N   UNL A   1      39.070  30.318  31.808  1.00  0.00    -0.354 N 
ATOM     41  C   UNL A   1      40.636  27.692  28.779  1.00  0.00     0.074 A 
ATOM     42  C   UNL A   1      39.761  27.639  27.628  1.00  0.00     0.031 C 
ATOM     43  C   UNL A   1      37.574  31.674  32.768  1.00  0.00     0.029 A 
ATOM     44  C   UNL A   1      38.860  31.012  32.974  1.00  0.00     0.049 A 
ATOM     45  H   UNL A   1      39.876  29.777  31.641  1.00  0.00     0.167 HD
ATOM     46  C   UNL A   1      41.804  27.013  28.881  1.00  0.00     0.037 A 
ATOM     47  C   UNL A   1      39.612  31.099  34.087  1.00  0.00     0.037 A 
ATOM     48  C   UNL A   1      42.705  27.097  30.001  1.00  0.00     0.049 A 
ATOM     49  C   UNL A   1      40.918  30.358  34.165  1.00  0.00     0.074 A 
ATOM     50  C   UNL A   1      43.940  26.495  30.162  1.00  0.00     0.029 A 
ATOM     51  N   UNL A   1      42.469  27.838  31.148  1.00  0.00    -0.354 N 
ATOM     52  N   UNL A   1      41.478  29.576  33.275  1.00  0.00    -0.248 NA
ATOM     53  C   UNL A   1      41.697  30.516  35.402  1.00  0.00     0.031 C 
ATOM     54  C   UNL A   1      44.443  26.853  31.419  1.00  0.00     0.029 A 
ATOM     55  C   UNL A   1      43.532  27.701  32.026  1.00  0.00     0.049 A 
ATOM     56  H   UNL A   1      41.664  28.381  31.315  1.00  0.00     0.167 HD
ATOM     57  C   UNL A   1      42.680  29.164  33.834  1.00  0.00     0.074 A 
ATOM     58  C   UNL A   1      42.775  29.791  35.135  1.00  0.00     0.031 C 
ATOM     59  C   UNL A   1      43.619  28.339  33.312  1.00  0.00     0.037 A 
BRANCH  46  60
ATOM     60  C   UNL A   1      42.183  26.115  27.742  1.00  0.00     0.064 A 
ATOM     61  C   UNL A   1      43.086  26.528  26.753  1.00  0.00     0.173 A 
ATOM     62  C   UNL A   1      41.664  24.814  27.660  1.00  0.00     0.173 A 
ATOM     63  F   UNL A   1      43.599  27.768  26.783  1.00  0.00    -0.203 F 
ATOM     64  C   UNL A   1      43.441  25.678  25.709  1.00  0.00     0.198 A 
ATOM     65  C   UNL A   1      42.039  23.959  26.628  1.00  0.00     0.198 A 
ATOM     66  F   UNL A   1      40.800  24.370  28.586  1.00  0.00    -0.203 F 
ATOM     67  F   UNL A   1      44.276  26.106  24.753  1.00  0.00    -0.200 F 
ATOM     68  C   UNL A   1      42.921  24.393  25.650  1.00  0.00     0.200 A 
ATOM     69  F   UNL A   1      41.543  22.715  26.576  1.00  0.00    -0.200 F 
ATOM     70  F   UNL A   1      43.267  23.575  24.647  1.00  0.00    -0.200 F 
ENDBRANCH  46  60
BRANCH  47  71
ATOM     71  C   UNL A   1      39.158  31.946  35.217  1.00  0.00     0.064 A 
ATOM     72  C   UNL A   1      38.449  31.387  36.289  1.00  0.00     0.173 A 
ATOM     73  C   UNL A   1      39.424  33.321  35.252  1.00  0.00     0.173 A 
ATOM     74  F   UNL A   1      38.152  30.079  36.285  1.00  0.00    -0.203 F 
ATOM     75  C   UNL A   1      38.013  32.175  37.350  1.00  0.00     0.198 A 
ATOM     76  C   UNL A   1      39.004  34.105  36.324  1.00  0.00     0.198 A 
ATOM     77  F   UNL A   1      40.099  33.900  34.248  1.00  0.00    -0.203 F 
ATOM     78  F   UNL A   1      37.308  31.623  38.347  1.00  0.00    -0.200 F 
ATOM     79  C   UNL A   1      38.295  33.533  37.370  1.00  0.00     0.200 A 
ATOM     80  F   UNL A   1      39.286  35.415  36.344  1.00  0.00    -0.200 F 
ATOM     81  F   UNL A   1      37.878  34.291  38.393  1.00  0.00    -0.200 F 
ENDBRANCH  47  71
BRANCH  59  82
ATOM     82  C   UNL A   1      44.845  28.088  34.136  1.00  0.00     0.064 A 
ATOM     83  C   UNL A   1      45.962  28.932  34.060  1.00  0.00     0.173 A 
ATOM     84  C   UNL A   1      44.887  27.015  35.039  1.00  0.00     0.173 A 
ATOM     85  F   UNL A   1      45.973  29.961  33.200  1.00  0.00    -0.203 F 
ATOM     86  C   UNL A   1      47.085  28.701  34.850  1.00  0.00     0.198 A 
ATOM     87  C   UNL A   1      46.004  26.798  35.839  1.00  0.00     0.198 A 
ATOM     88  F   UNL A   1      43.840  26.182  35.148  1.00  0.00    -0.203 F 
ATOM     89  F   UNL A   1      48.156  29.499  34.739  1.00  0.00    -0.200 F 
ATOM     90  C   UNL A   1      47.103  27.638  35.741  1.00  0.00     0.200 A 
ATOM     91  F   UNL A   1      46.018  25.775  36.705  1.00  0.00    -0.200 F 
ATOM     92  F   UNL A   1      48.184  27.419  36.502  1.00  0.00    -0.200 F 
ENDBRANCH  59  82
ENDBRANCH  33  34
ENDBRANCH  25  28
ENDBRANCH  23  24
ENDBRANCH  22  23
ENDBRANCH   1  22
TORSDOF 16
ENDMDL
MODEL 2
REMARK VINA RESULT:     -10.9      2.000      3.427
REMARK SMILES C=CCN(CC(=O)NCCCNC(=O)c1ccc(-c2c3nc(c(-c4c(F)c(F)c(F)c(F)c4F)c4ccc([nH]4)c(-c4c(F)c(F)c(F)c(F)c4F)c4nc(c(-c5c(F)c(F)c(F)c(F)c5F)c5ccc2[nH]5)C=C4)C=C3)cc1)S(=O)(=O)c1ccccc1OC
REMARK SMILES IDX 9 1 8 2 6 3 7 4 5 6 4 7 3 8 2 9 1 10 78 11 79 12 80 13 81 14
REMARK SMILES IDX 82 15 86 16 83 17 85 18 84 19 87 20 88 21 10 22 11 23 12 24
REMARK SMILES IDX 13 25 14 27 15 28 16 29 77 30 17 31 76 32 18 33 19 34 20 35
REMARK SMILES IDX 70 36 21 37 75 38 69 39 71 40 22 41 74 42 68 43 67 44 23 46
REMARK SMILES IDX 55 47 35 48 54 49 36 50 39 51 53 52 72 53 37 54 38 55 52 57
REMARK SMILES IDX 73 58 40 59 24 60 25 61 33 62 26 63 27 64 31 65 34 66 28 67
REMARK SMILES IDX 29 68 32 69 30 70 56 71 57 72 65 73 58 74 59 75 63 76 66 77
REMARK SMILES IDX 60 78 61 79 64 80 62 81 41 82 42 83 50 84 43 85 44 86 48 87
REMARK SMILES IDX 51 88 45 89 46 90 49 91 47 92
REMARK H PARENT 8 5 12 26 71 45 39 56
REMARK Flexibility Score: inf
ROOT
ATOM      1  C   UNL A   1      31.578  30.351  25.408  1.00  0.00     0.117 C 
ENDROOT
BRANCH   1   2
ATOM      2  N   UNL A   1      30.563  29.997  24.431  1.00  0.00    -0.355 N 
ATOM      3  C   UNL A   1      30.667  29.341  23.239  1.00  0.00     0.235 C 
ATOM      4  O   UNL A   1      29.627  29.141  22.603  1.00  0.00    -0.274 OA
ATOM      5  H   UNL A   1      29.649  30.277  24.669  1.00  0.00     0.163 HD
BRANCH   3   6
ATOM      6  C   UNL A   1      31.999  28.814  22.730  1.00  0.00     0.202 C 
BRANCH   6   7
ATOM      7  N   UNL A   1      32.472  27.442  23.117  1.00  0.00    -0.185 NA
BRANCH   7   8
ATOM      8  C   UNL A   1      33.697  27.526  23.949  1.00  0.00     0.130 C 
BRANCH   8   9
ATOM      9  C   UNL A   1      33.581  26.960  25.322  1.00  0.00    -0.018 C 
ATOM     10  C   UNL A   1      34.074  25.770  25.695  1.00  0.00     0.005 C 
ENDBRANCH   8   9
ENDBRANCH   7   8
BRANCH   7  11
ATOM     11  S   UNL A   1      32.356  26.215  21.917  1.00  0.00     0.247 S 
ATOM     12  O   UNL A   1      31.127  26.480  21.197  1.00  0.00    -0.207 OA
ATOM     13  O   UNL A   1      33.622  26.109  21.225  1.00  0.00    -0.207 OA
BRANCH  11  14
ATOM     14  C   UNL A   1      32.243  24.701  22.838  1.00  0.00     0.124 A 
ATOM     15  C   UNL A   1      33.174  23.682  22.584  1.00  0.00     0.026 A 
ATOM     16  C   UNL A   1      31.182  24.471  23.713  1.00  0.00     0.138 A 
ATOM     17  C   UNL A   1      33.062  22.452  23.231  1.00  0.00     0.002 A 
ATOM     18  C   UNL A   1      31.064  23.230  24.348  1.00  0.00     0.048 A 
ATOM     19  C   UNL A   1      32.009  22.227  24.116  1.00  0.00     0.004 A 
BRANCH  16  20
ATOM     20  O   UNL A   1      30.155  25.363  23.841  1.00  0.00    -0.495 OA
ATOM     21  C   UNL A   1      30.007  25.795  25.194  1.00  0.00     0.278 C 
ENDBRANCH  16  20
ENDBRANCH  11  14
ENDBRANCH   7  11
ENDBRANCH   6   7
ENDBRANCH   3   6
ENDBRANCH   1   2
BRANCH   1  22
ATOM     22  C   UNL A   1      31.273  31.673  26.108  1.00  0.00     0.042 C 
BRANCH  22  23
ATOM     23  C   UNL A   1      32.290  32.068  27.174  1.00  0.00     0.118 C 
BRANCH  23  24
ATOM     24  N   UNL A   1      32.277  33.499  27.445  1.00  0.00    -0.352 N 
ATOM     25  C   UNL A   1      33.056  34.273  28.271  1.00  0.00     0.251 C 
ATOM     26  H   UNL A   1      31.589  34.000  26.951  1.00  0.00     0.163 HD
ATOM     27  O   UNL A   1      32.714  35.436  28.481  1.00  0.00    -0.269 OA
BRANCH  25  28
ATOM     28  C   UNL A   1      34.285  33.755  28.924  1.00  0.00     0.039 A 
ATOM     29  C   UNL A   1      34.153  32.731  29.872  1.00  0.00     0.014 A 
ATOM     30  C   UNL A   1      35.546  34.311  28.698  1.00  0.00     0.014 A 
ATOM     31  C   UNL A   1      35.277  32.238  30.546  1.00  0.00     0.010 A 
ATOM     32  C   UNL A   1      36.678  33.771  29.316  1.00  0.00     0.010 A 
ATOM     33  C   UNL A   1      36.554  32.736  30.256  1.00  0.00    -0.014 A 
BRANCH  33  34
ATOM     34  C   UNL A   1      37.765  32.212  30.945  1.00  0.00     0.031 A 
ATOM     35  C   UNL A   1      38.617  31.158  30.288  1.00  0.00     0.074 A 
ATOM     36  C   UNL A   1      38.073  32.637  32.184  1.00  0.00     0.049 A 
ATOM     37  N   UNL A   1      39.651  30.510  30.766  1.00  0.00    -0.248 NA
ATOM     38  C   UNL A   1      38.243  30.764  28.921  1.00  0.00     0.031 C 
ATOM     39  C   UNL A   1      37.317  33.627  32.952  1.00  0.00     0.029 A 
ATOM     40  N   UNL A   1      39.099  32.279  33.024  1.00  0.00    -0.354 N 
ATOM     41  C   UNL A   1      40.028  29.614  29.775  1.00  0.00     0.074 A 
ATOM     42  C   UNL A   1      39.099  29.781  28.678  1.00  0.00     0.031 C 
ATOM     43  C   UNL A   1      37.913  33.810  34.141  1.00  0.00     0.029 A 
ATOM     44  C   UNL A   1      39.073  32.927  34.234  1.00  0.00     0.049 A 
ATOM     45  H   UNL A   1      39.789  31.620  32.781  1.00  0.00     0.167 HD
ATOM     46  C   UNL A   1      41.064  28.741  29.771  1.00  0.00     0.037 A 
ATOM     47  C   UNL A   1      39.885  32.817  35.303  1.00  0.00     0.037 A 
ATOM     48  C   UNL A   1      42.022  28.602  30.836  1.00  0.00     0.049 A 
ATOM     49  C   UNL A   1      41.044  31.861  35.262  1.00  0.00     0.074 A 
ATOM     50  C   UNL A   1      43.141  27.789  30.891  1.00  0.00     0.029 A 
ATOM     51  N   UNL A   1      41.977  29.301  32.032  1.00  0.00    -0.354 N 
ATOM     52  N   UNL A   1      41.414  31.050  34.301  1.00  0.00    -0.248 NA
ATOM     53  C   UNL A   1      41.902  31.808  36.456  1.00  0.00     0.031 C 
ATOM     54  C   UNL A   1      43.761  27.980  32.131  1.00  0.00     0.029 A 
ATOM     55  C   UNL A   1      43.044  28.932  32.835  1.00  0.00     0.049 A 
ATOM     56  H   UNL A   1      41.289  29.963  32.275  1.00  0.00     0.167 HD
ATOM     57  C   UNL A   1      42.553  30.406  34.764  1.00  0.00     0.074 A 
ATOM     58  C   UNL A   1      42.822  30.928  36.087  1.00  0.00     0.031 C 
ATOM     59  C   UNL A   1      43.307  29.466  34.145  1.00  0.00     0.037 A 
BRANCH  46  60
ATOM     60  C   UNL A   1      41.222  27.862  28.567  1.00  0.00     0.064 A 
ATOM     61  C   UNL A   1      40.493  26.673  28.427  1.00  0.00     0.173 A 
ATOM     62  C   UNL A   1      42.085  28.233  27.525  1.00  0.00     0.173 A 
ATOM     63  F   UNL A   1      39.664  26.271  29.403  1.00  0.00    -0.203 F 
ATOM     64  C   UNL A   1      40.638  25.875  27.296  1.00  0.00     0.198 A 
ATOM     65  C   UNL A   1      42.210  27.444  26.385  1.00  0.00     0.198 A 
ATOM     66  F   UNL A   1      42.800  29.365  27.609  1.00  0.00    -0.203 F 
ATOM     67  F   UNL A   1      39.961  24.722  27.200  1.00  0.00    -0.200 F 
ATOM     68  C   UNL A   1      41.493  26.263  26.274  1.00  0.00     0.200 A 
ATOM     69  F   UNL A   1      43.029  27.824  25.395  1.00  0.00    -0.200 F 
ATOM     70  F   UNL A   1      41.628  25.494  25.184  1.00  0.00    -0.200 F 
ENDBRANCH  46  60
BRANCH  47  71
ATOM     71  C   UNL A   1      39.643  33.658  36.500  1.00  0.00     0.064 A 
ATOM     72  C   UNL A   1      40.198  34.942  36.595  1.00  0.00     0.173 A 
ATOM     73  C   UNL A   1      38.854  33.203  37.565  1.00  0.00     0.173 A 
ATOM     74  F   UNL A   1      40.978  35.408  35.608  1.00  0.00    -0.203 F 
ATOM     75  C   UNL A   1      39.982  35.736  37.718  1.00  0.00     0.198 A 
ATOM     76  C   UNL A   1      38.623  34.006  38.679  1.00  0.00     0.198 A 
ATOM     77  F   UNL A   1      38.303  31.981  37.518  1.00  0.00    -0.203 F 
ATOM     78  F   UNL A   1      40.550  36.946  37.800  1.00  0.00    -0.200 F 
ATOM     79  C   UNL A   1      39.190  35.270  38.757  1.00  0.00     0.200 A 
ATOM     80  F   UNL A   1      37.851  33.557  39.678  1.00  0.00    -0.200 F 
ATOM     81  F   UNL A   1      38.979  36.036  39.836  1.00  0.00    -0.200 F 
ENDBRANCH  47  71
BRANCH  59  82
ATOM     82  C   UNL A   1      44.511  28.961  34.878  1.00  0.00     0.064 A 
ATOM     83  C   UNL A   1      45.753  29.603  34.775  1.00  0.00     0.173 A 
ATOM     84  C   UNL A   1      44.412  27.845  35.724  1.00  0.00     0.173 A 
ATOM     85  F   UNL A   1      45.899  30.663  33.966  1.00  0.00    -0.203 F 
ATOM     86  C   UNL A   1      46.858  29.136  35.481  1.00  0.00     0.198 A 
ATOM     87  C   UNL A   1      45.514  27.394  36.443  1.00  0.00     0.198 A 
ATOM     88  F   UNL A   1      43.242  27.200  35.857  1.00  0.00    -0.203 F 
ATOM     89  F   UNL A   1      48.045  29.744  35.343  1.00  0.00    -0.200 F 
ATOM     90  C   UNL A   1      46.736  28.037  36.318  1.00  0.00     0.200 A 
ATOM     91  F   UNL A   1      45.394  26.335  37.256  1.00  0.00    -0.200 F 
ATOM     92  F   UNL A   1      47.801  27.591  36.999  1.00  0.00    -0.200 F 
ENDBRANCH  59  82
ENDBRANCH  33  34
ENDBRANCH  25  28
ENDBRANCH  23  24
ENDBRANCH  22  23
ENDBRANCH   1  22
TORSDOF 16
ENDMDL
MODEL 3
REMARK VINA RESULT:     -10.8      4.668      9.804
REMARK SMILES C=CCN(CC(=O)NCCCNC(=O)c1ccc(-c2c3nc(c(-c4c(F)c(F)c(F)c(F)c4F)c4ccc([nH]4)c(-c4c(F)c(F)c(F)c(F)c4F)c4nc(c(-c5c(F)c(F)c(F)c(F)c5F)c5ccc2[nH]5)C=C4)C=C3)cc1)S(=O)(=O)c1ccccc1OC
REMARK SMILES IDX 9 1 8 2 6 3 7 4 5 6 4 7 3 8 2 9 1 10 78 11 79 12 80 13 81 14
REMARK SMILES IDX 82 15 86 16 83 17 85 18 84 19 87 20 88 21 10 22 11 23 12 24
REMARK SMILES IDX 13 25 14 27 15 28 16 29 77 30 17 31 76 32 18 33 19 34 20 35
REMARK SMILES IDX 70 36 21 37 75 38 69 39 71 40 22 41 74 42 68 43 67 44 23 46
REMARK SMILES IDX 55 47 35 48 54 49 36 50 39 51 53 52 72 53 37 54 38 55 52 57
REMARK SMILES IDX 73 58 40 59 24 60 25 61 33 62 26 63 27 64 31 65 34 66 28 67
REMARK SMILES IDX 29 68 32 69 30 70 56 71 57 72 65 73 58 74 59 75 63 76 66 77
REMARK SMILES IDX 60 78 61 79 64 80 62 81 41 82 42 83 50 84 43 85 44 86 48 87
REMARK SMILES IDX 51 88 45 89 46 90 49 91 47 92
REMARK H PARENT 8 5 12 26 71 45 39 56
REMARK Flexibility Score: inf
ROOT
ATOM      1  C   UNL A   1      36.466  20.249  25.024  1.00  0.00     0.117 C 
ENDROOT
BRANCH   1   2
ATOM      2  N   UNL A   1      35.322  19.425  24.672  1.00  0.00    -0.355 N 
ATOM      3  C   UNL A   1      34.009  19.529  25.028  1.00  0.00     0.235 C 
ATOM      4  O   UNL A   1      33.221  18.701  24.560  1.00  0.00    -0.274 OA
ATOM      5  H   UNL A   1      35.529  18.667  24.078  1.00  0.00     0.163 HD
BRANCH   3   6
ATOM      6  C   UNL A   1      33.508  20.657  25.917  1.00  0.00     0.202 C 
BRANCH   6   7
ATOM      7  N   UNL A   1      33.429  22.062  25.391  1.00  0.00    -0.185 NA
BRANCH   7   8
ATOM      8  C   UNL A   1      33.484  22.070  23.910  1.00  0.00     0.130 C 
BRANCH   8   9
ATOM      9  C   UNL A   1      32.242  22.522  23.223  1.00  0.00    -0.018 C 
ATOM     10  C   UNL A   1      31.978  23.796  22.897  1.00  0.00     0.005 C 
ENDBRANCH   8   9
ENDBRANCH   7   8
BRANCH   7  11
ATOM     11  S   UNL A   1      34.289  23.266  26.269  1.00  0.00     0.247 S 
ATOM     12  O   UNL A   1      34.234  22.859  27.659  1.00  0.00    -0.207 OA
ATOM     13  O   UNL A   1      35.552  23.520  25.611  1.00  0.00    -0.207 OA
BRANCH  11  14
ATOM     14  C   UNL A   1      33.360  24.756  26.003  1.00  0.00     0.124 A 
ATOM     15  C   UNL A   1      33.985  25.839  25.364  1.00  0.00     0.026 A 
ATOM     16  C   UNL A   1      32.075  24.904  26.523  1.00  0.00     0.138 A 
ATOM     17  C   UNL A   1      33.310  27.050  25.215  1.00  0.00     0.002 A 
ATOM     18  C   UNL A   1      31.407  26.125  26.385  1.00  0.00     0.048 A 
ATOM     19  C   UNL A   1      32.019  27.192  25.722  1.00  0.00     0.004 A 
BRANCH  16  20
ATOM     20  O   UNL A   1      31.509  23.943  27.314  1.00  0.00    -0.495 OA
ATOM     21  C   UNL A   1      30.398  23.325  26.665  1.00  0.00     0.278 C 
ENDBRANCH  16  20
ENDBRANCH  11  14
ENDBRANCH   7  11
ENDBRANCH   6   7
ENDBRANCH   3   6
ENDBRANCH   1   2
BRANCH   1  22
ATOM     22  C   UNL A   1      37.779  19.473  24.962  1.00  0.00     0.042 C 
BRANCH  22  23
ATOM     23  C   UNL A   1      38.899  20.065  25.811  1.00  0.00     0.118 C 
BRANCH  23  24
ATOM     24  N   UNL A   1      40.058  19.186  25.887  1.00  0.00    -0.352 N 
ATOM     25  C   UNL A   1      41.394  19.458  26.062  1.00  0.00     0.251 C 
ATOM     26  H   UNL A   1      39.848  18.229  25.797  1.00  0.00     0.163 HD
ATOM     27  O   UNL A   1      42.206  18.550  25.888  1.00  0.00    -0.269 OA
BRANCH  25  28
ATOM     28  C   UNL A   1      41.891  20.805  26.442  1.00  0.00     0.039 A 
ATOM     29  C   UNL A   1      42.064  21.760  25.430  1.00  0.00     0.014 A 
ATOM     30  C   UNL A   1      42.276  21.123  27.746  1.00  0.00     0.014 A 
ATOM     31  C   UNL A   1      42.569  23.030  25.730  1.00  0.00     0.010 A 
ATOM     32  C   UNL A   1      42.712  22.414  28.060  1.00  0.00     0.010 A 
ATOM     33  C   UNL A   1      42.874  23.378  27.054  1.00  0.00    -0.014 A 
BRANCH  33  34
ATOM     34  C   UNL A   1      43.392  24.730  27.399  1.00  0.00     0.031 A 
ATOM     35  C   UNL A   1      42.477  25.765  27.997  1.00  0.00     0.074 A 
ATOM     36  C   UNL A   1      44.670  25.052  27.126  1.00  0.00     0.049 A 
ATOM     37  N   UNL A   1      42.716  27.023  28.276  1.00  0.00    -0.248 NA
ATOM     38  C   UNL A   1      41.104  25.335  28.301  1.00  0.00     0.031 C 
ATOM     39  C   UNL A   1      45.657  24.160  26.516  1.00  0.00     0.029 A 
ATOM     40  N   UNL A   1      45.357  26.227  27.313  1.00  0.00    -0.354 N 
ATOM     41  C   UNL A   1      41.520  27.539  28.755  1.00  0.00     0.074 A 
ATOM     42  C   UNL A   1      40.548  26.468  28.707  1.00  0.00     0.031 C 
ATOM     43  C   UNL A   1      46.824  24.812  26.396  1.00  0.00     0.029 A 
ATOM     44  C   UNL A   1      46.661  26.178  26.887  1.00  0.00     0.049 A 
ATOM     45  H   UNL A   1      44.951  27.029  27.716  1.00  0.00     0.167 HD
ATOM     46  C   UNL A   1      41.257  28.788  29.210  1.00  0.00     0.037 A 
ATOM     47  C   UNL A   1      47.616  27.127  26.884  1.00  0.00     0.037 A 
ATOM     48  C   UNL A   1      42.229  29.845  29.308  1.00  0.00     0.049 A 
ATOM     49  C   UNL A   1      47.307  28.497  27.420  1.00  0.00     0.074 A 
ATOM     50  C   UNL A   1      42.068  31.123  29.815  1.00  0.00     0.029 A 
ATOM     51  N   UNL A   1      43.548  29.743  28.895  1.00  0.00    -0.354 N 
ATOM     52  N   UNL A   1      46.182  28.959  27.910  1.00  0.00    -0.248 NA
ATOM     53  C   UNL A   1      48.403  29.477  27.406  1.00  0.00     0.031 C 
ATOM     54  C   UNL A   1      43.285  31.802  29.689  1.00  0.00     0.029 A 
ATOM     55  C   UNL A   1      44.210  30.938  29.129  1.00  0.00     0.049 A 
ATOM     56  H   UNL A   1      43.955  28.940  28.495  1.00  0.00     0.167 HD
ATOM     57  C   UNL A   1      46.439  30.272  28.278  1.00  0.00     0.074 A 
ATOM     58  C   UNL A   1      47.829  30.532  27.967  1.00  0.00     0.031 C 
ATOM     59  C   UNL A   1      45.595  31.180  28.825  1.00  0.00     0.037 A 
BRANCH  46  60
ATOM     60  C   UNL A   1      39.853  29.084  29.645  1.00  0.00     0.064 A 
ATOM     61  C   UNL A   1      38.874  29.495  28.730  1.00  0.00     0.173 A 
ATOM     62  C   UNL A   1      39.475  28.919  30.986  1.00  0.00     0.173 A 
ATOM     63  F   UNL A   1      39.192  29.678  27.439  1.00  0.00    -0.203 F 
ATOM     64  C   UNL A   1      37.571  29.751  29.145  1.00  0.00     0.198 A 
ATOM     65  C   UNL A   1      38.165  29.153  31.393  1.00  0.00     0.198 A 
ATOM     66  F   UNL A   1      40.375  28.521  31.898  1.00  0.00    -0.203 F 
ATOM     67  F   UNL A   1      36.659  30.180  28.261  1.00  0.00    -0.200 F 
ATOM     68  C   UNL A   1      37.216  29.575  30.475  1.00  0.00     0.200 A 
ATOM     69  F   UNL A   1      37.821  28.975  32.676  1.00  0.00    -0.200 F 
ATOM     70  F   UNL A   1      35.959  29.819  30.872  1.00  0.00    -0.200 F 
ENDBRANCH  46  60
BRANCH  47  71
ATOM     71  C   UNL A   1      48.972  26.804  26.376  1.00  0.00     0.064 A 
ATOM     72  C   UNL A   1      49.952  26.287  27.233  1.00  0.00     0.173 A 
ATOM     73  C   UNL A   1      49.313  27.001  25.031  1.00  0.00     0.173 A 
ATOM     74  F   UNL A   1      49.675  26.105  28.533  1.00  0.00    -0.203 F 
ATOM     75  C   UNL A   1      51.229  25.988  26.766  1.00  0.00     0.198 A 
ATOM     76  C   UNL A   1      50.584  26.683  24.561  1.00  0.00     0.198 A 
ATOM     77  F   UNL A   1      48.407  27.494  24.174  1.00  0.00    -0.203 F 
ATOM     78  F   UNL A   1      52.159  25.525  27.613  1.00  0.00    -0.200 F 
ATOM     79  C   UNL A   1      51.543  26.181  25.429  1.00  0.00     0.200 A 
ATOM     80  F   UNL A   1      50.883  26.862  23.266  1.00  0.00    -0.200 F 
ATOM     81  F   UNL A   1      52.771  25.890  24.979  1.00  0.00    -0.200 F 
ENDBRANCH  47  71
BRANCH  59  82
ATOM     82  C   UNL A   1      46.157  32.530  29.148  1.00  0.00     0.064 A 
ATOM     83  C   UNL A   1      46.767  32.791  30.383  1.00  0.00     0.173 A 
ATOM     84  C   UNL A   1      46.118  33.562  28.199  1.00  0.00     0.173 A 
ATOM     85  F   UNL A   1      46.813  31.840  31.328  1.00  0.00    -0.203 F 
ATOM     86  C   UNL A   1      47.307  34.044  30.661  1.00  0.00     0.198 A 
ATOM     87  C   UNL A   1      46.676  34.807  28.473  1.00  0.00     0.198 A 
ATOM     88  F   UNL A   1      45.547  33.358  27.002  1.00  0.00    -0.203 F 
ATOM     89  F   UNL A   1      47.857  34.284  31.860  1.00  0.00    -0.200 F 
ATOM     90  C   UNL A   1      47.265  35.048  29.705  1.00  0.00     0.200 A 
ATOM     91  F   UNL A   1      46.640  35.775  27.546  1.00  0.00    -0.200 F 
ATOM     92  F   UNL A   1      47.788  36.253  29.974  1.00  0.00    -0.200 F 
ENDBRANCH  59  82
ENDBRANCH  33  34
ENDBRANCH  25  28
ENDBRANCH  23  24
ENDBRANCH  22  23
ENDBRANCH   1  22
TORSDOF 16
ENDMDL
