MODEL 1
REMARK VINA RESULT:     -10.6      0.000      0.000
REMARK SMILES O=C(CCCC(=O)Nc1ccccc1F)NCCCNC(=O)c1ccc(-c2c3nc(c(-c4c(F)c(F)c(F)c(F)c4F)c4ccc([nH]4)c(-c4c(F)c(F)c(F)c(F)c4F)c4nc(c(-c5c(F)c(F)c(F)c(F)c5F)c5ccc2[nH]5)C=C4)C=C3)cc1
REMARK SMILES IDX 17 1 16 2 1 3 2 4 3 6 4 7 5 8 6 9 7 10 8 11 9 13 10 14 14 15
REMARK SMILES IDX 11 16 13 17 15 18 12 19 18 20 19 21 20 22 21 23 22 25 23 26
REMARK SMILES IDX 24 27 85 28 25 29 84 30 26 31 27 32 28 33 78 34 29 35 83 36
REMARK SMILES IDX 77 37 79 38 30 39 82 40 76 41 75 42 31 44 63 45 43 46 62 47
REMARK SMILES IDX 44 48 47 49 61 50 80 51 45 52 46 53 60 55 81 56 48 57 32 58
REMARK SMILES IDX 33 59 41 60 34 61 35 62 39 63 42 64 36 65 37 66 40 67 38 68
REMARK SMILES IDX 64 69 65 70 73 71 66 72 67 73 71 74 74 75 68 76 69 77 72 78
REMARK SMILES IDX 70 79 49 80 50 81 58 82 51 83 52 84 56 85 59 86 53 87 54 88
REMARK SMILES IDX 57 89 55 90
REMARK H PARENT 16 5 8 12 20 24 79 43 47 54
REMARK Flexibility Score: inf
ROOT
ATOM      1  C   UNL A   1      34.062  35.141  28.692  1.00  0.00     0.117 C 
ENDROOT
BRANCH   1   2
ATOM      2  N   UNL A   1      34.070  35.197  30.139  1.00  0.00    -0.356 N 
ATOM      3  O   UNL A   1      32.446  36.802  30.273  1.00  0.00    -0.275 OA
ATOM      4  C   UNL A   1      33.222  36.032  30.830  1.00  0.00     0.220 C 
ATOM      5  H   UNL A   1      34.697  34.625  30.639  1.00  0.00     0.163 HD
BRANCH   4   6
ATOM      6  C   UNL A   1      33.354  35.974  32.342  1.00  0.00     0.100 C 
BRANCH   6   7
ATOM      7  C   UNL A   1      34.029  34.734  32.938  1.00  0.00     0.020 C 
BRANCH   7   8
ATOM      8  C   UNL A   1      35.098  34.913  34.013  1.00  0.00     0.101 C 
BRANCH   8   9
ATOM      9  C   UNL A   1      36.048  33.760  34.343  1.00  0.00     0.224 C 
ATOM     10  O   UNL A   1      36.190  33.365  35.501  1.00  0.00    -0.275 OA
ATOM     11  N   UNL A   1      36.507  32.982  33.309  1.00  0.00    -0.324 N 
ATOM     12  H   UNL A   1      36.375  32.011  33.404  1.00  0.00     0.170 HD
BRANCH  11  13
ATOM     13  C   UNL A   1      37.145  33.406  32.134  1.00  0.00     0.077 A 
ATOM     14  C   UNL A   1      36.744  32.850  30.919  1.00  0.00     0.029 A 
ATOM     15  C   UNL A   1      38.215  34.301  32.149  1.00  0.00     0.146 A 
ATOM     16  C   UNL A   1      37.316  33.298  29.724  1.00  0.00     0.002 A 
ATOM     17  C   UNL A   1      38.810  34.728  30.964  1.00  0.00     0.041 A 
ATOM     18  F   UNL A   1      38.692  34.770  33.311  1.00  0.00    -0.205 F 
ATOM     19  C   UNL A   1      38.338  34.249  29.744  1.00  0.00     0.003 A 
ENDBRANCH  11  13
ENDBRANCH   8   9
ENDBRANCH   7   8
ENDBRANCH   6   7
ENDBRANCH   4   6
ENDBRANCH   1   2
BRANCH   1  20
ATOM     20  C   UNL A   1      33.499  33.837  28.132  1.00  0.00     0.042 C 
BRANCH  20  21
ATOM     21  C   UNL A   1      34.502  32.689  28.018  1.00  0.00     0.118 C 
BRANCH  21  22
ATOM     22  N   UNL A   1      33.878  31.402  27.772  1.00  0.00    -0.352 N 
ATOM     23  C   UNL A   1      34.406  30.135  27.744  1.00  0.00     0.251 C 
ATOM     24  H   UNL A   1      32.909  31.445  27.595  1.00  0.00     0.163 HD
ATOM     25  O   UNL A   1      33.707  29.200  27.368  1.00  0.00    -0.269 OA
BRANCH  23  26
ATOM     26  C   UNL A   1      35.813  29.871  28.132  1.00  0.00     0.039 A 
ATOM     27  C   UNL A   1      36.068  29.438  29.438  1.00  0.00     0.014 A 
ATOM     28  C   UNL A   1      36.883  30.104  27.264  1.00  0.00     0.014 A 
ATOM     29  C   UNL A   1      37.379  29.181  29.852  1.00  0.00     0.010 A 
ATOM     30  C   UNL A   1      38.187  29.792  27.659  1.00  0.00     0.010 A 
ATOM     31  C   UNL A   1      38.449  29.322  28.956  1.00  0.00    -0.014 A 
BRANCH  31  32
ATOM     32  C   UNL A   1      39.837  28.968  29.361  1.00  0.00     0.031 A 
ATOM     33  C   UNL A   1      40.637  29.881  30.248  1.00  0.00     0.074 A 
ATOM     34  C   UNL A   1      40.398  27.835  28.893  1.00  0.00     0.049 A 
ATOM     35  N   UNL A   1      41.879  29.766  30.649  1.00  0.00    -0.248 NA
ATOM     36  C   UNL A   1      39.960  31.091  30.737  1.00  0.00     0.031 C 
ATOM     37  C   UNL A   1      39.741  26.873  28.008  1.00  0.00     0.029 A 
ATOM     38  N   UNL A   1      41.649  27.303  29.092  1.00  0.00    -0.354 N 
ATOM     39  C   UNL A   1      42.134  30.887  31.426  1.00  0.00     0.074 A 
ATOM     40  C   UNL A   1      40.933  31.695  31.406  1.00  0.00     0.031 C 
ATOM     41  C   UNL A   1      40.583  25.858  27.760  1.00  0.00     0.029 A 
ATOM     42  C   UNL A   1      41.854  26.114  28.434  1.00  0.00     0.049 A 
ATOM     43  H   UNL A   1      42.334  27.732  29.654  1.00  0.00     0.167 HD
ATOM     44  C   UNL A   1      43.260  31.205  32.109  1.00  0.00     0.037 A 
ATOM     45  C   UNL A   1      42.941  25.322  28.371  1.00  0.00     0.037 A 
ATOM     46  C   UNL A   1      44.446  30.389  32.154  1.00  0.00     0.049 A 
ATOM     47  C   UNL A   1      44.187  25.708  29.121  1.00  0.00     0.074 A 
ATOM     48  C   UNL A   1      45.615  30.609  32.863  1.00  0.00     0.029 A 
ATOM     49  N   UNL A   1      44.615  29.198  31.466  1.00  0.00    -0.354 N 
ATOM     50  N   UNL A   1      44.401  26.753  29.881  1.00  0.00    -0.248 NA
ATOM     51  C   UNL A   1      45.341  24.805  29.005  1.00  0.00     0.031 C 
ATOM     52  C   UNL A   1      46.508  29.575  32.570  1.00  0.00     0.029 A 
ATOM     53  C   UNL A   1      45.878  28.684  31.717  1.00  0.00     0.049 A 
ATOM     54  H   UNL A   1      43.940  28.779  30.885  1.00  0.00     0.167 HD
ATOM     55  C   UNL A   1      45.700  26.624  30.351  1.00  0.00     0.074 A 
ATOM     56  C   UNL A   1      46.226  25.393  29.800  1.00  0.00     0.031 C 
ATOM     57  C   UNL A   1      46.392  27.455  31.167  1.00  0.00     0.037 A 
BRANCH  44  58
ATOM     58  C   UNL A   1      43.272  32.490  32.883  1.00  0.00     0.064 A 
ATOM     59  C   UNL A   1      43.761  33.669  32.299  1.00  0.00     0.173 A 
ATOM     60  C   UNL A   1      42.876  32.539  34.228  1.00  0.00     0.173 A 
ATOM     61  F   UNL A   1      44.161  33.674  31.019  1.00  0.00    -0.203 F 
ATOM     62  C   UNL A   1      43.866  34.845  33.038  1.00  0.00     0.198 A 
ATOM     63  C   UNL A   1      42.956  33.723  34.956  1.00  0.00     0.198 A 
ATOM     64  F   UNL A   1      42.394  31.440  34.828  1.00  0.00    -0.203 F 
ATOM     65  F   UNL A   1      44.367  35.949  32.469  1.00  0.00    -0.200 F 
ATOM     66  C   UNL A   1      43.460  34.872  34.364  1.00  0.00     0.200 A 
ATOM     67  F   UNL A   1      42.544  33.752  36.231  1.00  0.00    -0.200 F 
ATOM     68  F   UNL A   1      43.552  36.006  35.072  1.00  0.00    -0.200 F 
ENDBRANCH  44  58
BRANCH  45  69
ATOM     69  C   UNL A   1      42.886  24.065  27.582  1.00  0.00     0.064 A 
ATOM     70  C   UNL A   1      43.184  24.049  26.211  1.00  0.00     0.173 A 
ATOM     71  C   UNL A   1      42.505  22.857  28.182  1.00  0.00     0.173 A 
ATOM     72  F   UNL A   1      43.551  25.179  25.590  1.00  0.00    -0.203 F 
ATOM     73  C   UNL A   1      43.082  22.876  25.467  1.00  0.00     0.198 A 
ATOM     74  C   UNL A   1      42.427  21.679  27.442  1.00  0.00     0.198 A 
ATOM     75  F   UNL A   1      42.232  22.820  29.494  1.00  0.00    -0.203 F 
ATOM     76  F   UNL A   1      43.339  22.894  24.152  1.00  0.00    -0.200 F 
ATOM     77  C   UNL A   1      42.707  21.692  26.083  1.00  0.00     0.200 A 
ATOM     78  F   UNL A   1      42.087  20.533  28.045  1.00  0.00    -0.200 F 
ATOM     79  F   UNL A   1      42.618  20.562  25.369  1.00  0.00    -0.200 F 
ENDBRANCH  45  69
BRANCH  57  80
ATOM     80  C   UNL A   1      47.792  27.063  31.540  1.00  0.00     0.064 A 
ATOM     81  C   UNL A   1      48.885  27.529  30.791  1.00  0.00     0.173 A 
ATOM     82  C   UNL A   1      48.047  26.162  32.582  1.00  0.00     0.173 A 
ATOM     83  F   UNL A   1      48.693  28.388  29.779  1.00  0.00    -0.203 F 
ATOM     84  C   UNL A   1      50.178  27.092  31.064  1.00  0.00     0.198 A 
ATOM     85  C   UNL A   1      49.345  25.746  32.868  1.00  0.00     0.198 A 
ATOM     86  F   UNL A   1      47.037  25.698  33.335  1.00  0.00    -0.203 F 
ATOM     87  F   UNL A   1      51.201  27.524  30.313  1.00  0.00    -0.200 F 
ATOM     88  C   UNL A   1      50.407  26.204  32.102  1.00  0.00     0.200 A 
ATOM     89  F   UNL A   1      49.568  24.904  33.886  1.00  0.00    -0.200 F 
ATOM     90  F   UNL A   1      51.653  25.787  32.367  1.00  0.00    -0.200 F 
ENDBRANCH  57  80
ENDBRANCH  31  32
ENDBRANCH  23  26
ENDBRANCH  21  22
ENDBRANCH  20  21
ENDBRANCH   1  20
TORSDOF 14
ENDMDL
MODEL 2
REMARK VINA RESULT:     -10.4      1.285      2.249
REMARK SMILES O=C(CCCC(=O)Nc1ccccc1F)NCCCNC(=O)c1ccc(-c2c3nc(c(-c4c(F)c(F)c(F)c(F)c4F)c4ccc([nH]4)c(-c4c(F)c(F)c(F)c(F)c4F)c4nc(c(-c5c(F)c(F)c(F)c(F)c5F)c5ccc2[nH]5)C=C4)C=C3)cc1
REMARK SMILES IDX 17 1 16 2 1 3 2 4 3 6 4 7 5 8 6 9 7 10 8 11 9 13 10 14 14 15
REMARK SMILES IDX 11 16 13 17 15 18 12 19 18 20 19 21 20 22 21 23 22 25 23 26
REMARK SMILES IDX 24 27 85 28 25 29 84 30 26 31 27 32 28 33 78 34 29 35 83 36
REMARK SMILES IDX 77 37 79 38 30 39 82 40 76 41 75 42 31 44 63 45 43 46 62 47
REMARK SMILES IDX 44 48 47 49 61 50 80 51 45 52 46 53 60 55 81 56 48 57 32 58
REMARK SMILES IDX 33 59 41 60 34 61 35 62 39 63 42 64 36 65 37 66 40 67 38 68
REMARK SMILES IDX 64 69 65 70 73 71 66 72 67 73 71 74 74 75 68 76 69 77 72 78
REMARK SMILES IDX 70 79 49 80 50 81 58 82 51 83 52 84 56 85 59 86 53 87 54 88
REMARK SMILES IDX 57 89 55 90
REMARK H PARENT 16 5 8 12 20 24 79 43 47 54
REMARK Flexibility Score: inf
ROOT
ATOM      1  C   UNL A   1      33.853  35.228  28.922  1.00  0.00     0.117 C 
ENDROOT
BRANCH   1   2
ATOM      2  N   UNL A   1      34.123  35.811  30.220  1.00  0.00    -0.356 N 
ATOM      3  O   UNL A   1      31.941  36.353  30.638  1.00  0.00    -0.275 OA
ATOM      4  C   UNL A   1      33.112  36.321  31.002  1.00  0.00     0.220 C 
ATOM      5  H   UNL A   1      35.051  35.843  30.550  1.00  0.00     0.163 HD
BRANCH   4   6
ATOM      6  C   UNL A   1      33.559  36.896  32.335  1.00  0.00     0.100 C 
BRANCH   6   7
ATOM      7  C   UNL A   1      34.688  36.166  33.070  1.00  0.00     0.020 C 
BRANCH   7   8
ATOM      8  C   UNL A   1      34.452  34.744  33.572  1.00  0.00     0.101 C 
BRANCH   8   9
ATOM      9  C   UNL A   1      35.581  33.987  34.274  1.00  0.00     0.224 C 
ATOM     10  O   UNL A   1      35.616  33.894  35.502  1.00  0.00    -0.275 OA
ATOM     11  N   UNL A   1      36.381  33.167  33.518  1.00  0.00    -0.324 N 
ATOM     12  H   UNL A   1      36.471  32.238  33.831  1.00  0.00     0.170 HD
BRANCH  11  13
ATOM     13  C   UNL A   1      37.087  33.496  32.351  1.00  0.00     0.077 A 
ATOM     14  C   UNL A   1      38.161  34.382  32.448  1.00  0.00     0.029 A 
ATOM     15  C   UNL A   1      36.704  33.032  31.092  1.00  0.00     0.146 A 
ATOM     16  C   UNL A   1      38.924  34.681  31.314  1.00  0.00     0.002 A 
ATOM     17  C   UNL A   1      37.441  33.351  29.954  1.00  0.00     0.041 A 
ATOM     18  F   UNL A   1      35.612  32.266  30.956  1.00  0.00    -0.205 F 
ATOM     19  C   UNL A   1      38.574  34.153  30.070  1.00  0.00     0.003 A 
ENDBRANCH  11  13
ENDBRANCH   8   9
ENDBRANCH   7   8
ENDBRANCH   6   7
ENDBRANCH   4   6
ENDBRANCH   1   2
BRANCH   1  20
ATOM     20  C   UNL A   1      33.652  33.715  28.960  1.00  0.00     0.042 C 
BRANCH  20  21
ATOM     21  C   UNL A   1      34.556  32.913  28.026  1.00  0.00     0.118 C 
BRANCH  21  22
ATOM     22  N   UNL A   1      33.956  31.672  27.570  1.00  0.00    -0.352 N 
ATOM     23  C   UNL A   1      34.462  30.396  27.508  1.00  0.00     0.251 C 
ATOM     24  H   UNL A   1      33.028  31.759  27.252  1.00  0.00     0.163 HD
ATOM     25  O   UNL A   1      33.814  29.519  26.946  1.00  0.00    -0.269 OA
BRANCH  23  26
ATOM     26  C   UNL A   1      35.787  30.056  28.081  1.00  0.00     0.039 A 
ATOM     27  C   UNL A   1      35.833  29.557  29.387  1.00  0.00     0.014 A 
ATOM     28  C   UNL A   1      36.979  30.282  27.389  1.00  0.00     0.014 A 
ATOM     29  C   UNL A   1      37.060  29.227  29.972  1.00  0.00     0.010 A 
ATOM     30  C   UNL A   1      38.200  29.898  27.950  1.00  0.00     0.010 A 
ATOM     31  C   UNL A   1      38.254  29.362  29.247  1.00  0.00    -0.014 A 
BRANCH  31  32
ATOM     32  C   UNL A   1      39.554  28.933  29.830  1.00  0.00     0.031 A 
ATOM     33  C   UNL A   1      40.155  29.665  30.997  1.00  0.00     0.074 A 
ATOM     34  C   UNL A   1      40.222  27.900  29.277  1.00  0.00     0.049 A 
ATOM     35  N   UNL A   1      41.307  29.472  31.591  1.00  0.00    -0.248 NA
ATOM     36  C   UNL A   1      39.368  30.772  31.562  1.00  0.00     0.031 C 
ATOM     37  C   UNL A   1      39.763  27.117  28.130  1.00  0.00     0.029 A 
ATOM     38  N   UNL A   1      41.430  27.333  29.604  1.00  0.00    -0.354 N 
ATOM     39  C   UNL A   1      41.386  30.434  32.589  1.00  0.00     0.074 A 
ATOM     40  C   UNL A   1      40.186  31.238  32.495  1.00  0.00     0.031 C 
ATOM     41  C   UNL A   1      40.663  26.159  27.863  1.00  0.00     0.029 A 
ATOM     42  C   UNL A   1      41.784  26.282  28.793  1.00  0.00     0.049 A 
ATOM     43  H   UNL A   1      41.990  27.650  30.350  1.00  0.00     0.167 HD
ATOM     44  C   UNL A   1      42.360  30.616  33.512  1.00  0.00     0.037 A 
ATOM     45  C   UNL A   1      42.886  25.508  28.790  1.00  0.00     0.037 A 
ATOM     46  C   UNL A   1      43.541  29.799  33.628  1.00  0.00     0.049 A 
ATOM     47  C   UNL A   1      43.964  25.744  29.812  1.00  0.00     0.074 A 
ATOM     48  C   UNL A   1      44.555  29.881  34.567  1.00  0.00     0.029 A 
ATOM     49  N   UNL A   1      43.864  28.751  32.781  1.00  0.00    -0.354 N 
ATOM     50  N   UNL A   1      44.008  26.634  30.773  1.00  0.00    -0.248 NA
ATOM     51  C   UNL A   1      45.145  24.871  29.749  1.00  0.00     0.031 C 
ATOM     52  C   UNL A   1      45.514  28.911  34.262  1.00  0.00     0.029 A 
ATOM     53  C   UNL A   1      45.074  28.192  33.162  1.00  0.00     0.049 A 
ATOM     54  H   UNL A   1      43.317  28.447  32.021  1.00  0.00     0.167 HD
ATOM     55  C   UNL A   1      45.203  26.415  31.442  1.00  0.00     0.074 A 
ATOM     56  C   UNL A   1      45.854  25.301  30.785  1.00  0.00     0.031 C 
ATOM     57  C   UNL A   1      45.713  27.080  32.506  1.00  0.00     0.037 A 
BRANCH  44  58
ATOM     58  C   UNL A   1      42.196  31.741  34.493  1.00  0.00     0.064 A 
ATOM     59  C   UNL A   1      41.466  31.551  35.677  1.00  0.00     0.173 A 
ATOM     60  C   UNL A   1      42.690  33.025  34.224  1.00  0.00     0.173 A 
ATOM     61  F   UNL A   1      40.965  30.344  35.977  1.00  0.00    -0.203 F 
ATOM     62  C   UNL A   1      41.226  32.611  36.548  1.00  0.00     0.198 A 
ATOM     63  C   UNL A   1      42.472  34.077  35.110  1.00  0.00     0.198 A 
ATOM     64  F   UNL A   1      43.400  33.254  33.109  1.00  0.00    -0.203 F 
ATOM     65  F   UNL A   1      40.499  32.415  37.656  1.00  0.00    -0.200 F 
ATOM     66  C   UNL A   1      41.732  33.871  36.266  1.00  0.00     0.200 A 
ATOM     67  F   UNL A   1      42.979  35.289  34.846  1.00  0.00    -0.200 F 
ATOM     68  F   UNL A   1      41.508  34.889  37.108  1.00  0.00    -0.200 F 
ENDBRANCH  44  58
BRANCH  45  69
ATOM     69  C   UNL A   1      43.009  24.414  27.792  1.00  0.00     0.064 A 
ATOM     70  C   UNL A   1      42.604  23.105  28.088  1.00  0.00     0.173 A 
ATOM     71  C   UNL A   1      43.564  24.657  26.527  1.00  0.00     0.173 A 
ATOM     72  F   UNL A   1      42.071  22.822  29.286  1.00  0.00    -0.203 F 
ATOM     73  C   UNL A   1      42.769  22.075  27.165  1.00  0.00     0.198 A 
ATOM     74  C   UNL A   1      43.705  23.631  25.595  1.00  0.00     0.198 A 
ATOM     75  F   UNL A   1      43.945  25.897  26.191  1.00  0.00    -0.203 F 
ATOM     76  F   UNL A   1      42.405  20.825  27.486  1.00  0.00    -0.200 F 
ATOM     77  C   UNL A   1      43.315  22.339  25.918  1.00  0.00     0.200 A 
ATOM     78  F   UNL A   1      44.211  23.894  24.384  1.00  0.00    -0.200 F 
ATOM     79  F   UNL A   1      43.465  21.350  25.027  1.00  0.00    -0.200 F 
ENDBRANCH  45  69
BRANCH  57  80
ATOM     80  C   UNL A   1      47.033  26.619  33.052  1.00  0.00     0.064 A 
ATOM     81  C   UNL A   1      48.232  27.178  32.582  1.00  0.00     0.173 A 
ATOM     82  C   UNL A   1      47.115  25.569  33.977  1.00  0.00     0.173 A 
ATOM     83  F   UNL A   1      48.207  28.180  31.691  1.00  0.00    -0.203 F 
ATOM     84  C   UNL A   1      49.464  26.689  33.006  1.00  0.00     0.198 A 
ATOM     85  C   UNL A   1      48.350  25.099  34.418  1.00  0.00     0.198 A 
ATOM     86  F   UNL A   1      45.997  25.012  34.466  1.00  0.00    -0.203 F 
ATOM     87  F   UNL A   1      50.596  27.214  32.517  1.00  0.00    -0.200 F 
ATOM     88  C   UNL A   1      49.522  25.653  33.924  1.00  0.00     0.200 A 
ATOM     89  F   UNL A   1      48.404  24.112  35.323  1.00  0.00    -0.200 F 
ATOM     90  F   UNL A   1      50.709  25.185  34.336  1.00  0.00    -0.200 F 
ENDBRANCH  57  80
ENDBRANCH  31  32
ENDBRANCH  23  26
ENDBRANCH  21  22
ENDBRANCH  20  21
ENDBRANCH   1  20
TORSDOF 14
ENDMDL
MODEL 3
REMARK VINA RESULT:     -10.2      1.489      2.631
REMARK SMILES O=C(CCCC(=O)Nc1ccccc1F)NCCCNC(=O)c1ccc(-c2c3nc(c(-c4c(F)c(F)c(F)c(F)c4F)c4ccc([nH]4)c(-c4c(F)c(F)c(F)c(F)c4F)c4nc(c(-c5c(F)c(F)c(F)c(F)c5F)c5ccc2[nH]5)C=C4)C=C3)cc1
REMARK SMILES IDX 17 1 16 2 1 3 2 4 3 6 4 7 5 8 6 9 7 10 8 11 9 13 10 14 14 15
REMARK SMILES IDX 11 16 13 17 15 18 12 19 18 20 19 21 20 22 21 23 22 25 23 26
REMARK SMILES IDX 24 27 85 28 25 29 84 30 26 31 27 32 28 33 78 34 29 35 83 36
REMARK SMILES IDX 77 37 79 38 30 39 82 40 76 41 75 42 31 44 63 45 43 46 62 47
REMARK SMILES IDX 44 48 47 49 61 50 80 51 45 52 46 53 60 55 81 56 48 57 32 58
REMARK SMILES IDX 33 59 41 60 34 61 35 62 39 63 42 64 36 65 37 66 40 67 38 68
REMARK SMILES IDX 64 69 65 70 73 71 66 72 67 73 71 74 74 75 68 76 69 77 72 78
REMARK SMILES IDX 70 79 49 80 50 81 58 82 51 83 52 84 56 85 59 86 53 87 54 88
REMARK SMILES IDX 57 89 55 90
REMARK H PARENT 16 5 8 12 20 24 79 43 47 54
REMARK Flexibility Score: inf
ROOT
ATOM      1  C   UNL A   1      34.173  34.145  29.885  1.00  0.00     0.117 C 
ENDROOT
BRANCH   1   2
ATOM      2  N   UNL A   1      35.064  34.582  30.941  1.00  0.00    -0.356 N 
ATOM      3  O   UNL A   1      33.614  34.066  32.633  1.00  0.00    -0.275 OA
ATOM      4  C   UNL A   1      34.707  34.484  32.267  1.00  0.00     0.220 C 
ATOM      5  H   UNL A   1      35.943  34.958  30.704  1.00  0.00     0.163 HD
BRANCH   4   6
ATOM      6  C   UNL A   1      35.751  34.985  33.251  1.00  0.00     0.100 C 
BRANCH   6   7
ATOM      7  C   UNL A   1      37.211  34.612  32.972  1.00  0.00     0.020 C 
BRANCH   7   8
ATOM      8  C   UNL A   1      37.660  33.167  33.165  1.00  0.00     0.101 C 
BRANCH   8   9
ATOM      9  C   UNL A   1      37.732  32.572  34.572  1.00  0.00     0.224 C 
ATOM     10  O   UNL A   1      37.529  33.269  35.568  1.00  0.00    -0.275 OA
ATOM     11  N   UNL A   1      37.730  31.205  34.701  1.00  0.00    -0.324 N 
ATOM     12  H   UNL A   1      37.050  30.827  35.304  1.00  0.00     0.170 HD
BRANCH  11  13
ATOM     13  C   UNL A   1      38.582  30.284  34.076  1.00  0.00     0.077 A 
ATOM     14  C   UNL A   1      39.952  30.357  34.336  1.00  0.00     0.029 A 
ATOM     15  C   UNL A   1      38.119  29.353  33.145  1.00  0.00     0.146 A 
ATOM     16  C   UNL A   1      40.819  29.413  33.777  1.00  0.00     0.002 A 
ATOM     17  C   UNL A   1      38.984  28.430  32.561  1.00  0.00     0.041 A 
ATOM     18  F   UNL A   1      36.825  29.331  32.794  1.00  0.00    -0.205 F 
ATOM     19  C   UNL A   1      40.334  28.440  32.902  1.00  0.00     0.003 A 
ENDBRANCH  11  13
ENDBRANCH   8   9
ENDBRANCH   7   8
ENDBRANCH   6   7
ENDBRANCH   4   6
ENDBRANCH   1   2
BRANCH   1  20
ATOM     20  C   UNL A   1      34.428  32.713  29.423  1.00  0.00     0.042 C 
BRANCH  20  21
ATOM     21  C   UNL A   1      34.054  32.420  27.971  1.00  0.00     0.118 C 
BRANCH  21  22
ATOM     22  N   UNL A   1      33.515  31.086  27.773  1.00  0.00    -0.352 N 
ATOM     23  C   UNL A   1      34.136  29.863  27.717  1.00  0.00     0.251 C 
ATOM     24  H   UNL A   1      32.537  31.053  27.661  1.00  0.00     0.163 HD
ATOM     25  O   UNL A   1      33.488  28.873  27.394  1.00  0.00    -0.269 OA
BRANCH  23  26
ATOM     26  C   UNL A   1      35.581  29.710  28.013  1.00  0.00     0.039 A 
ATOM     27  C   UNL A   1      35.955  29.331  29.307  1.00  0.00     0.014 A 
ATOM     28  C   UNL A   1      36.570  29.998  27.068  1.00  0.00     0.014 A 
ATOM     29  C   UNL A   1      37.306  29.179  29.634  1.00  0.00     0.010 A 
ATOM     30  C   UNL A   1      37.918  29.790  27.378  1.00  0.00     0.010 A 
ATOM     31  C   UNL A   1      38.301  29.374  28.663  1.00  0.00    -0.014 A 
BRANCH  31  32
ATOM     32  C   UNL A   1      39.735  29.131  28.978  1.00  0.00     0.031 A 
ATOM     33  C   UNL A   1      40.541  30.151  29.733  1.00  0.00     0.074 A 
ATOM     34  C   UNL A   1      40.329  28.001  28.546  1.00  0.00     0.049 A 
ATOM     35  N   UNL A   1      41.815  30.137  30.039  1.00  0.00    -0.248 NA
ATOM     36  C   UNL A   1      39.828  31.354  30.190  1.00  0.00     0.031 C 
ATOM     37  C   UNL A   1      39.668  26.940  27.785  1.00  0.00     0.029 A 
ATOM     38  N   UNL A   1      41.622  27.558  28.680  1.00  0.00    -0.354 N 
ATOM     39  C   UNL A   1      42.057  31.326  30.713  1.00  0.00     0.074 A 
ATOM     40  C   UNL A   1      40.809  32.059  30.735  1.00  0.00     0.031 C 
ATOM     41  C   UNL A   1      40.551  25.959  27.541  1.00  0.00     0.029 A 
ATOM     42  C   UNL A   1      41.851  26.337  28.091  1.00  0.00     0.049 A 
ATOM     43  H   UNL A   1      42.320  28.065  29.154  1.00  0.00     0.167 HD
ATOM     44  C   UNL A   1      43.210  31.757  31.280  1.00  0.00     0.037 A 
ATOM     45  C   UNL A   1      42.978  25.606  27.995  1.00  0.00     0.037 A 
ATOM     46  C   UNL A   1      44.445  31.016  31.285  1.00  0.00     0.049 A 
ATOM     47  C   UNL A   1      44.250  26.117  28.614  1.00  0.00     0.074 A 
ATOM     48  C   UNL A   1      45.648  31.355  31.881  1.00  0.00     0.029 A 
ATOM     49  N   UNL A   1      44.636  29.789  30.670  1.00  0.00    -0.354 N 
ATOM     50  N   UNL A   1      44.455  27.226  29.280  1.00  0.00    -0.248 NA
ATOM     51  C   UNL A   1      45.447  25.276  28.467  1.00  0.00     0.031 C 
ATOM     52  C   UNL A   1      46.579  30.355  31.589  1.00  0.00     0.029 A 
ATOM     53  C   UNL A   1      45.944  29.369  30.853  1.00  0.00     0.049 A 
ATOM     54  H   UNL A   1      43.945  29.291  30.176  1.00  0.00     0.167 HD
ATOM     55  C   UNL A   1      45.792  27.207  29.651  1.00  0.00     0.074 A 
ATOM     56  C   UNL A   1      46.351  25.971  29.146  1.00  0.00     0.031 C 
ATOM     57  C   UNL A   1      46.491  28.134  30.349  1.00  0.00     0.037 A 
BRANCH  44  58
ATOM     58  C   UNL A   1      43.199  33.095  31.960  1.00  0.00     0.064 A 
ATOM     59  C   UNL A   1      42.938  33.192  33.336  1.00  0.00     0.173 A 
ATOM     60  C   UNL A   1      43.366  34.285  31.238  1.00  0.00     0.173 A 
ATOM     61  F   UNL A   1      42.763  32.083  34.071  1.00  0.00    -0.203 F 
ATOM     62  C   UNL A   1      42.832  34.432  33.960  1.00  0.00     0.198 A 
ATOM     63  C   UNL A   1      43.286  35.524  31.869  1.00  0.00     0.198 A 
ATOM     64  F   UNL A   1      43.625  34.245  29.922  1.00  0.00    -0.203 F 
ATOM     65  F   UNL A   1      42.550  34.501  35.267  1.00  0.00    -0.200 F 
ATOM     66  C   UNL A   1      43.010  35.596  33.227  1.00  0.00     0.200 A 
ATOM     67  F   UNL A   1      43.478  36.647  31.164  1.00  0.00    -0.200 F 
ATOM     68  F   UNL A   1      42.916  36.790  33.829  1.00  0.00    -0.200 F 
ENDBRANCH  44  58
BRANCH  45  69
ATOM     69  C   UNL A   1      42.942  24.293  27.302  1.00  0.00     0.064 A 
ATOM     70  C   UNL A   1      42.598  23.116  27.982  1.00  0.00     0.173 A 
ATOM     71  C   UNL A   1      43.280  24.189  25.945  1.00  0.00     0.173 A 
ATOM     72  F   UNL A   1      42.270  23.163  29.281  1.00  0.00    -0.203 F 
ATOM     73  C   UNL A   1      42.615  21.882  27.337  1.00  0.00     0.198 A 
ATOM     74  C   UNL A   1      43.272  22.958  25.294  1.00  0.00     0.198 A 
ATOM     75  F   UNL A   1      43.594  25.290  25.248  1.00  0.00    -0.203 F 
ATOM     76  F   UNL A   1      42.316  20.767  28.019  1.00  0.00    -0.200 F 
ATOM     77  C   UNL A   1      42.948  21.803  25.993  1.00  0.00     0.200 A 
ATOM     78  F   UNL A   1      43.571  22.889  23.991  1.00  0.00    -0.200 F 
ATOM     79  F   UNL A   1      42.955  20.617  25.371  1.00  0.00    -0.200 F 
ENDBRANCH  45  69
BRANCH  57  80
ATOM     80  C   UNL A   1      47.937  27.852  30.634  1.00  0.00     0.064 A 
ATOM     81  C   UNL A   1      48.933  28.264  29.734  1.00  0.00     0.173 A 
ATOM     82  C   UNL A   1      48.330  27.102  31.751  1.00  0.00     0.173 A 
ATOM     83  F   UNL A   1      48.607  28.979  28.647  1.00  0.00    -0.203 F 
ATOM     84  C   UNL A   1      50.267  27.920  29.936  1.00  0.00     0.198 A 
ATOM     85  C   UNL A   1      49.669  26.781  31.962  1.00  0.00     0.198 A 
ATOM     86  F   UNL A   1      47.417  26.696  32.646  1.00  0.00    -0.203 F 
ATOM     87  F   UNL A   1      51.195  28.296  29.045  1.00  0.00    -0.200 F 
ATOM     88  C   UNL A   1      50.634  27.182  31.049  1.00  0.00     0.200 A 
ATOM     89  F   UNL A   1      50.026  26.085  33.051  1.00  0.00    -0.200 F 
ATOM     90  F   UNL A   1      51.919  26.855  31.245  1.00  0.00    -0.200 F 
ENDBRANCH  57  80
ENDBRANCH  31  32
ENDBRANCH  23  26
ENDBRANCH  21  22
ENDBRANCH  20  21
ENDBRANCH   1  20
TORSDOF 14
ENDMDL
