MODEL 1
REMARK VINA RESULT:     -12.8      0.000      0.000
REMARK SMILES O=C(NCCCNC(=O)[C@@H](Cc1ccccc1)NC(=O)c1ccccc1[N+](=O)[O-])c1ccc(-c2c3nc(c(-c4c(F)c(F)c(F)c(F)c4F)c4ccc([nH]4)c(-c4c(F)c(F)c(F)c(F)c4F)c4nc(c(-c5c(F)c(F)c(F)c(F)c5F)c5ccc2[nH]5)C=C4)C=C3)cc1
REMARK SMILES IDX 5 1 4 2 3 3 1 4 2 5 30 7 31 8 92 9 32 10 91 11 33 12 34 13
REMARK SMILES IDX 35 14 85 15 36 16 90 17 84 18 86 19 37 20 89 21 83 22 82 23
REMARK SMILES IDX 38 25 70 26 50 27 69 28 51 29 54 30 68 31 87 32 52 33 53 34
REMARK SMILES IDX 67 36 88 37 55 38 39 39 40 40 48 41 41 42 42 43 46 44 49 45
REMARK SMILES IDX 43 46 44 47 47 48 45 49 71 50 72 51 80 52 73 53 74 54 78 55
REMARK SMILES IDX 81 56 75 57 76 58 79 59 77 60 56 61 57 62 65 63 58 64 59 65
REMARK SMILES IDX 63 66 66 67 60 68 61 69 64 70 62 71 6 72 7 73 8 74 9 76
REMARK SMILES IDX 10 77 11 78 12 79 13 80 17 81 14 82 16 83 15 84 18 85 19 86
REMARK SMILES IDX 20 88 21 89 22 90 26 91 23 92 25 93 24 94 27 95 28 96 29 97
REMARK H PARENT 3 6 86 24 54 35 7 75 18 87
REMARK Flexibility Score: inf
ROOT
ATOM      1  C   UNL A   1      32.218  29.684  25.277  1.00  0.00     0.042 C 
ENDROOT
BRANCH   1   2
ATOM      2  C   UNL A   1      32.068  30.101  26.735  1.00  0.00     0.118 C 
BRANCH   2   3
ATOM      3  N   UNL A   1      32.219  31.532  26.919  1.00  0.00    -0.352 N 
ATOM      4  O   UNL A   1      32.912  33.526  27.581  1.00  0.00    -0.269 OA
ATOM      5  C   UNL A   1      33.196  32.332  27.454  1.00  0.00     0.251 C 
ATOM      6  H   UNL A   1      31.447  32.043  26.584  1.00  0.00     0.163 HD
BRANCH   5   7
ATOM      7  C   UNL A   1      34.554  31.881  27.890  1.00  0.00     0.039 A 
ATOM      8  C   UNL A   1      35.661  32.710  28.067  1.00  0.00     0.014 A 
ATOM      9  C   UNL A   1      34.678  30.536  28.288  1.00  0.00     0.014 A 
ATOM     10  C   UNL A   1      36.858  32.208  28.605  1.00  0.00     0.010 A 
ATOM     11  C   UNL A   1      35.850  30.047  28.888  1.00  0.00     0.010 A 
ATOM     12  C   UNL A   1      36.956  30.884  29.062  1.00  0.00    -0.014 A 
BRANCH  12  13
ATOM     13  C   UNL A   1      38.164  30.445  29.820  1.00  0.00     0.031 A 
ATOM     14  C   UNL A   1      38.422  30.886  31.236  1.00  0.00     0.074 A 
ATOM     15  C   UNL A   1      39.051  29.626  29.216  1.00  0.00     0.049 A 
ATOM     16  N   UNL A   1      39.393  30.534  32.045  1.00  0.00    -0.248 NA
ATOM     17  C   UNL A   1      37.481  31.851  31.816  1.00  0.00     0.031 C 
ATOM     18  C   UNL A   1      38.970  29.177  27.825  1.00  0.00     0.029 A 
ATOM     19  N   UNL A   1      40.188  29.016  29.692  1.00  0.00    -0.354 N 
ATOM     20  C   UNL A   1      39.180  31.232  33.227  1.00  0.00     0.074 A 
ATOM     21  C   UNL A   1      38.010  32.059  33.015  1.00  0.00     0.031 C 
ATOM     22  C   UNL A   1      39.977  28.328  27.575  1.00  0.00     0.029 A 
ATOM     23  C   UNL A   1      40.801  28.200  28.773  1.00  0.00     0.049 A 
ATOM     24  H   UNL A   1      40.530  29.151  30.605  1.00  0.00     0.167 HD
ATOM     25  C   UNL A   1      39.881  31.175  34.386  1.00  0.00     0.037 A 
ATOM     26  C   UNL A   1      41.902  27.430  28.874  1.00  0.00     0.037 A 
ATOM     27  C   UNL A   1      41.047  30.355  34.606  1.00  0.00     0.049 A 
ATOM     28  C   UNL A   1      42.647  27.370  30.179  1.00  0.00     0.074 A 
ATOM     29  C   UNL A   1      41.803  30.219  35.759  1.00  0.00     0.029 A 
ATOM     30  N   UNL A   1      41.630  29.533  33.653  1.00  0.00    -0.354 N 
ATOM     31  N   UNL A   1      42.393  27.988  31.305  1.00  0.00    -0.248 NA
ATOM     32  C   UNL A   1      43.829  26.497  30.226  1.00  0.00     0.031 C 
ATOM     33  C   UNL A   1      42.861  29.342  35.494  1.00  0.00     0.029 A 
ATOM     34  C   UNL A   1      42.740  28.897  34.189  1.00  0.00     0.049 A 
ATOM     35  H   UNL A   1      41.303  29.418  32.731  1.00  0.00     0.167 HD
ATOM     36  C   UNL A   1      43.374  27.576  32.195  1.00  0.00     0.074 A 
ATOM     37  C   UNL A   1      44.210  26.628  31.489  1.00  0.00     0.031 C 
ATOM     38  C   UNL A   1      43.570  27.959  33.479  1.00  0.00     0.037 A 
BRANCH  25  39
ATOM     39  C   UNL A   1      39.401  32.021  35.532  1.00  0.00     0.064 A 
ATOM     40  C   UNL A   1      38.483  31.522  36.468  1.00  0.00     0.173 A 
ATOM     41  C   UNL A   1      39.913  33.310  35.736  1.00  0.00     0.173 A 
ATOM     42  F   UNL A   1      37.960  30.296  36.314  1.00  0.00    -0.203 F 
ATOM     43  C   UNL A   1      38.081  32.291  37.558  1.00  0.00     0.198 A 
ATOM     44  C   UNL A   1      39.528  34.067  36.840  1.00  0.00     0.198 A 
ATOM     45  F   UNL A   1      40.801  33.830  34.876  1.00  0.00    -0.203 F 
ATOM     46  F   UNL A   1      37.179  31.806  38.422  1.00  0.00    -0.200 F 
ATOM     47  C   UNL A   1      38.610  33.559  37.747  1.00  0.00     0.200 A 
ATOM     48  F   UNL A   1      40.050  35.286  37.031  1.00  0.00    -0.200 F 
ATOM     49  F   UNL A   1      38.232  34.292  38.803  1.00  0.00    -0.200 F 
ENDBRANCH  25  39
BRANCH  26  50
ATOM     50  C   UNL A   1      42.360  26.636  27.705  1.00  0.00     0.064 A 
ATOM     51  C   UNL A   1      41.854  25.352  27.458  1.00  0.00     0.173 A 
ATOM     52  C   UNL A   1      43.317  27.142  26.814  1.00  0.00     0.173 A 
ATOM     53  F   UNL A   1      40.953  24.816  28.295  1.00  0.00    -0.203 F 
ATOM     54  C   UNL A   1      42.302  24.597  26.377  1.00  0.00     0.198 A 
ATOM     55  C   UNL A   1      43.743  26.399  25.716  1.00  0.00     0.198 A 
ATOM     56  F   UNL A   1      43.830  28.366  27.004  1.00  0.00    -0.203 F 
ATOM     57  F   UNL A   1      41.837  23.354  26.191  1.00  0.00    -0.200 F 
ATOM     58  C   UNL A   1      43.241  25.123  25.503  1.00  0.00     0.200 A 
ATOM     59  F   UNL A   1      44.640  26.916  24.865  1.00  0.00    -0.200 F 
ATOM     60  F   UNL A   1      43.670  24.398  24.460  1.00  0.00    -0.200 F 
ENDBRANCH  26  50
BRANCH  38  61
ATOM     61  C   UNL A   1      44.729  27.341  34.206  1.00  0.00     0.064 A 
ATOM     62  C   UNL A   1      46.009  27.915  34.166  1.00  0.00     0.173 A 
ATOM     63  C   UNL A   1      44.558  26.168  34.955  1.00  0.00     0.173 A 
ATOM     64  F   UNL A   1      46.228  29.028  33.449  1.00  0.00    -0.203 F 
ATOM     65  C   UNL A   1      47.082  27.318  34.823  1.00  0.00     0.198 A 
ATOM     66  C   UNL A   1      45.629  25.589  35.634  1.00  0.00     0.198 A 
ATOM     67  F   UNL A   1      43.354  25.581  35.029  1.00  0.00    -0.203 F 
ATOM     68  F   UNL A   1      48.307  27.854  34.726  1.00  0.00    -0.200 F 
ATOM     69  C   UNL A   1      46.890  26.160  35.559  1.00  0.00     0.200 A 
ATOM     70  F   UNL A   1      45.440  24.473  36.351  1.00  0.00    -0.200 F 
ATOM     71  F   UNL A   1      47.926  25.585  36.188  1.00  0.00    -0.200 F 
ENDBRANCH  38  61
ENDBRANCH  12  13
ENDBRANCH   5   7
ENDBRANCH   2   3
ENDBRANCH   1   2
BRANCH   1  72
ATOM     72  C   UNL A   1      33.638  29.264  24.890  1.00  0.00     0.117 C 
BRANCH  72  73
ATOM     73  N   UNL A   1      33.670  28.764  23.526  1.00  0.00    -0.354 N 
ATOM     74  C   UNL A   1      33.593  27.509  23.011  1.00  0.00     0.242 C 
ATOM     75  H   UNL A   1      33.765  29.469  22.845  1.00  0.00     0.163 HD
ATOM     76  O   UNL A   1      34.035  27.372  21.862  1.00  0.00    -0.273 OA
BRANCH  74  77
ATOM     77  C   UNL A   1      33.095  26.262  23.781  1.00  0.00     0.176 C 
BRANCH  77  78
ATOM     78  C   UNL A   1      34.038  25.810  24.913  1.00  0.00     0.070 C 
BRANCH  78  79
ATOM     79  C   UNL A   1      34.701  24.455  24.841  1.00  0.00    -0.045 A 
ATOM     80  C   UNL A   1      34.990  23.751  26.019  1.00  0.00     0.004 A 
ATOM     81  C   UNL A   1      35.143  23.928  23.620  1.00  0.00     0.004 A 
ATOM     82  C   UNL A   1      35.649  22.521  25.975  1.00  0.00     0.000 A 
ATOM     83  C   UNL A   1      35.817  22.704  23.578  1.00  0.00     0.000 A 
ATOM     84  C   UNL A   1      36.059  21.996  24.753  1.00  0.00     0.000 A 
ENDBRANCH  78  79
ENDBRANCH  77  78
BRANCH  77  85
ATOM     85  N   UNL A   1      31.669  26.261  24.126  1.00  0.00    -0.340 N 
ATOM     86  C   UNL A   1      30.798  25.208  24.223  1.00  0.00     0.258 C 
ATOM     87  H   UNL A   1      31.282  27.146  24.317  1.00  0.00     0.164 HD
ATOM     88  O   UNL A   1      29.585  25.408  24.212  1.00  0.00    -0.269 OA
BRANCH  86  89
ATOM     89  C   UNL A   1      31.284  23.816  24.314  1.00  0.00     0.117 A 
ATOM     90  C   UNL A   1      31.618  23.166  23.119  1.00  0.00     0.021 A 
ATOM     91  C   UNL A   1      31.369  23.101  25.513  1.00  0.00     0.282 A 
ATOM     92  C   UNL A   1      32.084  21.846  23.138  1.00  0.00     0.001 A 
ATOM     93  C   UNL A   1      31.860  21.785  25.541  1.00  0.00     0.086 A 
ATOM     94  C   UNL A   1      32.221  21.163  24.347  1.00  0.00     0.007 A 
BRANCH  91  95
ATOM     95  N   UNL A   1      30.926  23.678  26.767  1.00  0.00     0.063 N 
ATOM     96  O   UNL A   1      31.704  24.467  27.323  1.00  0.00    -0.258 OA
ATOM     97  O   UNL A   1      29.819  23.344  27.204  1.00  0.00    -0.258 OA
ENDBRANCH  91  95
ENDBRANCH  86  89
ENDBRANCH  77  85
ENDBRANCH  74  77
ENDBRANCH  72  73
ENDBRANCH   1  72
TORSDOF 15
ENDMDL
MODEL 2
REMARK VINA RESULT:     -12.8      0.222      1.658
REMARK SMILES O=C(NCCCNC(=O)[C@@H](Cc1ccccc1)NC(=O)c1ccccc1[N+](=O)[O-])c1ccc(-c2c3nc(c(-c4c(F)c(F)c(F)c(F)c4F)c4ccc([nH]4)c(-c4c(F)c(F)c(F)c(F)c4F)c4nc(c(-c5c(F)c(F)c(F)c(F)c5F)c5ccc2[nH]5)C=C4)C=C3)cc1
REMARK SMILES IDX 5 1 4 2 3 3 1 4 2 5 30 7 31 8 92 9 32 10 91 11 33 12 34 13
REMARK SMILES IDX 35 14 85 15 36 16 90 17 84 18 86 19 37 20 89 21 83 22 82 23
REMARK SMILES IDX 38 25 70 26 50 27 69 28 51 29 54 30 68 31 87 32 52 33 53 34
REMARK SMILES IDX 67 36 88 37 55 38 39 39 40 40 48 41 41 42 42 43 46 44 49 45
REMARK SMILES IDX 43 46 44 47 47 48 45 49 71 50 72 51 80 52 73 53 74 54 78 55
REMARK SMILES IDX 81 56 75 57 76 58 79 59 77 60 56 61 57 62 65 63 58 64 59 65
REMARK SMILES IDX 63 66 66 67 60 68 61 69 64 70 62 71 6 72 7 73 8 74 9 76
REMARK SMILES IDX 10 77 11 78 12 79 13 80 17 81 14 82 16 83 15 84 18 85 19 86
REMARK SMILES IDX 20 88 21 89 22 90 26 91 23 92 25 93 24 94 27 95 28 96 29 97
REMARK H PARENT 3 6 86 24 54 35 7 75 18 87
REMARK Flexibility Score: inf
ROOT
ATOM      1  C   UNL A   1      32.276  29.945  25.463  1.00  0.00     0.042 C 
ENDROOT
BRANCH   1   2
ATOM      2  C   UNL A   1      32.139  30.413  26.906  1.00  0.00     0.118 C 
BRANCH   2   3
ATOM      3  N   UNL A   1      32.367  31.839  27.048  1.00  0.00    -0.352 N 
ATOM      4  O   UNL A   1      33.171  33.811  27.648  1.00  0.00    -0.269 OA
ATOM      5  C   UNL A   1      33.390  32.600  27.554  1.00  0.00     0.251 C 
ATOM      6  H   UNL A   1      31.621  32.381  26.704  1.00  0.00     0.163 HD
BRANCH   5   7
ATOM      7  C   UNL A   1      34.725  32.089  27.994  1.00  0.00     0.039 A 
ATOM      8  C   UNL A   1      35.869  32.868  28.163  1.00  0.00     0.014 A 
ATOM      9  C   UNL A   1      34.785  30.744  28.405  1.00  0.00     0.014 A 
ATOM     10  C   UNL A   1      37.042  32.315  28.705  1.00  0.00     0.010 A 
ATOM     11  C   UNL A   1      35.933  30.206  29.009  1.00  0.00     0.010 A 
ATOM     12  C   UNL A   1      37.078  30.992  29.175  1.00  0.00    -0.014 A 
BRANCH  12  13
ATOM     13  C   UNL A   1      38.264  30.503  29.937  1.00  0.00     0.031 A 
ATOM     14  C   UNL A   1      38.535  30.934  31.353  1.00  0.00     0.074 A 
ATOM     15  C   UNL A   1      39.118  29.648  29.337  1.00  0.00     0.049 A 
ATOM     16  N   UNL A   1      39.489  30.542  32.166  1.00  0.00    -0.248 NA
ATOM     17  C   UNL A   1      37.634  31.938  31.930  1.00  0.00     0.031 C 
ATOM     18  C   UNL A   1      39.023  29.202  27.945  1.00  0.00     0.029 A 
ATOM     19  N   UNL A   1      40.227  28.992  29.816  1.00  0.00    -0.354 N 
ATOM     20  C   UNL A   1      39.301  31.250  33.347  1.00  0.00     0.074 A 
ATOM     21  C   UNL A   1      38.167  32.125  33.131  1.00  0.00     0.031 C 
ATOM     22  C   UNL A   1      39.994  28.311  27.698  1.00  0.00     0.029 A 
ATOM     23  C   UNL A   1      40.809  28.149  28.899  1.00  0.00     0.049 A 
ATOM     24  H   UNL A   1      40.571  29.112  30.730  1.00  0.00     0.167 HD
ATOM     25  C   UNL A   1      39.996  31.164  34.508  1.00  0.00     0.037 A 
ATOM     26  C   UNL A   1      41.876  27.334  29.004  1.00  0.00     0.037 A 
ATOM     27  C   UNL A   1      41.126  30.296  34.732  1.00  0.00     0.049 A 
ATOM     28  C   UNL A   1      42.614  27.244  30.311  1.00  0.00     0.074 A 
ATOM     29  C   UNL A   1      41.872  30.130  35.888  1.00  0.00     0.029 A 
ATOM     30  N   UNL A   1      41.677  29.451  33.781  1.00  0.00    -0.354 N 
ATOM     31  N   UNL A   1      42.382  27.874  31.436  1.00  0.00    -0.248 NA
ATOM     32  C   UNL A   1      43.758  26.323  30.362  1.00  0.00     0.031 C 
ATOM     33  C   UNL A   1      42.893  29.209  35.626  1.00  0.00     0.029 A 
ATOM     34  C   UNL A   1      42.758  28.769  34.321  1.00  0.00     0.049 A 
ATOM     35  H   UNL A   1      41.349  29.349  32.859  1.00  0.00     0.167 HD
ATOM     36  C   UNL A   1      43.343  27.422  32.329  1.00  0.00     0.074 A 
ATOM     37  C   UNL A   1      44.141  26.439  31.626  1.00  0.00     0.031 C 
ATOM     38  C   UNL A   1      43.550  27.797  33.614  1.00  0.00     0.037 A 
BRANCH  25  39
ATOM     39  C   UNL A   1      39.547  32.030  35.652  1.00  0.00     0.064 A 
ATOM     40  C   UNL A   1      40.060  33.323  35.828  1.00  0.00     0.173 A 
ATOM     41  C   UNL A   1      38.548  31.593  36.534  1.00  0.00     0.173 A 
ATOM     42  F   UNL A   1      41.022  33.785  35.015  1.00  0.00    -0.203 F 
ATOM     43  C   UNL A   1      39.603  34.141  36.859  1.00  0.00     0.198 A 
ATOM     44  C   UNL A   1      38.075  32.423  37.547  1.00  0.00     0.198 A 
ATOM     45  F   UNL A   1      38.016  30.369  36.402  1.00  0.00    -0.203 F 
ATOM     46  F   UNL A   1      40.131  35.361  37.028  1.00  0.00    -0.200 F 
ATOM     47  C   UNL A   1      38.605  33.694  37.712  1.00  0.00     0.200 A 
ATOM     48  F   UNL A   1      37.101  31.995  38.362  1.00  0.00    -0.200 F 
ATOM     49  F   UNL A   1      38.157  34.486  38.695  1.00  0.00    -0.200 F 
ENDBRANCH  25  39
BRANCH  26  50
ATOM     50  C   UNL A   1      42.305  26.521  27.837  1.00  0.00     0.064 A 
ATOM     51  C   UNL A   1      43.298  26.980  26.960  1.00  0.00     0.173 A 
ATOM     52  C   UNL A   1      41.726  25.272  27.570  1.00  0.00     0.173 A 
ATOM     53  F   UNL A   1      43.865  28.179  27.160  1.00  0.00    -0.203 F 
ATOM     54  C   UNL A   1      43.681  26.231  25.850  1.00  0.00     0.198 A 
ATOM     55  C   UNL A   1      42.131  24.509  26.478  1.00  0.00     0.198 A 
ATOM     56  F   UNL A   1      40.774  24.787  28.381  1.00  0.00    -0.203 F 
ATOM     57  F   UNL A   1      44.598  26.714  25.002  1.00  0.00    -0.200 F 
ATOM     58  C   UNL A   1      43.102  24.993  25.614  1.00  0.00     0.200 A 
ATOM     59  F   UNL A   1      41.580  23.307  26.261  1.00  0.00    -0.200 F 
ATOM     60  F   UNL A   1      43.474  24.269  24.549  1.00  0.00    -0.200 F 
ENDBRANCH  26  50
BRANCH  38  61
ATOM     61  C   UNL A   1      44.681  27.132  34.345  1.00  0.00     0.064 A 
ATOM     62  C   UNL A   1      45.971  27.683  34.356  1.00  0.00     0.173 A 
ATOM     63  C   UNL A   1      44.471  25.935  35.047  1.00  0.00     0.173 A 
ATOM     64  F   UNL A   1      46.227  28.816  33.685  1.00  0.00    -0.203 F 
ATOM     65  C   UNL A   1      47.017  27.043  35.016  1.00  0.00     0.198 A 
ATOM     66  C   UNL A   1      45.514  25.313  35.728  1.00  0.00     0.198 A 
ATOM     67  F   UNL A   1      43.255  25.369  35.071  1.00  0.00    -0.203 F 
ATOM     68  F   UNL A   1      48.253  27.559  34.967  1.00  0.00    -0.200 F 
ATOM     69  C   UNL A   1      46.787  25.862  35.704  1.00  0.00     0.200 A 
ATOM     70  F   UNL A   1      45.289  24.176  36.400  1.00  0.00    -0.200 F 
ATOM     71  F   UNL A   1      47.797  25.245  36.336  1.00  0.00    -0.200 F 
ENDBRANCH  38  61
ENDBRANCH  12  13
ENDBRANCH   5   7
ENDBRANCH   2   3
ENDBRANCH   1   2
BRANCH   1  72
ATOM     72  C   UNL A   1      33.644  29.344  25.129  1.00  0.00     0.117 C 
BRANCH  72  73
ATOM     73  N   UNL A   1      33.673  28.872  23.755  1.00  0.00    -0.354 N 
ATOM     74  C   UNL A   1      33.596  27.627  23.215  1.00  0.00     0.242 C 
ATOM     75  H   UNL A   1      33.767  29.590  23.088  1.00  0.00     0.163 HD
ATOM     76  O   UNL A   1      34.037  27.514  22.062  1.00  0.00    -0.273 OA
BRANCH  74  77
ATOM     77  C   UNL A   1      33.101  26.365  23.961  1.00  0.00     0.176 C 
BRANCH  77  78
ATOM     78  C   UNL A   1      34.057  25.878  25.068  1.00  0.00     0.070 C 
BRANCH  78  79
ATOM     79  C   UNL A   1      34.750  24.544  24.928  1.00  0.00    -0.045 A 
ATOM     80  C   UNL A   1      35.111  24.070  23.659  1.00  0.00     0.004 A 
ATOM     81  C   UNL A   1      34.940  23.706  26.035  1.00  0.00     0.004 A 
ATOM     82  C   UNL A   1      35.705  22.815  23.505  1.00  0.00     0.000 A 
ATOM     83  C   UNL A   1      35.520  22.444  25.879  1.00  0.00     0.000 A 
ATOM     84  C   UNL A   1      35.913  22.004  24.617  1.00  0.00     0.000 A 
ENDBRANCH  78  79
ENDBRANCH  77  78
BRANCH  77  85
ATOM     85  N   UNL A   1      31.681  26.364  24.325  1.00  0.00    -0.340 N 
ATOM     86  C   UNL A   1      30.794  25.319  24.370  1.00  0.00     0.258 C 
ATOM     87  H   UNL A   1      31.310  27.241  24.576  1.00  0.00     0.164 HD
ATOM     88  O   UNL A   1      29.584  25.538  24.389  1.00  0.00    -0.269 OA
BRANCH  86  89
ATOM     89  C   UNL A   1      31.260  23.917  24.369  1.00  0.00     0.117 A 
ATOM     90  C   UNL A   1      31.567  23.337  23.131  1.00  0.00     0.021 A 
ATOM     91  C   UNL A   1      31.350  23.129  25.520  1.00  0.00     0.282 A 
ATOM     92  C   UNL A   1      32.013  22.012  23.062  1.00  0.00     0.001 A 
ATOM     93  C   UNL A   1      31.820  21.807  25.461  1.00  0.00     0.086 A 
ATOM     94  C   UNL A   1      32.155  21.253  24.225  1.00  0.00     0.007 A 
BRANCH  91  95
ATOM     95  N   UNL A   1      30.933  23.634  26.814  1.00  0.00     0.063 N 
ATOM     96  O   UNL A   1      31.725  24.384  27.401  1.00  0.00    -0.258 OA
ATOM     97  O   UNL A   1      29.832  23.281  27.250  1.00  0.00    -0.258 OA
ENDBRANCH  91  95
ENDBRANCH  86  89
ENDBRANCH  77  85
ENDBRANCH  74  77
ENDBRANCH  72  73
ENDBRANCH   1  72
TORSDOF 15
ENDMDL
MODEL 3
REMARK VINA RESULT:     -12.6      4.188      9.638
REMARK SMILES O=C(NCCCNC(=O)[C@@H](Cc1ccccc1)NC(=O)c1ccccc1[N+](=O)[O-])c1ccc(-c2c3nc(c(-c4c(F)c(F)c(F)c(F)c4F)c4ccc([nH]4)c(-c4c(F)c(F)c(F)c(F)c4F)c4nc(c(-c5c(F)c(F)c(F)c(F)c5F)c5ccc2[nH]5)C=C4)C=C3)cc1
REMARK SMILES IDX 5 1 4 2 3 3 1 4 2 5 30 7 31 8 92 9 32 10 91 11 33 12 34 13
REMARK SMILES IDX 35 14 85 15 36 16 90 17 84 18 86 19 37 20 89 21 83 22 82 23
REMARK SMILES IDX 38 25 70 26 50 27 69 28 51 29 54 30 68 31 87 32 52 33 53 34
REMARK SMILES IDX 67 36 88 37 55 38 39 39 40 40 48 41 41 42 42 43 46 44 49 45
REMARK SMILES IDX 43 46 44 47 47 48 45 49 71 50 72 51 80 52 73 53 74 54 78 55
REMARK SMILES IDX 81 56 75 57 76 58 79 59 77 60 56 61 57 62 65 63 58 64 59 65
REMARK SMILES IDX 63 66 66 67 60 68 61 69 64 70 62 71 6 72 7 73 8 74 9 76
REMARK SMILES IDX 10 77 11 78 12 79 13 80 17 81 14 82 16 83 15 84 18 85 19 86
REMARK SMILES IDX 20 88 21 89 22 90 26 91 23 92 25 93 24 94 27 95 28 96 29 97
REMARK H PARENT 3 6 86 24 54 35 7 75 18 87
REMARK Flexibility Score: inf
ROOT
ATOM      1  C   UNL A   1      36.115  21.340  25.546  1.00  0.00     0.042 C 
ENDROOT
BRANCH   1   2
ATOM      2  C   UNL A   1      37.452  21.420  24.820  1.00  0.00     0.118 C 
BRANCH   2   3
ATOM      3  N   UNL A   1      38.445  20.530  25.391  1.00  0.00    -0.352 N 
ATOM      4  O   UNL A   1      40.275  19.714  26.330  1.00  0.00    -0.269 OA
ATOM      5  C   UNL A   1      39.576  20.714  26.145  1.00  0.00     0.251 C 
ATOM      6  H   UNL A   1      38.267  19.582  25.195  1.00  0.00     0.163 HD
BRANCH   5   7
ATOM      7  C   UNL A   1      40.024  22.008  26.748  1.00  0.00     0.039 A 
ATOM      8  C   UNL A   1      41.007  22.142  27.727  1.00  0.00     0.014 A 
ATOM      9  C   UNL A   1      39.510  23.186  26.175  1.00  0.00     0.014 A 
ATOM     10  C   UNL A   1      41.448  23.413  28.136  1.00  0.00     0.010 A 
ATOM     11  C   UNL A   1      39.995  24.455  26.532  1.00  0.00     0.010 A 
ATOM     12  C   UNL A   1      40.981  24.583  27.515  1.00  0.00    -0.014 A 
BRANCH  12  13
ATOM     13  C   UNL A   1      41.622  25.896  27.820  1.00  0.00     0.031 A 
ATOM     14  C   UNL A   1      43.009  26.236  27.345  1.00  0.00     0.074 A 
ATOM     15  C   UNL A   1      40.936  26.804  28.545  1.00  0.00     0.049 A 
ATOM     16  N   UNL A   1      43.672  27.361  27.476  1.00  0.00    -0.248 NA
ATOM     17  C   UNL A   1      43.752  25.182  26.644  1.00  0.00     0.031 C 
ATOM     18  C   UNL A   1      39.614  26.584  29.134  1.00  0.00     0.029 A 
ATOM     19  N   UNL A   1      41.244  28.095  28.902  1.00  0.00    -0.354 N 
ATOM     20  C   UNL A   1      44.907  27.151  26.875  1.00  0.00     0.074 A 
ATOM     21  C   UNL A   1      44.916  25.777  26.415  1.00  0.00     0.031 C 
ATOM     22  C   UNL A   1      39.203  27.712  29.733  1.00  0.00     0.029 A 
ATOM     23  C   UNL A   1      40.246  28.725  29.607  1.00  0.00     0.049 A 
ATOM     24  H   UNL A   1      42.098  28.528  28.674  1.00  0.00     0.167 HD
ATOM     25  C   UNL A   1      45.929  28.025  26.705  1.00  0.00     0.037 A 
ATOM     26  C   UNL A   1      40.171  29.977  30.100  1.00  0.00     0.037 A 
ATOM     27  C   UNL A   1      45.929  29.394  27.160  1.00  0.00     0.049 A 
ATOM     28  C   UNL A   1      41.311  30.931  29.877  1.00  0.00     0.074 A 
ATOM     29  C   UNL A   1      46.915  30.355  27.007  1.00  0.00     0.029 A 
ATOM     30  N   UNL A   1      44.895  29.996  27.859  1.00  0.00    -0.354 N 
ATOM     31  N   UNL A   1      42.444  30.733  29.251  1.00  0.00    -0.248 NA
ATOM     32  C   UNL A   1      41.156  32.286  30.425  1.00  0.00     0.031 C 
ATOM     33  C   UNL A   1      46.492  31.528  27.641  1.00  0.00     0.029 A 
ATOM     34  C   UNL A   1      45.224  31.312  28.153  1.00  0.00     0.049 A 
ATOM     35  H   UNL A   1      44.051  29.556  28.110  1.00  0.00     0.167 HD
ATOM     36  C   UNL A   1      43.133  31.935  29.321  1.00  0.00     0.074 A 
ATOM     37  C   UNL A   1      42.277  32.869  30.023  1.00  0.00     0.031 C 
ATOM     38  C   UNL A   1      44.370  32.233  28.855  1.00  0.00     0.037 A 
BRANCH  25  39
ATOM     39  C   UNL A   1      47.149  27.534  25.978  1.00  0.00     0.064 A 
ATOM     40  C   UNL A   1      47.267  27.665  24.586  1.00  0.00     0.173 A 
ATOM     41  C   UNL A   1      48.237  26.997  26.681  1.00  0.00     0.173 A 
ATOM     42  F   UNL A   1      46.253  28.168  23.866  1.00  0.00    -0.203 F 
ATOM     43  C   UNL A   1      48.422  27.257  23.923  1.00  0.00     0.198 A 
ATOM     44  C   UNL A   1      49.400  26.613  26.018  1.00  0.00     0.198 A 
ATOM     45  F   UNL A   1      48.180  26.860  28.014  1.00  0.00    -0.203 F 
ATOM     46  F   UNL A   1      48.500  27.361  22.589  1.00  0.00    -0.200 F 
ATOM     47  C   UNL A   1      49.491  26.739  24.640  1.00  0.00     0.200 A 
ATOM     48  F   UNL A   1      50.437  26.126  26.713  1.00  0.00    -0.200 F 
ATOM     49  F   UNL A   1      50.605  26.359  24.002  1.00  0.00    -0.200 F 
ENDBRANCH  25  39
BRANCH  26  50
ATOM     50  C   UNL A   1      38.958  30.409  30.842  1.00  0.00     0.064 A 
ATOM     51  C   UNL A   1      37.841  30.921  30.167  1.00  0.00     0.173 A 
ATOM     52  C   UNL A   1      38.893  30.322  32.240  1.00  0.00     0.173 A 
ATOM     53  F   UNL A   1      37.864  31.045  28.832  1.00  0.00    -0.203 F 
ATOM     54  C   UNL A   1      36.714  31.351  30.865  1.00  0.00     0.198 A 
ATOM     55  C   UNL A   1      37.755  30.723  32.934  1.00  0.00     0.198 A 
ATOM     56  F   UNL A   1      39.935  29.835  32.930  1.00  0.00    -0.203 F 
ATOM     57  F   UNL A   1      35.679  31.881  30.199  1.00  0.00    -0.200 F 
ATOM     58  C   UNL A   1      36.669  31.245  32.247  1.00  0.00     0.200 A 
ATOM     59  F   UNL A   1      37.710  30.606  34.268  1.00  0.00    -0.200 F 
ATOM     60  F   UNL A   1      35.583  31.654  32.917  1.00  0.00    -0.200 F 
ENDBRANCH  26  50
BRANCH  38  61
ATOM     61  C   UNL A   1      44.864  33.633  29.082  1.00  0.00     0.064 A 
ATOM     62  C   UNL A   1      44.607  34.660  28.161  1.00  0.00     0.173 A 
ATOM     63  C   UNL A   1      45.597  33.953  30.235  1.00  0.00     0.173 A 
ATOM     64  F   UNL A   1      43.926  34.400  27.034  1.00  0.00    -0.203 F 
ATOM     65  C   UNL A   1      45.093  35.947  28.370  1.00  0.00     0.198 A 
ATOM     66  C   UNL A   1      46.058  35.249  30.454  1.00  0.00     0.198 A 
ATOM     67  F   UNL A   1      45.866  33.009  31.149  1.00  0.00    -0.203 F 
ATOM     68  F   UNL A   1      44.882  36.899  27.450  1.00  0.00    -0.200 F 
ATOM     69  C   UNL A   1      45.813  36.242  29.517  1.00  0.00     0.200 A 
ATOM     70  F   UNL A   1      46.747  35.534  31.567  1.00  0.00    -0.200 F 
ATOM     71  F   UNL A   1      46.284  37.482  29.715  1.00  0.00    -0.200 F 
ENDBRANCH  38  61
ENDBRANCH  12  13
ENDBRANCH   5   7
ENDBRANCH   2   3
ENDBRANCH   1   2
BRANCH   1  72
ATOM     72  C   UNL A   1      35.861  22.498  26.515  1.00  0.00     0.117 C 
BRANCH  72  73
ATOM     73  N   UNL A   1      34.531  22.397  27.095  1.00  0.00    -0.354 N 
ATOM     74  C   UNL A   1      33.391  23.109  26.893  1.00  0.00     0.242 C 
ATOM     75  H   UNL A   1      34.439  21.677  27.760  1.00  0.00     0.163 HD
ATOM     76  O   UNL A   1      32.550  23.043  27.801  1.00  0.00    -0.273 OA
BRANCH  74  77
ATOM     77  C   UNL A   1      33.129  24.043  25.688  1.00  0.00     0.176 C 
BRANCH  77  78
ATOM     78  C   UNL A   1      33.954  25.345  25.716  1.00  0.00     0.070 C 
BRANCH  78  79
ATOM     79  C   UNL A   1      33.252  26.676  25.841  1.00  0.00    -0.045 A 
ATOM     80  C   UNL A   1      32.107  26.793  26.642  1.00  0.00     0.004 A 
ATOM     81  C   UNL A   1      33.653  27.783  25.080  1.00  0.00     0.004 A 
ATOM     82  C   UNL A   1      31.414  28.002  26.729  1.00  0.00     0.000 A 
ATOM     83  C   UNL A   1      32.950  28.988  25.155  1.00  0.00     0.000 A 
ATOM     84  C   UNL A   1      31.838  29.101  25.988  1.00  0.00     0.000 A 
ENDBRANCH  78  79
ENDBRANCH  77  78
BRANCH  77  85
ATOM     85  N   UNL A   1      33.060  23.383  24.380  1.00  0.00    -0.340 N 
ATOM     86  C   UNL A   1      32.249  23.655  23.310  1.00  0.00     0.258 C 
ATOM     87  H   UNL A   1      33.689  22.636  24.253  1.00  0.00     0.164 HD
ATOM     88  O   UNL A   1      32.101  22.818  22.420  1.00  0.00    -0.269 OA
BRANCH  86  89
ATOM     89  C   UNL A   1      31.517  24.933  23.207  1.00  0.00     0.117 A 
ATOM     90  C   UNL A   1      30.328  25.061  23.939  1.00  0.00     0.021 A 
ATOM     91  C   UNL A   1      31.910  25.989  22.379  1.00  0.00     0.282 A 
ATOM     92  C   UNL A   1      29.587  26.247  23.884  1.00  0.00     0.001 A 
ATOM     93  C   UNL A   1      31.185  27.191  22.338  1.00  0.00     0.086 A 
ATOM     94  C   UNL A   1      30.023  27.315  23.099  1.00  0.00     0.007 A 
BRANCH  91  95
ATOM     95  N   UNL A   1      33.063  25.873  21.507  1.00  0.00     0.063 N 
ATOM     96  O   UNL A   1      34.155  26.223  21.978  1.00  0.00    -0.258 OA
ATOM     97  O   UNL A   1      32.887  25.447  20.360  1.00  0.00    -0.258 OA
ENDBRANCH  91  95
ENDBRANCH  86  89
ENDBRANCH  77  85
ENDBRANCH  74  77
ENDBRANCH  72  73
ENDBRANCH   1  72
TORSDOF 15
ENDMDL
