MODEL 1
REMARK VINA RESULT:     -13.1      0.000      0.000
REMARK SMILES Cc1nn(C)cc1-c1ccnc2nc(CCC(=O)NCCCNC(=O)c3ccc(-c4c5nc(c(-c6c(F)c(F)c(F)c(F)c6F)c6ccc([nH]6)c(-c6c(F)c(F)c(F)c(F)c6F)c6nc(c(-c7c(F)c(F)c(F)c(F)c7F)c7ccc4[nH]7)C=C6)C=C5)cc3)nn12
REMARK SMILES IDX 20 1 19 2 17 3 18 4 16 6 15 7 14 8 8 9 9 10 90 11 10 12
REMARK SMILES IDX 12 13 89 14 11 15 13 16 7 17 1 18 2 19 3 20 4 21 6 22 5 23
REMARK SMILES IDX 21 24 22 25 23 26 24 27 25 29 26 30 27 31 88 32 28 33 87 34
REMARK SMILES IDX 29 35 30 36 31 37 81 38 32 39 86 40 80 41 82 42 33 43 85 44
REMARK SMILES IDX 79 45 78 46 34 48 66 49 46 50 65 51 47 52 50 53 64 54 83 55
REMARK SMILES IDX 48 56 49 57 63 59 84 60 51 61 35 62 36 63 44 64 37 65 38 66
REMARK SMILES IDX 42 67 45 68 39 69 40 70 43 71 41 72 67 73 68 74 76 75 69 76
REMARK SMILES IDX 70 77 74 78 77 79 71 80 72 81 75 82 73 83 52 84 53 85 61 86
REMARK SMILES IDX 54 87 55 88 59 89 62 90 56 91 57 92 60 93 58 94
REMARK H PARENT 19 5 23 28 82 47 50 58
REMARK Flexibility Score: inf
ROOT
ATOM      1  C   UNL A   1      36.390  20.837  25.325  1.00  0.00     0.117 C 
ENDROOT
BRANCH   1   2
ATOM      2  N   UNL A   1      35.575  19.643  25.046  1.00  0.00    -0.356 N 
ATOM      3  C   UNL A   1      34.269  19.461  24.686  1.00  0.00     0.220 C 
ATOM      4  O   UNL A   1      33.830  18.314  24.700  1.00  0.00    -0.275 OA
ATOM      5  H   UNL A   1      36.075  18.800  25.138  1.00  0.00     0.163 HD
BRANCH   3   6
ATOM      6  C   UNL A   1      33.389  20.604  24.226  1.00  0.00     0.108 C 
BRANCH   6   7
ATOM      7  C   UNL A   1      32.148  20.765  25.096  1.00  0.00     0.089 C 
BRANCH   7   8
ATOM      8  C   UNL A   1      31.790  22.190  25.268  1.00  0.00     0.153 A 
ATOM      9  C   UNL A   1      31.559  25.547  24.370  1.00  0.00     0.081 A 
ATOM     10  C   UNL A   1      30.742  26.435  24.963  1.00  0.00     0.049 A 
ATOM     11  N   UNL A   1      31.584  24.245  24.905  1.00  0.00    -0.196 N 
ATOM     12  C   UNL A   1      29.883  25.945  26.072  1.00  0.00     0.117 A 
ATOM     13  C   UNL A   1      30.745  23.871  25.974  1.00  0.00     0.252 A 
ATOM     14  N   UNL A   1      32.259  23.149  24.472  1.00  0.00    -0.149 NA
ATOM     15  N   UNL A   1      29.881  24.747  26.561  1.00  0.00    -0.220 NA
ATOM     16  N   UNL A   1      30.877  22.584  26.197  1.00  0.00    -0.194 NA
BRANCH   9  17
ATOM     17  C   UNL A   1      32.230  25.828  23.133  1.00  0.00     0.041 A 
ATOM     18  C   UNL A   1      34.002  27.655  23.623  1.00  0.00     0.069 C 
ATOM     19  C   UNL A   1      33.277  26.702  22.760  1.00  0.00     0.069 A 
ATOM     20  N   UNL A   1      33.537  26.659  21.436  1.00  0.00    -0.178 NA
ATOM     21  N   UNL A   1      32.686  25.736  20.970  1.00  0.00    -0.275 N 
ATOM     22  C   UNL A   1      31.833  25.311  21.932  1.00  0.00     0.119 A 
ATOM     23  C   UNL A   1      32.572  25.412  19.566  1.00  0.00     0.173 C 
ENDBRANCH   9  17
ENDBRANCH   7   8
ENDBRANCH   6   7
ENDBRANCH   3   6
ENDBRANCH   1   2
BRANCH   1  24
ATOM     24  C   UNL A   1      37.869  20.585  24.958  1.00  0.00     0.042 C 
BRANCH  24  25
ATOM     25  C   UNL A   1      38.587  19.245  25.300  1.00  0.00     0.118 C 
BRANCH  25  26
ATOM     26  N   UNL A   1      39.902  19.350  25.992  1.00  0.00    -0.352 N 
ATOM     27  C   UNL A   1      40.728  20.129  26.785  1.00  0.00     0.251 C 
ATOM     28  H   UNL A   1      40.387  18.513  25.808  1.00  0.00     0.163 HD
ATOM     29  O   UNL A   1      41.702  19.479  27.202  1.00  0.00    -0.269 OA
BRANCH  27  30
ATOM     30  C   UNL A   1      40.764  21.606  27.161  1.00  0.00     0.039 A 
ATOM     31  C   UNL A   1      41.749  21.983  28.107  1.00  0.00     0.014 A 
ATOM     32  C   UNL A   1      39.974  22.661  26.729  1.00  0.00     0.014 A 
ATOM     33  C   UNL A   1      42.047  23.338  28.451  1.00  0.00     0.010 A 
ATOM     34  C   UNL A   1      40.333  24.040  27.006  1.00  0.00     0.010 A 
ATOM     35  C   UNL A   1      41.416  24.424  27.830  1.00  0.00    -0.014 A 
BRANCH  35  36
ATOM     36  C   UNL A   1      41.926  25.871  28.040  1.00  0.00     0.031 A 
ATOM     37  C   UNL A   1      43.268  26.383  27.504  1.00  0.00     0.074 A 
ATOM     38  C   UNL A   1      41.227  26.795  28.758  1.00  0.00     0.049 A 
ATOM     39  N   UNL A   1      43.801  27.589  27.589  1.00  0.00    -0.248 NA
ATOM     40  C   UNL A   1      44.128  25.419  26.815  1.00  0.00     0.031 C 
ATOM     41  C   UNL A   1      39.967  26.562  29.461  1.00  0.00     0.029 A 
ATOM     42  N   UNL A   1      41.484  28.137  29.031  1.00  0.00    -0.354 N 
ATOM     43  C   UNL A   1      45.060  27.515  26.995  1.00  0.00     0.074 A 
ATOM     44  C   UNL A   1      45.232  26.127  26.611  1.00  0.00     0.031 C 
ATOM     45  C   UNL A   1      39.549  27.700  30.042  1.00  0.00     0.029 A 
ATOM     46  C   UNL A   1      40.514  28.769  29.785  1.00  0.00     0.049 A 
ATOM     47  H   UNL A   1      42.293  28.599  28.711  1.00  0.00     0.167 HD
ATOM     48  C   UNL A   1      45.983  28.485  26.741  1.00  0.00     0.037 A 
ATOM     49  C   UNL A   1      40.376  30.042  30.227  1.00  0.00     0.037 A 
ATOM     50  C   UNL A   1      45.862  29.893  27.047  1.00  0.00     0.049 A 
ATOM     51  C   UNL A   1      41.397  31.115  29.917  1.00  0.00     0.074 A 
ATOM     52  C   UNL A   1      46.726  30.926  26.701  1.00  0.00     0.029 A 
ATOM     53  N   UNL A   1      44.840  30.473  27.774  1.00  0.00    -0.354 N 
ATOM     54  N   UNL A   1      42.502  31.034  29.223  1.00  0.00    -0.248 NA
ATOM     55  C   UNL A   1      41.137  32.470  30.448  1.00  0.00     0.031 C 
ATOM     56  C   UNL A   1      46.253  32.117  27.261  1.00  0.00     0.029 A 
ATOM     57  C   UNL A   1      45.063  31.840  27.905  1.00  0.00     0.049 A 
ATOM     58  H   UNL A   1      44.067  29.989  28.145  1.00  0.00     0.167 HD
ATOM     59  C   UNL A   1      43.037  32.321  29.197  1.00  0.00     0.074 A 
ATOM     60  C   UNL A   1      42.137  33.173  29.934  1.00  0.00     0.031 C 
ATOM     61  C   UNL A   1      44.181  32.739  28.603  1.00  0.00     0.037 A 
BRANCH  48  62
ATOM     62  C   UNL A   1      47.249  28.067  26.033  1.00  0.00     0.064 A 
ATOM     63  C   UNL A   1      48.431  27.815  26.747  1.00  0.00     0.173 A 
ATOM     64  C   UNL A   1      47.262  27.840  24.648  1.00  0.00     0.173 A 
ATOM     65  F   UNL A   1      48.470  27.998  28.076  1.00  0.00    -0.203 F 
ATOM     66  C   UNL A   1      49.592  27.409  26.094  1.00  0.00     0.198 A 
ATOM     67  C   UNL A   1      48.415  27.395  24.004  1.00  0.00     0.198 A 
ATOM     68  F   UNL A   1      46.151  28.025  23.919  1.00  0.00    -0.203 F 
ATOM     69  F   UNL A   1      50.724  27.237  26.791  1.00  0.00    -0.200 F 
ATOM     70  C   UNL A   1      49.582  27.194  24.724  1.00  0.00     0.200 A 
ATOM     71  F   UNL A   1      48.396  27.157  22.684  1.00  0.00    -0.200 F 
ATOM     72  F   UNL A   1      50.698  26.796  24.100  1.00  0.00    -0.200 F 
ENDBRANCH  48  62
BRANCH  49  73
ATOM     73  C   UNL A   1      39.168  30.438  31.015  1.00  0.00     0.064 A 
ATOM     74  C   UNL A   1      38.053  31.012  30.382  1.00  0.00     0.173 A 
ATOM     75  C   UNL A   1      39.136  30.337  32.413  1.00  0.00     0.173 A 
ATOM     76  F   UNL A   1      38.051  31.175  29.050  1.00  0.00    -0.203 F 
ATOM     77  C   UNL A   1      36.970  31.492  31.116  1.00  0.00     0.198 A 
ATOM     78  C   UNL A   1      38.037  30.787  33.144  1.00  0.00     0.198 A 
ATOM     79  F   UNL A   1      40.179  29.808  33.071  1.00  0.00    -0.203 F 
ATOM     80  F   UNL A   1      35.953  32.099  30.489  1.00  0.00    -0.200 F 
ATOM     81  C   UNL A   1      36.961  31.375  32.497  1.00  0.00     0.200 A 
ATOM     82  F   UNL A   1      38.029  30.669  34.480  1.00  0.00    -0.200 F 
ATOM     83  F   UNL A   1      35.923  31.844  33.204  1.00  0.00    -0.200 F 
ENDBRANCH  49  73
BRANCH  61  84
ATOM     84  C   UNL A   1      44.529  34.205  28.650  1.00  0.00     0.064 A 
ATOM     85  C   UNL A   1      44.019  35.127  27.723  1.00  0.00     0.173 A 
ATOM     86  C   UNL A   1      45.350  34.707  29.675  1.00  0.00     0.173 A 
ATOM     87  F   UNL A   1      43.241  34.709  26.714  1.00  0.00    -0.203 F 
ATOM     88  C   UNL A   1      44.330  36.485  27.807  1.00  0.00     0.198 A 
ATOM     89  C   UNL A   1      45.636  36.068  29.773  1.00  0.00     0.198 A 
ATOM     90  F   UNL A   1      45.867  33.878  30.593  1.00  0.00    -0.203 F 
ATOM     91  F   UNL A   1      43.862  37.338  26.884  1.00  0.00    -0.200 F 
ATOM     92  C   UNL A   1      45.131  36.955  28.836  1.00  0.00     0.200 A 
ATOM     93  F   UNL A   1      46.400  36.521  30.778  1.00  0.00    -0.200 F 
ATOM     94  F   UNL A   1      45.419  38.263  28.922  1.00  0.00    -0.200 F 
ENDBRANCH  61  84
ENDBRANCH  35  36
ENDBRANCH  27  30
ENDBRANCH  25  26
ENDBRANCH  24  25
ENDBRANCH   1  24
TORSDOF 13
ENDMDL
MODEL 2
REMARK VINA RESULT:     -13.1      4.571     10.357
REMARK SMILES Cc1nn(C)cc1-c1ccnc2nc(CCC(=O)NCCCNC(=O)c3ccc(-c4c5nc(c(-c6c(F)c(F)c(F)c(F)c6F)c6ccc([nH]6)c(-c6c(F)c(F)c(F)c(F)c6F)c6nc(c(-c7c(F)c(F)c(F)c(F)c7F)c7ccc4[nH]7)C=C6)C=C5)cc3)nn12
REMARK SMILES IDX 20 1 19 2 17 3 18 4 16 6 15 7 14 8 8 9 9 10 90 11 10 12
REMARK SMILES IDX 12 13 89 14 11 15 13 16 7 17 1 18 2 19 3 20 4 21 6 22 5 23
REMARK SMILES IDX 21 24 22 25 23 26 24 27 25 29 26 30 27 31 88 32 28 33 87 34
REMARK SMILES IDX 29 35 30 36 31 37 81 38 32 39 86 40 80 41 82 42 33 43 85 44
REMARK SMILES IDX 79 45 78 46 34 48 66 49 46 50 65 51 47 52 50 53 64 54 83 55
REMARK SMILES IDX 48 56 49 57 63 59 84 60 51 61 35 62 36 63 44 64 37 65 38 66
REMARK SMILES IDX 42 67 45 68 39 69 40 70 43 71 41 72 67 73 68 74 76 75 69 76
REMARK SMILES IDX 70 77 74 78 77 79 71 80 72 81 75 82 73 83 52 84 53 85 61 86
REMARK SMILES IDX 54 87 55 88 59 89 62 90 56 91 57 92 60 93 58 94
REMARK H PARENT 19 5 23 28 82 47 50 58
REMARK Flexibility Score: inf
ROOT
ATOM      1  C   UNL A   1      31.352  29.776  24.901  1.00  0.00     0.117 C 
ENDROOT
BRANCH   1   2
ATOM      2  N   UNL A   1      32.683  29.596  24.298  1.00  0.00    -0.356 N 
ATOM      3  C   UNL A   1      33.188  28.713  23.385  1.00  0.00     0.220 C 
ATOM      4  O   UNL A   1      34.403  28.704  23.213  1.00  0.00    -0.275 OA
ATOM      5  H   UNL A   1      33.348  30.246  24.620  1.00  0.00     0.163 HD
BRANCH   3   6
ATOM      6  C   UNL A   1      32.299  27.806  22.559  1.00  0.00     0.108 C 
BRANCH   6   7
ATOM      7  C   UNL A   1      32.927  26.436  22.326  1.00  0.00     0.089 C 
BRANCH   7   8
ATOM      8  C   UNL A   1      32.541  25.479  23.385  1.00  0.00     0.153 A 
ATOM      9  C   UNL A   1      32.992  22.835  25.607  1.00  0.00     0.081 A 
ATOM     10  C   UNL A   1      32.200  22.592  26.667  1.00  0.00     0.049 A 
ATOM     11  N   UNL A   1      32.625  23.903  24.765  1.00  0.00    -0.196 N 
ATOM     12  C   UNL A   1      31.061  23.518  26.899  1.00  0.00     0.117 A 
ATOM     13  C   UNL A   1      31.515  24.720  25.055  1.00  0.00     0.252 A 
ATOM     14  N   UNL A   1      33.267  24.401  23.678  1.00  0.00    -0.149 NA
ATOM     15  N   UNL A   1      30.724  24.515  26.147  1.00  0.00    -0.220 NA
ATOM     16  N   UNL A   1      31.466  25.706  24.189  1.00  0.00    -0.194 NA
BRANCH   9  17
ATOM     17  C   UNL A   1      34.258  22.184  25.430  1.00  0.00     0.041 A 
ATOM     18  C   UNL A   1      33.771  19.764  24.639  1.00  0.00     0.069 C 
ATOM     19  C   UNL A   1      34.648  20.890  25.014  1.00  0.00     0.069 A 
ATOM     20  N   UNL A   1      35.986  20.716  25.060  1.00  0.00    -0.178 NA
ATOM     21  N   UNL A   1      36.452  21.902  25.470  1.00  0.00    -0.275 N 
ATOM     22  C   UNL A   1      35.448  22.749  25.797  1.00  0.00     0.119 A 
ATOM     23  C   UNL A   1      37.853  22.148  25.727  1.00  0.00     0.173 C 
ENDBRANCH   9  17
ENDBRANCH   7   8
ENDBRANCH   6   7
ENDBRANCH   3   6
ENDBRANCH   1   2
BRANCH   1  24
ATOM     24  C   UNL A   1      31.439  30.679  26.151  1.00  0.00     0.042 C 
BRANCH  24  25
ATOM     25  C   UNL A   1      31.022  32.180  26.115  1.00  0.00     0.118 C 
BRANCH  25  26
ATOM     26  N   UNL A   1      31.782  33.105  27.001  1.00  0.00    -0.352 N 
ATOM     27  C   UNL A   1      32.988  33.368  27.631  1.00  0.00     0.251 C 
ATOM     28  H   UNL A   1      31.170  33.840  27.237  1.00  0.00     0.163 HD
ATOM     29  O   UNL A   1      33.013  34.518  28.101  1.00  0.00    -0.269 OA
BRANCH  27  30
ATOM     30  C   UNL A   1      34.222  32.536  27.961  1.00  0.00     0.039 A 
ATOM     31  C   UNL A   1      35.394  33.264  28.284  1.00  0.00     0.014 A 
ATOM     32  C   UNL A   1      34.394  31.160  27.993  1.00  0.00     0.014 A 
ATOM     33  C   UNL A   1      36.591  32.667  28.784  1.00  0.00     0.010 A 
ATOM     34  C   UNL A   1      35.574  30.558  28.585  1.00  0.00     0.010 A 
ATOM     35  C   UNL A   1      36.687  31.294  29.052  1.00  0.00    -0.014 A 
BRANCH  35  36
ATOM     36  C   UNL A   1      37.901  30.714  29.819  1.00  0.00     0.031 A 
ATOM     37  C   UNL A   1      38.212  31.038  31.285  1.00  0.00     0.074 A 
ATOM     38  C   UNL A   1      38.814  29.891  29.228  1.00  0.00     0.049 A 
ATOM     39  N   UNL A   1      39.189  30.592  32.055  1.00  0.00    -0.248 NA
ATOM     40  C   UNL A   1      37.340  32.001  31.960  1.00  0.00     0.031 C 
ATOM     41  C   UNL A   1      38.823  29.489  27.823  1.00  0.00     0.029 A 
ATOM     42  N   UNL A   1      39.936  29.241  29.738  1.00  0.00    -0.354 N 
ATOM     43  C   UNL A   1      39.062  31.240  33.282  1.00  0.00     0.074 A 
ATOM     44  C   UNL A   1      37.949  32.158  33.128  1.00  0.00     0.031 C 
ATOM     45  C   UNL A   1      39.851  28.653  27.592  1.00  0.00     0.029 A 
ATOM     46  C   UNL A   1      40.613  28.456  28.825  1.00  0.00     0.049 A 
ATOM     47  H   UNL A   1      40.223  29.335  30.676  1.00  0.00     0.167 HD
ATOM     48  C   UNL A   1      39.752  31.084  34.447  1.00  0.00     0.037 A 
ATOM     49  C   UNL A   1      41.704  27.660  28.927  1.00  0.00     0.037 A 
ATOM     50  C   UNL A   1      40.836  30.159  34.692  1.00  0.00     0.049 A 
ATOM     51  C   UNL A   1      42.446  27.477  30.233  1.00  0.00     0.074 A 
ATOM     52  C   UNL A   1      41.483  29.889  35.892  1.00  0.00     0.029 A 
ATOM     53  N   UNL A   1      41.446  29.366  33.739  1.00  0.00    -0.354 N 
ATOM     54  N   UNL A   1      42.200  27.996  31.407  1.00  0.00    -0.248 NA
ATOM     55  C   UNL A   1      43.620  26.578  30.224  1.00  0.00     0.031 C 
ATOM     56  C   UNL A   1      42.514  28.975  35.654  1.00  0.00     0.029 A 
ATOM     57  C   UNL A   1      42.472  28.627  34.318  1.00  0.00     0.049 A 
ATOM     58  H   UNL A   1      41.191  29.329  32.788  1.00  0.00     0.167 HD
ATOM     59  C   UNL A   1      43.149  27.457  32.275  1.00  0.00     0.074 A 
ATOM     60  C   UNL A   1      43.973  26.561  31.502  1.00  0.00     0.031 C 
ATOM     61  C   UNL A   1      43.304  27.697  33.599  1.00  0.00     0.037 A 
BRANCH  48  62
ATOM     62  C   UNL A   1      39.326  31.931  35.622  1.00  0.00     0.064 A 
ATOM     63  C   UNL A   1      38.388  31.461  36.554  1.00  0.00     0.173 A 
ATOM     64  C   UNL A   1      39.915  33.183  35.862  1.00  0.00     0.173 A 
ATOM     65  F   UNL A   1      37.807  30.264  36.383  1.00  0.00    -0.203 F 
ATOM     66  C   UNL A   1      38.013  32.236  37.649  1.00  0.00     0.198 A 
ATOM     67  C   UNL A   1      39.566  33.937  36.981  1.00  0.00     0.198 A 
ATOM     68  F   UNL A   1      40.848  33.666  35.028  1.00  0.00    -0.203 F 
ATOM     69  F   UNL A   1      37.068  31.790  38.489  1.00  0.00    -0.200 F 
ATOM     70  C   UNL A   1      38.606  33.470  37.865  1.00  0.00     0.200 A 
ATOM     71  F   UNL A   1      40.163  35.116  37.207  1.00  0.00    -0.200 F 
ATOM     72  F   UNL A   1      38.249  34.210  38.923  1.00  0.00    -0.200 F 
ENDBRANCH  48  62
BRANCH  49  73
ATOM     73  C   UNL A   1      42.190  26.894  27.737  1.00  0.00     0.064 A 
ATOM     74  C   UNL A   1      41.751  25.580  27.500  1.00  0.00     0.173 A 
ATOM     75  C   UNL A   1      43.160  27.417  26.872  1.00  0.00     0.173 A 
ATOM     76  F   UNL A   1      40.858  25.015  28.326  1.00  0.00    -0.203 F 
ATOM     77  C   UNL A   1      42.283  24.814  26.464  1.00  0.00     0.198 A 
ATOM     78  C   UNL A   1      43.668  26.661  25.815  1.00  0.00     0.198 A 
ATOM     79  F   UNL A   1      43.624  28.662  27.059  1.00  0.00    -0.203 F 
ATOM     80  F   UNL A   1      41.896  23.540  26.307  1.00  0.00    -0.200 F 
ATOM     81  C   UNL A   1      43.238  25.358  25.619  1.00  0.00     0.200 A 
ATOM     82  F   UNL A   1      44.588  27.191  24.996  1.00  0.00    -0.200 F 
ATOM     83  F   UNL A   1      43.755  24.619  24.627  1.00  0.00    -0.200 F 
ENDBRANCH  49  73
BRANCH  61  84
ATOM     84  C   UNL A   1      44.367  26.941  34.354  1.00  0.00     0.064 A 
ATOM     85  C   UNL A   1      45.665  27.447  34.530  1.00  0.00     0.173 A 
ATOM     86  C   UNL A   1      44.068  25.707  34.957  1.00  0.00     0.173 A 
ATOM     87  F   UNL A   1      46.017  28.612  33.968  1.00  0.00    -0.203 F 
ATOM     88  C   UNL A   1      46.622  26.742  35.261  1.00  0.00     0.198 A 
ATOM     89  C   UNL A   1      45.019  25.020  35.710  1.00  0.00     0.198 A 
ATOM     90  F   UNL A   1      42.846  25.171  34.828  1.00  0.00    -0.203 F 
ATOM     91  F   UNL A   1      47.866  27.229  35.380  1.00  0.00    -0.200 F 
ATOM     92  C   UNL A   1      46.296  25.533  35.857  1.00  0.00     0.200 A 
ATOM     93  F   UNL A   1      44.695  23.857  36.297  1.00  0.00    -0.200 F 
ATOM     94  F   UNL A   1      47.215  24.864  36.570  1.00  0.00    -0.200 F 
ENDBRANCH  61  84
ENDBRANCH  35  36
ENDBRANCH  27  30
ENDBRANCH  25  26
ENDBRANCH  24  25
ENDBRANCH   1  24
TORSDOF 13
ENDMDL
MODEL 3
REMARK VINA RESULT:     -13.1      4.684     10.396
REMARK SMILES Cc1nn(C)cc1-c1ccnc2nc(CCC(=O)NCCCNC(=O)c3ccc(-c4c5nc(c(-c6c(F)c(F)c(F)c(F)c6F)c6ccc([nH]6)c(-c6c(F)c(F)c(F)c(F)c6F)c6nc(c(-c7c(F)c(F)c(F)c(F)c7F)c7ccc4[nH]7)C=C6)C=C5)cc3)nn12
REMARK SMILES IDX 20 1 19 2 17 3 18 4 16 6 15 7 14 8 8 9 9 10 90 11 10 12
REMARK SMILES IDX 12 13 89 14 11 15 13 16 7 17 1 18 2 19 3 20 4 21 6 22 5 23
REMARK SMILES IDX 21 24 22 25 23 26 24 27 25 29 26 30 27 31 88 32 28 33 87 34
REMARK SMILES IDX 29 35 30 36 31 37 81 38 32 39 86 40 80 41 82 42 33 43 85 44
REMARK SMILES IDX 79 45 78 46 34 48 66 49 46 50 65 51 47 52 50 53 64 54 83 55
REMARK SMILES IDX 48 56 49 57 63 59 84 60 51 61 35 62 36 63 44 64 37 65 38 66
REMARK SMILES IDX 42 67 45 68 39 69 40 70 43 71 41 72 67 73 68 74 76 75 69 76
REMARK SMILES IDX 70 77 74 78 77 79 71 80 72 81 75 82 73 83 52 84 53 85 61 86
REMARK SMILES IDX 54 87 55 88 59 89 62 90 56 91 57 92 60 93 58 94
REMARK H PARENT 19 5 23 28 82 47 50 58
REMARK Flexibility Score: inf
ROOT
ATOM      1  C   UNL A   1      31.558  30.202  25.430  1.00  0.00     0.117 C 
ENDROOT
BRANCH   1   2
ATOM      2  N   UNL A   1      32.779  29.399  25.609  1.00  0.00    -0.356 N 
ATOM      3  C   UNL A   1      33.115  28.376  26.451  1.00  0.00     0.220 C 
ATOM      4  O   UNL A   1      34.291  28.025  26.480  1.00  0.00    -0.275 OA
ATOM      5  H   UNL A   1      33.506  29.653  24.996  1.00  0.00     0.163 HD
BRANCH   3   6
ATOM      6  C   UNL A   1      32.085  27.644  27.286  1.00  0.00     0.108 C 
BRANCH   6   7
ATOM      7  C   UNL A   1      31.071  26.894  26.429  1.00  0.00     0.089 C 
BRANCH   7   8
ATOM      8  C   UNL A   1      31.727  26.208  25.295  1.00  0.00     0.153 A 
ATOM      9  C   UNL A   1      33.247  23.557  23.625  1.00  0.00     0.081 A 
ATOM     10  C   UNL A   1      33.401  23.490  22.291  1.00  0.00     0.049 A 
ATOM     11  N   UNL A   1      32.677  24.734  24.145  1.00  0.00    -0.196 N 
ATOM     12  C   UNL A   1      32.884  24.625  21.482  1.00  0.00     0.117 A 
ATOM     13  C   UNL A   1      32.230  25.771  23.302  1.00  0.00     0.252 A 
ATOM     14  N   UNL A   1      32.354  25.041  25.428  1.00  0.00    -0.149 NA
ATOM     15  N   UNL A   1      32.340  25.703  21.944  1.00  0.00    -0.220 NA
ATOM     16  N   UNL A   1      31.635  26.690  24.026  1.00  0.00    -0.194 NA
BRANCH   9  17
ATOM     17  C   UNL A   1      33.460  22.424  24.479  1.00  0.00     0.041 A 
ATOM     18  C   UNL A   1      35.223  23.119  26.248  1.00  0.00     0.069 C 
ATOM     19  C   UNL A   1      34.275  22.184  25.610  1.00  0.00     0.069 A 
ATOM     20  N   UNL A   1      34.178  20.913  26.055  1.00  0.00    -0.178 NA
ATOM     21  N   UNL A   1      33.279  20.352  25.237  1.00  0.00    -0.275 N 
ATOM     22  C   UNL A   1      32.922  21.191  24.235  1.00  0.00     0.119 A 
ATOM     23  C   UNL A   1      32.916  18.955  25.310  1.00  0.00     0.173 C 
ENDBRANCH   9  17
ENDBRANCH   7   8
ENDBRANCH   6   7
ENDBRANCH   3   6
ENDBRANCH   1   2
BRANCH   1  24
ATOM     24  C   UNL A   1      31.403  31.222  26.580  1.00  0.00     0.042 C 
BRANCH  24  25
ATOM     25  C   UNL A   1      31.355  32.757  26.320  1.00  0.00     0.118 C 
BRANCH  25  26
ATOM     26  N   UNL A   1      32.165  33.614  27.231  1.00  0.00    -0.352 N 
ATOM     27  C   UNL A   1      33.380  33.787  27.874  1.00  0.00     0.251 C 
ATOM     28  H   UNL A   1      31.598  34.379  27.480  1.00  0.00     0.163 HD
ATOM     29  O   UNL A   1      33.473  34.922  28.370  1.00  0.00    -0.269 OA
BRANCH  27  30
ATOM     30  C   UNL A   1      34.557  32.873  28.193  1.00  0.00     0.039 A 
ATOM     31  C   UNL A   1      35.791  33.519  28.459  1.00  0.00     0.014 A 
ATOM     32  C   UNL A   1      34.627  31.490  28.261  1.00  0.00     0.014 A 
ATOM     33  C   UNL A   1      36.955  32.846  28.941  1.00  0.00     0.010 A 
ATOM     34  C   UNL A   1      35.776  30.816  28.837  1.00  0.00     0.010 A 
ATOM     35  C   UNL A   1      36.956  31.479  29.248  1.00  0.00    -0.014 A 
BRANCH  35  36
ATOM     36  C   UNL A   1      38.147  30.829  29.996  1.00  0.00     0.031 A 
ATOM     37  C   UNL A   1      38.476  31.107  31.467  1.00  0.00     0.074 A 
ATOM     38  C   UNL A   1      39.021  29.982  29.383  1.00  0.00     0.049 A 
ATOM     39  N   UNL A   1      39.436  30.601  32.223  1.00  0.00    -0.248 NA
ATOM     40  C   UNL A   1      37.649  32.091  32.168  1.00  0.00     0.031 C 
ATOM     41  C   UNL A   1      39.007  29.612  27.968  1.00  0.00     0.029 A 
ATOM     42  N   UNL A   1      40.116  29.273  29.873  1.00  0.00    -0.354 N 
ATOM     43  C   UNL A   1      39.341  31.226  33.465  1.00  0.00     0.074 A 
ATOM     44  C   UNL A   1      38.268  32.194  33.337  1.00  0.00     0.031 C 
ATOM     45  C   UNL A   1      39.998  28.738  27.714  1.00  0.00     0.029 A 
ATOM     46  C   UNL A   1      40.755  28.481  28.939  1.00  0.00     0.049 A 
ATOM     47  H   UNL A   1      40.410  29.333  30.811  1.00  0.00     0.167 HD
ATOM     48  C   UNL A   1      40.028  31.014  34.623  1.00  0.00     0.037 A 
ATOM     49  C   UNL A   1      41.811  27.636  29.018  1.00  0.00     0.037 A 
ATOM     50  C   UNL A   1      41.071  30.038  34.842  1.00  0.00     0.049 A 
ATOM     51  C   UNL A   1      42.549  27.392  30.316  1.00  0.00     0.074 A 
ATOM     52  C   UNL A   1      41.711  29.714  36.033  1.00  0.00     0.029 A 
ATOM     53  N   UNL A   1      41.643  29.241  33.868  1.00  0.00    -0.354 N 
ATOM     54  N   UNL A   1      42.330  27.894  31.503  1.00  0.00    -0.248 NA
ATOM     55  C   UNL A   1      43.683  26.444  30.281  1.00  0.00     0.031 C 
ATOM     56  C   UNL A   1      42.701  28.761  35.769  1.00  0.00     0.029 A 
ATOM     57  C   UNL A   1      42.639  28.446  34.426  1.00  0.00     0.049 A 
ATOM     58  H   UNL A   1      41.384  29.237  32.918  1.00  0.00     0.167 HD
ATOM     59  C   UNL A   1      43.258  27.295  32.353  1.00  0.00     0.074 A 
ATOM     60  C   UNL A   1      44.040  26.382  31.557  1.00  0.00     0.031 C 
ATOM     61  C   UNL A   1      43.428  27.498  33.682  1.00  0.00     0.037 A 
BRANCH  48  62
ATOM     62  C   UNL A   1      39.643  31.851  35.818  1.00  0.00     0.064 A 
ATOM     63  C   UNL A   1      40.310  33.052  36.111  1.00  0.00     0.173 A 
ATOM     64  C   UNL A   1      38.554  31.496  36.630  1.00  0.00     0.173 A 
ATOM     65  F   UNL A   1      41.347  33.449  35.357  1.00  0.00    -0.203 F 
ATOM     66  C   UNL A   1      39.939  33.832  37.202  1.00  0.00     0.198 A 
ATOM     67  C   UNL A   1      38.160  32.301  37.697  1.00  0.00     0.198 A 
ATOM     68  F   UNL A   1      37.852  30.381  36.375  1.00  0.00    -0.203 F 
ATOM     69  F   UNL A   1      40.633  34.941  37.496  1.00  0.00    -0.200 F 
ATOM     70  C   UNL A   1      38.861  33.460  37.991  1.00  0.00     0.200 A 
ATOM     71  F   UNL A   1      37.098  31.957  38.441  1.00  0.00    -0.200 F 
ATOM     72  F   UNL A   1      38.501  34.218  39.036  1.00  0.00    -0.200 F 
ENDBRANCH  48  62
BRANCH  49  73
ATOM     73  C   UNL A   1      42.259  26.877  27.809  1.00  0.00     0.064 A 
ATOM     74  C   UNL A   1      41.747  25.598  27.532  1.00  0.00     0.173 A 
ATOM     75  C   UNL A   1      43.264  27.368  26.963  1.00  0.00     0.173 A 
ATOM     76  F   UNL A   1      40.817  25.062  28.337  1.00  0.00    -0.203 F 
ATOM     77  C   UNL A   1      42.240  24.833  26.477  1.00  0.00     0.198 A 
ATOM     78  C   UNL A   1      43.733  26.614  25.888  1.00  0.00     0.198 A 
ATOM     79  F   UNL A   1      43.797  28.578  27.188  1.00  0.00    -0.203 F 
ATOM     80  F   UNL A   1      41.782  23.588  26.282  1.00  0.00    -0.200 F 
ATOM     81  C   UNL A   1      43.231  25.344  25.652  1.00  0.00     0.200 A 
ATOM     82  F   UNL A   1      44.688  27.113  25.089  1.00  0.00    -0.200 F 
ATOM     83  F   UNL A   1      43.710  24.605  24.642  1.00  0.00    -0.200 F 
ENDBRANCH  49  73
BRANCH  61  84
ATOM     84  C   UNL A   1      44.460  26.680  34.415  1.00  0.00     0.064 A 
ATOM     85  C   UNL A   1      44.170  25.421  34.961  1.00  0.00     0.173 A 
ATOM     86  C   UNL A   1      45.783  27.144  34.529  1.00  0.00     0.173 A 
ATOM     87  F   UNL A   1      42.924  24.928  34.897  1.00  0.00    -0.203 F 
ATOM     88  C   UNL A   1      45.152  24.669  35.608  1.00  0.00     0.198 A 
ATOM     89  C   UNL A   1      46.768  26.378  35.150  1.00  0.00     0.198 A 
ATOM     90  F   UNL A   1      46.125  28.339  34.026  1.00  0.00    -0.203 F 
ATOM     91  F   UNL A   1      44.838  23.486  36.156  1.00  0.00    -0.200 F 
ATOM     92  C   UNL A   1      46.452  25.144  35.694  1.00  0.00     0.200 A 
ATOM     93  F   UNL A   1      48.027  26.835  35.219  1.00  0.00    -0.200 F 
ATOM     94  F   UNL A   1      47.397  24.414  36.305  1.00  0.00    -0.200 F 
ENDBRANCH  61  84
ENDBRANCH  35  36
ENDBRANCH  27  30
ENDBRANCH  25  26
ENDBRANCH  24  25
ENDBRANCH   1  24
TORSDOF 13
ENDMDL
