MODEL 1
REMARK VINA RESULT:     -13.2      0.000      0.000
REMARK SMILES O=C1CC[C@H](CNC(=O)N[C@@H]2C=C[C@@H](C(=O)NCCCNC(=O)c3ccc(-c4c5nc(c(-c6c(F)c(F)c(F)c(F)c6F)c6ccc([nH]6)c(-c6c(F)c(F)c(F)c(F)c6F)c6nc(c(-c7c(F)c(F)c(F)c(F)c7F)c7ccc4[nH]7)C=C6)C=C5)cc3)C2)N1
REMARK SMILES IDX 18 1 17 2 15 3 16 4 14 6 11 7 12 8 87 9 13 10 10 11 7 12
REMARK SMILES IDX 8 13 9 15 6 17 5 18 1 19 2 20 3 21 88 22 4 23 19 25 20 26
REMARK SMILES IDX 21 27 22 28 23 30 24 31 25 32 86 33 26 34 85 35 27 36 28 37
REMARK SMILES IDX 29 38 79 39 30 40 84 41 78 42 80 43 31 44 83 45 77 46 76 47
REMARK SMILES IDX 32 49 64 50 44 51 63 52 45 53 48 54 62 55 81 56 46 57 47 58
REMARK SMILES IDX 61 60 82 61 49 62 33 63 34 64 42 65 35 66 36 67 40 68 43 69
REMARK SMILES IDX 37 70 38 71 41 72 39 73 65 74 66 75 74 76 67 77 68 78 72 79
REMARK SMILES IDX 75 80 69 81 70 82 73 83 71 84 50 85 51 86 59 87 52 88 53 89
REMARK SMILES IDX 57 90 60 91 54 92 55 93 58 94 56 95
REMARK H PARENT 17 5 7 14 10 16 88 24 21 29 80 48 48 59
REMARK Flexibility Score: inf
ROOT
ATOM      1  C   UNL A   1      31.170  27.128  25.607  1.00  0.00     0.117 C 
ENDROOT
BRANCH   1   2
ATOM      2  N   UNL A   1      30.795  25.908  26.294  1.00  0.00    -0.356 N 
ATOM      3  C   UNL A   1      31.464  24.741  26.502  1.00  0.00     0.227 C 
ATOM      4  O   UNL A   1      30.929  23.925  27.263  1.00  0.00    -0.274 OA
ATOM      5  H   UNL A   1      29.890  25.927  26.683  1.00  0.00     0.163 HD
BRANCH   3   6
ATOM      6  C   UNL A   1      32.763  24.365  25.777  1.00  0.00     0.103 C 
ATOM      7  C   UNL A   1      33.546  22.101  25.175  1.00  0.00     0.107 C 
ATOM      8  C   UNL A   1      33.211  22.928  23.974  1.00  0.00    -0.006 C 
ATOM      9  C   UNL A   1      33.374  23.084  26.341  1.00  0.00     0.047 C 
ATOM     10  C   UNL A   1      32.725  24.132  24.302  1.00  0.00    -0.016 C 
BRANCH   7  11
ATOM     11  N   UNL A   1      34.886  21.575  25.069  1.00  0.00    -0.332 N 
ATOM     12  N   UNL A   1      34.617  19.218  24.972  1.00  0.00    -0.336 N 
ATOM     13  C   UNL A   1      35.380  20.328  24.972  1.00  0.00     0.315 C 
ATOM     14  H   UNL A   1      35.120  18.381  24.842  1.00  0.00     0.165 HD
ATOM     15  O   UNL A   1      36.601  20.186  24.886  1.00  0.00    -0.249 OA
ATOM     16  H   UNL A   1      35.582  22.272  25.068  1.00  0.00     0.165 HD
BRANCH  12  17
ATOM     17  C   UNL A   1      33.194  19.039  25.129  1.00  0.00     0.142 C 
BRANCH  17  18
ATOM     18  C   UNL A   1      32.510  18.095  24.126  1.00  0.00     0.101 C 
ATOM     19  O   UNL A   1      33.135  14.866  25.352  1.00  0.00    -0.275 OA
ATOM     20  C   UNL A   1      33.112  15.897  24.698  1.00  0.00     0.220 C 
ATOM     21  C   UNL A   1      34.153  16.379  23.719  1.00  0.00     0.102 C 
ATOM     22  N   UNL A   1      32.143  16.871  24.804  1.00  0.00    -0.352 N 
ATOM     23  C   UNL A   1      33.464  17.576  23.055  1.00  0.00     0.036 C 
ATOM     24  H   UNL A   1      31.293  16.746  25.286  1.00  0.00     0.163 HD
ENDBRANCH  17  18
ENDBRANCH  12  17
ENDBRANCH   7  11
ENDBRANCH   3   6
ENDBRANCH   1   2
BRANCH   1  25
ATOM     25  C   UNL A   1      31.972  28.091  26.479  1.00  0.00     0.042 C 
BRANCH  25  26
ATOM     26  C   UNL A   1      32.869  29.065  25.716  1.00  0.00     0.118 C 
BRANCH  26  27
ATOM     27  N   UNL A   1      32.579  30.458  26.023  1.00  0.00    -0.352 N 
ATOM     28  C   UNL A   1      33.150  31.325  26.920  1.00  0.00     0.251 C 
ATOM     29  H   UNL A   1      31.843  30.847  25.495  1.00  0.00     0.163 HD
ATOM     30  O   UNL A   1      32.613  32.412  27.122  1.00  0.00    -0.269 OA
BRANCH  28  31
ATOM     31  C   UNL A   1      34.386  30.980  27.662  1.00  0.00     0.039 A 
ATOM     32  C   UNL A   1      35.320  31.995  27.908  1.00  0.00     0.014 A 
ATOM     33  C   UNL A   1      34.671  29.672  28.057  1.00  0.00     0.014 A 
ATOM     34  C   UNL A   1      36.505  31.709  28.592  1.00  0.00     0.010 A 
ATOM     35  C   UNL A   1      35.820  29.400  28.800  1.00  0.00     0.010 A 
ATOM     36  C   UNL A   1      36.753  30.414  29.070  1.00  0.00    -0.014 A 
BRANCH  36  37
ATOM     37  C   UNL A   1      37.980  30.098  29.846  1.00  0.00     0.031 A 
ATOM     38  C   UNL A   1      39.018  29.169  29.281  1.00  0.00     0.074 A 
ATOM     39  C   UNL A   1      38.131  30.596  31.088  1.00  0.00     0.049 A 
ATOM     40  N   UNL A   1      40.116  28.716  29.834  1.00  0.00    -0.248 NA
ATOM     41  C   UNL A   1      38.781  28.665  27.920  1.00  0.00     0.031 C 
ATOM     42  C   UNL A   1      37.184  31.485  31.761  1.00  0.00     0.029 A 
ATOM     43  N   UNL A   1      39.132  30.416  32.011  1.00  0.00    -0.354 N 
ATOM     44  C   UNL A   1      40.684  27.857  28.901  1.00  0.00     0.074 A 
ATOM     45  C   UNL A   1      39.791  27.822  27.763  1.00  0.00     0.031 C 
ATOM     46  C   UNL A   1      37.660  31.791  32.979  1.00  0.00     0.029 A 
ATOM     47  C   UNL A   1      38.921  31.088  33.189  1.00  0.00     0.049 A 
ATOM     48  H   UNL A   1      39.926  29.859  31.842  1.00  0.00     0.167 HD
ATOM     49  C   UNL A   1      41.851  27.174  28.981  1.00  0.00     0.037 A 
ATOM     50  C   UNL A   1      39.658  31.126  34.316  1.00  0.00     0.037 A 
ATOM     51  C   UNL A   1      42.751  27.231  30.103  1.00  0.00     0.049 A 
ATOM     52  C   UNL A   1      40.939  30.341  34.387  1.00  0.00     0.074 A 
ATOM     53  C   UNL A   1      43.992  26.635  30.247  1.00  0.00     0.029 A 
ATOM     54  N   UNL A   1      42.502  27.923  31.280  1.00  0.00    -0.354 N 
ATOM     55  N   UNL A   1      41.502  29.588  33.473  1.00  0.00    -0.248 NA
ATOM     56  C   UNL A   1      41.691  30.414  35.648  1.00  0.00     0.031 C 
ATOM     57  C   UNL A   1      44.469  26.920  31.531  1.00  0.00     0.029 A 
ATOM     58  C   UNL A   1      43.552  27.741  32.167  1.00  0.00     0.049 A 
ATOM     59  H   UNL A   1      41.698  28.462  31.460  1.00  0.00     0.167 HD
ATOM     60  C   UNL A   1      42.686  29.128  34.032  1.00  0.00     0.074 A 
ATOM     61  C   UNL A   1      42.765  29.690  35.364  1.00  0.00     0.031 C 
ATOM     62  C   UNL A   1      43.625  28.315  33.487  1.00  0.00     0.037 A 
BRANCH  49  63
ATOM     63  C   UNL A   1      42.217  26.289  27.823  1.00  0.00     0.064 A 
ATOM     64  C   UNL A   1      41.688  24.997  27.681  1.00  0.00     0.173 A 
ATOM     65  C   UNL A   1      43.087  26.753  26.823  1.00  0.00     0.173 A 
ATOM     66  F   UNL A   1      40.858  24.503  28.612  1.00  0.00    -0.203 F 
ATOM     67  C   UNL A   1      42.045  24.190  26.604  1.00  0.00     0.198 A 
ATOM     68  C   UNL A   1      43.416  25.954  25.731  1.00  0.00     0.198 A 
ATOM     69  F   UNL A   1      43.615  27.984  26.902  1.00  0.00    -0.203 F 
ATOM     70  F   UNL A   1      41.569  22.940  26.520  1.00  0.00    -0.200 F 
ATOM     71  C   UNL A   1      42.903  24.670  25.627  1.00  0.00     0.200 A 
ATOM     72  F   UNL A   1      44.233  26.427  24.779  1.00  0.00    -0.200 F 
ATOM     73  F   UNL A   1      43.241  23.894  24.588  1.00  0.00    -0.200 F 
ENDBRANCH  49  63
BRANCH  50  74
ATOM     74  C   UNL A   1      39.216  31.963  35.460  1.00  0.00     0.064 A 
ATOM     75  C   UNL A   1      39.621  33.302  35.565  1.00  0.00     0.173 A 
ATOM     76  C   UNL A   1      38.383  31.453  36.466  1.00  0.00     0.173 A 
ATOM     77  F   UNL A   1      40.435  33.828  34.637  1.00  0.00    -0.203 F 
ATOM     78  C   UNL A   1      39.220  34.094  36.638  1.00  0.00     0.198 A 
ATOM     79  C   UNL A   1      37.961  32.254  37.526  1.00  0.00     0.198 A 
ATOM     80  F   UNL A   1      37.964  30.180  36.412  1.00  0.00    -0.203 F 
ATOM     81  F   UNL A   1      39.653  35.358  36.733  1.00  0.00    -0.200 F 
ATOM     82  C   UNL A   1      38.386  33.571  37.614  1.00  0.00     0.200 A 
ATOM     83  F   UNL A   1      37.143  31.750  38.459  1.00  0.00    -0.200 F 
ATOM     84  F   UNL A   1      37.995  34.335  38.643  1.00  0.00    -0.200 F 
ENDBRANCH  50  74
BRANCH  62  85
ATOM     85  C   UNL A   1      44.844  28.019  34.311  1.00  0.00     0.064 A 
ATOM     86  C   UNL A   1      45.970  28.854  34.294  1.00  0.00     0.173 A 
ATOM     87  C   UNL A   1      44.866  26.905  35.165  1.00  0.00     0.173 A 
ATOM     88  F   UNL A   1      46.006  29.922  33.481  1.00  0.00    -0.203 F 
ATOM     89  C   UNL A   1      47.082  28.573  35.083  1.00  0.00     0.198 A 
ATOM     90  C   UNL A   1      45.967  26.644  35.976  1.00  0.00     0.198 A 
ATOM     91  F   UNL A   1      43.813  26.077  35.224  1.00  0.00    -0.203 F 
ATOM     92  F   UNL A   1      48.166  29.359  35.016  1.00  0.00    -0.200 F 
ATOM     93  C   UNL A   1      47.077  27.474  35.930  1.00  0.00     0.200 A 
ATOM     94  F   UNL A   1      45.954  25.589  36.804  1.00  0.00    -0.200 F 
ATOM     95  F   UNL A   1      48.144  27.211  36.696  1.00  0.00    -0.200 F 
ENDBRANCH  62  85
ENDBRANCH  36  37
ENDBRANCH  28  31
ENDBRANCH  26  27
ENDBRANCH  25  26
ENDBRANCH   1  25
TORSDOF 13
ENDMDL
MODEL 2
REMARK VINA RESULT:     -13.2      2.342      3.849
REMARK SMILES O=C1CC[C@H](CNC(=O)N[C@@H]2C=C[C@@H](C(=O)NCCCNC(=O)c3ccc(-c4c5nc(c(-c6c(F)c(F)c(F)c(F)c6F)c6ccc([nH]6)c(-c6c(F)c(F)c(F)c(F)c6F)c6nc(c(-c7c(F)c(F)c(F)c(F)c7F)c7ccc4[nH]7)C=C6)C=C5)cc3)C2)N1
REMARK SMILES IDX 18 1 17 2 15 3 16 4 14 6 11 7 12 8 87 9 13 10 10 11 7 12
REMARK SMILES IDX 8 13 9 15 6 17 5 18 1 19 2 20 3 21 88 22 4 23 19 25 20 26
REMARK SMILES IDX 21 27 22 28 23 30 24 31 25 32 86 33 26 34 85 35 27 36 28 37
REMARK SMILES IDX 29 38 79 39 30 40 84 41 78 42 80 43 31 44 83 45 77 46 76 47
REMARK SMILES IDX 32 49 64 50 44 51 63 52 45 53 48 54 62 55 81 56 46 57 47 58
REMARK SMILES IDX 61 60 82 61 49 62 33 63 34 64 42 65 35 66 36 67 40 68 43 69
REMARK SMILES IDX 37 70 38 71 41 72 39 73 65 74 66 75 74 76 67 77 68 78 72 79
REMARK SMILES IDX 75 80 69 81 70 82 73 83 71 84 50 85 51 86 59 87 52 88 53 89
REMARK SMILES IDX 57 90 60 91 54 92 55 93 58 94 56 95
REMARK H PARENT 17 5 7 14 10 16 88 24 21 29 80 48 48 59
REMARK Flexibility Score: inf
ROOT
ATOM      1  C   UNL A   1      31.240  30.826  26.329  1.00  0.00     0.117 C 
ENDROOT
BRANCH   1   2
ATOM      2  N   UNL A   1      32.140  30.340  25.301  1.00  0.00    -0.356 N 
ATOM      3  C   UNL A   1      32.682  29.112  25.077  1.00  0.00     0.227 C 
ATOM      4  O   UNL A   1      33.306  28.968  24.019  1.00  0.00    -0.274 OA
ATOM      5  H   UNL A   1      32.406  31.023  24.644  1.00  0.00     0.163 HD
BRANCH   3   6
ATOM      6  C   UNL A   1      32.640  27.966  26.096  1.00  0.00     0.103 C 
ATOM      7  C   UNL A   1      31.730  25.693  25.764  1.00  0.00     0.107 C 
ATOM      8  C   UNL A   1      33.216  25.693  25.947  1.00  0.00    -0.006 C 
ATOM      9  C   UNL A   1      31.346  27.161  25.989  1.00  0.00     0.047 C 
ATOM     10  C   UNL A   1      33.716  26.930  26.063  1.00  0.00    -0.016 C 
BRANCH   7  11
ATOM     11  N   UNL A   1      31.105  24.792  26.702  1.00  0.00    -0.332 N 
ATOM     12  N   UNL A   1      30.656  22.820  25.458  1.00  0.00    -0.336 N 
ATOM     13  C   UNL A   1      30.635  23.536  26.599  1.00  0.00     0.315 C 
ATOM     14  H   UNL A   1      30.324  21.898  25.553  1.00  0.00     0.165 HD
ATOM     15  O   UNL A   1      30.148  23.008  27.600  1.00  0.00    -0.249 OA
ATOM     16  H   UNL A   1      31.000  25.175  27.603  1.00  0.00     0.165 HD
BRANCH  12  17
ATOM     17  C   UNL A   1      31.081  23.165  24.123  1.00  0.00     0.142 C 
BRANCH  17  18
ATOM     18  C   UNL A   1      32.013  22.163  23.422  1.00  0.00     0.101 C 
ATOM     19  O   UNL A   1      35.035  22.343  25.198  1.00  0.00    -0.275 OA
ATOM     20  C   UNL A   1      34.154  22.416  24.354  1.00  0.00     0.220 C 
ATOM     21  C   UNL A   1      34.091  23.362  23.183  1.00  0.00     0.102 C 
ATOM     22  N   UNL A   1      32.989  21.680  24.373  1.00  0.00    -0.352 N 
ATOM     23  C   UNL A   1      32.907  22.819  22.374  1.00  0.00     0.036 C 
ATOM     24  H   UNL A   1      32.839  20.910  24.968  1.00  0.00     0.163 HD
ENDBRANCH  17  18
ENDBRANCH  12  17
ENDBRANCH   7  11
ENDBRANCH   3   6
ENDBRANCH   1   2
BRANCH   1  25
ATOM     25  C   UNL A   1      31.282  32.341  26.502  1.00  0.00     0.042 C 
BRANCH  25  26
ATOM     26  C   UNL A   1      32.570  32.891  27.114  1.00  0.00     0.118 C 
BRANCH  26  27
ATOM     27  N   UNL A   1      32.419  34.245  27.626  1.00  0.00    -0.352 N 
ATOM     28  C   UNL A   1      33.049  34.899  28.655  1.00  0.00     0.251 C 
ATOM     29  H   UNL A   1      31.746  34.787  27.151  1.00  0.00     0.163 HD
ATOM     30  O   UNL A   1      32.622  35.996  29.012  1.00  0.00    -0.269 OA
BRANCH  28  31
ATOM     31  C   UNL A   1      34.215  34.313  29.356  1.00  0.00     0.039 A 
ATOM     32  C   UNL A   1      33.980  33.486  30.462  1.00  0.00     0.014 A 
ATOM     33  C   UNL A   1      35.528  34.616  28.990  1.00  0.00     0.014 A 
ATOM     34  C   UNL A   1      35.053  32.924  31.161  1.00  0.00     0.010 A 
ATOM     35  C   UNL A   1      36.596  34.001  29.642  1.00  0.00     0.010 A 
ATOM     36  C   UNL A   1      36.371  33.154  30.739  1.00  0.00    -0.014 A 
BRANCH  36  37
ATOM     37  C   UNL A   1      37.525  32.525  31.432  1.00  0.00     0.031 A 
ATOM     38  C   UNL A   1      38.254  31.371  30.801  1.00  0.00     0.074 A 
ATOM     39  C   UNL A   1      37.877  32.950  32.660  1.00  0.00     0.049 A 
ATOM     40  N   UNL A   1      39.234  30.647  31.282  1.00  0.00    -0.248 NA
ATOM     41  C   UNL A   1      37.809  30.965  29.460  1.00  0.00     0.031 C 
ATOM     42  C   UNL A   1      37.234  34.040  33.393  1.00  0.00     0.029 A 
ATOM     43  N   UNL A   1      38.857  32.508  33.515  1.00  0.00    -0.354 N 
ATOM     44  C   UNL A   1      39.504  29.686  30.314  1.00  0.00     0.074 A 
ATOM     45  C   UNL A   1      38.559  29.895  29.238  1.00  0.00     0.031 C 
ATOM     46  C   UNL A   1      37.849  34.198  34.577  1.00  0.00     0.029 A 
ATOM     47  C   UNL A   1      38.901  33.194  34.704  1.00  0.00     0.049 A 
ATOM     48  H   UNL A   1      39.471  31.770  33.295  1.00  0.00     0.167 HD
ATOM     49  C   UNL A   1      40.461  28.727  30.318  1.00  0.00     0.037 A 
ATOM     50  C   UNL A   1      39.694  33.026  35.780  1.00  0.00     0.037 A 
ATOM     51  C   UNL A   1      41.416  28.537  31.379  1.00  0.00     0.049 A 
ATOM     52  C   UNL A   1      40.736  31.940  35.767  1.00  0.00     0.074 A 
ATOM     53  C   UNL A   1      42.471  27.644  31.442  1.00  0.00     0.029 A 
ATOM     54  N   UNL A   1      41.428  29.252  32.568  1.00  0.00    -0.354 N 
ATOM     55  N   UNL A   1      41.028  31.084  34.819  1.00  0.00    -0.248 NA
ATOM     56  C   UNL A   1      41.561  31.802  36.976  1.00  0.00     0.031 C 
ATOM     57  C   UNL A   1      43.086  27.779  32.690  1.00  0.00     0.029 A 
ATOM     58  C   UNL A   1      42.452  28.796  33.384  1.00  0.00     0.049 A 
ATOM     59  H   UNL A   1      40.801  29.975  32.799  1.00  0.00     0.167 HD
ATOM     60  C   UNL A   1      42.089  30.329  35.300  1.00  0.00     0.074 A 
ATOM     61  C   UNL A   1      42.395  30.833  36.622  1.00  0.00     0.031 C 
ATOM     62  C   UNL A   1      42.753  29.313  34.695  1.00  0.00     0.037 A 
BRANCH  49  63
ATOM     63  C   UNL A   1      40.514  27.795  29.140  1.00  0.00     0.064 A 
ATOM     64  C   UNL A   1      41.365  28.030  28.049  1.00  0.00     0.173 A 
ATOM     65  C   UNL A   1      39.725  26.634  29.118  1.00  0.00     0.173 A 
ATOM     66  F   UNL A   1      42.134  29.128  28.016  1.00  0.00    -0.203 F 
ATOM     67  C   UNL A   1      41.395  27.157  26.964  1.00  0.00     0.198 A 
ATOM     68  C   UNL A   1      39.782  25.749  28.046  1.00  0.00     0.198 A 
ATOM     69  F   UNL A   1      38.902  26.356  30.140  1.00  0.00    -0.203 F 
ATOM     70  F   UNL A   1      42.174  27.432  25.908  1.00  0.00    -0.200 F 
ATOM     71  C   UNL A   1      40.609  26.015  26.965  1.00  0.00     0.200 A 
ATOM     72  F   UNL A   1      39.034  24.637  28.056  1.00  0.00    -0.200 F 
ATOM     73  F   UNL A   1      40.643  25.175  25.922  1.00  0.00    -0.200 F 
ENDBRANCH  49  63
BRANCH  50  74
ATOM     74  C   UNL A   1      39.555  33.931  36.949  1.00  0.00     0.064 A 
ATOM     75  C   UNL A   1      38.784  33.555  38.058  1.00  0.00     0.173 A 
ATOM     76  C   UNL A   1      40.189  35.182  36.989  1.00  0.00     0.173 A 
ATOM     77  F   UNL A   1      38.143  32.376  38.055  1.00  0.00    -0.203 F 
ATOM     78  C   UNL A   1      38.641  34.399  39.156  1.00  0.00     0.198 A 
ATOM     79  C   UNL A   1      40.066  36.015  38.099  1.00  0.00     0.198 A 
ATOM     80  F   UNL A   1      40.942  35.589  35.956  1.00  0.00    -0.203 F 
ATOM     81  F   UNL A   1      37.866  34.030  40.184  1.00  0.00    -0.200 F 
ATOM     82  C   UNL A   1      39.286  35.626  39.178  1.00  0.00     0.200 A 
ATOM     83  F   UNL A   1      40.704  37.193  38.125  1.00  0.00    -0.200 F 
ATOM     84  F   UNL A   1      39.153  36.435  40.237  1.00  0.00    -0.200 F 
ENDBRANCH  50  74
BRANCH  62  85
ATOM     85  C   UNL A   1      43.908  28.705  35.437  1.00  0.00     0.064 A 
ATOM     86  C   UNL A   1      45.210  29.211  35.324  1.00  0.00     0.173 A 
ATOM     87  C   UNL A   1      43.697  27.625  36.310  1.00  0.00     0.173 A 
ATOM     88  F   UNL A   1      45.468  30.230  34.489  1.00  0.00    -0.203 F 
ATOM     89  C   UNL A   1      46.263  28.645  36.038  1.00  0.00     0.198 A 
ATOM     90  C   UNL A   1      44.746  27.082  37.047  1.00  0.00     0.198 A 
ATOM     91  F   UNL A   1      42.469  27.107  36.460  1.00  0.00    -0.203 F 
ATOM     92  F   UNL A   1      47.508  29.116  35.879  1.00  0.00    -0.200 F 
ATOM     93  C   UNL A   1      46.029  27.588  36.906  1.00  0.00     0.200 A 
ATOM     94  F   UNL A   1      44.514  26.070  37.894  1.00  0.00    -0.200 F 
ATOM     95  F   UNL A   1      47.042  27.052  37.600  1.00  0.00    -0.200 F 
ENDBRANCH  62  85
ENDBRANCH  36  37
ENDBRANCH  28  31
ENDBRANCH  26  27
ENDBRANCH  25  26
ENDBRANCH   1  25
TORSDOF 13
ENDMDL
MODEL 3
REMARK VINA RESULT:     -13.1      1.490      2.516
REMARK SMILES O=C1CC[C@H](CNC(=O)N[C@@H]2C=C[C@@H](C(=O)NCCCNC(=O)c3ccc(-c4c5nc(c(-c6c(F)c(F)c(F)c(F)c6F)c6ccc([nH]6)c(-c6c(F)c(F)c(F)c(F)c6F)c6nc(c(-c7c(F)c(F)c(F)c(F)c7F)c7ccc4[nH]7)C=C6)C=C5)cc3)C2)N1
REMARK SMILES IDX 18 1 17 2 15 3 16 4 14 6 11 7 12 8 87 9 13 10 10 11 7 12
REMARK SMILES IDX 8 13 9 15 6 17 5 18 1 19 2 20 3 21 88 22 4 23 19 25 20 26
REMARK SMILES IDX 21 27 22 28 23 30 24 31 25 32 86 33 26 34 85 35 27 36 28 37
REMARK SMILES IDX 29 38 79 39 30 40 84 41 78 42 80 43 31 44 83 45 77 46 76 47
REMARK SMILES IDX 32 49 64 50 44 51 63 52 45 53 48 54 62 55 81 56 46 57 47 58
REMARK SMILES IDX 61 60 82 61 49 62 33 63 34 64 42 65 35 66 36 67 40 68 43 69
REMARK SMILES IDX 37 70 38 71 41 72 39 73 65 74 66 75 74 76 67 77 68 78 72 79
REMARK SMILES IDX 75 80 69 81 70 82 73 83 71 84 50 85 51 86 59 87 52 88 53 89
REMARK SMILES IDX 57 90 60 91 54 92 55 93 58 94 56 95
REMARK H PARENT 17 5 7 14 10 16 88 24 21 29 80 48 48 59
REMARK Flexibility Score: inf
ROOT
ATOM      1  C   UNL A   1      33.256  26.341  24.771  1.00  0.00     0.117 C 
ENDROOT
BRANCH   1   2
ATOM      2  N   UNL A   1      33.554  26.233  23.356  1.00  0.00    -0.356 N 
ATOM      3  C   UNL A   1      33.072  25.408  22.388  1.00  0.00     0.227 C 
ATOM      4  O   UNL A   1      33.415  25.657  21.226  1.00  0.00    -0.274 OA
ATOM      5  H   UNL A   1      34.227  26.877  23.037  1.00  0.00     0.163 HD
BRANCH   3   6
ATOM      6  C   UNL A   1      32.229  24.159  22.678  1.00  0.00     0.103 C 
ATOM      7  C   UNL A   1      32.400  22.650  24.627  1.00  0.00     0.107 C 
ATOM      8  C   UNL A   1      31.113  23.414  24.608  1.00  0.00    -0.006 C 
ATOM      9  C   UNL A   1      33.066  23.044  23.302  1.00  0.00     0.047 C 
ATOM     10  C   UNL A   1      31.049  24.279  23.587  1.00  0.00    -0.016 C 
BRANCH   7  11
ATOM     11  N   UNL A   1      32.145  21.233  24.736  1.00  0.00    -0.332 N 
ATOM     12  N   UNL A   1      34.057  20.345  25.828  1.00  0.00    -0.336 N 
ATOM     13  C   UNL A   1      32.844  20.210  25.260  1.00  0.00     0.315 C 
ATOM     14  H   UNL A   1      34.419  19.514  26.212  1.00  0.00     0.165 HD
ATOM     15  O   UNL A   1      32.354  19.081  25.211  1.00  0.00    -0.249 OA
ATOM     16  H   UNL A   1      31.283  20.959  24.347  1.00  0.00     0.165 HD
BRANCH  12  17
ATOM     17  C   UNL A   1      34.919  21.493  25.975  1.00  0.00     0.142 C 
BRANCH  17  18
ATOM     18  C   UNL A   1      36.291  21.409  25.285  1.00  0.00     0.101 C 
ATOM     19  O   UNL A   1      38.085  24.170  26.501  1.00  0.00    -0.275 OA
ATOM     20  C   UNL A   1      37.469  23.372  25.810  1.00  0.00     0.220 C 
ATOM     21  C   UNL A   1      36.713  23.662  24.539  1.00  0.00     0.102 C 
ATOM     22  N   UNL A   1      37.283  22.044  26.126  1.00  0.00    -0.352 N 
ATOM     23  C   UNL A   1      36.373  22.260  24.021  1.00  0.00     0.036 C 
ATOM     24  H   UNL A   1      37.771  21.579  26.842  1.00  0.00     0.163 HD
ENDBRANCH  17  18
ENDBRANCH  12  17
ENDBRANCH   7  11
ENDBRANCH   3   6
ENDBRANCH   1   2
BRANCH   1  25
ATOM     25  C   UNL A   1      32.577  27.654  25.148  1.00  0.00     0.042 C 
BRANCH  25  26
ATOM     26  C   UNL A   1      33.426  28.908  24.942  1.00  0.00     0.118 C 
BRANCH  26  27
ATOM     27  N   UNL A   1      32.799  30.108  25.477  1.00  0.00    -0.352 N 
ATOM     28  C   UNL A   1      33.085  30.860  26.589  1.00  0.00     0.251 C 
ATOM     29  H   UNL A   1      32.036  30.439  24.949  1.00  0.00     0.163 HD
ATOM     30  O   UNL A   1      32.297  31.739  26.932  1.00  0.00    -0.269 OA
BRANCH  28  31
ATOM     31  C   UNL A   1      34.307  30.629  27.395  1.00  0.00     0.039 A 
ATOM     32  C   UNL A   1      34.482  29.376  27.996  1.00  0.00     0.014 A 
ATOM     33  C   UNL A   1      35.243  31.639  27.626  1.00  0.00     0.014 A 
ATOM     34  C   UNL A   1      35.614  29.121  28.776  1.00  0.00     0.010 A 
ATOM     35  C   UNL A   1      36.405  31.365  28.346  1.00  0.00     0.010 A 
ATOM     36  C   UNL A   1      36.601  30.106  28.935  1.00  0.00    -0.014 A 
BRANCH  36  37
ATOM     37  C   UNL A   1      37.837  29.841  29.715  1.00  0.00     0.031 A 
ATOM     38  C   UNL A   1      38.895  28.920  29.174  1.00  0.00     0.074 A 
ATOM     39  C   UNL A   1      37.980  30.379  30.941  1.00  0.00     0.049 A 
ATOM     40  N   UNL A   1      40.005  28.510  29.736  1.00  0.00    -0.248 NA
ATOM     41  C   UNL A   1      38.665  28.371  27.829  1.00  0.00     0.031 C 
ATOM     42  C   UNL A   1      37.015  31.266  31.592  1.00  0.00     0.029 A 
ATOM     43  N   UNL A   1      38.987  30.250  31.865  1.00  0.00    -0.354 N 
ATOM     44  C   UNL A   1      40.590  27.637  28.826  1.00  0.00     0.074 A 
ATOM     45  C   UNL A   1      39.694  27.548  27.693  1.00  0.00     0.031 C 
ATOM     46  C   UNL A   1      37.487  31.619  32.799  1.00  0.00     0.029 A 
ATOM     47  C   UNL A   1      38.765  30.951  33.024  1.00  0.00     0.049 A 
ATOM     48  H   UNL A   1      39.794  29.707  31.710  1.00  0.00     0.167 HD
ATOM     49  C   UNL A   1      41.773  26.983  28.922  1.00  0.00     0.037 A 
ATOM     50  C   UNL A   1      39.504  31.039  34.147  1.00  0.00     0.037 A 
ATOM     51  C   UNL A   1      42.674  27.095  30.039  1.00  0.00     0.049 A 
ATOM     52  C   UNL A   1      40.803  30.286  34.236  1.00  0.00     0.074 A 
ATOM     53  C   UNL A   1      43.929  26.532  30.197  1.00  0.00     0.029 A 
ATOM     54  N   UNL A   1      42.413  27.815  31.196  1.00  0.00    -0.354 N 
ATOM     55  N   UNL A   1      41.380  29.521  33.343  1.00  0.00    -0.248 NA
ATOM     56  C   UNL A   1      41.556  30.414  35.492  1.00  0.00     0.031 C 
ATOM     57  C   UNL A   1      44.403  26.866  31.469  1.00  0.00     0.029 A 
ATOM     58  C   UNL A   1      43.469  27.684  32.084  1.00  0.00     0.049 A 
ATOM     59  H   UNL A   1      41.597  28.340  31.363  1.00  0.00     0.167 HD
ATOM     60  C   UNL A   1      42.577  29.104  33.911  1.00  0.00     0.074 A 
ATOM     61  C   UNL A   1      42.647  29.708  35.225  1.00  0.00     0.031 C 
ATOM     62  C   UNL A   1      43.533  28.298  33.386  1.00  0.00     0.037 A 
BRANCH  49  63
ATOM     63  C   UNL A   1      42.156  26.073  27.789  1.00  0.00     0.064 A 
ATOM     64  C   UNL A   1      41.605  24.790  27.652  1.00  0.00     0.173 A 
ATOM     65  C   UNL A   1      43.065  26.505  26.810  1.00  0.00     0.173 A 
ATOM     66  F   UNL A   1      40.737  24.327  28.563  1.00  0.00    -0.203 F 
ATOM     67  C   UNL A   1      41.978  23.960  26.598  1.00  0.00     0.198 A 
ATOM     68  C   UNL A   1      43.410  25.683  25.741  1.00  0.00     0.198 A 
ATOM     69  F   UNL A   1      43.614  27.726  26.887  1.00  0.00    -0.203 F 
ATOM     70  F   UNL A   1      41.480  22.718  26.518  1.00  0.00    -0.200 F 
ATOM     71  C   UNL A   1      42.875  24.408  25.640  1.00  0.00     0.200 A 
ATOM     72  F   UNL A   1      44.265  26.124  24.807  1.00  0.00    -0.200 F 
ATOM     73  F   UNL A   1      43.228  23.609  24.624  1.00  0.00    -0.200 F 
ENDBRANCH  49  63
BRANCH  50  74
ATOM     74  C   UNL A   1      39.047  31.900  35.268  1.00  0.00     0.064 A 
ATOM     75  C   UNL A   1      39.349  33.269  35.288  1.00  0.00     0.173 A 
ATOM     76  C   UNL A   1      38.298  31.381  36.334  1.00  0.00     0.173 A 
ATOM     77  F   UNL A   1      40.080  33.805  34.300  1.00  0.00    -0.203 F 
ATOM     78  C   UNL A   1      38.933  34.083  36.338  1.00  0.00     0.198 A 
ATOM     79  C   UNL A   1      37.859  32.202  37.371  1.00  0.00     0.198 A 
ATOM     80  F   UNL A   1      37.978  30.079  36.361  1.00  0.00    -0.203 F 
ATOM     81  F   UNL A   1      39.270  35.380  36.351  1.00  0.00    -0.200 F 
ATOM     82  C   UNL A   1      38.183  33.551  37.376  1.00  0.00     0.200 A 
ATOM     83  F   UNL A   1      37.122  31.688  38.364  1.00  0.00    -0.200 F 
ATOM     84  F   UNL A   1      37.778  34.336  38.382  1.00  0.00    -0.200 F 
ENDBRANCH  50  74
BRANCH  62  85
ATOM     85  C   UNL A   1      44.761  28.054  34.215  1.00  0.00     0.064 A 
ATOM     86  C   UNL A   1      45.873  28.907  34.158  1.00  0.00     0.173 A 
ATOM     87  C   UNL A   1      44.806  26.975  35.112  1.00  0.00     0.173 A 
ATOM     88  F   UNL A   1      45.886  29.943  33.305  1.00  0.00    -0.203 F 
ATOM     89  C   UNL A   1      46.993  28.675  34.951  1.00  0.00     0.198 A 
ATOM     90  C   UNL A   1      45.915  26.765  35.926  1.00  0.00     0.198 A 
ATOM     91  F   UNL A   1      43.767  26.133  35.209  1.00  0.00    -0.203 F 
ATOM     92  F   UNL A   1      48.063  29.476  34.847  1.00  0.00    -0.200 F 
ATOM     93  C   UNL A   1      47.011  27.610  35.840  1.00  0.00     0.200 A 
ATOM     94  F   UNL A   1      45.924  25.743  36.794  1.00  0.00    -0.200 F 
ATOM     95  F   UNL A   1      48.086  27.395  36.610  1.00  0.00    -0.200 F 
ENDBRANCH  62  85
ENDBRANCH  36  37
ENDBRANCH  28  31
ENDBRANCH  26  27
ENDBRANCH  25  26
ENDBRANCH   1  25
TORSDOF 13
ENDMDL
