MODEL 1
REMARK VINA RESULT:     -12.7      0.000      0.000
REMARK SMILES O=C(NCCCNC(=O)c1ccn(Cc2c(Cl)cccc2Cl)c1)c1ccc(-c2c3nc(c(-c4c(F)c(F)c(F)c(F)c4F)c4ccc([nH]4)c(-c4c(F)c(F)c(F)c(F)c4F)c4nc(c(-c5c(F)c(F)c(F)c(F)c5F)c5ccc2[nH]5)C=C4)C=C3)cc1
REMARK SMILES IDX 5 1 4 2 3 3 1 4 2 5 24 7 25 8 86 9 26 10 85 11 27 12 28 13
REMARK SMILES IDX 29 14 79 15 30 16 84 17 78 18 80 19 31 20 83 21 77 22 76 23
REMARK SMILES IDX 32 25 64 26 44 27 63 28 45 29 48 30 62 31 81 32 46 33 47 34
REMARK SMILES IDX 61 36 82 37 49 38 33 39 34 40 42 41 35 42 36 43 40 44 43 45
REMARK SMILES IDX 37 46 38 47 41 48 39 49 65 50 66 51 74 52 67 53 68 54 72 55
REMARK SMILES IDX 75 56 69 57 70 58 73 59 71 60 50 61 51 62 59 63 52 64 53 65
REMARK SMILES IDX 57 66 60 67 54 68 55 69 58 70 56 71 6 72 7 73 8 74 9 76
REMARK SMILES IDX 10 77 11 78 23 79 12 80 13 81 14 82 15 83 16 84 21 85 17 86
REMARK SMILES IDX 18 87 20 88 22 89 19 90
REMARK H PARENT 3 6 80 24 48 35 7 75
REMARK Flexibility Score: inf
ROOT
ATOM      1  C   UNL A   1      33.353  29.090  26.352  1.00  0.00     0.042 C 
ENDROOT
BRANCH   1   2
ATOM      2  C   UNL A   1      34.787  29.039  26.881  1.00  0.00     0.118 C 
BRANCH   2   3
ATOM      3  N   UNL A   1      35.251  30.230  27.573  1.00  0.00    -0.352 N 
ATOM      4  O   UNL A   1      36.604  31.790  28.427  1.00  0.00    -0.269 OA
ATOM      5  C   UNL A   1      36.487  30.641  28.003  1.00  0.00     0.251 C 
ATOM      6  H   UNL A   1      34.533  30.872  27.775  1.00  0.00     0.163 HD
BRANCH   5   7
ATOM      7  C   UNL A   1      37.660  29.736  28.058  1.00  0.00     0.039 A 
ATOM      8  C   UNL A   1      38.658  29.703  27.083  1.00  0.00     0.014 A 
ATOM      9  C   UNL A   1      37.767  28.898  29.183  1.00  0.00     0.014 A 
ATOM     10  C   UNL A   1      39.697  28.785  27.176  1.00  0.00     0.010 A 
ATOM     11  C   UNL A   1      38.830  28.003  29.306  1.00  0.00     0.010 A 
ATOM     12  C   UNL A   1      39.801  27.957  28.301  1.00  0.00    -0.014 A 
BRANCH  12  13
ATOM     13  C   UNL A   1      41.129  27.344  28.540  1.00  0.00     0.031 A 
ATOM     14  C   UNL A   1      41.092  25.839  28.134  1.00  0.00     0.074 A 
ATOM     15  C   UNL A   1      42.097  28.127  29.117  1.00  0.00     0.049 A 
ATOM     16  N   UNL A   1      41.793  24.833  28.559  1.00  0.00    -0.248 NA
ATOM     17  C   UNL A   1      40.066  25.376  27.148  1.00  0.00     0.031 C 
ATOM     18  C   UNL A   1      41.973  29.581  29.369  1.00  0.00     0.029 A 
ATOM     19  N   UNL A   1      43.366  27.883  29.617  1.00  0.00    -0.354 N 
ATOM     20  C   UNL A   1      41.465  23.710  27.755  1.00  0.00     0.074 A 
ATOM     21  C   UNL A   1      40.311  24.073  27.002  1.00  0.00     0.031 C 
ATOM     22  C   UNL A   1      43.049  30.057  30.038  1.00  0.00     0.029 A 
ATOM     23  C   UNL A   1      43.992  28.981  30.281  1.00  0.00     0.049 A 
ATOM     24  H   UNL A   1      43.806  27.008  29.521  1.00  0.00     0.167 HD
ATOM     25  C   UNL A   1      42.277  22.615  27.646  1.00  0.00     0.037 A 
ATOM     26  C   UNL A   1      45.161  29.005  31.006  1.00  0.00     0.037 A 
ATOM     27  C   UNL A   1      43.359  22.741  28.555  1.00  0.00     0.049 A 
ATOM     28  C   UNL A   1      45.758  27.688  30.768  1.00  0.00     0.074 A 
ATOM     29  C   UNL A   1      43.436  22.649  29.918  1.00  0.00     0.029 A 
ATOM     30  N   UNL A   1      44.484  23.358  28.073  1.00  0.00    -0.354 N 
ATOM     31  N   UNL A   1      46.339  27.338  29.661  1.00  0.00    -0.248 NA
ATOM     32  C   UNL A   1      45.633  26.657  31.806  1.00  0.00     0.031 C 
ATOM     33  C   UNL A   1      44.369  23.650  30.248  1.00  0.00     0.029 A 
ATOM     34  C   UNL A   1      44.993  24.121  29.087  1.00  0.00     0.049 A 
ATOM     35  H   UNL A   1      44.856  23.269  27.166  1.00  0.00     0.167 HD
ATOM     36  C   UNL A   1      46.323  25.972  29.760  1.00  0.00     0.074 A 
ATOM     37  C   UNL A   1      46.223  25.653  31.166  1.00  0.00     0.031 C 
ATOM     38  C   UNL A   1      45.822  25.243  28.732  1.00  0.00     0.037 A 
BRANCH  25  39
ATOM     39  C   UNL A   1      42.407  21.536  26.596  1.00  0.00     0.064 A 
ATOM     40  C   UNL A   1      42.036  20.215  26.968  1.00  0.00     0.173 A 
ATOM     41  C   UNL A   1      43.248  21.644  25.482  1.00  0.00     0.173 A 
ATOM     42  F   UNL A   1      41.169  19.999  27.972  1.00  0.00    -0.203 F 
ATOM     43  C   UNL A   1      42.639  19.092  26.406  1.00  0.00     0.198 A 
ATOM     44  C   UNL A   1      43.802  20.509  24.880  1.00  0.00     0.198 A 
ATOM     45  F   UNL A   1      43.641  22.835  25.018  1.00  0.00    -0.203 F 
ATOM     46  F   UNL A   1      42.405  17.878  26.925  1.00  0.00    -0.200 F 
ATOM     47  C   UNL A   1      43.545  19.243  25.379  1.00  0.00     0.200 A 
ATOM     48  F   UNL A   1      44.665  20.656  23.865  1.00  0.00    -0.200 F 
ATOM     49  F   UNL A   1      44.199  18.178  24.895  1.00  0.00    -0.200 F 
ENDBRANCH  25  39
BRANCH  26  50
ATOM     50  C   UNL A   1      45.943  29.902  31.956  1.00  0.00     0.064 A 
ATOM     51  C   UNL A   1      45.667  30.126  33.308  1.00  0.00     0.173 A 
ATOM     52  C   UNL A   1      47.137  30.551  31.504  1.00  0.00     0.173 A 
ATOM     53  F   UNL A   1      44.520  29.703  33.852  1.00  0.00    -0.203 F 
ATOM     54  C   UNL A   1      46.566  30.819  34.152  1.00  0.00     0.198 A 
ATOM     55  C   UNL A   1      48.055  31.179  32.346  1.00  0.00     0.198 A 
ATOM     56  F   UNL A   1      47.469  30.608  30.208  1.00  0.00    -0.203 F 
ATOM     57  F   UNL A   1      46.258  31.004  35.443  1.00  0.00    -0.200 F 
ATOM     58  C   UNL A   1      47.779  31.297  33.681  1.00  0.00     0.200 A 
ATOM     59  F   UNL A   1      49.210  31.642  31.843  1.00  0.00    -0.200 F 
ATOM     60  F   UNL A   1      48.665  31.878  34.503  1.00  0.00    -0.200 F 
ENDBRANCH  26  50
BRANCH  38  61
ATOM     61  C   UNL A   1      45.880  25.940  27.385  1.00  0.00     0.064 A 
ATOM     62  C   UNL A   1      47.127  26.251  26.820  1.00  0.00     0.173 A 
ATOM     63  C   UNL A   1      44.757  26.417  26.688  1.00  0.00     0.173 A 
ATOM     64  F   UNL A   1      48.251  25.813  27.406  1.00  0.00    -0.203 F 
ATOM     65  C   UNL A   1      47.239  27.007  25.650  1.00  0.00     0.198 A 
ATOM     66  C   UNL A   1      44.863  27.173  25.517  1.00  0.00     0.198 A 
ATOM     67  F   UNL A   1      43.528  26.151  27.122  1.00  0.00    -0.203 F 
ATOM     68  F   UNL A   1      48.451  27.278  25.144  1.00  0.00    -0.200 F 
ATOM     69  C   UNL A   1      46.108  27.474  25.000  1.00  0.00     0.200 A 
ATOM     70  F   UNL A   1      43.756  27.602  24.890  1.00  0.00    -0.200 F 
ATOM     71  F   UNL A   1      46.216  28.191  23.873  1.00  0.00    -0.200 F 
ENDBRANCH  38  61
ENDBRANCH  12  13
ENDBRANCH   5   7
ENDBRANCH   2   3
ENDBRANCH   1   2
BRANCH   1  72
ATOM     72  C   UNL A   1      33.234  28.851  24.850  1.00  0.00     0.118 C 
BRANCH  72  73
ATOM     73  N   UNL A   1      31.852  28.913  24.407  1.00  0.00    -0.352 N 
ATOM     74  C   UNL A   1      30.946  27.899  24.216  1.00  0.00     0.252 C 
ATOM     75  H   UNL A   1      31.515  29.818  24.214  1.00  0.00     0.163 HD
ATOM     76  O   UNL A   1      29.957  28.120  23.524  1.00  0.00    -0.269 OA
BRANCH  74  77
ATOM     77  C   UNL A   1      31.176  26.613  24.860  1.00  0.00     0.057 A 
ATOM     78  C   UNL A   1      30.707  26.161  26.124  1.00  0.00     0.033 A 
ATOM     79  C   UNL A   1      31.818  25.527  24.279  1.00  0.00     0.099 A 
ATOM     80  C   UNL A   1      31.093  24.852  26.278  1.00  0.00     0.087 A 
ATOM     81  N   UNL A   1      31.802  24.478  25.167  1.00  0.00    -0.349 N 
BRANCH  81  82
ATOM     82  C   UNL A   1      32.339  23.138  24.918  1.00  0.00     0.160 C 
BRANCH  82  83
ATOM     83  C   UNL A   1      33.848  23.140  24.826  1.00  0.00     0.009 A 
ATOM     84  C   UNL A   1      34.660  23.122  25.980  1.00  0.00     0.047 A 
ATOM     85  C   UNL A   1      34.509  23.195  23.582  1.00  0.00     0.047 A 
ATOM     86  Cl  UNL A   1      34.023  22.877  27.570  1.00  0.00    -0.084 Cl
ATOM     87  C   UNL A   1      36.053  23.243  25.896  1.00  0.00     0.021 A 
ATOM     88  C   UNL A   1      35.907  23.275  23.502  1.00  0.00     0.021 A 
ATOM     89  Cl  UNL A   1      33.656  23.130  22.078  1.00  0.00    -0.084 Cl
ATOM     90  C   UNL A   1      36.677  23.325  24.657  1.00  0.00     0.003 A 
ENDBRANCH  82  83
ENDBRANCH  81  82
ENDBRANCH  74  77
ENDBRANCH  72  73
ENDBRANCH   1  72
TORSDOF 12
ENDMDL
MODEL 2
REMARK VINA RESULT:     -12.6      1.068      1.822
REMARK SMILES O=C(NCCCNC(=O)c1ccn(Cc2c(Cl)cccc2Cl)c1)c1ccc(-c2c3nc(c(-c4c(F)c(F)c(F)c(F)c4F)c4ccc([nH]4)c(-c4c(F)c(F)c(F)c(F)c4F)c4nc(c(-c5c(F)c(F)c(F)c(F)c5F)c5ccc2[nH]5)C=C4)C=C3)cc1
REMARK SMILES IDX 5 1 4 2 3 3 1 4 2 5 24 7 25 8 86 9 26 10 85 11 27 12 28 13
REMARK SMILES IDX 29 14 79 15 30 16 84 17 78 18 80 19 31 20 83 21 77 22 76 23
REMARK SMILES IDX 32 25 64 26 44 27 63 28 45 29 48 30 62 31 81 32 46 33 47 34
REMARK SMILES IDX 61 36 82 37 49 38 33 39 34 40 42 41 35 42 36 43 40 44 43 45
REMARK SMILES IDX 37 46 38 47 41 48 39 49 65 50 66 51 74 52 67 53 68 54 72 55
REMARK SMILES IDX 75 56 69 57 70 58 73 59 71 60 50 61 51 62 59 63 52 64 53 65
REMARK SMILES IDX 57 66 60 67 54 68 55 69 58 70 56 71 6 72 7 73 8 74 9 76
REMARK SMILES IDX 10 77 11 78 23 79 12 80 13 81 14 82 15 83 16 84 21 85 17 86
REMARK SMILES IDX 18 87 20 88 22 89 19 90
REMARK H PARENT 3 6 80 24 48 35 7 75
REMARK Flexibility Score: inf
ROOT
ATOM      1  C   UNL A   1      33.339  28.677  27.041  1.00  0.00     0.042 C 
ENDROOT
BRANCH   1   2
ATOM      2  C   UNL A   1      34.813  29.036  26.848  1.00  0.00     0.118 C 
BRANCH   2   3
ATOM      3  N   UNL A   1      35.268  30.240  27.522  1.00  0.00    -0.352 N 
ATOM      4  O   UNL A   1      36.609  31.823  28.353  1.00  0.00    -0.269 OA
ATOM      5  C   UNL A   1      36.500  30.666  27.947  1.00  0.00     0.251 C 
ATOM      6  H   UNL A   1      34.545  30.880  27.713  1.00  0.00     0.163 HD
BRANCH   5   7
ATOM      7  C   UNL A   1      37.680  29.771  28.018  1.00  0.00     0.039 A 
ATOM      8  C   UNL A   1      38.689  29.742  27.054  1.00  0.00     0.014 A 
ATOM      9  C   UNL A   1      37.780  28.938  29.147  1.00  0.00     0.014 A 
ATOM     10  C   UNL A   1      39.734  28.833  27.162  1.00  0.00     0.010 A 
ATOM     11  C   UNL A   1      38.849  28.051  29.285  1.00  0.00     0.010 A 
ATOM     12  C   UNL A   1      39.832  28.010  28.291  1.00  0.00    -0.014 A 
BRANCH  12  13
ATOM     13  C   UNL A   1      41.161  27.407  28.547  1.00  0.00     0.031 A 
ATOM     14  C   UNL A   1      41.143  25.904  28.134  1.00  0.00     0.074 A 
ATOM     15  C   UNL A   1      42.113  28.197  29.141  1.00  0.00     0.049 A 
ATOM     16  N   UNL A   1      41.848  24.902  28.565  1.00  0.00    -0.248 NA
ATOM     17  C   UNL A   1      40.137  25.436  27.131  1.00  0.00     0.031 C 
ATOM     18  C   UNL A   1      41.972  29.648  29.397  1.00  0.00     0.029 A 
ATOM     19  N   UNL A   1      43.377  27.962  29.659  1.00  0.00    -0.354 N 
ATOM     20  C   UNL A   1      41.542  23.780  27.751  1.00  0.00     0.074 A 
ATOM     21  C   UNL A   1      40.396  24.136  26.983  1.00  0.00     0.031 C 
ATOM     22  C   UNL A   1      43.034  30.131  30.084  1.00  0.00     0.029 A 
ATOM     23  C   UNL A   1      43.983  29.062  30.336  1.00  0.00     0.049 A 
ATOM     24  H   UNL A   1      43.827  27.091  29.565  1.00  0.00     0.167 HD
ATOM     25  C   UNL A   1      42.365  22.692  27.648  1.00  0.00     0.037 A 
ATOM     26  C   UNL A   1      45.142  29.093  31.078  1.00  0.00     0.037 A 
ATOM     27  C   UNL A   1      43.433  22.825  28.574  1.00  0.00     0.049 A 
ATOM     28  C   UNL A   1      45.754  27.783  30.844  1.00  0.00     0.074 A 
ATOM     29  C   UNL A   1      43.490  22.727  29.937  1.00  0.00     0.029 A 
ATOM     30  N   UNL A   1      44.559  23.454  28.111  1.00  0.00    -0.354 N 
ATOM     31  N   UNL A   1      46.354  27.444  29.743  1.00  0.00    -0.248 NA
ATOM     32  C   UNL A   1      45.623  26.747  31.875  1.00  0.00     0.031 C 
ATOM     33  C   UNL A   1      44.409  23.736  30.286  1.00  0.00     0.029 A 
ATOM     34  C   UNL A   1      45.046  24.217  29.136  1.00  0.00     0.049 A 
ATOM     35  H   UNL A   1      44.945  23.372  27.209  1.00  0.00     0.167 HD
ATOM     36  C   UNL A   1      46.349  26.077  29.836  1.00  0.00     0.074 A 
ATOM     37  C   UNL A   1      46.232  25.751  31.240  1.00  0.00     0.031 C 
ATOM     38  C   UNL A   1      45.869  25.348  28.798  1.00  0.00     0.037 A 
BRANCH  25  39
ATOM     39  C   UNL A   1      42.521  21.620  26.597  1.00  0.00     0.064 A 
ATOM     40  C   UNL A   1      42.147  20.295  26.954  1.00  0.00     0.173 A 
ATOM     41  C   UNL A   1      43.383  21.736  25.501  1.00  0.00     0.173 A 
ATOM     42  F   UNL A   1      41.260  20.072  27.939  1.00  0.00    -0.203 F 
ATOM     43  C   UNL A   1      42.765  19.178  26.399  1.00  0.00     0.198 A 
ATOM     44  C   UNL A   1      43.953  20.607  24.903  1.00  0.00     0.198 A 
ATOM     45  F   UNL A   1      43.781  22.931  25.050  1.00  0.00    -0.203 F 
ATOM     46  F   UNL A   1      42.525  17.961  26.907  1.00  0.00    -0.200 F 
ATOM     47  C   UNL A   1      43.692  19.337  25.391  1.00  0.00     0.200 A 
ATOM     48  F   UNL A   1      44.837  20.762  23.908  1.00  0.00    -0.200 F 
ATOM     49  F   UNL A   1      44.358  18.277  24.914  1.00  0.00    -0.200 F 
ENDBRANCH  25  39
BRANCH  26  50
ATOM     50  C   UNL A   1      45.902  29.994  32.043  1.00  0.00     0.064 A 
ATOM     51  C   UNL A   1      47.157  30.573  31.830  1.00  0.00     0.173 A 
ATOM     52  C   UNL A   1      45.295  30.390  33.279  1.00  0.00     0.173 A 
ATOM     53  F   UNL A   1      47.914  30.204  30.790  1.00  0.00    -0.203 F 
ATOM     54  C   UNL A   1      47.688  31.551  32.701  1.00  0.00     0.198 A 
ATOM     55  C   UNL A   1      45.787  31.399  34.106  1.00  0.00     0.198 A 
ATOM     56  F   UNL A   1      44.185  29.804  33.745  1.00  0.00    -0.203 F 
ATOM     57  F   UNL A   1      48.894  32.080  32.452  1.00  0.00    -0.200 F 
ATOM     58  C   UNL A   1      46.980  31.999  33.806  1.00  0.00     0.200 A 
ATOM     59  F   UNL A   1      45.075  31.789  35.175  1.00  0.00    -0.200 F 
ATOM     60  F   UNL A   1      47.451  32.986  34.582  1.00  0.00    -0.200 F 
ENDBRANCH  26  50
BRANCH  38  61
ATOM     61  C   UNL A   1      45.941  26.052  27.455  1.00  0.00     0.064 A 
ATOM     62  C   UNL A   1      47.193  26.384  26.913  1.00  0.00     0.173 A 
ATOM     63  C   UNL A   1      44.824  26.515  26.740  1.00  0.00     0.173 A 
ATOM     64  F   UNL A   1      48.313  25.960  27.517  1.00  0.00    -0.203 F 
ATOM     65  C   UNL A   1      47.314  27.146  25.748  1.00  0.00     0.198 A 
ATOM     66  C   UNL A   1      44.939  27.278  25.574  1.00  0.00     0.198 A 
ATOM     67  F   UNL A   1      43.591  26.229  27.151  1.00  0.00    -0.203 F 
ATOM     68  F   UNL A   1      48.530  27.437  25.265  1.00  0.00    -0.200 F 
ATOM     69  C   UNL A   1      46.188  27.599  25.081  1.00  0.00     0.200 A 
ATOM     70  F   UNL A   1      43.837  27.692  24.930  1.00  0.00    -0.200 F 
ATOM     71  F   UNL A   1      46.305  28.322  23.958  1.00  0.00    -0.200 F 
ENDBRANCH  38  61
ENDBRANCH  12  13
ENDBRANCH   5   7
ENDBRANCH   2   3
ENDBRANCH   1   2
BRANCH   1  72
ATOM     72  C   UNL A   1      32.429  29.154  25.913  1.00  0.00     0.118 C 
BRANCH  72  73
ATOM     73  N   UNL A   1      33.168  29.348  24.678  1.00  0.00    -0.352 N 
ATOM     74  C   UNL A   1      33.486  28.443  23.695  1.00  0.00     0.252 C 
ATOM     75  H   UNL A   1      33.490  30.265  24.522  1.00  0.00     0.163 HD
ATOM     76  O   UNL A   1      34.391  28.720  22.914  1.00  0.00    -0.269 OA
BRANCH  74  77
ATOM     77  C   UNL A   1      32.723  27.206  23.598  1.00  0.00     0.057 A 
ATOM     78  C   UNL A   1      31.407  27.016  23.093  1.00  0.00     0.033 A 
ATOM     79  C   UNL A   1      33.210  25.937  23.883  1.00  0.00     0.099 A 
ATOM     80  C   UNL A   1      31.133  25.670  23.113  1.00  0.00     0.087 A 
ATOM     81  N   UNL A   1      32.221  25.017  23.629  1.00  0.00    -0.349 N 
BRANCH  81  82
ATOM     82  C   UNL A   1      32.350  23.563  23.762  1.00  0.00     0.160 C 
BRANCH  82  83
ATOM     83  C   UNL A   1      32.961  23.168  25.087  1.00  0.00     0.009 A 
ATOM     84  C   UNL A   1      34.310  22.767  25.191  1.00  0.00     0.047 A 
ATOM     85  C   UNL A   1      32.198  23.152  26.273  1.00  0.00     0.047 A 
ATOM     86  Cl  UNL A   1      35.429  22.897  23.878  1.00  0.00    -0.084 Cl
ATOM     87  C   UNL A   1      34.841  22.290  26.396  1.00  0.00     0.021 A 
ATOM     88  C   UNL A   1      32.747  22.711  27.487  1.00  0.00     0.021 A 
ATOM     89  Cl  UNL A   1      30.559  23.703  26.326  1.00  0.00    -0.084 Cl
ATOM     90  C   UNL A   1      34.059  22.256  27.543  1.00  0.00     0.003 A 
ENDBRANCH  82  83
ENDBRANCH  81  82
ENDBRANCH  74  77
ENDBRANCH  72  73
ENDBRANCH   1  72
TORSDOF 12
ENDMDL
MODEL 3
REMARK VINA RESULT:     -12.5      4.943      9.756
REMARK SMILES O=C(NCCCNC(=O)c1ccn(Cc2c(Cl)cccc2Cl)c1)c1ccc(-c2c3nc(c(-c4c(F)c(F)c(F)c(F)c4F)c4ccc([nH]4)c(-c4c(F)c(F)c(F)c(F)c4F)c4nc(c(-c5c(F)c(F)c(F)c(F)c5F)c5ccc2[nH]5)C=C4)C=C3)cc1
REMARK SMILES IDX 5 1 4 2 3 3 1 4 2 5 24 7 25 8 86 9 26 10 85 11 27 12 28 13
REMARK SMILES IDX 29 14 79 15 30 16 84 17 78 18 80 19 31 20 83 21 77 22 76 23
REMARK SMILES IDX 32 25 64 26 44 27 63 28 45 29 48 30 62 31 81 32 46 33 47 34
REMARK SMILES IDX 61 36 82 37 49 38 33 39 34 40 42 41 35 42 36 43 40 44 43 45
REMARK SMILES IDX 37 46 38 47 41 48 39 49 65 50 66 51 74 52 67 53 68 54 72 55
REMARK SMILES IDX 75 56 69 57 70 58 73 59 71 60 50 61 51 62 59 63 52 64 53 65
REMARK SMILES IDX 57 66 60 67 54 68 55 69 58 70 56 71 6 72 7 73 8 74 9 76
REMARK SMILES IDX 10 77 11 78 23 79 12 80 13 81 14 82 15 83 16 84 21 85 17 86
REMARK SMILES IDX 18 87 20 88 22 89 19 90
REMARK H PARENT 3 6 80 24 48 35 7 75
REMARK Flexibility Score: inf
ROOT
ATOM      1  C   UNL A   1      36.879  23.209  25.072  1.00  0.00     0.042 C 
ENDROOT
BRANCH   1   2
ATOM      2  C   UNL A   1      37.443  23.883  26.323  1.00  0.00     0.118 C 
BRANCH   2   3
ATOM      3  N   UNL A   1      38.796  23.505  26.695  1.00  0.00    -0.352 N 
ATOM      4  O   UNL A   1      40.751  23.425  27.774  1.00  0.00    -0.269 OA
ATOM      5  C   UNL A   1      39.730  24.066  27.529  1.00  0.00     0.251 C 
ATOM      6  H   UNL A   1      39.105  22.677  26.260  1.00  0.00     0.163 HD
BRANCH   5   7
ATOM      7  C   UNL A   1      39.599  25.438  28.073  1.00  0.00     0.039 A 
ATOM      8  C   UNL A   1      39.091  25.723  29.341  1.00  0.00     0.014 A 
ATOM      9  C   UNL A   1      40.052  26.492  27.258  1.00  0.00     0.014 A 
ATOM     10  C   UNL A   1      38.947  27.041  29.757  1.00  0.00     0.010 A 
ATOM     11  C   UNL A   1      39.949  27.817  27.685  1.00  0.00     0.010 A 
ATOM     12  C   UNL A   1      39.404  28.086  28.944  1.00  0.00    -0.014 A 
BRANCH  12  13
ATOM     13  C   UNL A   1      39.622  29.389  29.616  1.00  0.00     0.031 A 
ATOM     14  C   UNL A   1      38.425  30.341  29.312  1.00  0.00     0.074 A 
ATOM     15  C   UNL A   1      40.803  29.566  30.292  1.00  0.00     0.049 A 
ATOM     16  N   UNL A   1      38.368  31.638  29.274  1.00  0.00    -0.248 NA
ATOM     17  C   UNL A   1      37.105  29.753  28.928  1.00  0.00     0.031 C 
ATOM     18  C   UNL A   1      41.805  28.505  30.541  1.00  0.00     0.029 A 
ATOM     19  N   UNL A   1      41.416  30.652  30.896  1.00  0.00    -0.354 N 
ATOM     20  C   UNL A   1      37.008  32.003  29.098  1.00  0.00     0.074 A 
ATOM     21  C   UNL A   1      36.307  30.808  28.762  1.00  0.00     0.031 C 
ATOM     22  C   UNL A   1      42.909  29.003  31.145  1.00  0.00     0.029 A 
ATOM     23  C   UNL A   1      42.745  30.428  31.368  1.00  0.00     0.049 A 
ATOM     24  H   UNL A   1      40.964  31.520  30.993  1.00  0.00     0.167 HD
ATOM     25  C   UNL A   1      36.527  33.244  29.411  1.00  0.00     0.037 A 
ATOM     26  C   UNL A   1      43.655  31.335  31.861  1.00  0.00     0.037 A 
ATOM     27  C   UNL A   1      37.611  34.089  29.770  1.00  0.00     0.049 A 
ATOM     28  C   UNL A   1      42.885  32.573  32.009  1.00  0.00     0.074 A 
ATOM     29  C   UNL A   1      38.609  34.671  29.038  1.00  0.00     0.029 A 
ATOM     30  N   UNL A   1      37.941  34.115  31.100  1.00  0.00    -0.354 N 
ATOM     31  N   UNL A   1      42.017  32.786  32.951  1.00  0.00    -0.248 NA
ATOM     32  C   UNL A   1      43.030  33.621  30.992  1.00  0.00     0.031 C 
ATOM     33  C   UNL A   1      39.721  34.581  29.897  1.00  0.00     0.029 A 
ATOM     34  C   UNL A   1      39.304  34.193  31.176  1.00  0.00     0.049 A 
ATOM     35  H   UNL A   1      37.315  34.083  31.858  1.00  0.00     0.167 HD
ATOM     36  C   UNL A   1      41.289  33.822  32.428  1.00  0.00     0.074 A 
ATOM     37  C   UNL A   1      42.136  34.485  31.462  1.00  0.00     0.031 C 
ATOM     38  C   UNL A   1      39.938  33.718  32.377  1.00  0.00     0.037 A 
BRANCH  25  39
ATOM     39  C   UNL A   1      35.144  33.757  29.736  1.00  0.00     0.064 A 
ATOM     40  C   UNL A   1      34.553  34.667  28.818  1.00  0.00     0.173 A 
ATOM     41  C   UNL A   1      34.608  33.759  31.029  1.00  0.00     0.173 A 
ATOM     42  F   UNL A   1      34.934  34.692  27.530  1.00  0.00    -0.203 F 
ATOM     43  C   UNL A   1      33.654  35.649  29.226  1.00  0.00     0.198 A 
ATOM     44  C   UNL A   1      33.657  34.708  31.418  1.00  0.00     0.198 A 
ATOM     45  F   UNL A   1      35.060  32.926  31.973  1.00  0.00    -0.203 F 
ATOM     46  F   UNL A   1      33.277  36.608  28.368  1.00  0.00    -0.200 F 
ATOM     47  C   UNL A   1      33.228  35.686  30.537  1.00  0.00     0.200 A 
ATOM     48  F   UNL A   1      33.226  34.728  32.687  1.00  0.00    -0.200 F 
ATOM     49  F   UNL A   1      32.437  36.681  30.961  1.00  0.00    -0.200 F 
ENDBRANCH  25  39
BRANCH  26  50
ATOM     50  C   UNL A   1      45.129  31.450  32.225  1.00  0.00     0.064 A 
ATOM     51  C   UNL A   1      46.196  31.622  31.338  1.00  0.00     0.173 A 
ATOM     52  C   UNL A   1      45.525  31.467  33.602  1.00  0.00     0.173 A 
ATOM     53  F   UNL A   1      46.017  31.497  30.018  1.00  0.00    -0.203 F 
ATOM     54  C   UNL A   1      47.504  31.916  31.787  1.00  0.00     0.198 A 
ATOM     55  C   UNL A   1      46.799  31.818  34.047  1.00  0.00     0.198 A 
ATOM     56  F   UNL A   1      44.682  31.136  34.588  1.00  0.00    -0.203 F 
ATOM     57  F   UNL A   1      48.493  32.077  30.897  1.00  0.00    -0.200 F 
ATOM     58  C   UNL A   1      47.791  32.064  33.136  1.00  0.00     0.200 A 
ATOM     59  F   UNL A   1      47.036  31.933  35.363  1.00  0.00    -0.200 F 
ATOM     60  F   UNL A   1      49.013  32.425  33.552  1.00  0.00    -0.200 F 
ENDBRANCH  26  50
BRANCH  38  61
ATOM     61  C   UNL A   1      39.345  32.772  33.405  1.00  0.00     0.064 A 
ATOM     62  C   UNL A   1      39.475  33.064  34.772  1.00  0.00     0.173 A 
ATOM     63  C   UNL A   1      38.758  31.532  33.098  1.00  0.00     0.173 A 
ATOM     64  F   UNL A   1      40.001  34.237  35.154  1.00  0.00    -0.203 F 
ATOM     65  C   UNL A   1      39.066  32.165  35.761  1.00  0.00     0.198 A 
ATOM     66  C   UNL A   1      38.347  30.630  34.083  1.00  0.00     0.198 A 
ATOM     67  F   UNL A   1      38.561  31.171  31.833  1.00  0.00    -0.203 F 
ATOM     68  F   UNL A   1      39.208  32.487  37.054  1.00  0.00    -0.200 F 
ATOM     69  C   UNL A   1      38.507  30.945  35.417  1.00  0.00     0.200 A 
ATOM     70  F   UNL A   1      37.790  29.460  33.733  1.00  0.00    -0.200 F 
ATOM     71  F   UNL A   1      38.106  30.088  36.367  1.00  0.00    -0.200 F 
ENDBRANCH  38  61
ENDBRANCH  12  13
ENDBRANCH   5   7
ENDBRANCH   2   3
ENDBRANCH   1   2
BRANCH   1  72
ATOM     72  C   UNL A   1      36.579  21.724  25.247  1.00  0.00     0.118 C 
BRANCH  72  73
ATOM     73  N   UNL A   1      35.806  21.474  26.451  1.00  0.00    -0.352 N 
ATOM     74  C   UNL A   1      34.463  21.643  26.683  1.00  0.00     0.252 C 
ATOM     75  H   UNL A   1      36.323  21.134  27.217  1.00  0.00     0.163 HD
ATOM     76  O   UNL A   1      34.071  21.701  27.844  1.00  0.00    -0.269 OA
BRANCH  74  77
ATOM     77  C   UNL A   1      33.553  21.719  25.548  1.00  0.00     0.057 A 
ATOM     78  C   UNL A   1      33.179  20.686  24.644  1.00  0.00     0.033 A 
ATOM     79  C   UNL A   1      32.778  22.820  25.212  1.00  0.00     0.099 A 
ATOM     80  C   UNL A   1      32.229  21.190  23.790  1.00  0.00     0.087 A 
ATOM     81  N   UNL A   1      32.011  22.504  24.115  1.00  0.00    -0.349 N 
BRANCH  81  82
ATOM     82  C   UNL A   1      31.027  23.381  23.477  1.00  0.00     0.160 C 
BRANCH  82  83
ATOM     83  C   UNL A   1      31.603  24.742  23.160  1.00  0.00     0.009 A 
ATOM     84  C   UNL A   1      31.163  25.906  23.827  1.00  0.00     0.047 A 
ATOM     85  C   UNL A   1      32.581  24.912  22.159  1.00  0.00     0.047 A 
ATOM     86  Cl  UNL A   1      30.106  25.858  25.195  1.00  0.00    -0.084 Cl
ATOM     87  C   UNL A   1      31.613  27.178  23.450  1.00  0.00     0.021 A 
ATOM     88  C   UNL A   1      33.057  26.185  21.813  1.00  0.00     0.021 A 
ATOM     89  Cl  UNL A   1      33.286  23.574  21.319  1.00  0.00    -0.084 Cl
ATOM     90  C   UNL A   1      32.556  27.319  22.440  1.00  0.00     0.003 A 
ENDBRANCH  82  83
ENDBRANCH  81  82
ENDBRANCH  74  77
ENDBRANCH  72  73
ENDBRANCH   1  72
TORSDOF 12
ENDMDL
