MODEL 1
REMARK VINA RESULT:     -12.1      0.000      0.000
REMARK SMILES C[C@@H]1C[N@@H+](C[C@]2(C(=O)NCCCNC(=O)c3ccc(-c4c5nc(c(-c6c(F)c(F)c(F)c(F)c6F)c6ccc([nH]6)c(-c6c(F)c(F)c(F)c(F)c6F)c6nc(c(-c7c(F)c(F)c(F)c(F)c7F)c7ccc4[nH]7)C=C6)C=C5)cc3)CCOC2)C[C@@H]1C
REMARK SMILES IDX 11 1 10 2 9 3 7 4 8 5 6 7 79 8 82 9 80 10 81 11 5 12 4 13
REMARK SMILES IDX 1 14 2 15 3 16 84 17 83 18 85 19 12 21 13 22 14 23 15 25
REMARK SMILES IDX 16 26 17 27 78 28 18 29 77 30 19 31 20 32 21 33 71 34 22 35
REMARK SMILES IDX 76 36 70 37 72 38 23 39 75 40 69 41 68 42 24 44 56 45 36 46
REMARK SMILES IDX 55 47 37 48 40 49 54 50 73 51 38 52 39 53 53 55 74 56 41 57
REMARK SMILES IDX 25 58 26 59 34 60 27 61 28 62 32 63 35 64 29 65 30 66 33 67
REMARK SMILES IDX 31 68 57 69 58 70 66 71 59 72 60 73 64 74 67 75 61 76 62 77
REMARK SMILES IDX 65 78 63 79 42 80 43 81 51 82 44 83 45 84 49 85 52 86 46 87
REMARK SMILES IDX 47 88 50 89 48 90
REMARK H PARENT 9 6 4 20 13 24 72 43 40 54
REMARK Flexibility Score: inf
ROOT
ATOM      1  C   UNL A   1      31.403  32.263  26.503  1.00  0.00     0.042 C 
ENDROOT
BRANCH   1   2
ATOM      2  C   UNL A   1      31.471  30.762  26.294  1.00  0.00     0.117 C 
BRANCH   2   3
ATOM      3  N   UNL A   1      31.154  30.352  24.930  1.00  0.00    -0.355 N 
ATOM      4  C   UNL A   1      31.429  29.210  24.228  1.00  0.00     0.234 C 
ATOM      5  O   UNL A   1      30.950  29.155  23.091  1.00  0.00    -0.274 OA
ATOM      6  H   UNL A   1      30.646  31.024  24.420  1.00  0.00     0.163 HD
BRANCH   4   7
ATOM      7  C   UNL A   1      32.330  28.084  24.788  1.00  0.00     0.123 C 
ATOM      8  C   UNL A   1      33.644  28.715  25.229  1.00  0.00     0.054 C 
ATOM      9  C   UNL A   1      31.706  27.524  26.059  1.00  0.00     0.183 C 
ATOM     10  C   UNL A   1      33.868  28.218  26.634  1.00  0.00     0.161 C 
ATOM     11  O   UNL A   1      32.617  27.754  27.146  1.00  0.00    -0.380 OA
BRANCH   7  12
ATOM     12  C   UNL A   1      32.508  26.986  23.677  1.00  0.00     0.281 C 
BRANCH  12  13
ATOM     13  N   UNL A   1      32.638  25.546  23.932  1.00  0.00    -0.333 N 
ATOM     14  C   UNL A   1      35.580  23.296  23.501  1.00  0.00     0.014 C 
ATOM     15  C   UNL A   1      34.398  24.199  23.201  1.00  0.00     0.049 C 
ATOM     16  C   UNL A   1      33.908  25.005  24.396  1.00  0.00     0.265 C 
ATOM     17  C   UNL A   1      33.112  23.552  22.672  1.00  0.00     0.049 C 
ATOM     18  C   UNL A   1      32.019  24.579  23.034  1.00  0.00     0.265 C 
ATOM     19  C   UNL A   1      32.811  22.179  23.260  1.00  0.00     0.014 C 
ATOM     20  H   UNL A   1      32.021  25.639  24.739  1.00  0.00     0.348 HD
ENDBRANCH  12  13
ENDBRANCH   7  12
ENDBRANCH   4   7
ENDBRANCH   2   3
ENDBRANCH   1   2
BRANCH   1  21
ATOM     21  C   UNL A   1      32.579  32.789  27.299  1.00  0.00     0.118 C 
BRANCH  21  22
ATOM     22  N   UNL A   1      32.425  34.203  27.622  1.00  0.00    -0.352 N 
ATOM     23  C   UNL A   1      32.986  34.947  28.630  1.00  0.00     0.251 C 
ATOM     24  H   UNL A   1      31.826  34.703  27.022  1.00  0.00     0.163 HD
ATOM     25  O   UNL A   1      32.528  36.051  28.904  1.00  0.00    -0.269 OA
BRANCH  23  26
ATOM     26  C   UNL A   1      34.134  34.413  29.388  1.00  0.00     0.039 A 
ATOM     27  C   UNL A   1      33.912  33.775  30.611  1.00  0.00     0.014 A 
ATOM     28  C   UNL A   1      35.433  34.556  28.898  1.00  0.00     0.014 A 
ATOM     29  C   UNL A   1      34.990  33.225  31.306  1.00  0.00     0.010 A 
ATOM     30  C   UNL A   1      36.484  33.904  29.526  1.00  0.00     0.010 A 
ATOM     31  C   UNL A   1      36.280  33.251  30.749  1.00  0.00    -0.014 A 
BRANCH  31  32
ATOM     32  C   UNL A   1      37.438  32.633  31.435  1.00  0.00     0.031 A 
ATOM     33  C   UNL A   1      38.166  31.487  30.785  1.00  0.00     0.074 A 
ATOM     34  C   UNL A   1      37.777  33.044  32.673  1.00  0.00     0.049 A 
ATOM     35  N   UNL A   1      39.134  30.745  31.258  1.00  0.00    -0.248 NA
ATOM     36  C   UNL A   1      37.722  31.094  29.436  1.00  0.00     0.031 C 
ATOM     37  C   UNL A   1      37.101  34.100  33.431  1.00  0.00     0.029 A 
ATOM     38  N   UNL A   1      38.765  32.611  33.520  1.00  0.00    -0.354 N 
ATOM     39  C   UNL A   1      39.387  29.786  30.285  1.00  0.00     0.074 A 
ATOM     40  C   UNL A   1      38.440  30.004  29.215  1.00  0.00     0.031 C 
ATOM     41  C   UNL A   1      37.706  34.245  34.620  1.00  0.00     0.029 A 
ATOM     42  C   UNL A   1      38.783  33.266  34.728  1.00  0.00     0.049 A 
ATOM     43  H   UNL A   1      39.403  31.898  33.285  1.00  0.00     0.167 HD
ATOM     44  C   UNL A   1      40.341  28.829  30.276  1.00  0.00     0.037 A 
ATOM     45  C   UNL A   1      39.571  33.085  35.805  1.00  0.00     0.037 A 
ATOM     46  C   UNL A   1      41.316  28.658  31.319  1.00  0.00     0.049 A 
ATOM     47  C   UNL A   1      40.645  32.031  35.751  1.00  0.00     0.074 A 
ATOM     48  C   UNL A   1      42.390  27.787  31.360  1.00  0.00     0.029 A 
ATOM     49  N   UNL A   1      41.334  29.373  32.508  1.00  0.00    -0.354 N 
ATOM     50  N   UNL A   1      40.938  31.196  34.782  1.00  0.00    -0.248 NA
ATOM     51  C   UNL A   1      41.505  31.898  36.934  1.00  0.00     0.031 C 
ATOM     52  C   UNL A   1      43.022  27.932  32.597  1.00  0.00     0.029 A 
ATOM     53  C   UNL A   1      42.381  28.939  33.302  1.00  0.00     0.049 A 
ATOM     54  H   UNL A   1      40.696  30.083  32.750  1.00  0.00     0.167 HD
ATOM     55  C   UNL A   1      42.031  30.465  35.226  1.00  0.00     0.074 A 
ATOM     56  C   UNL A   1      42.362  30.967  36.543  1.00  0.00     0.031 C 
ATOM     57  C   UNL A   1      42.701  29.465  34.603  1.00  0.00     0.037 A 
BRANCH  44  58
ATOM     58  C   UNL A   1      40.394  27.891  29.105  1.00  0.00     0.064 A 
ATOM     59  C   UNL A   1      39.640  26.709  29.068  1.00  0.00     0.173 A 
ATOM     60  C   UNL A   1      41.157  28.218  27.973  1.00  0.00     0.173 A 
ATOM     61  F   UNL A   1      38.904  26.343  30.129  1.00  0.00    -0.203 F 
ATOM     62  C   UNL A   1      39.659  25.882  27.948  1.00  0.00     0.198 A 
ATOM     63  C   UNL A   1      41.149  27.405  26.843  1.00  0.00     0.198 A 
ATOM     64  F   UNL A   1      41.895  29.338  27.955  1.00  0.00    -0.203 F 
ATOM     65  F   UNL A   1      38.958  24.738  27.949  1.00  0.00    -0.200 F 
ATOM     66  C   UNL A   1      40.403  26.235  26.833  1.00  0.00     0.200 A 
ATOM     67  F   UNL A   1      41.857  27.756  25.762  1.00  0.00    -0.200 F 
ATOM     68  F   UNL A   1      40.404  25.449  25.748  1.00  0.00    -0.200 F 
ENDBRANCH  44  58
BRANCH  45  69
ATOM     69  C   UNL A   1      39.381  33.916  37.024  1.00  0.00     0.064 A 
ATOM     70  C   UNL A   1      39.936  35.201  37.117  1.00  0.00     0.173 A 
ATOM     71  C   UNL A   1      38.671  33.432  38.133  1.00  0.00     0.173 A 
ATOM     72  F   UNL A   1      40.637  35.704  36.091  1.00  0.00    -0.203 F 
ATOM     73  C   UNL A   1      39.822  35.952  38.286  1.00  0.00     0.198 A 
ATOM     74  C   UNL A   1      38.529  34.199  39.288  1.00  0.00     0.198 A 
ATOM     75  F   UNL A   1      38.113  32.214  38.095  1.00  0.00    -0.203 F 
ATOM     76  F   UNL A   1      40.419  37.149  38.370  1.00  0.00    -0.200 F 
ATOM     77  C   UNL A   1      39.116  35.452  39.369  1.00  0.00     0.200 A 
ATOM     78  F   UNL A   1      37.830  33.718  40.326  1.00  0.00    -0.200 F 
ATOM     79  F   UNL A   1      39.012  36.172  40.494  1.00  0.00    -0.200 F 
ENDBRANCH  45  69
BRANCH  57  80
ATOM     80  C   UNL A   1      43.883  28.877  35.317  1.00  0.00     0.064 A 
ATOM     81  C   UNL A   1      43.753  27.783  36.184  1.00  0.00     0.173 A 
ATOM     82  C   UNL A   1      45.170  29.390  35.095  1.00  0.00     0.173 A 
ATOM     83  F   UNL A   1      42.542  27.265  36.439  1.00  0.00    -0.203 F 
ATOM     84  C   UNL A   1      44.864  27.241  36.823  1.00  0.00     0.198 A 
ATOM     85  C   UNL A   1      46.284  28.824  35.707  1.00  0.00     0.198 A 
ATOM     86  F   UNL A   1      45.351  30.430  34.267  1.00  0.00    -0.203 F 
ATOM     87  F   UNL A   1      44.709  26.228  37.687  1.00  0.00    -0.200 F 
ATOM     88  C   UNL A   1      46.129  27.755  36.577  1.00  0.00     0.200 A 
ATOM     89  F   UNL A   1      47.506  29.310  35.455  1.00  0.00    -0.200 F 
ATOM     90  F   UNL A   1      47.199  27.225  37.185  1.00  0.00    -0.200 F 
ENDBRANCH  57  80
ENDBRANCH  31  32
ENDBRANCH  23  26
ENDBRANCH  21  22
ENDBRANCH   1  21
TORSDOF 12
ENDMDL
MODEL 2
REMARK VINA RESULT:     -12.1      5.906     11.391
REMARK SMILES C[C@@H]1C[N@@H+](C[C@]2(C(=O)NCCCNC(=O)c3ccc(-c4c5nc(c(-c6c(F)c(F)c(F)c(F)c6F)c6ccc([nH]6)c(-c6c(F)c(F)c(F)c(F)c6F)c6nc(c(-c7c(F)c(F)c(F)c(F)c7F)c7ccc4[nH]7)C=C6)C=C5)cc3)CCOC2)C[C@@H]1C
REMARK SMILES IDX 11 1 10 2 9 3 7 4 8 5 6 7 79 8 82 9 80 10 81 11 5 12 4 13
REMARK SMILES IDX 1 14 2 15 3 16 84 17 83 18 85 19 12 21 13 22 14 23 15 25
REMARK SMILES IDX 16 26 17 27 78 28 18 29 77 30 19 31 20 32 21 33 71 34 22 35
REMARK SMILES IDX 76 36 70 37 72 38 23 39 75 40 69 41 68 42 24 44 56 45 36 46
REMARK SMILES IDX 55 47 37 48 40 49 54 50 73 51 38 52 39 53 53 55 74 56 41 57
REMARK SMILES IDX 25 58 26 59 34 60 27 61 28 62 32 63 35 64 29 65 30 66 33 67
REMARK SMILES IDX 31 68 57 69 58 70 66 71 59 72 60 73 64 74 67 75 61 76 62 77
REMARK SMILES IDX 65 78 63 79 42 80 43 81 51 82 44 83 45 84 49 85 52 86 46 87
REMARK SMILES IDX 47 88 50 89 48 90
REMARK H PARENT 9 6 4 20 13 24 72 43 40 54
REMARK Flexibility Score: inf
ROOT
ATOM      1  C   UNL A   1      38.096  19.606  24.845  1.00  0.00     0.042 C 
ENDROOT
BRANCH   1   2
ATOM      2  C   UNL A   1      36.811  20.396  25.004  1.00  0.00     0.117 C 
BRANCH   2   3
ATOM      3  N   UNL A   1      37.027  21.778  25.416  1.00  0.00    -0.355 N 
ATOM      4  C   UNL A   1      36.165  22.759  25.824  1.00  0.00     0.234 C 
ATOM      5  O   UNL A   1      36.691  23.822  26.171  1.00  0.00    -0.274 OA
ATOM      6  H   UNL A   1      37.971  22.057  25.397  1.00  0.00     0.163 HD
BRANCH   4   7
ATOM      7  C   UNL A   1      34.628  22.583  25.797  1.00  0.00     0.123 C 
ATOM      8  C   UNL A   1      34.206  22.399  24.345  1.00  0.00     0.054 C 
ATOM      9  C   UNL A   1      34.258  21.281  26.492  1.00  0.00     0.183 C 
ATOM     10  C   UNL A   1      33.341  21.165  24.340  1.00  0.00     0.161 C 
ATOM     11  O   UNL A   1      33.611  20.427  25.533  1.00  0.00    -0.380 OA
BRANCH   7  12
ATOM     12  C   UNL A   1      33.968  23.834  26.483  1.00  0.00     0.281 C 
BRANCH  12  13
ATOM     13  N   UNL A   1      33.264  24.910  25.772  1.00  0.00    -0.333 N 
ATOM     14  C   UNL A   1      33.907  28.582  25.747  1.00  0.00     0.014 C 
ATOM     15  C   UNL A   1      33.502  27.192  26.198  1.00  0.00     0.049 C 
ATOM     16  C   UNL A   1      34.005  26.071  25.300  1.00  0.00     0.265 C 
ATOM     17  C   UNL A   1      32.005  26.882  26.326  1.00  0.00     0.049 C 
ATOM     18  C   UNL A   1      31.945  25.345  26.212  1.00  0.00     0.265 C 
ATOM     19  C   UNL A   1      31.131  27.559  25.278  1.00  0.00     0.014 C 
ATOM     20  H   UNL A   1      33.121  24.284  24.979  1.00  0.00     0.348 HD
ENDBRANCH  12  13
ENDBRANCH   7  12
ENDBRANCH   4   7
ENDBRANCH   2   3
ENDBRANCH   1   2
BRANCH   1  21
ATOM     21  C   UNL A   1      39.203  20.116  25.743  1.00  0.00     0.118 C 
BRANCH  21  22
ATOM     22  N   UNL A   1      40.236  19.109  25.956  1.00  0.00    -0.352 N 
ATOM     23  C   UNL A   1      41.593  19.251  26.114  1.00  0.00     0.251 C 
ATOM     24  H   UNL A   1      39.910  18.181  25.991  1.00  0.00     0.163 HD
ATOM     25  O   UNL A   1      42.327  18.275  26.009  1.00  0.00    -0.269 OA
BRANCH  23  26
ATOM     26  C   UNL A   1      42.165  20.580  26.404  1.00  0.00     0.039 A 
ATOM     27  C   UNL A   1      42.590  21.389  25.347  1.00  0.00     0.014 A 
ATOM     28  C   UNL A   1      42.296  21.023  27.721  1.00  0.00     0.014 A 
ATOM     29  C   UNL A   1      43.085  22.666  25.614  1.00  0.00     0.010 A 
ATOM     30  C   UNL A   1      42.671  22.333  27.976  1.00  0.00     0.010 A 
ATOM     31  C   UNL A   1      43.092  23.163  26.928  1.00  0.00    -0.014 A 
BRANCH  31  32
ATOM     32  C   UNL A   1      43.564  24.532  27.242  1.00  0.00     0.031 A 
ATOM     33  C   UNL A   1      42.583  25.566  27.729  1.00  0.00     0.074 A 
ATOM     34  C   UNL A   1      44.848  24.865  27.008  1.00  0.00     0.049 A 
ATOM     35  N   UNL A   1      42.770  26.839  27.962  1.00  0.00    -0.248 NA
ATOM     36  C   UNL A   1      41.196  25.119  27.946  1.00  0.00     0.031 C 
ATOM     37  C   UNL A   1      45.873  23.966  26.472  1.00  0.00     0.029 A 
ATOM     38  N   UNL A   1      45.508  26.057  27.173  1.00  0.00    -0.354 N 
ATOM     39  C   UNL A   1      41.526  27.345  28.317  1.00  0.00     0.074 A 
ATOM     40  C   UNL A   1      40.579  26.258  28.221  1.00  0.00     0.031 C 
ATOM     41  C   UNL A   1      47.035  24.631  26.372  1.00  0.00     0.029 A 
ATOM     42  C   UNL A   1      46.828  26.013  26.794  1.00  0.00     0.049 A 
ATOM     43  H   UNL A   1      45.077  26.866  27.530  1.00  0.00     0.167 HD
ATOM     44  C   UNL A   1      41.210  28.599  28.712  1.00  0.00     0.037 A 
ATOM     45  C   UNL A   1      47.761  26.984  26.776  1.00  0.00     0.037 A 
ATOM     46  C   UNL A   1      42.169  29.660  28.860  1.00  0.00     0.049 A 
ATOM     47  C   UNL A   1      47.384  28.362  27.252  1.00  0.00     0.074 A 
ATOM     48  C   UNL A   1      41.972  30.936  29.353  1.00  0.00     0.029 A 
ATOM     49  N   UNL A   1      43.509  29.565  28.513  1.00  0.00    -0.354 N 
ATOM     50  N   UNL A   1      46.226  28.803  27.682  1.00  0.00    -0.248 NA
ATOM     51  C   UNL A   1      48.446  29.378  27.252  1.00  0.00     0.031 C 
ATOM     52  C   UNL A   1      43.177  31.635  29.250  1.00  0.00     0.029 A 
ATOM     53  C   UNL A   1      44.143  30.773  28.752  1.00  0.00     0.049 A 
ATOM     54  H   UNL A   1      43.944  28.759  28.151  1.00  0.00     0.167 HD
ATOM     55  C   UNL A   1      46.427  30.131  28.030  1.00  0.00     0.074 A 
ATOM     56  C   UNL A   1      47.824  30.420  27.782  1.00  0.00     0.031 C 
ATOM     57  C   UNL A   1      45.538  31.033  28.511  1.00  0.00     0.037 A 
BRANCH  44  58
ATOM     58  C   UNL A   1      39.773  28.903  29.024  1.00  0.00     0.064 A 
ATOM     59  C   UNL A   1      38.878  29.340  28.037  1.00  0.00     0.173 A 
ATOM     60  C   UNL A   1      39.269  28.685  30.316  1.00  0.00     0.173 A 
ATOM     61  F   UNL A   1      39.310  29.577  26.789  1.00  0.00    -0.203 F 
ATOM     62  C   UNL A   1      37.535  29.562  28.335  1.00  0.00     0.198 A 
ATOM     63  C   UNL A   1      37.922  28.877  30.603  1.00  0.00     0.198 A 
ATOM     64  F   UNL A   1      40.083  28.265  31.297  1.00  0.00    -0.203 F 
ATOM     65  F   UNL A   1      36.705  30.014  27.384  1.00  0.00    -0.200 F 
ATOM     66  C   UNL A   1      37.056  29.319  29.613  1.00  0.00     0.200 A 
ATOM     67  F   UNL A   1      37.457  28.629  31.835  1.00  0.00    -0.200 F 
ATOM     68  F   UNL A   1      35.760  29.513  29.892  1.00  0.00    -0.200 F 
ENDBRANCH  44  58
BRANCH  45  69
ATOM     69  C   UNL A   1      49.138  26.696  26.295  1.00  0.00     0.064 A 
ATOM     70  C   UNL A   1      49.512  26.955  24.968  1.00  0.00     0.173 A 
ATOM     71  C   UNL A   1      50.101  26.124  27.141  1.00  0.00     0.173 A 
ATOM     72  F   UNL A   1      48.624  27.485  24.114  1.00  0.00    -0.203 F 
ATOM     73  C   UNL A   1      50.779  26.617  24.497  1.00  0.00     0.198 A 
ATOM     74  C   UNL A   1      51.379  25.819  26.677  1.00  0.00     0.198 A 
ATOM     75  F   UNL A   1      49.801  25.864  28.422  1.00  0.00    -0.203 F 
ATOM     76  F   UNL A   1      51.085  26.814  23.207  1.00  0.00    -0.200 F 
ATOM     77  C   UNL A   1      51.713  26.052  25.352  1.00  0.00     0.200 A 
ATOM     78  F   UNL A   1      52.284  25.291  27.512  1.00  0.00    -0.200 F 
ATOM     79  F   UNL A   1      52.929  25.723  24.896  1.00  0.00    -0.200 F 
ENDBRANCH  45  69
BRANCH  57  80
ATOM     80  C   UNL A   1      46.054  32.403  28.839  1.00  0.00     0.064 A 
ATOM     81  C   UNL A   1      46.033  33.445  27.901  1.00  0.00     0.173 A 
ATOM     82  C   UNL A   1      46.535  32.688  30.126  1.00  0.00     0.173 A 
ATOM     83  F   UNL A   1      45.595  33.220  26.652  1.00  0.00    -0.203 F 
ATOM     84  C   UNL A   1      46.500  34.713  28.230  1.00  0.00     0.198 A 
ATOM     85  C   UNL A   1      46.969  33.966  30.463  1.00  0.00     0.198 A 
ATOM     86  F   UNL A   1      46.567  31.729  31.064  1.00  0.00    -0.203 F 
ATOM     87  F   UNL A   1      46.519  35.681  27.302  1.00  0.00    -0.200 F 
ATOM     88  C   UNL A   1      46.959  34.976  29.513  1.00  0.00     0.200 A 
ATOM     89  F   UNL A   1      47.394  34.222  31.708  1.00  0.00    -0.200 F 
ATOM     90  F   UNL A   1      47.398  36.201  29.831  1.00  0.00    -0.200 F 
ENDBRANCH  57  80
ENDBRANCH  31  32
ENDBRANCH  23  26
ENDBRANCH  21  22
ENDBRANCH   1  21
TORSDOF 12
ENDMDL
MODEL 3
REMARK VINA RESULT:     -12.1      0.271      1.650
REMARK SMILES C[C@@H]1C[N@@H+](C[C@]2(C(=O)NCCCNC(=O)c3ccc(-c4c5nc(c(-c6c(F)c(F)c(F)c(F)c6F)c6ccc([nH]6)c(-c6c(F)c(F)c(F)c(F)c6F)c6nc(c(-c7c(F)c(F)c(F)c(F)c7F)c7ccc4[nH]7)C=C6)C=C5)cc3)CCOC2)C[C@@H]1C
REMARK SMILES IDX 11 1 10 2 9 3 7 4 8 5 6 7 79 8 82 9 80 10 81 11 5 12 4 13
REMARK SMILES IDX 1 14 2 15 3 16 84 17 83 18 85 19 12 21 13 22 14 23 15 25
REMARK SMILES IDX 16 26 17 27 78 28 18 29 77 30 19 31 20 32 21 33 71 34 22 35
REMARK SMILES IDX 76 36 70 37 72 38 23 39 75 40 69 41 68 42 24 44 56 45 36 46
REMARK SMILES IDX 55 47 37 48 40 49 54 50 73 51 38 52 39 53 53 55 74 56 41 57
REMARK SMILES IDX 25 58 26 59 34 60 27 61 28 62 32 63 35 64 29 65 30 66 33 67
REMARK SMILES IDX 31 68 57 69 58 70 66 71 59 72 60 73 64 74 67 75 61 76 62 77
REMARK SMILES IDX 65 78 63 79 42 80 43 81 51 82 44 83 45 84 49 85 52 86 46 87
REMARK SMILES IDX 47 88 50 89 48 90
REMARK H PARENT 9 6 4 20 13 24 72 43 40 54
REMARK Flexibility Score: inf
ROOT
ATOM      1  C   UNL A   1      31.389  32.323  26.501  1.00  0.00     0.042 C 
ENDROOT
BRANCH   1   2
ATOM      2  C   UNL A   1      31.474  30.831  26.243  1.00  0.00     0.117 C 
BRANCH   2   3
ATOM      3  N   UNL A   1      31.066  30.452  24.895  1.00  0.00    -0.355 N 
ATOM      4  C   UNL A   1      31.213  29.292  24.185  1.00  0.00     0.234 C 
ATOM      5  O   UNL A   1      30.684  29.279  23.068  1.00  0.00    -0.274 OA
ATOM      6  H   UNL A   1      30.596  31.165  24.405  1.00  0.00     0.163 HD
BRANCH   4   7
ATOM      7  C   UNL A   1      32.038  28.092  24.708  1.00  0.00     0.123 C 
ATOM      8  C   UNL A   1      33.412  28.611  25.111  1.00  0.00     0.054 C 
ATOM      9  C   UNL A   1      31.411  27.573  25.995  1.00  0.00     0.183 C 
ATOM     10  C   UNL A   1      33.639  28.086  26.505  1.00  0.00     0.161 C 
ATOM     11  O   UNL A   1      32.372  27.720  27.054  1.00  0.00    -0.380 OA
BRANCH   7  12
ATOM     12  C   UNL A   1      32.092  26.993  23.585  1.00  0.00     0.281 C 
BRANCH  12  13
ATOM     13  N   UNL A   1      32.226  25.550  23.827  1.00  0.00    -0.333 N 
ATOM     14  C   UNL A   1      35.209  23.337  23.500  1.00  0.00     0.014 C 
ATOM     15  C   UNL A   1      34.032  24.232  23.159  1.00  0.00     0.049 C 
ATOM     16  C   UNL A   1      33.479  25.017  24.341  1.00  0.00     0.265 C 
ATOM     17  C   UNL A   1      32.778  23.579  22.564  1.00  0.00     0.049 C 
ATOM     18  C   UNL A   1      31.659  24.590  22.889  1.00  0.00     0.265 C 
ATOM     19  C   UNL A   1      32.466  22.195  23.120  1.00  0.00     0.014 C 
ATOM     20  H   UNL A   1      31.572  25.626  24.607  1.00  0.00     0.348 HD
ENDBRANCH  12  13
ENDBRANCH   7  12
ENDBRANCH   4   7
ENDBRANCH   2   3
ENDBRANCH   1   2
BRANCH   1  21
ATOM     21  C   UNL A   1      32.594  32.850  27.251  1.00  0.00     0.118 C 
BRANCH  21  22
ATOM     22  N   UNL A   1      32.430  34.250  27.626  1.00  0.00    -0.352 N 
ATOM     23  C   UNL A   1      32.994  34.963  28.655  1.00  0.00     0.251 C 
ATOM     24  H   UNL A   1      31.819  34.765  27.051  1.00  0.00     0.163 HD
ATOM     25  O   UNL A   1      32.528  36.052  28.972  1.00  0.00    -0.269 OA
BRANCH  23  26
ATOM     26  C   UNL A   1      34.155  34.415  29.381  1.00  0.00     0.039 A 
ATOM     27  C   UNL A   1      33.955  33.751  30.594  1.00  0.00     0.014 A 
ATOM     28  C   UNL A   1      35.446  34.568  28.872  1.00  0.00     0.014 A 
ATOM     29  C   UNL A   1      35.046  33.188  31.258  1.00  0.00     0.010 A 
ATOM     30  C   UNL A   1      36.508  33.905  29.468  1.00  0.00     0.010 A 
ATOM     31  C   UNL A   1      36.325  33.226  30.679  1.00  0.00    -0.014 A 
BRANCH  31  32
ATOM     32  C   UNL A   1      37.496  32.595  31.332  1.00  0.00     0.031 A 
ATOM     33  C   UNL A   1      38.197  31.446  30.657  1.00  0.00     0.074 A 
ATOM     34  C   UNL A   1      37.870  32.996  32.563  1.00  0.00     0.049 A 
ATOM     35  N   UNL A   1      39.171  30.694  31.102  1.00  0.00    -0.248 NA
ATOM     36  C   UNL A   1      37.715  31.064  29.319  1.00  0.00     0.031 C 
ATOM     37  C   UNL A   1      37.223  34.053  33.344  1.00  0.00     0.029 A 
ATOM     38  N   UNL A   1      38.876  32.550  33.383  1.00  0.00    -0.354 N 
ATOM     39  C   UNL A   1      39.391  29.739  30.117  1.00  0.00     0.074 A 
ATOM     40  C   UNL A   1      38.418  29.970  29.074  1.00  0.00     0.031 C 
ATOM     41  C   UNL A   1      37.859  34.187  34.518  1.00  0.00     0.029 A 
ATOM     42  C   UNL A   1      38.930  33.199  34.593  1.00  0.00     0.049 A 
ATOM     43  H   UNL A   1      39.501  31.834  33.127  1.00  0.00     0.167 HD
ATOM     44  C   UNL A   1      40.336  28.773  30.079  1.00  0.00     0.037 A 
ATOM     45  C   UNL A   1      39.744  33.005  35.648  1.00  0.00     0.037 A 
ATOM     46  C   UNL A   1      41.337  28.589  31.095  1.00  0.00     0.049 A 
ATOM     47  C   UNL A   1      40.807  31.943  35.560  1.00  0.00     0.074 A 
ATOM     48  C   UNL A   1      42.404  27.709  31.103  1.00  0.00     0.029 A 
ATOM     49  N   UNL A   1      41.390  29.297  32.287  1.00  0.00    -0.354 N 
ATOM     50  N   UNL A   1      41.069  31.111  34.580  1.00  0.00    -0.248 NA
ATOM     51  C   UNL A   1      41.697  31.797  36.721  1.00  0.00     0.031 C 
ATOM     52  C   UNL A   1      43.069  27.842  32.325  1.00  0.00     0.029 A 
ATOM     53  C   UNL A   1      42.455  28.851  33.051  1.00  0.00     0.049 A 
ATOM     54  H   UNL A   1      40.765  30.011  32.549  1.00  0.00     0.167 HD
ATOM     55  C   UNL A   1      42.167  30.368  34.991  1.00  0.00     0.074 A 
ATOM     56  C   UNL A   1      42.536  30.861  36.302  1.00  0.00     0.031 C 
ATOM     57  C   UNL A   1      42.812  29.367  34.347  1.00  0.00     0.037 A 
BRANCH  44  58
ATOM     58  C   UNL A   1      40.351  27.842  28.902  1.00  0.00     0.064 A 
ATOM     59  C   UNL A   1      41.112  28.109  27.755  1.00  0.00     0.173 A 
ATOM     60  C   UNL A   1      39.647  26.628  28.953  1.00  0.00     0.173 A 
ATOM     61  F   UNL A   1      41.793  29.260  27.649  1.00  0.00    -0.203 F 
ATOM     62  C   UNL A   1      41.157  27.204  26.697  1.00  0.00     0.198 A 
ATOM     63  C   UNL A   1      39.719  25.712  27.909  1.00  0.00     0.198 A 
ATOM     64  F   UNL A   1      38.905  26.322  30.029  1.00  0.00    -0.203 F 
ATOM     65  F   UNL A   1      41.863  27.497  25.596  1.00  0.00    -0.200 F 
ATOM     66  C   UNL A   1      40.471  26.002  26.779  1.00  0.00     0.200 A 
ATOM     67  F   UNL A   1      39.067  24.545  27.996  1.00  0.00    -0.200 F 
ATOM     68  F   UNL A   1      40.532  25.123  25.770  1.00  0.00    -0.200 F 
ENDBRANCH  44  58
BRANCH  45  69
ATOM     69  C   UNL A   1      39.593  33.831  36.876  1.00  0.00     0.064 A 
ATOM     70  C   UNL A   1      38.799  33.398  37.948  1.00  0.00     0.173 A 
ATOM     71  C   UNL A   1      40.211  35.085  36.991  1.00  0.00     0.173 A 
ATOM     72  F   UNL A   1      38.173  32.214  37.880  1.00  0.00    -0.203 F 
ATOM     73  C   UNL A   1      38.597  34.203  39.067  1.00  0.00     0.198 A 
ATOM     74  C   UNL A   1      40.037  35.874  38.126  1.00  0.00     0.198 A 
ATOM     75  F   UNL A   1      40.989  35.546  36.000  1.00  0.00    -0.203 F 
ATOM     76  F   UNL A   1      37.780  33.790  40.046  1.00  0.00    -0.200 F 
ATOM     77  C   UNL A   1      39.218  35.439  39.157  1.00  0.00     0.200 A 
ATOM     78  F   UNL A   1      40.654  37.060  38.217  1.00  0.00    -0.200 F 
ATOM     79  F   UNL A   1      39.020  36.214  40.232  1.00  0.00    -0.200 F 
ENDBRANCH  45  69
BRANCH  57  80
ATOM     80  C   UNL A   1      44.007  28.766  35.027  1.00  0.00     0.064 A 
ATOM     81  C   UNL A   1      43.893  27.653  35.874  1.00  0.00     0.173 A 
ATOM     82  C   UNL A   1      45.290  29.283  34.791  1.00  0.00     0.173 A 
ATOM     83  F   UNL A   1      42.687  27.130  36.141  1.00  0.00    -0.203 F 
ATOM     84  C   UNL A   1      45.015  27.100  36.481  1.00  0.00     0.198 A 
ATOM     85  C   UNL A   1      46.414  28.705  35.371  1.00  0.00     0.198 A 
ATOM     86  F   UNL A   1      45.455  30.340  33.981  1.00  0.00    -0.203 F 
ATOM     87  F   UNL A   1      44.877  26.070  37.328  1.00  0.00    -0.200 F 
ATOM     88  C   UNL A   1      46.276  27.619  36.223  1.00  0.00     0.200 A 
ATOM     89  F   UNL A   1      47.632  29.197  35.106  1.00  0.00    -0.200 F 
ATOM     90  F   UNL A   1      47.357  27.078  36.800  1.00  0.00    -0.200 F 
ENDBRANCH  57  80
ENDBRANCH  31  32
ENDBRANCH  23  26
ENDBRANCH  21  22
ENDBRANCH   1  21
TORSDOF 12
ENDMDL
