MODEL 1
REMARK VINA RESULT:     -10.1      0.000      0.000
REMARK SMILES C[NH2+][C@H](CC[C@H]([NH3+])C(=O)NCCCNC(=O)c1ccc(-c2c3nc(c(-c4c(F)c(F)c(F)c(F)c4F)c4ccc([nH]4)c(-c4c(F)c(F)c(F)c(F)c4F)c4nc(c(-c5c(F)c(F)c(F)c(F)c5F)c5ccc2[nH]5)C=C4)C=C3)cc1)C(F)(F)F
REMARK SMILES IDX 11 1 10 2 8 3 9 4 6 6 5 7 4 8 3 9 2 10 1 11 80 14 81 15
REMARK SMILES IDX 82 16 83 17 7 18 12 22 13 23 14 24 15 25 16 27 17 28 18 29
REMARK SMILES IDX 79 30 19 31 78 32 20 33 21 34 22 35 72 36 23 37 77 38 71 39
REMARK SMILES IDX 73 40 24 41 76 42 70 43 69 44 25 46 57 47 37 48 56 49 38 50
REMARK SMILES IDX 41 51 55 52 74 53 39 54 40 55 54 57 75 58 42 59 26 60 27 61
REMARK SMILES IDX 35 62 28 63 29 64 33 65 36 66 30 67 31 68 34 69 32 70 58 71
REMARK SMILES IDX 59 72 67 73 60 74 61 75 65 76 68 77 62 78 63 79 66 80 64 81
REMARK SMILES IDX 43 82 44 83 52 84 45 85 46 86 50 87 53 88 47 89 48 90 51 91
REMARK SMILES IDX 49 92
REMARK H PARENT 10 5 2 12 2 13 7 19 7 20 7 21 14 26 73 45 41 56
REMARK Flexibility Score: inf
ROOT
ATOM      1  C   UNL A   1      34.137  34.828  29.944  1.00  0.00     0.118 C 
ENDROOT
BRANCH   1   2
ATOM      2  N   UNL A   1      33.580  36.129  30.247  1.00  0.00    -0.351 N 
ATOM      3  C   UNL A   1      33.240  36.739  31.418  1.00  0.00     0.278 C 
ATOM      4  O   UNL A   1      32.920  37.929  31.327  1.00  0.00    -0.268 OA
ATOM      5  H   UNL A   1      33.413  36.683  29.450  1.00  0.00     0.163 HD
BRANCH   3   6
ATOM      6  C   UNL A   1      33.116  35.992  32.778  1.00  0.00     0.271 C 
BRANCH   6   7
ATOM      7  C   UNL A   1      34.437  35.483  33.407  1.00  0.00     0.082 C 
BRANCH   7   8
ATOM      8  C   UNL A   1      34.632  33.958  33.559  1.00  0.00     0.081 C 
BRANCH   8   9
ATOM      9  C   UNL A   1      36.002  33.336  33.155  1.00  0.00     0.289 C 
BRANCH   9  10
ATOM     10  N   UNL A   1      36.789  33.021  34.382  1.00  0.00    -0.339 N 
ATOM     11  C   UNL A   1      38.228  32.957  34.160  1.00  0.00     0.331 C 
ATOM     12  H   UNL A   1      36.602  33.745  35.077  1.00  0.00     0.346 HD
ATOM     13  H   UNL A   1      36.495  32.096  34.693  1.00  0.00     0.346 HD
ENDBRANCH   9  10
BRANCH   9  14
ATOM     14  C   UNL A   1      35.816  32.231  32.069  1.00  0.00     0.441 C 
ATOM     15  F   UNL A   1      36.611  32.454  30.999  1.00  0.00    -0.165 F 
ATOM     16  F   UNL A   1      36.134  31.007  32.551  1.00  0.00    -0.165 F 
ATOM     17  F   UNL A   1      34.540  32.169  31.626  1.00  0.00    -0.165 F 
ENDBRANCH   9  14
ENDBRANCH   8   9
ENDBRANCH   7   8
ENDBRANCH   6   7
BRANCH   6  18
ATOM     18  N   UNL A   1      31.973  35.072  32.714  1.00  0.00    -0.347 N 
ATOM     19  H   UNL A   1      31.551  35.117  31.787  1.00  0.00     0.345 HD
ATOM     20  H   UNL A   1      31.281  35.338  33.415  1.00  0.00     0.345 HD
ATOM     21  H   UNL A   1      32.291  34.119  32.895  1.00  0.00     0.345 HD
ENDBRANCH   6  18
ENDBRANCH   3   6
ENDBRANCH   1   2
BRANCH   1  22
ATOM     22  C   UNL A   1      34.062  34.455  28.471  1.00  0.00     0.042 C 
BRANCH  22  23
ATOM     23  C   UNL A   1      34.895  33.236  28.096  1.00  0.00     0.118 C 
BRANCH  23  24
ATOM     24  N   UNL A   1      34.078  32.076  27.763  1.00  0.00    -0.352 N 
ATOM     25  C   UNL A   1      34.380  30.739  27.679  1.00  0.00     0.251 C 
ATOM     26  H   UNL A   1      33.138  32.291  27.562  1.00  0.00     0.163 HD
ATOM     27  O   UNL A   1      33.555  29.973  27.186  1.00  0.00    -0.269 OA
BRANCH  25  28
ATOM     28  C   UNL A   1      35.679  30.199  28.146  1.00  0.00     0.039 A 
ATOM     29  C   UNL A   1      36.757  30.182  27.252  1.00  0.00     0.014 A 
ATOM     30  C   UNL A   1      35.841  29.658  29.422  1.00  0.00     0.014 A 
ATOM     31  C   UNL A   1      38.004  29.700  27.663  1.00  0.00     0.010 A 
ATOM     32  C   UNL A   1      37.103  29.261  29.860  1.00  0.00     0.010 A 
ATOM     33  C   UNL A   1      38.200  29.276  28.986  1.00  0.00    -0.014 A 
BRANCH  33  34
ATOM     34  C   UNL A   1      39.539  28.860  29.481  1.00  0.00     0.031 A 
ATOM     35  C   UNL A   1      40.307  29.736  30.432  1.00  0.00     0.074 A 
ATOM     36  C   UNL A   1      40.102  27.732  29.007  1.00  0.00     0.049 A 
ATOM     37  N   UNL A   1      41.528  29.596  30.886  1.00  0.00    -0.248 NA
ATOM     38  C   UNL A   1      39.623  30.945  30.914  1.00  0.00     0.031 C 
ATOM     39  C   UNL A   1      39.481  26.817  28.048  1.00  0.00     0.029 A 
ATOM     40  N   UNL A   1      41.329  27.169  29.257  1.00  0.00    -0.354 N 
ATOM     41  C   UNL A   1      41.765  30.706  31.685  1.00  0.00     0.074 A 
ATOM     42  C   UNL A   1      40.579  31.534  31.618  1.00  0.00     0.031 C 
ATOM     43  C   UNL A   1      40.320  25.796  27.809  1.00  0.00     0.029 A 
ATOM     44  C   UNL A   1      41.553  26.006  28.561  1.00  0.00     0.049 A 
ATOM     45  H   UNL A   1      41.986  27.562  29.875  1.00  0.00     0.167 HD
ATOM     46  C   UNL A   1      42.862  30.999  32.425  1.00  0.00     0.037 A 
ATOM     47  C   UNL A   1      42.634  25.206  28.521  1.00  0.00     0.037 A 
ATOM     48  C   UNL A   1      44.026  30.158  32.519  1.00  0.00     0.049 A 
ATOM     49  C   UNL A   1      43.845  25.559  29.340  1.00  0.00     0.074 A 
ATOM     50  C   UNL A   1      45.151  30.326  33.309  1.00  0.00     0.029 A 
ATOM     51  N   UNL A   1      44.215  28.990  31.797  1.00  0.00    -0.354 N 
ATOM     52  N   UNL A   1      44.031  26.579  30.141  1.00  0.00    -0.248 NA
ATOM     53  C   UNL A   1      44.996  24.650  29.245  1.00  0.00     0.031 C 
ATOM     54  C   UNL A   1      46.040  29.283  33.030  1.00  0.00     0.029 A 
ATOM     55  C   UNL A   1      45.453  28.442  32.099  1.00  0.00     0.049 A 
ATOM     56  H   UNL A   1      43.567  28.605  31.163  1.00  0.00     0.167 HD
ATOM     57  C   UNL A   1      45.311  26.429  30.657  1.00  0.00     0.074 A 
ATOM     58  C   UNL A   1      45.850  25.209  30.092  1.00  0.00     0.031 C 
ATOM     59  C   UNL A   1      45.979  27.232  31.520  1.00  0.00     0.037 A 
BRANCH  46  60
ATOM     60  C   UNL A   1      42.853  32.289  33.194  1.00  0.00     0.064 A 
ATOM     61  C   UNL A   1      42.355  32.363  34.504  1.00  0.00     0.173 A 
ATOM     62  C   UNL A   1      43.372  33.461  32.623  1.00  0.00     0.173 A 
ATOM     63  F   UNL A   1      41.839  31.273  35.092  1.00  0.00    -0.203 F 
ATOM     64  C   UNL A   1      42.345  33.567  35.201  1.00  0.00     0.198 A 
ATOM     65  C   UNL A   1      43.387  34.659  33.334  1.00  0.00     0.198 A 
ATOM     66  F   UNL A   1      43.868  33.446  31.376  1.00  0.00    -0.203 F 
ATOM     67  F   UNL A   1      41.815  33.624  36.431  1.00  0.00    -0.200 F 
ATOM     68  C   UNL A   1      42.865  34.713  34.618  1.00  0.00     0.200 A 
ATOM     69  F   UNL A   1      43.901  35.762  32.775  1.00  0.00    -0.200 F 
ATOM     70  F   UNL A   1      42.856  35.873  35.291  1.00  0.00    -0.200 F 
ENDBRANCH  46  60
BRANCH  47  71
ATOM     71  C   UNL A   1      42.610  23.977  27.687  1.00  0.00     0.064 A 
ATOM     72  C   UNL A   1      42.970  24.024  26.334  1.00  0.00     0.173 A 
ATOM     73  C   UNL A   1      42.249  22.734  28.226  1.00  0.00     0.173 A 
ATOM     74  F   UNL A   1      43.302  25.196  25.771  1.00  0.00    -0.203 F 
ATOM     75  C   UNL A   1      42.962  22.875  25.548  1.00  0.00     0.198 A 
ATOM     76  C   UNL A   1      42.265  21.581  27.446  1.00  0.00     0.198 A 
ATOM     77  F   UNL A   1      41.901  22.638  29.518  1.00  0.00    -0.203 F 
ATOM     78  F   UNL A   1      43.282  22.951  24.249  1.00  0.00    -0.200 F 
ATOM     79  C   UNL A   1      42.617  21.652  26.106  1.00  0.00     0.200 A 
ATOM     80  F   UNL A   1      41.944  20.400  27.992  1.00  0.00    -0.200 F 
ATOM     81  F   UNL A   1      42.621  20.545  25.352  1.00  0.00    -0.200 F 
ENDBRANCH  47  71
BRANCH  59  82
ATOM     82  C   UNL A   1      47.366  26.813  31.911  1.00  0.00     0.064 A 
ATOM     83  C   UNL A   1      48.496  27.321  31.254  1.00  0.00     0.173 A 
ATOM     84  C   UNL A   1      47.568  25.924  32.978  1.00  0.00     0.173 A 
ATOM     85  F   UNL A   1      48.352  28.160  30.217  1.00  0.00    -0.203 F 
ATOM     86  C   UNL A   1      49.778  26.939  31.638  1.00  0.00     0.198 A 
ATOM     87  C   UNL A   1      48.853  25.565  33.376  1.00  0.00     0.198 A 
ATOM     88  F   UNL A   1      46.520  25.413  33.641  1.00  0.00    -0.203 F 
ATOM     89  F   UNL A   1      50.842  27.405  30.969  1.00  0.00    -0.200 F 
ATOM     90  C   UNL A   1      49.956  26.068  32.702  1.00  0.00     0.200 A 
ATOM     91  F   UNL A   1      49.024  24.730  34.410  1.00  0.00    -0.200 F 
ATOM     92  F   UNL A   1      51.192  25.707  33.075  1.00  0.00    -0.200 F 
ENDBRANCH  59  82
ENDBRANCH  33  34
ENDBRANCH  25  28
ENDBRANCH  23  24
ENDBRANCH  22  23
ENDBRANCH   1  22
TORSDOF 16
ENDMDL
MODEL 2
REMARK VINA RESULT:     -10.1      0.346      2.091
REMARK SMILES C[NH2+][C@H](CC[C@H]([NH3+])C(=O)NCCCNC(=O)c1ccc(-c2c3nc(c(-c4c(F)c(F)c(F)c(F)c4F)c4ccc([nH]4)c(-c4c(F)c(F)c(F)c(F)c4F)c4nc(c(-c5c(F)c(F)c(F)c(F)c5F)c5ccc2[nH]5)C=C4)C=C3)cc1)C(F)(F)F
REMARK SMILES IDX 11 1 10 2 8 3 9 4 6 6 5 7 4 8 3 9 2 10 1 11 80 14 81 15
REMARK SMILES IDX 82 16 83 17 7 18 12 22 13 23 14 24 15 25 16 27 17 28 18 29
REMARK SMILES IDX 79 30 19 31 78 32 20 33 21 34 22 35 72 36 23 37 77 38 71 39
REMARK SMILES IDX 73 40 24 41 76 42 70 43 69 44 25 46 57 47 37 48 56 49 38 50
REMARK SMILES IDX 41 51 55 52 74 53 39 54 40 55 54 57 75 58 42 59 26 60 27 61
REMARK SMILES IDX 35 62 28 63 29 64 33 65 36 66 30 67 31 68 34 69 32 70 58 71
REMARK SMILES IDX 59 72 67 73 60 74 61 75 65 76 68 77 62 78 63 79 66 80 64 81
REMARK SMILES IDX 43 82 44 83 52 84 45 85 46 86 50 87 53 88 47 89 48 90 51 91
REMARK SMILES IDX 49 92
REMARK H PARENT 10 5 2 12 2 13 7 19 7 20 7 21 14 26 73 45 41 56
REMARK Flexibility Score: inf
ROOT
ATOM      1  C   UNL A   1      34.370  34.903  29.912  1.00  0.00     0.118 C 
ENDROOT
BRANCH   1   2
ATOM      2  N   UNL A   1      33.674  36.124  30.258  1.00  0.00    -0.351 N 
ATOM      3  C   UNL A   1      33.292  36.664  31.450  1.00  0.00     0.278 C 
ATOM      4  O   UNL A   1      32.835  37.811  31.395  1.00  0.00    -0.268 OA
ATOM      5  H   UNL A   1      33.425  36.672  29.479  1.00  0.00     0.163 HD
BRANCH   3   6
ATOM      6  C   UNL A   1      33.286  35.878  32.794  1.00  0.00     0.271 C 
BRANCH   6   7
ATOM      7  C   UNL A   1      34.667  35.442  33.343  1.00  0.00     0.082 C 
BRANCH   7   8
ATOM      8  C   UNL A   1      34.843  33.975  33.794  1.00  0.00     0.081 C 
BRANCH   8   9
ATOM      9  C   UNL A   1      36.110  33.196  33.328  1.00  0.00     0.289 C 
BRANCH   9  10
ATOM     10  N   UNL A   1      36.855  32.698  34.520  1.00  0.00    -0.339 N 
ATOM     11  C   UNL A   1      38.301  32.671  34.341  1.00  0.00     0.331 C 
ATOM     12  H   UNL A   1      36.640  33.306  35.311  1.00  0.00     0.346 HD
ATOM     13  H   UNL A   1      36.557  31.736  34.675  1.00  0.00     0.346 HD
ENDBRANCH   9  10
BRANCH   9  14
ATOM     14  C   UNL A   1      35.762  32.200  32.179  1.00  0.00     0.441 C 
ATOM     15  F   UNL A   1      34.445  32.237  31.878  1.00  0.00    -0.165 F 
ATOM     16  F   UNL A   1      36.437  32.499  31.045  1.00  0.00    -0.165 F 
ATOM     17  F   UNL A   1      36.071  30.925  32.506  1.00  0.00    -0.165 F 
ENDBRANCH   9  14
ENDBRANCH   8   9
ENDBRANCH   7   8
ENDBRANCH   6   7
BRANCH   6  18
ATOM     18  N   UNL A   1      32.203  34.886  32.761  1.00  0.00    -0.347 N 
ATOM     19  H   UNL A   1      32.374  34.172  33.468  1.00  0.00     0.345 HD
ATOM     20  H   UNL A   1      32.170  34.449  31.839  1.00  0.00     0.345 HD
ATOM     21  H   UNL A   1      31.313  35.346  32.951  1.00  0.00     0.345 HD
ENDBRANCH   6  18
ENDBRANCH   3   6
ENDBRANCH   1   2
BRANCH   1  22
ATOM     22  C   UNL A   1      33.683  34.090  28.825  1.00  0.00     0.042 C 
BRANCH  22  23
ATOM     23  C   UNL A   1      34.575  33.038  28.179  1.00  0.00     0.118 C 
BRANCH  23  24
ATOM     24  N   UNL A   1      33.841  31.841  27.787  1.00  0.00    -0.352 N 
ATOM     25  C   UNL A   1      34.233  30.532  27.649  1.00  0.00     0.251 C 
ATOM     26  H   UNL A   1      32.891  32.002  27.582  1.00  0.00     0.163 HD
ATOM     27  O   UNL A   1      33.466  29.735  27.114  1.00  0.00    -0.269 OA
BRANCH  25  28
ATOM     28  C   UNL A   1      35.561  30.061  28.109  1.00  0.00     0.039 A 
ATOM     29  C   UNL A   1      36.624  30.060  27.198  1.00  0.00     0.014 A 
ATOM     30  C   UNL A   1      35.766  29.567  29.398  1.00  0.00     0.014 A 
ATOM     31  C   UNL A   1      37.896  29.642  27.600  1.00  0.00     0.010 A 
ATOM     32  C   UNL A   1      37.051  29.235  29.826  1.00  0.00     0.010 A 
ATOM     33  C   UNL A   1      38.131  29.269  28.933  1.00  0.00    -0.014 A 
BRANCH  33  34
ATOM     34  C   UNL A   1      39.495  28.923  29.416  1.00  0.00     0.031 A 
ATOM     35  C   UNL A   1      40.233  29.850  30.343  1.00  0.00     0.074 A 
ATOM     36  C   UNL A   1      40.103  27.815  28.952  1.00  0.00     0.049 A 
ATOM     37  N   UNL A   1      41.464  29.773  30.782  1.00  0.00    -0.248 NA
ATOM     38  C   UNL A   1      39.500  31.033  30.815  1.00  0.00     0.031 C 
ATOM     39  C   UNL A   1      39.514  26.856  28.017  1.00  0.00     0.029 A 
ATOM     40  N   UNL A   1      41.358  27.313  29.195  1.00  0.00    -0.354 N 
ATOM     41  C   UNL A   1      41.660  30.907  31.561  1.00  0.00     0.074 A 
ATOM     42  C   UNL A   1      40.436  31.677  31.496  1.00  0.00     0.031 C 
ATOM     43  C   UNL A   1      40.396  25.871  27.783  1.00  0.00     0.029 A 
ATOM     44  C   UNL A   1      41.627  26.151  28.515  1.00  0.00     0.049 A 
ATOM     45  H   UNL A   1      42.004  27.746  29.799  1.00  0.00     0.167 HD
ATOM     46  C   UNL A   1      42.751  31.262  32.281  1.00  0.00     0.037 A 
ATOM     47  C   UNL A   1      42.744  25.401  28.474  1.00  0.00     0.037 A 
ATOM     48  C   UNL A   1      43.954  30.477  32.373  1.00  0.00     0.049 A 
ATOM     49  C   UNL A   1      43.947  25.822  29.271  1.00  0.00     0.074 A 
ATOM     50  C   UNL A   1      45.080  30.710  33.145  1.00  0.00     0.029 A 
ATOM     51  N   UNL A   1      44.189  29.307  31.667  1.00  0.00    -0.354 N 
ATOM     52  N   UNL A   1      44.096  26.863  30.053  1.00  0.00    -0.248 NA
ATOM     53  C   UNL A   1      45.138  24.967  29.175  1.00  0.00     0.031 C 
ATOM     54  C   UNL A   1      46.013  29.705  32.871  1.00  0.00     0.029 A 
ATOM     55  C   UNL A   1      45.454  28.822  31.962  1.00  0.00     0.049 A 
ATOM     56  H   UNL A   1      43.551  28.882  31.048  1.00  0.00     0.167 HD
ATOM     57  C   UNL A   1      45.388  26.781  30.554  1.00  0.00     0.074 A 
ATOM     58  C   UNL A   1      45.975  25.578  30.001  1.00  0.00     0.031 C 
ATOM     59  C   UNL A   1      46.029  27.629  31.395  1.00  0.00     0.037 A 
BRANCH  46  60
ATOM     60  C   UNL A   1      42.692  32.563  33.029  1.00  0.00     0.064 A 
ATOM     61  C   UNL A   1      43.129  33.765  32.454  1.00  0.00     0.173 A 
ATOM     62  C   UNL A   1      42.167  32.612  34.330  1.00  0.00     0.173 A 
ATOM     63  F   UNL A   1      43.648  33.771  31.216  1.00  0.00    -0.203 F 
ATOM     64  C   UNL A   1      43.077  34.961  33.163  1.00  0.00     0.198 A 
ATOM     65  C   UNL A   1      42.090  33.815  35.027  1.00  0.00     0.198 A 
ATOM     66  F   UNL A   1      41.728  31.493  34.926  1.00  0.00    -0.203 F 
ATOM     67  F   UNL A   1      43.551  36.088  32.612  1.00  0.00    -0.200 F 
ATOM     68  C   UNL A   1      42.553  34.987  34.447  1.00  0.00     0.200 A 
ATOM     69  F   UNL A   1      41.571  33.840  36.262  1.00  0.00    -0.200 F 
ATOM     70  F   UNL A   1      42.501  36.140  35.129  1.00  0.00    -0.200 F 
ENDBRANCH  46  60
BRANCH  47  71
ATOM     71  C   UNL A   1      42.766  24.158  27.660  1.00  0.00     0.064 A 
ATOM     72  C   UNL A   1      42.461  22.919  28.239  1.00  0.00     0.173 A 
ATOM     73  C   UNL A   1      43.068  24.185  26.292  1.00  0.00     0.173 A 
ATOM     74  F   UNL A   1      42.186  22.844  29.550  1.00  0.00    -0.203 F 
ATOM     75  C   UNL A   1      42.466  21.751  27.482  1.00  0.00     0.198 A 
ATOM     76  C   UNL A   1      43.050  23.020  25.529  1.00  0.00     0.198 A 
ATOM     77  F   UNL A   1      43.362  25.348  25.691  1.00  0.00    -0.203 F 
ATOM     78  F   UNL A   1      42.201  20.574  28.066  1.00  0.00    -0.200 F 
ATOM     79  C   UNL A   1      42.754  21.802  26.125  1.00  0.00     0.200 A 
ATOM     80  F   UNL A   1      43.313  23.076  24.217  1.00  0.00    -0.200 F 
ATOM     81  F   UNL A   1      42.747  20.680  25.395  1.00  0.00    -0.200 F 
ENDBRANCH  47  71
BRANCH  59  82
ATOM     82  C   UNL A   1      47.438  27.281  31.775  1.00  0.00     0.064 A 
ATOM     83  C   UNL A   1      47.714  26.414  32.842  1.00  0.00     0.173 A 
ATOM     84  C   UNL A   1      48.521  27.790  31.042  1.00  0.00     0.173 A 
ATOM     85  F   UNL A   1      46.713  25.916  33.583  1.00  0.00    -0.203 F 
ATOM     86  C   UNL A   1      49.026  26.084  33.173  1.00  0.00     0.198 A 
ATOM     87  C   UNL A   1      49.829  27.436  31.360  1.00  0.00     0.198 A 
ATOM     88  F   UNL A   1      48.309  28.620  30.010  1.00  0.00    -0.203 F 
ATOM     89  F   UNL A   1      49.268  25.286  34.223  1.00  0.00    -0.200 F 
ATOM     90  C   UNL A   1      50.081  26.589  32.428  1.00  0.00     0.200 A 
ATOM     91  F   UNL A   1      50.847  27.917  30.634  1.00  0.00    -0.200 F 
ATOM     92  F   UNL A   1      51.341  26.264  32.745  1.00  0.00    -0.200 F 
ENDBRANCH  59  82
ENDBRANCH  33  34
ENDBRANCH  25  28
ENDBRANCH  23  24
ENDBRANCH  22  23
ENDBRANCH   1  22
TORSDOF 16
ENDMDL
MODEL 3
REMARK VINA RESULT:      -9.8      3.448      5.763
REMARK SMILES C[NH2+][C@H](CC[C@H]([NH3+])C(=O)NCCCNC(=O)c1ccc(-c2c3nc(c(-c4c(F)c(F)c(F)c(F)c4F)c4ccc([nH]4)c(-c4c(F)c(F)c(F)c(F)c4F)c4nc(c(-c5c(F)c(F)c(F)c(F)c5F)c5ccc2[nH]5)C=C4)C=C3)cc1)C(F)(F)F
REMARK SMILES IDX 11 1 10 2 8 3 9 4 6 6 5 7 4 8 3 9 2 10 1 11 80 14 81 15
REMARK SMILES IDX 82 16 83 17 7 18 12 22 13 23 14 24 15 25 16 27 17 28 18 29
REMARK SMILES IDX 79 30 19 31 78 32 20 33 21 34 22 35 72 36 23 37 77 38 71 39
REMARK SMILES IDX 73 40 24 41 76 42 70 43 69 44 25 46 57 47 37 48 56 49 38 50
REMARK SMILES IDX 41 51 55 52 74 53 39 54 40 55 54 57 75 58 42 59 26 60 27 61
REMARK SMILES IDX 35 62 28 63 29 64 33 65 36 66 30 67 31 68 34 69 32 70 58 71
REMARK SMILES IDX 59 72 67 73 60 74 61 75 65 76 68 77 62 78 63 79 66 80 64 81
REMARK SMILES IDX 43 82 44 83 52 84 45 85 46 86 50 87 53 88 47 89 48 90 51 91
REMARK SMILES IDX 49 92
REMARK H PARENT 10 5 2 12 2 13 7 19 7 20 7 21 14 26 73 45 41 56
REMARK Flexibility Score: inf
ROOT
ATOM      1  C   UNL A   1      31.540  28.036  26.113  1.00  0.00     0.118 C 
ENDROOT
BRANCH   1   2
ATOM      2  N   UNL A   1      32.250  27.551  24.947  1.00  0.00    -0.351 N 
ATOM      3  C   UNL A   1      32.232  27.921  23.635  1.00  0.00     0.278 C 
ATOM      4  O   UNL A   1      33.084  27.385  22.917  1.00  0.00    -0.268 OA
ATOM      5  H   UNL A   1      32.866  26.808  25.140  1.00  0.00     0.163 HD
BRANCH   3   6
ATOM      6  C   UNL A   1      31.145  28.845  23.011  1.00  0.00     0.271 C 
BRANCH   6   7
ATOM      7  C   UNL A   1      29.782  28.184  22.687  1.00  0.00     0.082 C 
BRANCH   7   8
ATOM      8  C   UNL A   1      28.505  29.040  22.829  1.00  0.00     0.081 C 
BRANCH   8   9
ATOM      9  C   UNL A   1      28.543  30.525  22.358  1.00  0.00     0.289 C 
BRANCH   9  10
ATOM     10  N   UNL A   1      27.682  30.688  21.151  1.00  0.00    -0.339 N 
ATOM     11  C   UNL A   1      28.028  31.842  20.331  1.00  0.00     0.331 C 
ATOM     12  H   UNL A   1      27.768  29.848  20.579  1.00  0.00     0.346 HD
ATOM     13  H   UNL A   1      26.730  30.837  21.485  1.00  0.00     0.346 HD
ENDBRANCH   9  10
BRANCH   9  14
ATOM     14  C   UNL A   1      28.355  31.499  23.562  1.00  0.00     0.441 C 
ATOM     15  F   UNL A   1      29.352  31.365  24.464  1.00  0.00    -0.165 F 
ATOM     16  F   UNL A   1      28.358  32.790  23.157  1.00  0.00    -0.165 F 
ATOM     17  F   UNL A   1      27.187  31.283  24.207  1.00  0.00    -0.165 F 
ENDBRANCH   9  14
ENDBRANCH   8   9
ENDBRANCH   7   8
ENDBRANCH   6   7
BRANCH   6  18
ATOM     18  N   UNL A   1      31.771  29.692  21.987  1.00  0.00    -0.347 N 
ATOM     19  H   UNL A   1      31.264  30.574  21.918  1.00  0.00     0.345 HD
ATOM     20  H   UNL A   1      31.745  29.213  21.087  1.00  0.00     0.345 HD
ATOM     21  H   UNL A   1      32.741  29.878  22.244  1.00  0.00     0.345 HD
ENDBRANCH   6  18
ENDBRANCH   3   6
ENDBRANCH   1   2
BRANCH   1  22
ATOM     22  C   UNL A   1      32.373  28.027  27.387  1.00  0.00     0.042 C 
BRANCH  22  23
ATOM     23  C   UNL A   1      33.749  28.660  27.232  1.00  0.00     0.118 C 
BRANCH  23  24
ATOM     24  N   UNL A   1      33.780  30.052  27.663  1.00  0.00    -0.352 N 
ATOM     25  C   UNL A   1      34.720  30.774  28.357  1.00  0.00     0.251 C 
ATOM     26  H   UNL A   1      32.980  30.568  27.411  1.00  0.00     0.163 HD
ATOM     27  O   UNL A   1      34.425  31.893  28.770  1.00  0.00    -0.269 OA
BRANCH  25  28
ATOM     28  C   UNL A   1      36.071  30.232  28.638  1.00  0.00     0.039 A 
ATOM     29  C   UNL A   1      37.058  30.350  27.652  1.00  0.00     0.014 A 
ATOM     30  C   UNL A   1      36.368  29.561  29.825  1.00  0.00     0.014 A 
ATOM     31  C   UNL A   1      38.350  29.870  27.888  1.00  0.00     0.010 A 
ATOM     32  C   UNL A   1      37.675  29.163  30.097  1.00  0.00     0.010 A 
ATOM     33  C   UNL A   1      38.682  29.312  29.132  1.00  0.00    -0.014 A 
BRANCH  33  34
ATOM     34  C   UNL A   1      40.073  28.891  29.451  1.00  0.00     0.031 A 
ATOM     35  C   UNL A   1      40.981  29.792  30.242  1.00  0.00     0.074 A 
ATOM     36  C   UNL A   1      40.547  27.732  28.955  1.00  0.00     0.049 A 
ATOM     37  N   UNL A   1      42.251  29.647  30.524  1.00  0.00    -0.248 NA
ATOM     38  C   UNL A   1      40.389  31.034  30.760  1.00  0.00     0.031 C 
ATOM     39  C   UNL A   1      39.783  26.788  28.137  1.00  0.00     0.029 A 
ATOM     40  N   UNL A   1      41.789  27.156  29.054  1.00  0.00    -0.354 N 
ATOM     41  C   UNL A   1      42.615  30.787  31.230  1.00  0.00     0.074 A 
ATOM     42  C   UNL A   1      41.443  31.634  31.293  1.00  0.00     0.031 C 
ATOM     43  C   UNL A   1      40.566  25.741  27.829  1.00  0.00     0.029 A 
ATOM     44  C   UNL A   1      41.896  25.959  28.388  1.00  0.00     0.049 A 
ATOM     45  H   UNL A   1      42.533  27.562  29.555  1.00  0.00     0.167 HD
ATOM     46  C   UNL A   1      43.810  31.090  31.792  1.00  0.00     0.037 A 
ATOM     47  C   UNL A   1      42.950  25.136  28.233  1.00  0.00     0.037 A 
ATOM     48  C   UNL A   1      44.964  30.230  31.759  1.00  0.00     0.049 A 
ATOM     49  C   UNL A   1      44.269  25.500  28.855  1.00  0.00     0.074 A 
ATOM     50  C   UNL A   1      46.192  30.410  32.372  1.00  0.00     0.029 A 
ATOM     51  N   UNL A   1      45.033  29.028  31.072  1.00  0.00    -0.354 N 
ATOM     52  N   UNL A   1      44.581  26.551  29.573  1.00  0.00    -0.248 NA
ATOM     53  C   UNL A   1      45.382  24.566  28.640  1.00  0.00     0.031 C 
ATOM     54  C   UNL A   1      47.019  29.338  32.019  1.00  0.00     0.029 A 
ATOM     55  C   UNL A   1      46.293  28.469  31.221  1.00  0.00     0.049 A 
ATOM     56  H   UNL A   1      44.295  28.629  30.555  1.00  0.00     0.167 HD
ATOM     57  C   UNL A   1      45.920  26.398  29.908  1.00  0.00     0.074 A 
ATOM     58  C   UNL A   1      46.356  25.144  29.330  1.00  0.00     0.031 C 
ATOM     59  C   UNL A   1      46.715  27.225  30.630  1.00  0.00     0.037 A 
BRANCH  46  60
ATOM     60  C   UNL A   1      43.928  32.412  32.494  1.00  0.00     0.064 A 
ATOM     61  C   UNL A   1      44.364  33.566  31.825  1.00  0.00     0.173 A 
ATOM     62  C   UNL A   1      43.577  32.533  33.847  1.00  0.00     0.173 A 
ATOM     63  F   UNL A   1      44.721  33.502  30.532  1.00  0.00    -0.203 F 
ATOM     64  C   UNL A   1      44.478  34.782  32.491  1.00  0.00     0.198 A 
ATOM     65  C   UNL A   1      43.665  33.759  34.503  1.00  0.00     0.198 A 
ATOM     66  F   UNL A   1      43.147  31.463  34.533  1.00  0.00    -0.203 F 
ATOM     67  F   UNL A   1      44.948  35.858  31.844  1.00  0.00    -0.200 F 
ATOM     68  C   UNL A   1      44.123  34.879  33.828  1.00  0.00     0.200 A 
ATOM     69  F   UNL A   1      43.310  33.853  35.792  1.00  0.00    -0.200 F 
ATOM     70  F   UNL A   1      44.232  36.052  34.469  1.00  0.00    -0.200 F 
ENDBRANCH  46  60
BRANCH  47  71
ATOM     71  C   UNL A   1      42.789  23.873  27.469  1.00  0.00     0.064 A 
ATOM     72  C   UNL A   1      43.139  23.807  26.114  1.00  0.00     0.173 A 
ATOM     73  C   UNL A   1      42.307  22.706  28.078  1.00  0.00     0.173 A 
ATOM     74  F   UNL A   1      43.586  24.905  25.485  1.00  0.00    -0.203 F 
ATOM     75  C   UNL A   1      43.005  22.624  25.393  1.00  0.00     0.198 A 
ATOM     76  C   UNL A   1      42.196  21.515  27.363  1.00  0.00     0.198 A 
ATOM     77  F   UNL A   1      41.963  22.717  29.374  1.00  0.00    -0.203 F 
ATOM     78  F   UNL A   1      43.318  22.595  24.090  1.00  0.00    -0.200 F 
ATOM     79  C   UNL A   1      42.540  21.476  26.019  1.00  0.00     0.200 A 
ATOM     80  F   UNL A   1      41.760  20.407  27.975  1.00  0.00    -0.200 F 
ATOM     81  F   UNL A   1      42.423  20.335  25.328  1.00  0.00    -0.200 F 
ENDBRANCH  47  71
BRANCH  59  82
ATOM     82  C   UNL A   1      48.137  26.796  30.840  1.00  0.00     0.064 A 
ATOM     83  C   UNL A   1      48.492  25.926  31.882  1.00  0.00     0.173 A 
ATOM     84  C   UNL A   1      49.149  27.228  29.970  1.00  0.00     0.173 A 
ATOM     85  F   UNL A   1      47.562  25.500  32.750  1.00  0.00    -0.203 F 
ATOM     86  C   UNL A   1      49.812  25.520  32.056  1.00  0.00     0.198 A 
ATOM     87  C   UNL A   1      50.464  26.799  30.131  1.00  0.00     0.198 A 
ATOM     88  F   UNL A   1      48.861  28.058  28.956  1.00  0.00    -0.203 F 
ATOM     89  F   UNL A   1      50.135  24.721  33.083  1.00  0.00    -0.200 F 
ATOM     90  C   UNL A   1      50.795  25.951  31.177  1.00  0.00     0.200 A 
ATOM     91  F   UNL A   1      51.410  27.208  29.276  1.00  0.00    -0.200 F 
ATOM     92  F   UNL A   1      52.064  25.553  31.342  1.00  0.00    -0.200 F 
ENDBRANCH  59  82
ENDBRANCH  33  34
ENDBRANCH  25  28
ENDBRANCH  23  24
ENDBRANCH  22  23
ENDBRANCH   1  22
TORSDOF 16
ENDMDL
