MODEL 1
REMARK VINA RESULT:     -12.7      0.000      0.000
REMARK SMILES O=C(NCCCNC(=O)[C@H]1SC=C[C@@H]1S(=O)(=O)NCCC1=c2ccccc2=NC1)c1ccc(-c2c3nc(c(-c4c(F)c(F)c(F)c(F)c4F)c4ccc([nH]4)c(-c4c(F)c(F)c(F)c(F)c4F)c4nc(c(-c5c(F)c(F)c(F)c(F)c5F)c5ccc2[nH]5)C=C4)C=C3)cc1
REMARK SMILES IDX 7 1 8 2 9 3 6 5 5 6 4 7 3 8 1 9 2 10 30 12 31 13 92 14 32 15
REMARK SMILES IDX 91 16 33 17 34 18 35 19 85 20 36 21 90 22 84 23 86 24 37 25
REMARK SMILES IDX 89 26 83 27 82 28 38 30 70 31 50 32 69 33 51 34 54 35 68 36
REMARK SMILES IDX 87 37 52 38 53 39 67 41 88 42 55 43 39 44 40 45 48 46 41 47
REMARK SMILES IDX 42 48 46 49 49 50 43 51 44 52 47 53 45 54 71 55 72 56 80 57
REMARK SMILES IDX 73 58 74 59 78 60 81 61 75 62 76 63 79 64 77 65 56 66 57 67
REMARK SMILES IDX 65 68 58 69 59 70 63 71 66 72 60 73 61 74 64 75 62 76 10 77
REMARK SMILES IDX 11 78 14 79 12 80 13 81 15 82 16 83 17 84 18 85 19 87 20 88
REMARK SMILES IDX 21 89 22 90 29 91 23 92 27 93 28 94 24 95 26 96 25 97
REMARK H PARENT 7 4 3 11 86 29 54 40 18 86
REMARK Flexibility Score: inf
ROOT
ATOM      1  N   UNL A   1      32.321  30.091  26.827  1.00  0.00    -0.355 N 
ATOM      2  C   UNL A   1      32.763  28.808  26.732  1.00  0.00     0.235 C 
ATOM      3  O   UNL A   1      33.618  28.489  27.570  1.00  0.00    -0.274 OA
ATOM      4  H   UNL A   1      32.707  30.579  27.590  1.00  0.00     0.163 HD
ENDROOT
BRANCH   1   5
ATOM      5  C   UNL A   1      31.398  30.893  26.045  1.00  0.00     0.117 C 
BRANCH   5   6
ATOM      6  C   UNL A   1      31.323  32.346  26.502  1.00  0.00     0.042 C 
BRANCH   6   7
ATOM      7  C   UNL A   1      32.566  32.804  27.243  1.00  0.00     0.118 C 
BRANCH   7   8
ATOM      8  N   UNL A   1      32.468  34.202  27.627  1.00  0.00    -0.352 N 
ATOM      9  O   UNL A   1      32.591  35.967  29.000  1.00  0.00    -0.269 OA
ATOM     10  C   UNL A   1      33.040  34.871  28.673  1.00  0.00     0.251 C 
ATOM     11  H   UNL A   1      31.900  34.754  27.041  1.00  0.00     0.163 HD
BRANCH  10  12
ATOM     12  C   UNL A   1      34.200  34.306  29.396  1.00  0.00     0.039 A 
ATOM     13  C   UNL A   1      35.482  34.532  28.886  1.00  0.00     0.014 A 
ATOM     14  C   UNL A   1      34.029  33.471  30.503  1.00  0.00     0.014 A 
ATOM     15  C   UNL A   1      36.584  33.916  29.481  1.00  0.00     0.010 A 
ATOM     16  C   UNL A   1      35.134  32.944  31.159  1.00  0.00     0.010 A 
ATOM     17  C   UNL A   1      36.416  33.117  30.622  1.00  0.00    -0.014 A 
BRANCH  17  18
ATOM     18  C   UNL A   1      37.547  32.357  31.203  1.00  0.00     0.031 A 
ATOM     19  C   UNL A   1      38.026  32.693  32.590  1.00  0.00     0.074 A 
ATOM     20  C   UNL A   1      38.151  31.393  30.484  1.00  0.00     0.049 A 
ATOM     21  N   UNL A   1      39.045  32.212  33.255  1.00  0.00    -0.248 NA
ATOM     22  C   UNL A   1      37.275  33.731  33.318  1.00  0.00     0.031 C 
ATOM     23  C   UNL A   1      37.779  30.991  29.129  1.00  0.00     0.029 A 
ATOM     24  N   UNL A   1      39.207  30.577  30.799  1.00  0.00    -0.354 N 
ATOM     25  C   UNL A   1      39.061  32.896  34.463  1.00  0.00     0.074 A 
ATOM     26  C   UNL A   1      37.998  33.873  34.418  1.00  0.00     0.031 C 
ATOM     27  C   UNL A   1      38.570  29.979  28.740  1.00  0.00     0.029 A 
ATOM     28  C   UNL A   1      39.535  29.695  29.798  1.00  0.00     0.049 A 
ATOM     29  H   UNL A   1      39.684  30.617  31.659  1.00  0.00     0.167 HD
ATOM     30  C   UNL A   1      39.869  32.700  35.532  1.00  0.00     0.037 A 
ATOM     31  C   UNL A   1      40.511  28.769  29.744  1.00  0.00     0.037 A 
ATOM     32  C   UNL A   1      40.901  31.701  35.582  1.00  0.00     0.049 A 
ATOM     33  C   UNL A   1      41.422  28.599  30.930  1.00  0.00     0.074 A 
ATOM     34  C   UNL A   1      41.752  31.394  36.628  1.00  0.00     0.029 A 
ATOM     35  N   UNL A   1      41.215  30.839  34.542  1.00  0.00    -0.354 N 
ATOM     36  N   UNL A   1      41.409  29.227  32.081  1.00  0.00    -0.248 NA
ATOM     37  C   UNL A   1      42.484  27.590  30.809  1.00  0.00     0.031 C 
ATOM     38  C   UNL A   1      42.616  30.382  36.203  1.00  0.00     0.029 A 
ATOM     39  C   UNL A   1      42.265  30.016  34.913  1.00  0.00     0.049 A 
ATOM     40  H   UNL A   1      40.760  30.816  33.668  1.00  0.00     0.167 HD
ATOM     41  C   UNL A   1      42.438  28.674  32.830  1.00  0.00     0.074 A 
ATOM     42  C   UNL A   1      43.045  27.646  32.009  1.00  0.00     0.031 C 
ATOM     43  C   UNL A   1      42.849  28.992  34.082  1.00  0.00     0.037 A 
BRANCH  30  44
ATOM     44  C   UNL A   1      39.661  33.569  36.739  1.00  0.00     0.064 A 
ATOM     45  C   UNL A   1      40.274  34.826  36.853  1.00  0.00     0.173 A 
ATOM     46  C   UNL A   1      38.789  33.171  37.763  1.00  0.00     0.173 A 
ATOM     47  F   UNL A   1      41.129  35.249  35.908  1.00  0.00    -0.203 F 
ATOM     48  C   UNL A   1      40.039  35.643  37.954  1.00  0.00     0.198 A 
ATOM     49  C   UNL A   1      38.529  34.005  38.849  1.00  0.00     0.198 A 
ATOM     50  F   UNL A   1      38.174  31.981  37.705  1.00  0.00    -0.203 F 
ATOM     51  F   UNL A   1      40.670  36.821  38.061  1.00  0.00    -0.200 F 
ATOM     52  C   UNL A   1      39.157  35.238  38.945  1.00  0.00     0.200 A 
ATOM     53  F   UNL A   1      37.666  33.618  39.798  1.00  0.00    -0.200 F 
ATOM     54  F   UNL A   1      38.916  36.034  39.996  1.00  0.00    -0.200 F 
ENDBRANCH  30  44
BRANCH  31  55
ATOM     55  C   UNL A   1      40.648  27.914  28.537  1.00  0.00     0.064 A 
ATOM     56  C   UNL A   1      39.994  26.676  28.459  1.00  0.00     0.173 A 
ATOM     57  C   UNL A   1      41.405  28.320  27.429  1.00  0.00     0.173 A 
ATOM     58  F   UNL A   1      39.272  26.233  29.499  1.00  0.00    -0.203 F 
ATOM     59  C   UNL A   1      40.103  25.873  27.325  1.00  0.00     0.198 A 
ATOM     60  C   UNL A   1      41.488  27.532  26.283  1.00  0.00     0.198 A 
ATOM     61  F   UNL A   1      42.045  29.499  27.449  1.00  0.00    -0.203 F 
ATOM     62  F   UNL A   1      39.496  24.679  27.291  1.00  0.00    -0.200 F 
ATOM     63  C   UNL A   1      40.841  26.306  26.234  1.00  0.00     0.200 A 
ATOM     64  F   UNL A   1      42.186  27.964  25.225  1.00  0.00    -0.200 F 
ATOM     65  F   UNL A   1      40.932  25.542  25.137  1.00  0.00    -0.200 F 
ENDBRANCH  31  55
BRANCH  43  66
ATOM     66  C   UNL A   1      43.994  28.210  34.659  1.00  0.00     0.064 A 
ATOM     67  C   UNL A   1      43.788  26.993  35.325  1.00  0.00     0.173 A 
ATOM     68  C   UNL A   1      45.316  28.643  34.472  1.00  0.00     0.173 A 
ATOM     69  F   UNL A   1      42.543  26.543  35.538  1.00  0.00    -0.203 F 
ATOM     70  C   UNL A   1      44.864  26.248  35.799  1.00  0.00     0.198 A 
ATOM     71  C   UNL A   1      46.389  27.876  34.916  1.00  0.00     0.198 A 
ATOM     72  F   UNL A   1      45.567  29.794  33.831  1.00  0.00    -0.203 F 
ATOM     73  F   UNL A   1      44.642  25.107  36.468  1.00  0.00    -0.200 F 
ATOM     74  C   UNL A   1      46.163  26.683  35.584  1.00  0.00     0.200 A 
ATOM     75  F   UNL A   1      47.645  28.290  34.688  1.00  0.00    -0.200 F 
ATOM     76  F   UNL A   1      47.196  25.953  36.024  1.00  0.00    -0.200 F 
ENDBRANCH  43  66
ENDBRANCH  17  18
ENDBRANCH  10  12
ENDBRANCH   7   8
ENDBRANCH   6   7
ENDBRANCH   5   6
ENDBRANCH   1   5
BRANCH   2  77
ATOM     77  C   UNL A   1      32.352  27.789  25.665  1.00  0.00     0.163 C 
ATOM     78  S   UNL A   1      33.650  27.493  24.408  1.00  0.00    -0.119 SA
ATOM     79  C   UNL A   1      32.012  26.422  26.242  1.00  0.00     0.170 C 
ATOM     80  C   UNL A   1      34.067  25.954  25.087  1.00  0.00     0.038 C 
ATOM     81  C   UNL A   1      33.176  25.501  25.979  1.00  0.00     0.002 C 
BRANCH  79  82
ATOM     82  S   UNL A   1      30.506  25.726  25.501  1.00  0.00     0.219 S 
ATOM     83  O   UNL A   1      29.557  25.487  26.562  1.00  0.00    -0.212 OA
ATOM     84  O   UNL A   1      30.131  26.565  24.380  1.00  0.00    -0.212 OA
BRANCH  82  85
ATOM     85  N   UNL A   1      30.909  24.263  24.807  1.00  0.00    -0.214 NA
ATOM     86  H   UNL A   1      30.069  23.691  24.898  1.00  0.00     0.141 HD
BRANCH  85  87
ATOM     87  C   UNL A   1      31.380  24.026  23.433  1.00  0.00     0.103 C 
BRANCH  87  88
ATOM     88  C   UNL A   1      31.741  22.580  23.096  1.00  0.00     0.050 C 
BRANCH  88  89
ATOM     89  C   UNL A   1      32.784  22.042  24.017  1.00  0.00    -0.038 C 
ATOM     90  C   UNL A   1      34.096  22.250  23.953  1.00  0.00     0.001 A 
ATOM     91  C   UNL A   1      32.449  21.104  25.138  1.00  0.00     0.174 C 
ATOM     92  C   UNL A   1      34.958  23.029  23.126  1.00  0.00     0.010 A 
ATOM     93  C   UNL A   1      34.611  21.383  25.023  1.00  0.00     0.065 A 
ATOM     94  N   UNL A   1      33.753  20.714  25.728  1.00  0.00    -0.280 NA
ATOM     95  C   UNL A   1      36.283  22.953  23.331  1.00  0.00     0.001 A 
ATOM     96  C   UNL A   1      36.080  21.339  25.174  1.00  0.00     0.028 A 
ATOM     97  C   UNL A   1      36.840  22.088  24.358  1.00  0.00     0.002 A 
ENDBRANCH  88  89
ENDBRANCH  87  88
ENDBRANCH  85  87
ENDBRANCH  82  85
ENDBRANCH  79  82
ENDBRANCH   2  77
TORSDOF 15
ENDMDL
MODEL 2
REMARK VINA RESULT:     -12.6      0.522      7.220
REMARK SMILES O=C(NCCCNC(=O)[C@H]1SC=C[C@@H]1S(=O)(=O)NCCC1=c2ccccc2=NC1)c1ccc(-c2c3nc(c(-c4c(F)c(F)c(F)c(F)c4F)c4ccc([nH]4)c(-c4c(F)c(F)c(F)c(F)c4F)c4nc(c(-c5c(F)c(F)c(F)c(F)c5F)c5ccc2[nH]5)C=C4)C=C3)cc1
REMARK SMILES IDX 7 1 8 2 9 3 6 5 5 6 4 7 3 8 1 9 2 10 30 12 31 13 92 14 32 15
REMARK SMILES IDX 91 16 33 17 34 18 35 19 85 20 36 21 90 22 84 23 86 24 37 25
REMARK SMILES IDX 89 26 83 27 82 28 38 30 70 31 50 32 69 33 51 34 54 35 68 36
REMARK SMILES IDX 87 37 52 38 53 39 67 41 88 42 55 43 39 44 40 45 48 46 41 47
REMARK SMILES IDX 42 48 46 49 49 50 43 51 44 52 47 53 45 54 71 55 72 56 80 57
REMARK SMILES IDX 73 58 74 59 78 60 81 61 75 62 76 63 79 64 77 65 56 66 57 67
REMARK SMILES IDX 65 68 58 69 59 70 63 71 66 72 60 73 61 74 64 75 62 76 10 77
REMARK SMILES IDX 11 78 14 79 12 80 13 81 15 82 16 83 17 84 18 85 19 87 20 88
REMARK SMILES IDX 21 89 22 90 29 91 23 92 27 93 28 94 24 95 26 96 25 97
REMARK H PARENT 7 4 3 11 86 29 54 40 18 86
REMARK Flexibility Score: inf
ROOT
ATOM      1  N   UNL A   1      32.400  29.971  26.812  1.00  0.00    -0.355 N 
ATOM      2  C   UNL A   1      32.755  28.658  26.743  1.00  0.00     0.235 C 
ATOM      3  O   UNL A   1      33.537  28.284  27.627  1.00  0.00    -0.274 OA
ATOM      4  H   UNL A   1      32.778  30.434  27.594  1.00  0.00     0.163 HD
ENDROOT
BRANCH   1   5
ATOM      5  C   UNL A   1      31.582  30.832  25.979  1.00  0.00     0.117 C 
BRANCH   5   6
ATOM      6  C   UNL A   1      31.351  32.214  26.582  1.00  0.00     0.042 C 
BRANCH   6   7
ATOM      7  C   UNL A   1      32.580  32.778  27.270  1.00  0.00     0.118 C 
BRANCH   7   8
ATOM      8  N   UNL A   1      32.431  34.198  27.542  1.00  0.00    -0.352 N 
ATOM      9  O   UNL A   1      32.474  36.067  28.774  1.00  0.00    -0.269 OA
ATOM     10  C   UNL A   1      32.964  34.966  28.540  1.00  0.00     0.251 C 
ATOM     11  H   UNL A   1      31.855  34.683  26.907  1.00  0.00     0.163 HD
BRANCH  10  12
ATOM     12  C   UNL A   1      34.130  34.498  29.320  1.00  0.00     0.039 A 
ATOM     13  C   UNL A   1      35.394  34.537  28.725  1.00  0.00     0.014 A 
ATOM     14  C   UNL A   1      33.975  33.925  30.586  1.00  0.00     0.014 A 
ATOM     15  C   UNL A   1      36.493  33.997  29.394  1.00  0.00     0.010 A 
ATOM     16  C   UNL A   1      35.084  33.484  31.295  1.00  0.00     0.010 A 
ATOM     17  C   UNL A   1      36.344  33.466  30.684  1.00  0.00    -0.014 A 
BRANCH  17  18
ATOM     18  C   UNL A   1      37.465  32.780  31.369  1.00  0.00     0.031 A 
ATOM     19  C   UNL A   1      38.164  31.641  30.676  1.00  0.00     0.074 A 
ATOM     20  C   UNL A   1      37.833  33.160  32.606  1.00  0.00     0.049 A 
ATOM     21  N   UNL A   1      39.110  30.854  31.123  1.00  0.00    -0.248 NA
ATOM     22  C   UNL A   1      37.723  31.325  29.307  1.00  0.00     0.031 C 
ATOM     23  C   UNL A   1      37.219  34.242  33.374  1.00  0.00     0.029 A 
ATOM     24  N   UNL A   1      38.815  32.676  33.431  1.00  0.00    -0.354 N 
ATOM     25  C   UNL A   1      39.360  29.950  30.100  1.00  0.00     0.074 A 
ATOM     26  C   UNL A   1      38.427  30.236  29.035  1.00  0.00     0.031 C 
ATOM     27  C   UNL A   1      37.863  34.365  34.546  1.00  0.00     0.029 A 
ATOM     28  C   UNL A   1      38.899  33.339  34.631  1.00  0.00     0.049 A 
ATOM     29  H   UNL A   1      39.404  31.926  33.188  1.00  0.00     0.167 HD
ATOM     30  C   UNL A   1      40.313  28.990  30.037  1.00  0.00     0.037 A 
ATOM     31  C   UNL A   1      39.718  33.134  35.679  1.00  0.00     0.037 A 
ATOM     32  C   UNL A   1      41.262  28.736  31.086  1.00  0.00     0.049 A 
ATOM     33  C   UNL A   1      40.741  32.033  35.602  1.00  0.00     0.074 A 
ATOM     34  C   UNL A   1      42.290  27.811  31.111  1.00  0.00     0.029 A 
ATOM     35  N   UNL A   1      41.304  29.416  32.294  1.00  0.00    -0.354 N 
ATOM     36  N   UNL A   1      40.994  31.206  34.617  1.00  0.00    -0.248 NA
ATOM     37  C   UNL A   1      41.594  31.838  36.782  1.00  0.00     0.031 C 
ATOM     38  C   UNL A   1      42.921  27.897  32.355  1.00  0.00     0.029 A 
ATOM     39  C   UNL A   1      42.326  28.915  33.082  1.00  0.00     0.049 A 
ATOM     40  H   UNL A   1      40.696  30.148  32.553  1.00  0.00     0.167 HD
ATOM     41  C   UNL A   1      42.048  30.411  35.045  1.00  0.00     0.074 A 
ATOM     42  C   UNL A   1      42.400  30.868  36.374  1.00  0.00     0.031 C 
ATOM     43  C   UNL A   1      42.665  29.391  34.400  1.00  0.00     0.037 A 
BRANCH  30  44
ATOM     44  C   UNL A   1      40.387  28.154  28.792  1.00  0.00     0.064 A 
ATOM     45  C   UNL A   1      41.165  28.544  27.691  1.00  0.00     0.173 A 
ATOM     46  C   UNL A   1      39.726  26.919  28.721  1.00  0.00     0.173 A 
ATOM     47  F   UNL A   1      41.806  29.723  27.701  1.00  0.00    -0.203 F 
ATOM     48  C   UNL A   1      41.263  27.739  26.560  1.00  0.00     0.198 A 
ATOM     49  C   UNL A   1      39.852  26.100  27.601  1.00  0.00     0.198 A 
ATOM     50  F   UNL A   1      38.969  26.496  29.745  1.00  0.00    -0.203 F 
ATOM     51  F   UNL A   1      41.978  28.154  25.504  1.00  0.00    -0.200 F 
ATOM     52  C   UNL A   1      40.617  26.513  26.520  1.00  0.00     0.200 A 
ATOM     53  F   UNL A   1      39.239  24.909  27.570  1.00  0.00    -0.200 F 
ATOM     54  F   UNL A   1      40.727  25.730  25.438  1.00  0.00    -0.200 F 
ENDBRANCH  30  44
BRANCH  31  55
ATOM     55  C   UNL A   1      39.621  34.016  36.872  1.00  0.00     0.064 A 
ATOM     56  C   UNL A   1      38.864  33.631  37.987  1.00  0.00     0.173 A 
ATOM     57  C   UNL A   1      40.301  35.241  36.937  1.00  0.00     0.173 A 
ATOM     58  F   UNL A   1      38.181  32.477  37.967  1.00  0.00    -0.203 F 
ATOM     59  C   UNL A   1      38.780  34.443  39.116  1.00  0.00     0.198 A 
ATOM     60  C   UNL A   1      40.241  36.038  38.079  1.00  0.00     0.198 A 
ATOM     61  F   UNL A   1      41.045  35.653  35.901  1.00  0.00    -0.203 F 
ATOM     62  F   UNL A   1      38.021  34.067  40.154  1.00  0.00    -0.200 F 
ATOM     63  C   UNL A   1      39.476  35.641  39.166  1.00  0.00     0.200 A 
ATOM     64  F   UNL A   1      40.932  37.184  38.129  1.00  0.00    -0.200 F 
ATOM     65  F   UNL A   1      39.409  36.413  40.258  1.00  0.00    -0.200 F 
ENDBRANCH  31  55
BRANCH  43  66
ATOM     66  C   UNL A   1      43.802  28.708  35.105  1.00  0.00     0.064 A 
ATOM     67  C   UNL A   1      45.123  29.157  34.971  1.00  0.00     0.173 A 
ATOM     68  C   UNL A   1      43.555  27.644  35.987  1.00  0.00     0.173 A 
ATOM     69  F   UNL A   1      45.412  30.164  34.132  1.00  0.00    -0.203 F 
ATOM     70  C   UNL A   1      46.158  28.554  35.680  1.00  0.00     0.198 A 
ATOM     71  C   UNL A   1      44.587  27.068  36.721  1.00  0.00     0.198 A 
ATOM     72  F   UNL A   1      42.306  27.185  36.160  1.00  0.00    -0.203 F 
ATOM     73  F   UNL A   1      47.419  28.974  35.506  1.00  0.00    -0.200 F 
ATOM     74  C   UNL A   1      45.888  27.519  36.563  1.00  0.00     0.200 A 
ATOM     75  F   UNL A   1      44.320  26.081  37.588  1.00  0.00    -0.200 F 
ATOM     76  F   UNL A   1      46.884  26.954  37.258  1.00  0.00    -0.200 F 
ENDBRANCH  43  66
ENDBRANCH  17  18
ENDBRANCH  10  12
ENDBRANCH   7   8
ENDBRANCH   6   7
ENDBRANCH   5   6
ENDBRANCH   1   5
BRANCH   2  77
ATOM     77  C   UNL A   1      32.331  27.666  25.655  1.00  0.00     0.163 C 
ATOM     78  S   UNL A   1      33.573  27.480  24.323  1.00  0.00    -0.119 SA
ATOM     79  C   UNL A   1      32.081  26.264  26.191  1.00  0.00     0.170 C 
ATOM     80  C   UNL A   1      34.090  25.935  24.913  1.00  0.00     0.038 C 
ATOM     81  C   UNL A   1      33.266  25.407  25.829  1.00  0.00     0.002 C 
BRANCH  79  82
ATOM     82  S   UNL A   1      30.569  25.532  25.498  1.00  0.00     0.219 S 
ATOM     83  O   UNL A   1      29.658  25.275  26.588  1.00  0.00    -0.212 OA
ATOM     84  O   UNL A   1      30.140  26.359  24.387  1.00  0.00    -0.212 OA
BRANCH  82  85
ATOM     85  N   UNL A   1      30.982  24.076  24.796  1.00  0.00    -0.214 NA
ATOM     86  H   UNL A   1      30.210  23.448  25.022  1.00  0.00     0.141 HD
BRANCH  85  87
ATOM     87  C   UNL A   1      31.272  23.819  23.375  1.00  0.00     0.103 C 
BRANCH  87  88
ATOM     88  C   UNL A   1      31.775  22.416  23.044  1.00  0.00     0.050 C 
BRANCH  88  89
ATOM     89  C   UNL A   1      32.817  21.959  24.010  1.00  0.00    -0.038 C 
ATOM     90  C   UNL A   1      34.121  22.213  23.963  1.00  0.00     0.001 A 
ATOM     91  C   UNL A   1      32.491  21.062  25.167  1.00  0.00     0.174 C 
ATOM     92  C   UNL A   1      34.973  22.985  23.117  1.00  0.00     0.010 A 
ATOM     93  C   UNL A   1      34.644  21.416  25.082  1.00  0.00     0.065 A 
ATOM     94  N   UNL A   1      33.796  20.748  25.800  1.00  0.00    -0.280 NA
ATOM     95  C   UNL A   1      36.295  22.967  23.352  1.00  0.00     0.001 A 
ATOM     96  C   UNL A   1      36.110  21.433  25.264  1.00  0.00     0.028 A 
ATOM     97  C   UNL A   1      36.861  22.171  24.430  1.00  0.00     0.002 A 
ENDBRANCH  88  89
ENDBRANCH  87  88
ENDBRANCH  85  87
ENDBRANCH  82  85
ENDBRANCH  79  82
ENDBRANCH   2  77
TORSDOF 15
ENDMDL
MODEL 3
REMARK VINA RESULT:     -12.5      5.442      9.939
REMARK SMILES O=C(NCCCNC(=O)[C@H]1SC=C[C@@H]1S(=O)(=O)NCCC1=c2ccccc2=NC1)c1ccc(-c2c3nc(c(-c4c(F)c(F)c(F)c(F)c4F)c4ccc([nH]4)c(-c4c(F)c(F)c(F)c(F)c4F)c4nc(c(-c5c(F)c(F)c(F)c(F)c5F)c5ccc2[nH]5)C=C4)C=C3)cc1
REMARK SMILES IDX 7 1 8 2 9 3 6 5 5 6 4 7 3 8 1 9 2 10 30 12 31 13 92 14 32 15
REMARK SMILES IDX 91 16 33 17 34 18 35 19 85 20 36 21 90 22 84 23 86 24 37 25
REMARK SMILES IDX 89 26 83 27 82 28 38 30 70 31 50 32 69 33 51 34 54 35 68 36
REMARK SMILES IDX 87 37 52 38 53 39 67 41 88 42 55 43 39 44 40 45 48 46 41 47
REMARK SMILES IDX 42 48 46 49 49 50 43 51 44 52 47 53 45 54 71 55 72 56 80 57
REMARK SMILES IDX 73 58 74 59 78 60 81 61 75 62 76 63 79 64 77 65 56 66 57 67
REMARK SMILES IDX 65 68 58 69 59 70 63 71 66 72 60 73 61 74 64 75 62 76 10 77
REMARK SMILES IDX 11 78 14 79 12 80 13 81 15 82 16 83 17 84 18 85 19 87 20 88
REMARK SMILES IDX 21 89 22 90 29 91 23 92 27 93 28 94 24 95 26 96 25 97
REMARK H PARENT 7 4 3 11 86 29 54 40 18 86
REMARK Flexibility Score: inf
ROOT
ATOM      1  N   UNL A   1      37.240  21.915  25.306  1.00  0.00    -0.355 N 
ATOM      2  C   UNL A   1      36.492  23.051  25.268  1.00  0.00     0.235 C 
ATOM      3  O   UNL A   1      37.069  24.067  25.679  1.00  0.00    -0.274 OA
ATOM      4  H   UNL A   1      38.164  22.069  25.610  1.00  0.00     0.163 HD
ENDROOT
BRANCH   1   5
ATOM      5  C   UNL A   1      36.966  20.525  24.992  1.00  0.00     0.117 C 
BRANCH   5   6
ATOM      6  C   UNL A   1      38.225  19.667  24.901  1.00  0.00     0.042 C 
BRANCH   6   7
ATOM      7  C   UNL A   1      39.376  20.206  25.731  1.00  0.00     0.118 C 
BRANCH   7   8
ATOM      8  N   UNL A   1      40.361  19.173  26.002  1.00  0.00    -0.352 N 
ATOM      9  O   UNL A   1      42.399  18.245  26.062  1.00  0.00    -0.269 OA
ATOM     10  C   UNL A   1      41.718  19.265  26.144  1.00  0.00     0.251 C 
ATOM     11  H   UNL A   1      39.994  18.265  26.100  1.00  0.00     0.163 HD
BRANCH  10  12
ATOM     12  C   UNL A   1      42.370  20.564  26.415  1.00  0.00     0.039 A 
ATOM     13  C   UNL A   1      42.402  21.036  27.730  1.00  0.00     0.014 A 
ATOM     14  C   UNL A   1      42.852  21.366  25.376  1.00  0.00     0.014 A 
ATOM     15  C   UNL A   1      42.908  22.309  27.999  1.00  0.00     0.010 A 
ATOM     16  C   UNL A   1      43.451  22.587  25.656  1.00  0.00     0.010 A 
ATOM     17  C   UNL A   1      43.435  23.093  26.962  1.00  0.00    -0.014 A 
BRANCH  17  18
ATOM     18  C   UNL A   1      43.867  24.491  27.196  1.00  0.00     0.031 A 
ATOM     19  C   UNL A   1      42.868  25.495  27.706  1.00  0.00     0.074 A 
ATOM     20  C   UNL A   1      45.134  24.858  26.932  1.00  0.00     0.049 A 
ATOM     21  N   UNL A   1      43.012  26.781  27.902  1.00  0.00    -0.248 NA
ATOM     22  C   UNL A   1      41.517  24.993  28.010  1.00  0.00     0.031 C 
ATOM     23  C   UNL A   1      46.181  23.972  26.426  1.00  0.00     0.029 A 
ATOM     24  N   UNL A   1      45.753  26.075  27.056  1.00  0.00    -0.354 N 
ATOM     25  C   UNL A   1      41.773  27.235  28.335  1.00  0.00     0.074 A 
ATOM     26  C   UNL A   1      40.870  26.108  28.310  1.00  0.00     0.031 C 
ATOM     27  C   UNL A   1      47.325  24.666  26.315  1.00  0.00     0.029 A 
ATOM     28  C   UNL A   1      47.079  26.055  26.696  1.00  0.00     0.049 A 
ATOM     29  H   UNL A   1      45.293  26.885  27.372  1.00  0.00     0.167 HD
ATOM     30  C   UNL A   1      41.429  28.475  28.755  1.00  0.00     0.037 A 
ATOM     31  C   UNL A   1      47.985  27.049  26.671  1.00  0.00     0.037 A 
ATOM     32  C   UNL A   1      42.344  29.583  28.812  1.00  0.00     0.049 A 
ATOM     33  C   UNL A   1      47.568  28.429  27.103  1.00  0.00     0.074 A 
ATOM     34  C   UNL A   1      42.109  30.872  29.254  1.00  0.00     0.029 A 
ATOM     35  N   UNL A   1      43.674  29.527  28.421  1.00  0.00    -0.354 N 
ATOM     36  N   UNL A   1      46.403  28.841  27.543  1.00  0.00    -0.248 NA
ATOM     37  C   UNL A   1      48.590  29.481  27.035  1.00  0.00     0.031 C 
ATOM     38  C   UNL A   1      43.282  31.611  29.082  1.00  0.00     0.029 A 
ATOM     39  C   UNL A   1      44.266  30.768  28.590  1.00  0.00     0.049 A 
ATOM     40  H   UNL A   1      44.130  28.725  28.076  1.00  0.00     0.167 HD
ATOM     41  C   UNL A   1      46.558  30.190  27.829  1.00  0.00     0.074 A 
ATOM     42  C   UNL A   1      47.936  30.524  27.530  1.00  0.00     0.031 C 
ATOM     43  C   UNL A   1      45.642  31.076  28.292  1.00  0.00     0.037 A 
BRANCH  30  44
ATOM     44  C   UNL A   1      40.012  28.699  29.199  1.00  0.00     0.064 A 
ATOM     45  C   UNL A   1      39.018  29.117  28.301  1.00  0.00     0.173 A 
ATOM     46  C   UNL A   1      39.629  28.432  30.522  1.00  0.00     0.173 A 
ATOM     47  F   UNL A   1      39.334  29.401  27.028  1.00  0.00    -0.203 F 
ATOM     48  C   UNL A   1      37.699  29.278  28.714  1.00  0.00     0.198 A 
ATOM     49  C   UNL A   1      38.301  28.562  30.924  1.00  0.00     0.198 A 
ATOM     50  F   UNL A   1      40.537  28.028  31.422  1.00  0.00    -0.203 F 
ATOM     51  F   UNL A   1      36.776  29.720  27.847  1.00  0.00    -0.200 F 
ATOM     52  C   UNL A   1      37.339  28.988  30.022  1.00  0.00     0.200 A 
ATOM     53  F   UNL A   1      37.952  28.267  32.184  1.00  0.00    -0.200 F 
ATOM     54  F   UNL A   1      36.064  29.125  30.413  1.00  0.00    -0.200 F 
ENDBRANCH  30  44
BRANCH  31  55
ATOM     55  C   UNL A   1      49.383  26.761  26.254  1.00  0.00     0.064 A 
ATOM     56  C   UNL A   1      50.322  26.284  27.180  1.00  0.00     0.173 A 
ATOM     57  C   UNL A   1      49.803  26.927  24.927  1.00  0.00     0.173 A 
ATOM     58  F   UNL A   1      49.974  26.126  28.465  1.00  0.00    -0.203 F 
ATOM     59  C   UNL A   1      51.630  25.996  26.796  1.00  0.00     0.198 A 
ATOM     60  C   UNL A   1      51.103  26.608  24.537  1.00  0.00     0.198 A 
ATOM     61  F   UNL A   1      48.943  27.373  24.001  1.00  0.00    -0.203 F 
ATOM     62  F   UNL A   1      52.516  25.574  27.708  1.00  0.00    -0.200 F 
ATOM     63  C   UNL A   1      52.017  26.148  25.473  1.00  0.00     0.200 A 
ATOM     64  F   UNL A   1      51.465  26.739  23.255  1.00  0.00    -0.200 F 
ATOM     65  F   UNL A   1      53.270  25.855  25.101  1.00  0.00    -0.200 F 
ENDBRANCH  31  55
BRANCH  43  66
ATOM     66  C   UNL A   1      46.097  32.488  28.529  1.00  0.00     0.064 A 
ATOM     67  C   UNL A   1      45.983  33.471  27.536  1.00  0.00     0.173 A 
ATOM     68  C   UNL A   1      46.576  32.878  29.790  1.00  0.00     0.173 A 
ATOM     69  F   UNL A   1      45.541  33.145  26.312  1.00  0.00    -0.203 F 
ATOM     70  C   UNL A   1      46.349  34.789  27.791  1.00  0.00     0.198 A 
ATOM     71  C   UNL A   1      46.907  34.204  30.051  1.00  0.00     0.198 A 
ATOM     72  F   UNL A   1      46.692  31.978  30.778  1.00  0.00    -0.203 F 
ATOM     73  F   UNL A   1      46.270  35.704  26.814  1.00  0.00    -0.200 F 
ATOM     74  C   UNL A   1      46.799  35.157  29.050  1.00  0.00     0.200 A 
ATOM     75  F   UNL A   1      47.323  34.561  31.275  1.00  0.00    -0.200 F 
ATOM     76  F   UNL A   1      47.133  36.431  29.297  1.00  0.00    -0.200 F 
ENDBRANCH  43  66
ENDBRANCH  17  18
ENDBRANCH  10  12
ENDBRANCH   7   8
ENDBRANCH   6   7
ENDBRANCH   5   6
ENDBRANCH   1   5
BRANCH   2  77
ATOM     77  C   UNL A   1      35.025  23.151  24.839  1.00  0.00     0.163 C 
ATOM     78  S   UNL A   1      33.849  22.754  26.184  1.00  0.00    -0.119 SA
ATOM     79  C   UNL A   1      34.640  24.538  24.344  1.00  0.00     0.170 C 
ATOM     80  C   UNL A   1      33.434  24.420  26.420  1.00  0.00     0.038 C 
ATOM     81  C   UNL A   1      33.861  25.224  25.437  1.00  0.00     0.002 C 
BRANCH  79  82
ATOM     82  S   UNL A   1      33.632  24.465  22.834  1.00  0.00     0.219 S 
ATOM     83  O   UNL A   1      33.682  25.762  22.202  1.00  0.00    -0.212 OA
ATOM     84  O   UNL A   1      34.031  23.289  22.086  1.00  0.00    -0.212 OA
BRANCH  82  85
ATOM     85  N   UNL A   1      32.057  24.154  23.286  1.00  0.00    -0.214 NA
ATOM     86  H   UNL A   1      32.065  24.194  24.306  1.00  0.00     0.141 HD
BRANCH  85  87
ATOM     87  C   UNL A   1      30.849  24.898  22.891  1.00  0.00     0.103 C 
BRANCH  87  88
ATOM     88  C   UNL A   1      30.173  25.701  24.000  1.00  0.00     0.050 C 
BRANCH  88  89
ATOM     89  C   UNL A   1      30.763  27.065  24.135  1.00  0.00    -0.038 C 
ATOM     90  C   UNL A   1      31.133  27.672  25.258  1.00  0.00     0.001 A 
ATOM     91  C   UNL A   1      30.954  27.970  22.954  1.00  0.00     0.174 C 
ATOM     92  C   UNL A   1      31.181  27.309  26.637  1.00  0.00     0.010 A 
ATOM     93  C   UNL A   1      31.516  29.012  24.788  1.00  0.00     0.065 A 
ATOM     94  N   UNL A   1      31.444  29.252  23.516  1.00  0.00    -0.280 NA
ATOM     95  C   UNL A   1      31.580  28.231  27.528  1.00  0.00     0.001 A 
ATOM     96  C   UNL A   1      31.925  29.975  25.831  1.00  0.00     0.028 A 
ATOM     97  C   UNL A   1      31.942  29.577  27.114  1.00  0.00     0.002 A 
ENDBRANCH  88  89
ENDBRANCH  87  88
ENDBRANCH  85  87
ENDBRANCH  82  85
ENDBRANCH  79  82
ENDBRANCH   2  77
TORSDOF 15
ENDMDL
