MODEL 1
REMARK VINA RESULT:     -13.1      0.000      0.000
REMARK SMILES CS(=O)(=O)Nc1ccc(-c2cc(Cl)cc3c2O[C@H](C(F)(F)F)C(C(=O)NCCCNC(=O)c2ccc(-c4c5nc(c(-c6c(F)c(F)c(F)c(F)c6F)c6ccc([nH]6)c(-c6c(F)c(F)c(F)c(F)c6F)c6nc(c(-c7c(F)c(F)c(F)c(F)c7F)c7ccc4[nH]7)C=C6)C=C5)cc2)=C3)cc1
REMARK SMILES IDX 27 1 26 2 24 3 25 4 23 6 10 7 11 8 16 9 12 10 15 11 17 12
REMARK SMILES IDX 13 13 14 14 96 15 18 16 9 17 6 18 7 19 98 20 8 21 97 22 5 23
REMARK SMILES IDX 2 25 1 26 3 27 4 28 19 29 20 30 21 31 22 32 28 33 29 34
REMARK SMILES IDX 30 35 31 36 32 38 33 39 34 40 95 41 35 42 94 43 36 44 37 45
REMARK SMILES IDX 38 46 88 47 39 48 93 49 87 50 89 51 40 52 92 53 86 54 85 55
REMARK SMILES IDX 41 57 73 58 53 59 72 60 54 61 57 62 71 63 90 64 55 65 56 66
REMARK SMILES IDX 70 68 91 69 58 70 42 71 43 72 51 73 44 74 45 75 49 76 52 77
REMARK SMILES IDX 46 78 47 79 50 80 48 81 74 82 75 83 83 84 76 85 77 86 81 87
REMARK SMILES IDX 84 88 78 89 79 90 82 91 80 92 59 93 60 94 68 95 61 96 62 97
REMARK SMILES IDX 66 98 69 99 63 100 64 101 67 102 65 103
REMARK H PARENT 26 5 5 24 30 37 89 56 57 67
REMARK Flexibility Score: inf
ROOT
ATOM      1  C   UNL A   1      37.699  19.511  24.558  1.00  0.00     0.118 C 
ENDROOT
BRANCH   1   2
ATOM      2  N   UNL A   1      36.400  20.046  24.914  1.00  0.00    -0.352 N 
ATOM      3  C   UNL A   1      36.163  21.186  25.609  1.00  0.00     0.251 C 
ATOM      4  O   UNL A   1      35.296  21.204  26.473  1.00  0.00    -0.270 OA
ATOM      5  H   UNL A   1      35.613  19.532  24.622  1.00  0.00     0.163 HD
BRANCH   3   6
ATOM      6  C   UNL A   1      36.885  22.411  25.157  1.00  0.00     0.067 C 
ATOM      7  C   UNL A   1      33.742  24.929  24.570  1.00  0.00     0.026 A 
ATOM      8  C   UNL A   1      32.743  24.186  23.885  1.00  0.00     0.033 A 
ATOM      9  C   UNL A   1      35.018  24.344  24.626  1.00  0.00     0.135 A 
ATOM     10  C   UNL A   1      33.029  23.035  23.154  1.00  0.00     0.042 A 
ATOM     11  C   UNL A   1      35.314  23.247  23.778  1.00  0.00     0.019 A 
ATOM     12  O   UNL A   1      36.004  24.751  25.513  1.00  0.00    -0.475 OA
ATOM     13  Cl  UNL A   1      31.759  22.182  22.373  1.00  0.00    -0.084 Cl
ATOM     14  C   UNL A   1      34.332  22.600  23.033  1.00  0.00     0.032 A 
ATOM     15  C   UNL A   1      36.673  22.666  23.851  1.00  0.00     0.025 C 
ATOM     16  C   UNL A   1      36.781  23.611  26.089  1.00  0.00     0.314 C 
BRANCH   7  17
ATOM     17  C   UNL A   1      33.353  26.324  24.921  1.00  0.00    -0.014 A 
ATOM     18  C   UNL A   1      31.841  28.696  24.496  1.00  0.00     0.048 A 
ATOM     19  C   UNL A   1      31.404  27.724  25.399  1.00  0.00     0.027 A 
ATOM     20  C   UNL A   1      33.119  28.569  23.958  1.00  0.00     0.027 A 
ATOM     21  C   UNL A   1      32.164  26.568  25.633  1.00  0.00     0.011 A 
ATOM     22  C   UNL A   1      33.871  27.395  24.171  1.00  0.00     0.011 A 
BRANCH  18  23
ATOM     23  N   UNL A   1      30.878  29.664  24.092  1.00  0.00    -0.284 N 
ATOM     24  H   UNL A   1      30.953  30.552  24.508  1.00  0.00     0.180 HD
BRANCH  23  25
ATOM     25  S   UNL A   1      29.640  29.469  23.000  1.00  0.00     0.229 S 
ATOM     26  C   UNL A   1      28.533  30.827  23.340  1.00  0.00     0.183 C 
ATOM     27  O   UNL A   1      28.953  28.223  23.263  1.00  0.00    -0.207 OA
ATOM     28  O   UNL A   1      30.241  29.728  21.708  1.00  0.00    -0.207 OA
ENDBRANCH  23  25
ENDBRANCH  18  23
ENDBRANCH   7  17
BRANCH  16  29
ATOM     29  C   UNL A   1      38.213  24.032  26.490  1.00  0.00     0.429 C 
ATOM     30  F   UNL A   1      38.843  24.739  25.526  1.00  0.00    -0.167 F 
ATOM     31  F   UNL A   1      38.202  24.788  27.615  1.00  0.00    -0.167 F 
ATOM     32  F   UNL A   1      39.010  22.964  26.765  1.00  0.00    -0.167 F 
ENDBRANCH  16  29
ENDBRANCH   3   6
ENDBRANCH   1   2
BRANCH   1  33
ATOM     33  C   UNL A   1      38.499  19.187  25.821  1.00  0.00     0.042 C 
BRANCH  33  34
ATOM     34  C   UNL A   1      39.894  19.809  25.869  1.00  0.00     0.118 C 
BRANCH  34  35
ATOM     35  N   UNL A   1      40.960  18.822  25.959  1.00  0.00    -0.352 N 
ATOM     36  C   UNL A   1      42.307  19.017  26.149  1.00  0.00     0.251 C 
ATOM     37  H   UNL A   1      40.677  17.883  25.872  1.00  0.00     0.163 HD
ATOM     38  O   UNL A   1      43.088  18.075  26.055  1.00  0.00    -0.269 OA
BRANCH  36  39
ATOM     39  C   UNL A   1      42.816  20.375  26.431  1.00  0.00     0.039 A 
ATOM     40  C   UNL A   1      43.411  21.101  25.398  1.00  0.00     0.014 A 
ATOM     41  C   UNL A   1      42.678  20.938  27.702  1.00  0.00     0.014 A 
ATOM     42  C   UNL A   1      43.794  22.426  25.618  1.00  0.00     0.010 A 
ATOM     43  C   UNL A   1      42.983  22.282  27.896  1.00  0.00     0.010 A 
ATOM     44  C   UNL A   1      43.540  23.042  26.855  1.00  0.00    -0.014 A 
BRANCH  44  45
ATOM     45  C   UNL A   1      43.839  24.480  27.080  1.00  0.00     0.031 A 
ATOM     46  C   UNL A   1      45.231  25.003  26.856  1.00  0.00     0.074 A 
ATOM     47  C   UNL A   1      42.880  25.297  27.558  1.00  0.00     0.049 A 
ATOM     48  N   UNL A   1      45.715  26.198  27.087  1.00  0.00    -0.248 NA
ATOM     49  C   UNL A   1      46.219  24.049  26.330  1.00  0.00     0.031 C 
ATOM     50  C   UNL A   1      41.503  24.899  27.857  1.00  0.00     0.029 A 
ATOM     51  N   UNL A   1      42.918  26.629  27.888  1.00  0.00    -0.354 N 
ATOM     52  C   UNL A   1      47.060  26.132  26.748  1.00  0.00     0.074 A 
ATOM     53  C   UNL A   1      47.331  24.767  26.356  1.00  0.00     0.031 C 
ATOM     54  C   UNL A   1      40.823  25.968  28.302  1.00  0.00     0.029 A 
ATOM     55  C   UNL A   1      41.725  27.115  28.365  1.00  0.00     0.049 A 
ATOM     56  H   UNL A   1      43.725  27.184  27.791  1.00  0.00     0.167 HD
ATOM     57  C   UNL A   1      47.979  27.127  26.741  1.00  0.00     0.037 A 
ATOM     58  C   UNL A   1      41.398  28.342  28.814  1.00  0.00     0.037 A 
ATOM     59  C   UNL A   1      47.700  28.488  27.112  1.00  0.00     0.049 A 
ATOM     60  C   UNL A   1      42.447  29.422  28.821  1.00  0.00     0.074 A 
ATOM     61  C   UNL A   1      48.548  29.581  27.086  1.00  0.00     0.029 A 
ATOM     62  N   UNL A   1      46.475  28.944  27.581  1.00  0.00    -0.354 N 
ATOM     63  N   UNL A   1      43.698  29.364  28.434  1.00  0.00    -0.248 NA
ATOM     64  C   UNL A   1      42.036  30.741  29.324  1.00  0.00     0.031 C 
ATOM     65  C   UNL A   1      47.854  30.686  27.590  1.00  0.00     0.029 A 
ATOM     66  C   UNL A   1      46.555  30.296  27.874  1.00  0.00     0.049 A 
ATOM     67  H   UNL A   1      45.671  28.387  27.691  1.00  0.00     0.167 HD
ATOM     68  C   UNL A   1      44.213  30.641  28.616  1.00  0.00     0.074 A 
ATOM     69  C   UNL A   1      43.135  31.456  29.134  1.00  0.00     0.031 C 
ATOM     70  C   UNL A   1      45.467  31.096  28.377  1.00  0.00     0.037 A 
BRANCH  57  71
ATOM     71  C   UNL A   1      49.376  26.778  26.311  1.00  0.00     0.064 A 
ATOM     72  C   UNL A   1      49.788  26.902  24.975  1.00  0.00     0.173 A 
ATOM     73  C   UNL A   1      50.326  26.349  27.251  1.00  0.00     0.173 A 
ATOM     74  F   UNL A   1      48.918  27.298  24.034  1.00  0.00    -0.203 F 
ATOM     75  C   UNL A   1      51.087  26.577  24.590  1.00  0.00     0.198 A 
ATOM     76  C   UNL A   1      51.633  26.058  26.869  1.00  0.00     0.198 A 
ATOM     77  F   UNL A   1      49.989  26.219  28.543  1.00  0.00    -0.203 F 
ATOM     78  F   UNL A   1      51.439  26.651  23.299  1.00  0.00    -0.200 F 
ATOM     79  C   UNL A   1      52.010  26.163  25.538  1.00  0.00     0.200 A 
ATOM     80  F   UNL A   1      52.528  25.672  27.788  1.00  0.00    -0.200 F 
ATOM     81  F   UNL A   1      53.261  25.859  25.169  1.00  0.00    -0.200 F 
ENDBRANCH  57  71
BRANCH  58  82
ATOM     82  C   UNL A   1      40.015  28.624  29.280  1.00  0.00     0.064 A 
ATOM     83  C   UNL A   1      39.636  28.372  30.606  1.00  0.00     0.173 A 
ATOM     84  C   UNL A   1      39.038  29.134  28.412  1.00  0.00     0.173 A 
ATOM     85  F   UNL A   1      40.527  27.865  31.472  1.00  0.00    -0.203 F 
ATOM     86  C   UNL A   1      38.330  28.594  31.040  1.00  0.00     0.198 A 
ATOM     87  C   UNL A   1      37.740  29.386  28.853  1.00  0.00     0.198 A 
ATOM     88  F   UNL A   1      39.347  29.397  27.134  1.00  0.00    -0.203 F 
ATOM     89  F   UNL A   1      37.984  28.294  32.299  1.00  0.00    -0.200 F 
ATOM     90  C   UNL A   1      37.385  29.106  30.164  1.00  0.00     0.200 A 
ATOM     91  F   UNL A   1      36.835  29.896  28.008  1.00  0.00    -0.200 F 
ATOM     92  F   UNL A   1      36.130  29.323  30.582  1.00  0.00    -0.200 F 
ENDBRANCH  58  82
BRANCH  70  93
ATOM     93  C   UNL A   1      45.735  32.552  28.633  1.00  0.00     0.064 A 
ATOM     94  C   UNL A   1      46.230  33.006  29.864  1.00  0.00     0.173 A 
ATOM     95  C   UNL A   1      45.542  33.497  27.613  1.00  0.00     0.173 A 
ATOM     96  F   UNL A   1      46.417  32.145  30.876  1.00  0.00    -0.203 F 
ATOM     97  C   UNL A   1      46.499  34.357  30.072  1.00  0.00     0.198 A 
ATOM     98  C   UNL A   1      45.842  34.840  27.814  1.00  0.00     0.198 A 
ATOM     99  F   UNL A   1      45.077  33.114  26.414  1.00  0.00    -0.203 F 
ATOM    100  F   UNL A   1      46.925  34.775  31.271  1.00  0.00    -0.200 F 
ATOM    101  C   UNL A   1      46.314  35.271  29.045  1.00  0.00     0.200 A 
ATOM    102  F   UNL A   1      45.679  35.719  26.816  1.00  0.00    -0.200 F 
ATOM    103  F   UNL A   1      46.584  36.568  29.244  1.00  0.00    -0.200 F 
ENDBRANCH  70  93
ENDBRANCH  44  45
ENDBRANCH  36  39
ENDBRANCH  34  35
ENDBRANCH  33  34
ENDBRANCH   1  33
TORSDOF 14
ENDMDL
MODEL 2
REMARK VINA RESULT:     -13.1      5.539     10.137
REMARK SMILES CS(=O)(=O)Nc1ccc(-c2cc(Cl)cc3c2O[C@H](C(F)(F)F)C(C(=O)NCCCNC(=O)c2ccc(-c4c5nc(c(-c6c(F)c(F)c(F)c(F)c6F)c6ccc([nH]6)c(-c6c(F)c(F)c(F)c(F)c6F)c6nc(c(-c7c(F)c(F)c(F)c(F)c7F)c7ccc4[nH]7)C=C6)C=C5)cc2)=C3)cc1
REMARK SMILES IDX 27 1 26 2 24 3 25 4 23 6 10 7 11 8 16 9 12 10 15 11 17 12
REMARK SMILES IDX 13 13 14 14 96 15 18 16 9 17 6 18 7 19 98 20 8 21 97 22 5 23
REMARK SMILES IDX 2 25 1 26 3 27 4 28 19 29 20 30 21 31 22 32 28 33 29 34
REMARK SMILES IDX 30 35 31 36 32 38 33 39 34 40 95 41 35 42 94 43 36 44 37 45
REMARK SMILES IDX 38 46 88 47 39 48 93 49 87 50 89 51 40 52 92 53 86 54 85 55
REMARK SMILES IDX 41 57 73 58 53 59 72 60 54 61 57 62 71 63 90 64 55 65 56 66
REMARK SMILES IDX 70 68 91 69 58 70 42 71 43 72 51 73 44 74 45 75 49 76 52 77
REMARK SMILES IDX 46 78 47 79 50 80 48 81 74 82 75 83 83 84 76 85 77 86 81 87
REMARK SMILES IDX 84 88 78 89 79 90 82 91 80 92 59 93 60 94 68 95 61 96 62 97
REMARK SMILES IDX 66 98 69 99 63 100 64 101 67 102 65 103
REMARK H PARENT 26 5 5 24 30 37 89 56 57 67
REMARK Flexibility Score: inf
ROOT
ATOM      1  C   UNL A   1      31.848  30.118  25.637  1.00  0.00     0.118 C 
ENDROOT
BRANCH   1   2
ATOM      2  N   UNL A   1      32.753  29.052  26.016  1.00  0.00    -0.352 N 
ATOM      3  C   UNL A   1      32.563  27.725  25.812  1.00  0.00     0.251 C 
ATOM      4  O   UNL A   1      32.847  26.926  26.696  1.00  0.00    -0.270 OA
ATOM      5  H   UNL A   1      33.587  29.318  26.466  1.00  0.00     0.163 HD
BRANCH   3   6
ATOM      6  C   UNL A   1      32.159  27.307  24.439  1.00  0.00     0.067 C 
ATOM      7  C   UNL A   1      32.923  23.315  24.640  1.00  0.00     0.026 A 
ATOM      8  C   UNL A   1      34.187  23.171  25.274  1.00  0.00     0.033 A 
ATOM      9  C   UNL A   1      32.591  24.611  24.214  1.00  0.00     0.135 A 
ATOM     10  C   UNL A   1      35.128  24.196  25.321  1.00  0.00     0.042 A 
ATOM     11  C   UNL A   1      33.603  25.602  24.158  1.00  0.00     0.019 A 
ATOM     12  O   UNL A   1      31.298  24.997  23.888  1.00  0.00    -0.475 OA
ATOM     13  Cl  UNL A   1      36.624  23.947  26.128  1.00  0.00    -0.084 Cl
ATOM     14  C   UNL A   1      34.871  25.398  24.695  1.00  0.00     0.032 A 
ATOM     15  C   UNL A   1      33.221  26.953  23.689  1.00  0.00     0.025 C 
ATOM     16  C   UNL A   1      30.959  26.372  24.367  1.00  0.00     0.314 C 
BRANCH   7  17
ATOM     17  C   UNL A   1      32.241  22.033  24.307  1.00  0.00    -0.014 A 
ATOM     18  C   UNL A   1      32.270  19.285  23.573  1.00  0.00     0.048 A 
ATOM     19  C   UNL A   1      32.178  19.663  24.914  1.00  0.00     0.027 A 
ATOM     20  C   UNL A   1      32.154  20.272  22.599  1.00  0.00     0.027 A 
ATOM     21  C   UNL A   1      32.131  21.018  25.276  1.00  0.00     0.011 A 
ATOM     22  C   UNL A   1      32.135  21.635  22.962  1.00  0.00     0.011 A 
BRANCH  18  23
ATOM     23  N   UNL A   1      32.622  17.928  23.321  1.00  0.00    -0.284 N 
ATOM     24  H   UNL A   1      31.984  17.406  22.784  1.00  0.00     0.180 HD
BRANCH  23  25
ATOM     25  S   UNL A   1      33.984  17.122  23.827  1.00  0.00     0.229 S 
ATOM     26  C   UNL A   1      33.428  16.137  25.208  1.00  0.00     0.183 C 
ATOM     27  O   UNL A   1      34.966  18.076  24.295  1.00  0.00    -0.207 OA
ATOM     28  O   UNL A   1      34.294  16.204  22.751  1.00  0.00    -0.207 OA
ENDBRANCH  23  25
ENDBRANCH  18  23
ENDBRANCH   7  17
BRANCH  16  29
ATOM     29  C   UNL A   1      29.881  27.042  23.486  1.00  0.00     0.429 C 
ATOM     30  F   UNL A   1      29.601  28.307  23.869  1.00  0.00    -0.167 F 
ATOM     31  F   UNL A   1      30.267  27.080  22.188  1.00  0.00    -0.167 F 
ATOM     32  F   UNL A   1      28.700  26.366  23.506  1.00  0.00    -0.167 F 
ENDBRANCH  16  29
ENDBRANCH   3   6
ENDBRANCH   1   2
BRANCH   1  33
ATOM     33  C   UNL A   1      31.700  31.117  26.786  1.00  0.00     0.042 C 
BRANCH  33  34
ATOM     34  C   UNL A   1      32.916  32.014  27.012  1.00  0.00     0.118 C 
BRANCH  34  35
ATOM     35  N   UNL A   1      32.566  33.403  27.267  1.00  0.00    -0.352 N 
ATOM     36  C   UNL A   1      33.074  34.266  28.209  1.00  0.00     0.251 C 
ATOM     37  H   UNL A   1      31.867  33.778  26.684  1.00  0.00     0.163 HD
ATOM     38  O   UNL A   1      32.561  35.366  28.381  1.00  0.00    -0.269 OA
BRANCH  36  39
ATOM     39  C   UNL A   1      34.223  33.847  29.038  1.00  0.00     0.039 A 
ATOM     40  C   UNL A   1      34.023  32.892  30.036  1.00  0.00     0.014 A 
ATOM     41  C   UNL A   1      35.497  34.373  28.810  1.00  0.00     0.014 A 
ATOM     42  C   UNL A   1      35.117  32.402  30.752  1.00  0.00     0.010 A 
ATOM     43  C   UNL A   1      36.596  33.825  29.465  1.00  0.00     0.010 A 
ATOM     44  C   UNL A   1      36.419  32.830  30.440  1.00  0.00    -0.014 A 
BRANCH  44  45
ATOM     45  C   UNL A   1      37.608  32.247  31.112  1.00  0.00     0.031 A 
ATOM     46  C   UNL A   1      38.385  31.144  30.446  1.00  0.00     0.074 A 
ATOM     47  C   UNL A   1      37.944  32.655  32.352  1.00  0.00     0.049 A 
ATOM     48  N   UNL A   1      39.388  30.441  30.907  1.00  0.00    -0.248 NA
ATOM     49  C   UNL A   1      37.956  30.760  29.092  1.00  0.00     0.031 C 
ATOM     50  C   UNL A   1      37.244  33.685  33.122  1.00  0.00     0.029 A 
ATOM     51  N   UNL A   1      38.951  32.244  33.189  1.00  0.00    -0.354 N 
ATOM     52  C   UNL A   1      39.700  29.528  29.909  1.00  0.00     0.074 A 
ATOM     53  C   UNL A   1      38.741  29.722  28.843  1.00  0.00     0.031 C 
ATOM     54  C   UNL A   1      37.857  33.843  34.305  1.00  0.00     0.029 A 
ATOM     55  C   UNL A   1      38.963  32.895  34.399  1.00  0.00     0.049 A 
ATOM     56  H   UNL A   1      39.604  31.550  32.945  1.00  0.00     0.167 HD
ATOM     57  C   UNL A   1      40.709  28.626  29.873  1.00  0.00     0.037 A 
ATOM     58  C   UNL A   1      39.766  32.736  35.469  1.00  0.00     0.037 A 
ATOM     59  C   UNL A   1      41.674  28.451  30.926  1.00  0.00     0.049 A 
ATOM     60  C   UNL A   1      40.865  31.707  35.413  1.00  0.00     0.074 A 
ATOM     61  C   UNL A   1      42.767  27.603  30.964  1.00  0.00     0.029 A 
ATOM     62  N   UNL A   1      41.658  29.135  32.134  1.00  0.00    -0.354 N 
ATOM     63  N   UNL A   1      41.191  30.896  34.436  1.00  0.00    -0.248 NA
ATOM     64  C   UNL A   1      41.709  31.574  36.609  1.00  0.00     0.031 C 
ATOM     65  C   UNL A   1      43.381  27.735  32.213  1.00  0.00     0.029 A 
ATOM     66  C   UNL A   1      42.707  28.709  32.932  1.00  0.00     0.049 A 
ATOM     67  H   UNL A   1      40.999  29.822  32.385  1.00  0.00     0.167 HD
ATOM     68  C   UNL A   1      42.293  30.181  34.885  1.00  0.00     0.074 A 
ATOM     69  C   UNL A   1      42.591  30.666  36.217  1.00  0.00     0.031 C 
ATOM     70  C   UNL A   1      42.997  29.211  34.252  1.00  0.00     0.037 A 
BRANCH  57  71
ATOM     71  C   UNL A   1      40.826  27.761  28.650  1.00  0.00     0.064 A 
ATOM     72  C   UNL A   1      40.096  26.569  28.520  1.00  0.00     0.173 A 
ATOM     73  C   UNL A   1      41.647  28.146  27.579  1.00  0.00     0.173 A 
ATOM     74  F   UNL A   1      39.305  26.149  29.518  1.00  0.00    -0.203 F 
ATOM     75  C   UNL A   1      40.212  25.777  27.380  1.00  0.00     0.198 A 
ATOM     76  C   UNL A   1      41.733  27.369  26.426  1.00  0.00     0.198 A 
ATOM     77  F   UNL A   1      42.361  29.279  27.647  1.00  0.00    -0.203 F 
ATOM     78  F   UNL A   1      39.548  24.615  27.304  1.00  0.00    -0.200 F 
ATOM     79  C   UNL A   1      41.024  26.181  26.332  1.00  0.00     0.200 A 
ATOM     80  F   UNL A   1      42.507  27.769  25.408  1.00  0.00    -0.200 F 
ATOM     81  F   UNL A   1      41.128  25.423  25.231  1.00  0.00    -0.200 F 
ENDBRANCH  57  71
BRANCH  58  82
ATOM     82  C   UNL A   1      39.577  33.579  36.678  1.00  0.00     0.064 A 
ATOM     83  C   UNL A   1      40.210  34.826  36.792  1.00  0.00     0.173 A 
ATOM     84  C   UNL A   1      38.778  33.156  37.750  1.00  0.00     0.173 A 
ATOM     85  F   UNL A   1      41.001  35.268  35.804  1.00  0.00    -0.203 F 
ATOM     86  C   UNL A   1      40.071  35.604  37.940  1.00  0.00     0.198 A 
ATOM     87  C   UNL A   1      38.614  33.948  38.885  1.00  0.00     0.198 A 
ATOM     88  F   UNL A   1      38.147  31.974  37.692  1.00  0.00    -0.203 F 
ATOM     89  F   UNL A   1      40.729  36.766  38.043  1.00  0.00    -0.200 F 
ATOM     90  C   UNL A   1      39.269  35.167  38.984  1.00  0.00     0.200 A 
ATOM     91  F   UNL A   1      37.826  33.529  39.884  1.00  0.00    -0.200 F 
ATOM     92  F   UNL A   1      39.133  35.916  40.086  1.00  0.00    -0.200 F 
ENDBRANCH  58  82
BRANCH  70  93
ATOM     93  C   UNL A   1      44.181  28.633  34.971  1.00  0.00     0.064 A 
ATOM     94  C   UNL A   1      44.059  27.532  35.830  1.00  0.00     0.173 A 
ATOM     95  C   UNL A   1      45.465  29.160  34.757  1.00  0.00     0.173 A 
ATOM     96  F   UNL A   1      42.852  27.002  36.081  1.00  0.00    -0.203 F 
ATOM     97  C   UNL A   1      45.175  26.993  36.467  1.00  0.00     0.198 A 
ATOM     98  C   UNL A   1      46.582  28.599  35.368  1.00  0.00     0.198 A 
ATOM     99  F   UNL A   1      45.638  30.209  33.939  1.00  0.00    -0.203 F 
ATOM    100  F   UNL A   1      45.028  25.971  37.320  1.00  0.00    -0.200 F 
ATOM    101  C   UNL A   1      46.436  27.521  36.228  1.00  0.00     0.200 A 
ATOM    102  F   UNL A   1      47.801  29.099  35.123  1.00  0.00    -0.200 F 
ATOM    103  F   UNL A   1      47.509  26.993  36.832  1.00  0.00    -0.200 F 
ENDBRANCH  70  93
ENDBRANCH  44  45
ENDBRANCH  36  39
ENDBRANCH  34  35
ENDBRANCH  33  34
ENDBRANCH   1  33
TORSDOF 14
ENDMDL
MODEL 3
REMARK VINA RESULT:     -13.1      0.678      7.179
REMARK SMILES CS(=O)(=O)Nc1ccc(-c2cc(Cl)cc3c2O[C@H](C(F)(F)F)C(C(=O)NCCCNC(=O)c2ccc(-c4c5nc(c(-c6c(F)c(F)c(F)c(F)c6F)c6ccc([nH]6)c(-c6c(F)c(F)c(F)c(F)c6F)c6nc(c(-c7c(F)c(F)c(F)c(F)c7F)c7ccc4[nH]7)C=C6)C=C5)cc2)=C3)cc1
REMARK SMILES IDX 27 1 26 2 24 3 25 4 23 6 10 7 11 8 16 9 12 10 15 11 17 12
REMARK SMILES IDX 13 13 14 14 96 15 18 16 9 17 6 18 7 19 98 20 8 21 97 22 5 23
REMARK SMILES IDX 2 25 1 26 3 27 4 28 19 29 20 30 21 31 22 32 28 33 29 34
REMARK SMILES IDX 30 35 31 36 32 38 33 39 34 40 95 41 35 42 94 43 36 44 37 45
REMARK SMILES IDX 38 46 88 47 39 48 93 49 87 50 89 51 40 52 92 53 86 54 85 55
REMARK SMILES IDX 41 57 73 58 53 59 72 60 54 61 57 62 71 63 90 64 55 65 56 66
REMARK SMILES IDX 70 68 91 69 58 70 42 71 43 72 51 73 44 74 45 75 49 76 52 77
REMARK SMILES IDX 46 78 47 79 50 80 48 81 74 82 75 83 83 84 76 85 77 86 81 87
REMARK SMILES IDX 84 88 78 89 79 90 82 91 80 92 59 93 60 94 68 95 61 96 62 97
REMARK SMILES IDX 66 98 69 99 63 100 64 101 67 102 65 103
REMARK H PARENT 26 5 5 24 30 37 89 56 57 67
REMARK Flexibility Score: inf
ROOT
ATOM      1  C   UNL A   1      37.334  19.380  24.549  1.00  0.00     0.118 C 
ENDROOT
BRANCH   1   2
ATOM      2  N   UNL A   1      36.119  20.029  25.001  1.00  0.00    -0.352 N 
ATOM      3  C   UNL A   1      36.040  21.177  25.718  1.00  0.00     0.251 C 
ATOM      4  O   UNL A   1      35.242  21.265  26.643  1.00  0.00    -0.270 OA
ATOM      5  H   UNL A   1      35.269  19.593  24.764  1.00  0.00     0.163 HD
BRANCH   3   6
ATOM      6  C   UNL A   1      36.838  22.336  25.223  1.00  0.00     0.067 C 
ATOM      7  C   UNL A   1      33.858  25.005  24.478  1.00  0.00     0.026 A 
ATOM      8  C   UNL A   1      32.824  24.291  23.812  1.00  0.00     0.033 A 
ATOM      9  C   UNL A   1      35.095  24.349  24.578  1.00  0.00     0.135 A 
ATOM     10  C   UNL A   1      33.050  23.094  23.139  1.00  0.00     0.042 A 
ATOM     11  C   UNL A   1      35.336  23.199  23.784  1.00  0.00     0.019 A 
ATOM     12  O   UNL A   1      36.093  24.737  25.461  1.00  0.00    -0.475 OA
ATOM     13  Cl  UNL A   1      31.740  22.281  22.378  1.00  0.00    -0.084 Cl
ATOM     14  C   UNL A   1      34.326  22.577  23.056  1.00  0.00     0.032 A 
ATOM     15  C   UNL A   1      36.657  22.542  23.903  1.00  0.00     0.025 C 
ATOM     16  C   UNL A   1      36.795  23.581  26.098  1.00  0.00     0.314 C 
BRANCH   7  17
ATOM     17  C   UNL A   1      33.548  26.435  24.760  1.00  0.00    -0.014 A 
ATOM     18  C   UNL A   1      31.952  28.770  24.457  1.00  0.00     0.048 A 
ATOM     19  C   UNL A   1      31.753  27.906  25.536  1.00  0.00     0.027 A 
ATOM     20  C   UNL A   1      33.066  28.568  23.647  1.00  0.00     0.027 A 
ATOM     21  C   UNL A   1      32.560  26.771  25.705  1.00  0.00     0.011 A 
ATOM     22  C   UNL A   1      33.860  27.412  23.798  1.00  0.00     0.011 A 
BRANCH  18  23
ATOM     23  N   UNL A   1      30.909  29.704  24.192  1.00  0.00    -0.284 N 
ATOM     24  H   UNL A   1      30.886  30.502  24.767  1.00  0.00     0.180 HD
BRANCH  23  25
ATOM     25  S   UNL A   1      29.728  29.602  23.029  1.00  0.00     0.229 S 
ATOM     26  C   UNL A   1      29.048  27.964  23.232  1.00  0.00     0.183 C 
ATOM     27  O   UNL A   1      30.329  29.703  21.717  1.00  0.00    -0.207 OA
ATOM     28  O   UNL A   1      28.707  30.537  23.453  1.00  0.00    -0.207 OA
ENDBRANCH  23  25
ENDBRANCH  18  23
ENDBRANCH   7  17
BRANCH  16  29
ATOM     29  C   UNL A   1      38.244  23.935  26.501  1.00  0.00     0.429 C 
ATOM     30  F   UNL A   1      38.819  24.828  25.665  1.00  0.00    -0.167 F 
ATOM     31  F   UNL A   1      38.290  24.452  27.752  1.00  0.00    -0.167 F 
ATOM     32  F   UNL A   1      39.059  22.845  26.515  1.00  0.00    -0.167 F 
ENDBRANCH  16  29
ENDBRANCH   3   6
ENDBRANCH   1   2
BRANCH   1  33
ATOM     33  C   UNL A   1      38.226  19.041  25.745  1.00  0.00     0.042 C 
BRANCH  33  34
ATOM     34  C   UNL A   1      39.520  19.850  25.824  1.00  0.00     0.118 C 
BRANCH  34  35
ATOM     35  N   UNL A   1      40.692  19.033  26.097  1.00  0.00    -0.352 N 
ATOM     36  C   UNL A   1      41.966  19.427  26.431  1.00  0.00     0.251 C 
ATOM     37  H   UNL A   1      40.555  18.060  26.033  1.00  0.00     0.163 HD
ATOM     38  O   UNL A   1      42.875  18.606  26.485  1.00  0.00    -0.269 OA
BRANCH  36  39
ATOM     39  C   UNL A   1      42.243  20.855  26.690  1.00  0.00     0.039 A 
ATOM     40  C   UNL A   1      42.481  21.270  28.001  1.00  0.00     0.014 A 
ATOM     41  C   UNL A   1      42.297  21.774  25.638  1.00  0.00     0.014 A 
ATOM     42  C   UNL A   1      42.856  22.592  28.250  1.00  0.00     0.010 A 
ATOM     43  C   UNL A   1      42.752  23.067  25.877  1.00  0.00     0.010 A 
ATOM     44  C   UNL A   1      43.040  23.490  27.184  1.00  0.00    -0.014 A 
BRANCH  44  45
ATOM     45  C   UNL A   1      43.541  24.870  27.412  1.00  0.00     0.031 A 
ATOM     46  C   UNL A   1      42.609  25.935  27.920  1.00  0.00     0.074 A 
ATOM     47  C   UNL A   1      44.812  25.182  27.090  1.00  0.00     0.049 A 
ATOM     48  N   UNL A   1      42.827  27.214  28.092  1.00  0.00    -0.248 NA
ATOM     49  C   UNL A   1      41.240  25.512  28.251  1.00  0.00     0.031 C 
ATOM     50  C   UNL A   1      45.801  24.249  26.548  1.00  0.00     0.029 A 
ATOM     51  N   UNL A   1      45.488  26.375  27.161  1.00  0.00    -0.354 N 
ATOM     52  C   UNL A   1      41.624  27.747  28.536  1.00  0.00     0.074 A 
ATOM     53  C   UNL A   1      40.662  26.666  28.548  1.00  0.00     0.031 C 
ATOM     54  C   UNL A   1      46.961  24.897  26.359  1.00  0.00     0.029 A 
ATOM     55  C   UNL A   1      46.787  26.301  26.721  1.00  0.00     0.049 A 
ATOM     56  H   UNL A   1      45.080  27.206  27.496  1.00  0.00     0.167 HD
ATOM     57  C   UNL A   1      41.353  29.015  28.923  1.00  0.00     0.037 A 
ATOM     58  C   UNL A   1      47.728  27.258  26.609  1.00  0.00     0.037 A 
ATOM     59  C   UNL A   1      42.317  30.082  28.930  1.00  0.00     0.049 A 
ATOM     60  C   UNL A   1      47.391  28.667  27.021  1.00  0.00     0.074 A 
ATOM     61  C   UNL A   1      42.157  31.389  29.355  1.00  0.00     0.029 A 
ATOM     62  N   UNL A   1      43.627  29.966  28.485  1.00  0.00    -0.354 N 
ATOM     63  N   UNL A   1      46.269  29.143  27.504  1.00  0.00    -0.248 NA
ATOM     64  C   UNL A   1      48.455  29.672  26.876  1.00  0.00     0.031 C 
ATOM     65  C   UNL A   1      43.351  32.077  29.118  1.00  0.00     0.029 A 
ATOM     66  C   UNL A   1      44.276  31.184  28.601  1.00  0.00     0.049 A 
ATOM     67  H   UNL A   1      44.034  29.139  28.138  1.00  0.00     0.167 HD
ATOM     68  C   UNL A   1      46.500  30.490  27.748  1.00  0.00     0.074 A 
ATOM     69  C   UNL A   1      47.874  30.752  27.376  1.00  0.00     0.031 C 
ATOM     70  C   UNL A   1      45.650  31.426  28.237  1.00  0.00     0.037 A 
BRANCH  57  71
ATOM     71  C   UNL A   1      39.953  29.318  29.378  1.00  0.00     0.064 A 
ATOM     72  C   UNL A   1      39.601  29.302  30.737  1.00  0.00     0.173 A 
ATOM     73  C   UNL A   1      38.960  29.665  28.450  1.00  0.00     0.173 A 
ATOM     74  F   UNL A   1      40.509  28.967  31.666  1.00  0.00    -0.203 F 
ATOM     75  C   UNL A   1      38.300  29.586  31.145  1.00  0.00     0.198 A 
ATOM     76  C   UNL A   1      37.669  29.983  28.864  1.00  0.00     0.198 A 
ATOM     77  F   UNL A   1      39.242  29.703  27.139  1.00  0.00    -0.203 F 
ATOM     78  F   UNL A   1      37.976  29.509  32.444  1.00  0.00    -0.200 F 
ATOM     79  C   UNL A   1      37.338  29.934  30.210  1.00  0.00     0.200 A 
ATOM     80  F   UNL A   1      36.744  30.333  27.961  1.00  0.00    -0.200 F 
ATOM     81  F   UNL A   1      36.088  30.216  30.605  1.00  0.00    -0.200 F 
ENDBRANCH  57  71
BRANCH  58  82
ATOM     82  C   UNL A   1      49.084  26.919  26.102  1.00  0.00     0.064 A 
ATOM     83  C   UNL A   1      49.399  27.058  24.743  1.00  0.00     0.173 A 
ATOM     84  C   UNL A   1      50.087  26.435  26.956  1.00  0.00     0.173 A 
ATOM     85  F   UNL A   1      48.470  27.497  23.881  1.00  0.00    -0.203 F 
ATOM     86  C   UNL A   1      50.655  26.703  24.253  1.00  0.00     0.198 A 
ATOM     87  C   UNL A   1      51.352  26.110  26.471  1.00  0.00     0.198 A 
ATOM     88  F   UNL A   1      49.840  26.287  28.265  1.00  0.00    -0.203 F 
ATOM     89  F   UNL A   1      50.911  26.796  22.941  1.00  0.00    -0.200 F 
ATOM     90  C   UNL A   1      51.632  26.234  25.118  1.00  0.00     0.200 A 
ATOM     91  F   UNL A   1      52.298  25.673  27.313  1.00  0.00    -0.200 F 
ATOM     92  F   UNL A   1      52.839  25.895  24.648  1.00  0.00    -0.200 F 
ENDBRANCH  58  82
BRANCH  70  93
ATOM     93  C   UNL A   1      46.189  32.813  28.437  1.00  0.00     0.064 A 
ATOM     94  C   UNL A   1      46.095  33.792  27.438  1.00  0.00     0.173 A 
ATOM     95  C   UNL A   1      46.760  33.180  29.666  1.00  0.00     0.173 A 
ATOM     96  F   UNL A   1      45.572  33.489  26.241  1.00  0.00    -0.203 F 
ATOM     97  C   UNL A   1      46.577  35.082  27.654  1.00  0.00     0.198 A 
ATOM     98  C   UNL A   1      47.210  34.478  29.889  1.00  0.00     0.198 A 
ATOM     99  F   UNL A   1      46.867  32.282  30.658  1.00  0.00    -0.203 F 
ATOM    100  F   UNL A   1      46.520  35.988  26.668  1.00  0.00    -0.200 F 
ATOM    101  C   UNL A   1      47.124  35.426  28.881  1.00  0.00     0.200 A 
ATOM    102  F   UNL A   1      47.723  34.812  31.081  1.00  0.00    -0.200 F 
ATOM    103  F   UNL A   1      47.575  36.670  29.089  1.00  0.00    -0.200 F 
ENDBRANCH  70  93
ENDBRANCH  44  45
ENDBRANCH  36  39
ENDBRANCH  34  35
ENDBRANCH  33  34
ENDBRANCH   1  33
TORSDOF 14
ENDMDL
