MODEL 1
REMARK VINA RESULT:     -13.9      0.000      0.000
REMARK SMILES O=C(NCCCNC(=O)[C@@H](Cc1ccccc1)N1C(=O)/C(=C/c2ccc3ncccc3c2)SC1=S)c1ccc(-c2c3nc(c(-c4c(F)c(F)c(F)c(F)c4F)c4ccc([nH]4)c(-c4c(F)c(F)c(F)c(F)c4F)c4nc(c(-c5c(F)c(F)c(F)c(F)c5F)c5ccc2[nH]5)C=C4)C=C3)cc1
REMARK SMILES IDX 5 1 4 2 3 3 1 4 2 5 36 7 37 8 98 9 38 10 97 11 39 12 40 13
REMARK SMILES IDX 41 14 91 15 42 16 96 17 90 18 92 19 43 20 95 21 89 22 88 23
REMARK SMILES IDX 44 25 76 26 56 27 75 28 57 29 60 30 74 31 93 32 58 33 59 34
REMARK SMILES IDX 73 36 94 37 61 38 45 39 46 40 54 41 47 42 48 43 52 44 55 45
REMARK SMILES IDX 49 46 50 47 53 48 51 49 77 50 78 51 86 52 79 53 80 54 84 55
REMARK SMILES IDX 87 56 81 57 82 58 85 59 83 60 62 61 63 62 71 63 64 64 65 65
REMARK SMILES IDX 69 66 72 67 66 68 67 69 70 70 68 71 6 72 7 73 8 74 9 76
REMARK SMILES IDX 10 77 11 78 12 79 13 80 17 81 14 82 16 83 15 84 18 85 19 86
REMARK SMILES IDX 34 87 20 88 21 89 33 90 35 91 22 92 23 93 24 94 32 95 25 96
REMARK SMILES IDX 31 97 26 98 30 99 27 100 29 101 28 102
REMARK H PARENT 3 6 92 24 60 35 7 75
REMARK Flexibility Score: inf
ROOT
ATOM      1  C   UNL A   1      37.939  19.621  24.997  1.00  0.00     0.042 C 
ENDROOT
BRANCH   1   2
ATOM      2  C   UNL A   1      39.106  20.185  25.793  1.00  0.00     0.118 C 
BRANCH   2   3
ATOM      3  N   UNL A   1      40.235  19.259  25.839  1.00  0.00    -0.352 N 
ATOM      4  O   UNL A   1      42.330  18.485  25.763  1.00  0.00    -0.269 OA
ATOM      5  C   UNL A   1      41.588  19.435  26.009  1.00  0.00     0.251 C 
ATOM      6  H   UNL A   1      39.974  18.317  25.724  1.00  0.00     0.163 HD
BRANCH   5   7
ATOM      7  C   UNL A   1      42.191  20.714  26.465  1.00  0.00     0.039 A 
ATOM      8  C   UNL A   1      42.576  21.714  25.578  1.00  0.00     0.014 A 
ATOM      9  C   UNL A   1      42.272  20.976  27.842  1.00  0.00     0.014 A 
ATOM     10  C   UNL A   1      43.162  22.888  26.039  1.00  0.00     0.010 A 
ATOM     11  C   UNL A   1      42.731  22.218  28.311  1.00  0.00     0.010 A 
ATOM     12  C   UNL A   1      43.191  23.184  27.407  1.00  0.00    -0.014 A 
BRANCH  12  13
ATOM     13  C   UNL A   1      43.591  24.557  27.817  1.00  0.00     0.031 A 
ATOM     14  C   UNL A   1      45.023  25.003  27.782  1.00  0.00     0.074 A 
ATOM     15  C   UNL A   1      42.618  25.429  28.160  1.00  0.00     0.049 A 
ATOM     16  N   UNL A   1      45.518  26.189  28.037  1.00  0.00    -0.248 NA
ATOM     17  C   UNL A   1      46.033  23.996  27.428  1.00  0.00     0.031 C 
ATOM     18  C   UNL A   1      41.193  25.099  28.261  1.00  0.00     0.029 A 
ATOM     19  N   UNL A   1      42.663  26.769  28.443  1.00  0.00    -0.354 N 
ATOM     20  C   UNL A   1      46.895  26.064  27.902  1.00  0.00     0.074 A 
ATOM     21  C   UNL A   1      47.160  24.684  27.556  1.00  0.00     0.031 C 
ATOM     22  C   UNL A   1      40.493  26.217  28.493  1.00  0.00     0.029 A 
ATOM     23  C   UNL A   1      41.422  27.331  28.640  1.00  0.00     0.049 A 
ATOM     24  H   UNL A   1      43.501  27.282  28.500  1.00  0.00     0.167 HD
ATOM     25  C   UNL A   1      47.843  27.020  28.050  1.00  0.00     0.037 A 
ATOM     26  C   UNL A   1      41.066  28.598  28.920  1.00  0.00     0.037 A 
ATOM     27  C   UNL A   1      47.569  28.399  28.364  1.00  0.00     0.049 A 
ATOM     28  C   UNL A   1      42.142  29.634  29.060  1.00  0.00     0.074 A 
ATOM     29  C   UNL A   1      48.462  29.448  28.499  1.00  0.00     0.029 A 
ATOM     30  N   UNL A   1      46.303  28.922  28.589  1.00  0.00    -0.354 N 
ATOM     31  N   UNL A   1      43.438  29.504  28.905  1.00  0.00    -0.248 NA
ATOM     32  C   UNL A   1      41.712  30.989  29.428  1.00  0.00     0.031 C 
ATOM     33  C   UNL A   1      47.742  30.596  28.841  1.00  0.00     0.029 A 
ATOM     34  C   UNL A   1      46.396  30.274  28.879  1.00  0.00     0.049 A 
ATOM     35  H   UNL A   1      45.464  28.408  28.548  1.00  0.00     0.167 HD
ATOM     36  C   UNL A   1      43.977  30.756  29.155  1.00  0.00     0.074 A 
ATOM     37  C   UNL A   1      42.866  31.641  29.440  1.00  0.00     0.031 C 
ATOM     38  C   UNL A   1      45.277  31.136  29.161  1.00  0.00     0.037 A 
BRANCH  25  39
ATOM     39  C   UNL A   1      49.279  26.611  27.893  1.00  0.00     0.064 A 
ATOM     40  C   UNL A   1      49.884  26.516  26.632  1.00  0.00     0.173 A 
ATOM     41  C   UNL A   1      50.076  26.377  29.024  1.00  0.00     0.173 A 
ATOM     42  F   UNL A   1      49.161  26.719  25.519  1.00  0.00    -0.203 F 
ATOM     43  C   UNL A   1      51.232  26.190  26.508  1.00  0.00     0.198 A 
ATOM     44  C   UNL A   1      51.429  26.073  28.898  1.00  0.00     0.198 A 
ATOM     45  F   UNL A   1      49.546  26.459  30.253  1.00  0.00    -0.203 F 
ATOM     46  F   UNL A   1      51.784  26.076  25.291  1.00  0.00    -0.200 F 
ATOM     47  C   UNL A   1      52.005  25.976  27.640  1.00  0.00     0.200 A 
ATOM     48  F   UNL A   1      52.176  25.877  29.992  1.00  0.00    -0.200 F 
ATOM     49  F   UNL A   1      53.305  25.675  27.519  1.00  0.00    -0.200 F 
ENDBRANCH  25  39
BRANCH  26  50
ATOM     50  C   UNL A   1      39.634  28.946  29.101  1.00  0.00     0.064 A 
ATOM     51  C   UNL A   1      38.845  29.359  28.019  1.00  0.00     0.173 A 
ATOM     52  C   UNL A   1      39.019  28.863  30.360  1.00  0.00     0.173 A 
ATOM     53  F   UNL A   1      39.389  29.475  26.798  1.00  0.00    -0.203 F 
ATOM     54  C   UNL A   1      37.502  29.689  28.191  1.00  0.00     0.198 A 
ATOM     55  C   UNL A   1      37.669  29.162  30.525  1.00  0.00     0.198 A 
ATOM     56  F   UNL A   1      39.729  28.468  31.428  1.00  0.00    -0.203 F 
ATOM     57  F   UNL A   1      36.780  30.121  27.147  1.00  0.00    -0.200 F 
ATOM     58  C   UNL A   1      36.913  29.581  29.443  1.00  0.00     0.200 A 
ATOM     59  F   UNL A   1      37.102  29.038  31.733  1.00  0.00    -0.200 F 
ATOM     60  F   UNL A   1      35.619  29.889  29.606  1.00  0.00    -0.200 F 
ENDBRANCH  26  50
BRANCH  38  61
ATOM     61  C   UNL A   1      45.559  32.574  29.474  1.00  0.00     0.064 A 
ATOM     62  C   UNL A   1      45.573  33.551  28.469  1.00  0.00     0.173 A 
ATOM     63  C   UNL A   1      45.799  32.981  30.795  1.00  0.00     0.173 A 
ATOM     64  F   UNL A   1      45.367  33.204  27.188  1.00  0.00    -0.203 F 
ATOM     65  C   UNL A   1      45.840  34.883  28.770  1.00  0.00     0.198 A 
ATOM     66  C   UNL A   1      46.042  34.317  31.096  1.00  0.00     0.198 A 
ATOM     67  F   UNL A   1      45.794  32.082  31.791  1.00  0.00    -0.203 F 
ATOM     68  F   UNL A   1      45.895  35.792  27.789  1.00  0.00    -0.200 F 
ATOM     69  C   UNL A   1      46.070  35.265  30.084  1.00  0.00     0.200 A 
ATOM     70  F   UNL A   1      46.255  34.688  32.367  1.00  0.00    -0.200 F 
ATOM     71  F   UNL A   1      46.327  36.548  30.373  1.00  0.00    -0.200 F 
ENDBRANCH  38  61
ENDBRANCH  12  13
ENDBRANCH   5   7
ENDBRANCH   2   3
ENDBRANCH   1   2
BRANCH   1  72
ATOM     72  C   UNL A   1      37.290  20.708  24.162  1.00  0.00     0.117 C 
BRANCH  72  73
ATOM     73  N   UNL A   1      37.045  21.929  24.907  1.00  0.00    -0.354 N 
ATOM     74  C   UNL A   1      35.914  22.350  25.535  1.00  0.00     0.243 C 
ATOM     75  H   UNL A   1      37.811  22.543  24.969  1.00  0.00     0.163 HD
ATOM     76  O   UNL A   1      36.075  23.184  26.437  1.00  0.00    -0.273 OA
BRANCH  74  77
ATOM     77  C   UNL A   1      34.487  21.839  25.214  1.00  0.00     0.185 C 
BRANCH  77  78
ATOM     78  C   UNL A   1      34.139  20.372  25.598  1.00  0.00     0.071 C 
BRANCH  78  79
ATOM     79  C   UNL A   1      33.733  19.344  24.569  1.00  0.00    -0.045 A 
ATOM     80  C   UNL A   1      32.637  19.529  23.718  1.00  0.00     0.004 A 
ATOM     81  C   UNL A   1      34.503  18.178  24.417  1.00  0.00     0.004 A 
ATOM     82  C   UNL A   1      32.257  18.530  22.817  1.00  0.00     0.000 A 
ATOM     83  C   UNL A   1      34.141  17.193  23.495  1.00  0.00     0.000 A 
ATOM     84  C   UNL A   1      33.003  17.359  22.711  1.00  0.00     0.000 A 
ENDBRANCH  78  79
ENDBRANCH  77  78
BRANCH  77  85
ATOM     85  N   UNL A   1      33.366  22.806  25.253  1.00  0.00    -0.280 N 
ATOM     86  C   UNL A   1      32.951  23.456  24.117  1.00  0.00     0.266 C 
ATOM     87  C   UNL A   1      32.704  23.190  26.408  1.00  0.00     0.149 C 
ATOM     88  O   UNL A   1      33.102  23.109  22.954  1.00  0.00    -0.268 OA
ATOM     89  C   UNL A   1      32.180  24.668  24.456  1.00  0.00     0.081 C 
ATOM     90  S   UNL A   1      31.623  24.543  26.063  1.00  0.00    -0.054 SA
ATOM     91  S   UNL A   1      32.858  22.594  27.960  1.00  0.00    -0.052 S 
ATOM     92  C   UNL A   1      32.060  25.650  23.551  1.00  0.00     0.029 C 
BRANCH  92  93
ATOM     93  C   UNL A   1      31.318  26.906  23.673  1.00  0.00    -0.024 A 
ATOM     94  C   UNL A   1      32.000  28.022  24.164  1.00  0.00     0.010 A 
ATOM     95  C   UNL A   1      29.972  27.039  23.329  1.00  0.00     0.018 A 
ATOM     96  C   UNL A   1      31.373  29.268  24.211  1.00  0.00     0.029 A 
ATOM     97  C   UNL A   1      29.355  28.301  23.343  1.00  0.00     0.001 A 
ATOM     98  C   UNL A   1      30.068  29.440  23.774  1.00  0.00     0.070 A 
ATOM     99  C   UNL A   1      28.040  28.475  22.899  1.00  0.00     0.012 A 
ATOM    100  N   UNL A   1      29.534  30.672  23.758  1.00  0.00    -0.256 NA
ATOM    101  C   UNL A   1      27.492  29.751  22.858  1.00  0.00     0.021 A 
ATOM    102  C   UNL A   1      28.274  30.806  23.289  1.00  0.00     0.112 A 
ENDBRANCH  92  93
ENDBRANCH  77  85
ENDBRANCH  74  77
ENDBRANCH  72  73
ENDBRANCH   1  72
TORSDOF 14
ENDMDL
MODEL 2
REMARK VINA RESULT:     -13.5      1.146      2.271
REMARK SMILES O=C(NCCCNC(=O)[C@@H](Cc1ccccc1)N1C(=O)/C(=C/c2ccc3ncccc3c2)SC1=S)c1ccc(-c2c3nc(c(-c4c(F)c(F)c(F)c(F)c4F)c4ccc([nH]4)c(-c4c(F)c(F)c(F)c(F)c4F)c4nc(c(-c5c(F)c(F)c(F)c(F)c5F)c5ccc2[nH]5)C=C4)C=C3)cc1
REMARK SMILES IDX 5 1 4 2 3 3 1 4 2 5 36 7 37 8 98 9 38 10 97 11 39 12 40 13
REMARK SMILES IDX 41 14 91 15 42 16 96 17 90 18 92 19 43 20 95 21 89 22 88 23
REMARK SMILES IDX 44 25 76 26 56 27 75 28 57 29 60 30 74 31 93 32 58 33 59 34
REMARK SMILES IDX 73 36 94 37 61 38 45 39 46 40 54 41 47 42 48 43 52 44 55 45
REMARK SMILES IDX 49 46 50 47 53 48 51 49 77 50 78 51 86 52 79 53 80 54 84 55
REMARK SMILES IDX 87 56 81 57 82 58 85 59 83 60 62 61 63 62 71 63 64 64 65 65
REMARK SMILES IDX 69 66 72 67 66 68 67 69 70 70 68 71 6 72 7 73 8 74 9 76
REMARK SMILES IDX 10 77 11 78 12 79 13 80 17 81 14 82 16 83 15 84 18 85 19 86
REMARK SMILES IDX 34 87 20 88 21 89 33 90 35 91 22 92 23 93 24 94 32 95 25 96
REMARK SMILES IDX 31 97 26 98 30 99 27 100 29 101 28 102
REMARK H PARENT 3 6 92 24 60 35 7 75
REMARK Flexibility Score: inf
ROOT
ATOM      1  C   UNL A   1      37.656  19.854  24.916  1.00  0.00     0.042 C 
ENDROOT
BRANCH   1   2
ATOM      2  C   UNL A   1      38.808  20.390  25.752  1.00  0.00     0.118 C 
BRANCH   2   3
ATOM      3  N   UNL A   1      39.902  19.428  25.857  1.00  0.00    -0.352 N 
ATOM      4  O   UNL A   1      41.969  18.578  25.856  1.00  0.00    -0.269 OA
ATOM      5  C   UNL A   1      41.256  19.562  26.052  1.00  0.00     0.251 C 
ATOM      6  H   UNL A   1      39.609  18.491  25.769  1.00  0.00     0.163 HD
BRANCH   5   7
ATOM      7  C   UNL A   1      41.895  20.835  26.475  1.00  0.00     0.039 A 
ATOM      8  C   UNL A   1      42.141  21.877  25.589  1.00  0.00     0.014 A 
ATOM      9  C   UNL A   1      42.156  21.044  27.839  1.00  0.00     0.014 A 
ATOM     10  C   UNL A   1      42.765  23.044  26.015  1.00  0.00     0.010 A 
ATOM     11  C   UNL A   1      42.654  22.275  28.294  1.00  0.00     0.010 A 
ATOM     12  C   UNL A   1      42.972  23.287  27.379  1.00  0.00    -0.014 A 
BRANCH  12  13
ATOM     13  C   UNL A   1      43.402  24.651  27.789  1.00  0.00     0.031 A 
ATOM     14  C   UNL A   1      44.837  25.081  27.710  1.00  0.00     0.074 A 
ATOM     15  C   UNL A   1      42.451  25.529  28.173  1.00  0.00     0.049 A 
ATOM     16  N   UNL A   1      45.355  26.259  27.959  1.00  0.00    -0.248 NA
ATOM     17  C   UNL A   1      45.823  24.066  27.312  1.00  0.00     0.031 C 
ATOM     18  C   UNL A   1      41.027  25.215  28.318  1.00  0.00     0.029 A 
ATOM     19  N   UNL A   1      42.521  26.867  28.468  1.00  0.00    -0.354 N 
ATOM     20  C   UNL A   1      46.724  26.119  27.778  1.00  0.00     0.074 A 
ATOM     21  C   UNL A   1      46.962  24.740  27.409  1.00  0.00     0.031 C 
ATOM     22  C   UNL A   1      40.348  26.339  28.585  1.00  0.00     0.029 A 
ATOM     23  C   UNL A   1      41.295  27.440  28.712  1.00  0.00     0.049 A 
ATOM     24  H   UNL A   1      43.367  27.370  28.501  1.00  0.00     0.167 HD
ATOM     25  C   UNL A   1      47.688  27.062  27.903  1.00  0.00     0.037 A 
ATOM     26  C   UNL A   1      40.963  28.708  29.016  1.00  0.00     0.037 A 
ATOM     27  C   UNL A   1      47.440  28.441  28.240  1.00  0.00     0.049 A 
ATOM     28  C   UNL A   1      42.055  29.731  29.131  1.00  0.00     0.074 A 
ATOM     29  C   UNL A   1      48.350  29.478  28.354  1.00  0.00     0.029 A 
ATOM     30  N   UNL A   1      46.189  28.976  28.512  1.00  0.00    -0.354 N 
ATOM     31  N   UNL A   1      43.343  29.588  28.931  1.00  0.00    -0.248 NA
ATOM     32  C   UNL A   1      41.653  31.086  29.527  1.00  0.00     0.031 C 
ATOM     33  C   UNL A   1      47.655  30.631  28.733  1.00  0.00     0.029 A 
ATOM     34  C   UNL A   1      46.307  30.324  28.813  1.00  0.00     0.049 A 
ATOM     35  H   UNL A   1      45.343  28.473  28.495  1.00  0.00     0.167 HD
ATOM     36  C   UNL A   1      43.905  30.831  29.174  1.00  0.00     0.074 A 
ATOM     37  C   UNL A   1      42.814  31.725  29.505  1.00  0.00     0.031 C 
ATOM     38  C   UNL A   1      45.209  31.196  29.141  1.00  0.00     0.037 A 
BRANCH  25  39
ATOM     39  C   UNL A   1      49.112  26.639  27.693  1.00  0.00     0.064 A 
ATOM     40  C   UNL A   1      49.964  26.359  28.771  1.00  0.00     0.173 A 
ATOM     41  C   UNL A   1      49.610  26.449  26.395  1.00  0.00     0.173 A 
ATOM     42  F   UNL A   1      49.540  26.537  30.032  1.00  0.00    -0.203 F 
ATOM     43  C   UNL A   1      51.267  25.914  28.556  1.00  0.00     0.198 A 
ATOM     44  C   UNL A   1      50.905  25.983  26.184  1.00  0.00     0.198 A 
ATOM     45  F   UNL A   1      48.834  26.700  25.330  1.00  0.00    -0.203 F 
ATOM     46  F   UNL A   1      52.074  25.679  29.601  1.00  0.00    -0.200 F 
ATOM     47  C   UNL A   1      51.734  25.719  27.264  1.00  0.00     0.200 A 
ATOM     48  F   UNL A   1      51.351  25.785  24.936  1.00  0.00    -0.200 F 
ATOM     49  F   UNL A   1      52.982  25.278  27.061  1.00  0.00    -0.200 F 
ENDBRANCH  25  39
BRANCH  26  50
ATOM     50  C   UNL A   1      39.541  29.070  29.249  1.00  0.00     0.064 A 
ATOM     51  C   UNL A   1      38.974  29.001  30.528  1.00  0.00     0.173 A 
ATOM     52  C   UNL A   1      38.720  29.503  28.196  1.00  0.00     0.173 A 
ATOM     53  F   UNL A   1      39.711  28.574  31.565  1.00  0.00    -0.203 F 
ATOM     54  C   UNL A   1      37.639  29.337  30.744  1.00  0.00     0.198 A 
ATOM     55  C   UNL A   1      37.396  29.871  28.417  1.00  0.00     0.198 A 
ATOM     56  F   UNL A   1      39.216  29.592  26.952  1.00  0.00    -0.203 F 
ATOM     57  F   UNL A   1      37.110  29.224  31.970  1.00  0.00    -0.200 F 
ATOM     58  C   UNL A   1      36.854  29.781  29.689  1.00  0.00     0.200 A 
ATOM     59  F   UNL A   1      36.648  30.315  27.398  1.00  0.00    -0.200 F 
ATOM     60  F   UNL A   1      35.573  30.114  29.899  1.00  0.00    -0.200 F 
ENDBRANCH  26  50
BRANCH  38  61
ATOM     61  C   UNL A   1      45.518  32.627  29.459  1.00  0.00     0.064 A 
ATOM     62  C   UNL A   1      45.464  33.622  28.472  1.00  0.00     0.173 A 
ATOM     63  C   UNL A   1      45.853  33.010  30.766  1.00  0.00     0.173 A 
ATOM     64  F   UNL A   1      45.165  33.299  27.204  1.00  0.00    -0.203 F 
ATOM     65  C   UNL A   1      45.757  34.947  28.778  1.00  0.00     0.198 A 
ATOM     66  C   UNL A   1      46.122  34.339  31.073  1.00  0.00     0.198 A 
ATOM     67  F   UNL A   1      45.916  32.093  31.743  1.00  0.00    -0.203 F 
ATOM     68  F   UNL A   1      45.745  35.874  27.811  1.00  0.00    -0.200 F 
ATOM     69  C   UNL A   1      46.081  35.305  30.078  1.00  0.00     0.200 A 
ATOM     70  F   UNL A   1      46.426  34.687  32.331  1.00  0.00    -0.200 F 
ATOM     71  F   UNL A   1      46.363  36.582  30.372  1.00  0.00    -0.200 F 
ENDBRANCH  38  61
ENDBRANCH  12  13
ENDBRANCH   5   7
ENDBRANCH   2   3
ENDBRANCH   1   2
BRANCH   1  72
ATOM     72  C   UNL A   1      36.614  20.933  24.693  1.00  0.00     0.117 C 
BRANCH  72  73
ATOM     73  N   UNL A   1      35.772  21.161  25.853  1.00  0.00    -0.354 N 
ATOM     74  C   UNL A   1      34.416  21.231  25.941  1.00  0.00     0.243 C 
ATOM     75  H   UNL A   1      36.253  21.282  26.703  1.00  0.00     0.163 HD
ATOM     76  O   UNL A   1      33.934  21.004  27.059  1.00  0.00    -0.273 OA
BRANCH  74  77
ATOM     77  C   UNL A   1      33.472  21.541  24.752  1.00  0.00     0.185 C 
BRANCH  77  78
ATOM     78  C   UNL A   1      32.723  20.349  24.091  1.00  0.00     0.071 C 
BRANCH  78  79
ATOM     79  C   UNL A   1      33.074  18.911  24.391  1.00  0.00    -0.045 A 
ATOM     80  C   UNL A   1      33.969  18.178  23.601  1.00  0.00     0.004 A 
ATOM     81  C   UNL A   1      32.529  18.289  25.527  1.00  0.00     0.004 A 
ATOM     82  C   UNL A   1      34.226  16.832  23.876  1.00  0.00     0.000 A 
ATOM     83  C   UNL A   1      32.809  16.953  25.820  1.00  0.00     0.000 A 
ATOM     84  C   UNL A   1      33.640  16.217  24.980  1.00  0.00     0.000 A 
ENDBRANCH  78  79
ENDBRANCH  77  78
BRANCH  77  85
ATOM     85  N   UNL A   1      32.769  22.845  24.731  1.00  0.00    -0.280 N 
ATOM     86  C   UNL A   1      33.306  23.929  24.080  1.00  0.00     0.266 C 
ATOM     87  C   UNL A   1      31.586  23.106  25.403  1.00  0.00     0.149 C 
ATOM     88  O   UNL A   1      34.121  23.931  23.169  1.00  0.00    -0.268 OA
ATOM     89  C   UNL A   1      32.706  25.186  24.569  1.00  0.00     0.081 C 
ATOM     90  S   UNL A   1      31.225  24.834  25.338  1.00  0.00    -0.054 SA
ATOM     91  S   UNL A   1      30.595  22.057  26.240  1.00  0.00    -0.052 S 
ATOM     92  C   UNL A   1      33.363  26.342  24.399  1.00  0.00     0.029 C 
BRANCH  92  93
ATOM     93  C   UNL A   1      32.933  27.690  24.774  1.00  0.00    -0.024 A 
ATOM     94  C   UNL A   1      31.791  28.206  24.156  1.00  0.00     0.010 A 
ATOM     95  C   UNL A   1      33.606  28.479  25.707  1.00  0.00     0.018 A 
ATOM     96  C   UNL A   1      31.278  29.446  24.543  1.00  0.00     0.029 A 
ATOM     97  C   UNL A   1      33.068  29.708  26.121  1.00  0.00     0.001 A 
ATOM     98  C   UNL A   1      31.875  30.196  25.545  1.00  0.00     0.070 A 
ATOM     99  C   UNL A   1      33.668  30.464  27.134  1.00  0.00     0.012 A 
ATOM    100  N   UNL A   1      31.300  31.341  25.944  1.00  0.00    -0.256 NA
ATOM    101  C   UNL A   1      33.063  31.637  27.566  1.00  0.00     0.021 A 
ATOM    102  C   UNL A   1      31.889  32.026  26.948  1.00  0.00     0.112 A 
ENDBRANCH  92  93
ENDBRANCH  77  85
ENDBRANCH  74  77
ENDBRANCH  72  73
ENDBRANCH   1  72
TORSDOF 14
ENDMDL
MODEL 3
REMARK VINA RESULT:     -13.4      5.067     10.933
REMARK SMILES O=C(NCCCNC(=O)[C@@H](Cc1ccccc1)N1C(=O)/C(=C/c2ccc3ncccc3c2)SC1=S)c1ccc(-c2c3nc(c(-c4c(F)c(F)c(F)c(F)c4F)c4ccc([nH]4)c(-c4c(F)c(F)c(F)c(F)c4F)c4nc(c(-c5c(F)c(F)c(F)c(F)c5F)c5ccc2[nH]5)C=C4)C=C3)cc1
REMARK SMILES IDX 5 1 4 2 3 3 1 4 2 5 36 7 37 8 98 9 38 10 97 11 39 12 40 13
REMARK SMILES IDX 41 14 91 15 42 16 96 17 90 18 92 19 43 20 95 21 89 22 88 23
REMARK SMILES IDX 44 25 76 26 56 27 75 28 57 29 60 30 74 31 93 32 58 33 59 34
REMARK SMILES IDX 73 36 94 37 61 38 45 39 46 40 54 41 47 42 48 43 52 44 55 45
REMARK SMILES IDX 49 46 50 47 53 48 51 49 77 50 78 51 86 52 79 53 80 54 84 55
REMARK SMILES IDX 87 56 81 57 82 58 85 59 83 60 62 61 63 62 71 63 64 64 65 65
REMARK SMILES IDX 69 66 72 67 66 68 67 69 70 70 68 71 6 72 7 73 8 74 9 76
REMARK SMILES IDX 10 77 11 78 12 79 13 80 17 81 14 82 16 83 15 84 18 85 19 86
REMARK SMILES IDX 34 87 20 88 21 89 33 90 35 91 22 92 23 93 24 94 32 95 25 96
REMARK SMILES IDX 31 97 26 98 30 99 27 100 29 101 28 102
REMARK H PARENT 3 6 92 24 60 35 7 75
REMARK Flexibility Score: inf
ROOT
ATOM      1  C   UNL A   1      31.410  31.953  27.047  1.00  0.00     0.042 C 
ENDROOT
BRANCH   1   2
ATOM      2  C   UNL A   1      32.713  32.737  27.066  1.00  0.00     0.118 C 
BRANCH   2   3
ATOM      3  N   UNL A   1      32.532  34.085  27.600  1.00  0.00    -0.352 N 
ATOM      4  O   UNL A   1      32.571  35.814  29.016  1.00  0.00    -0.269 OA
ATOM      5  C   UNL A   1      33.096  34.761  28.657  1.00  0.00     0.251 C 
ATOM      6  H   UNL A   1      31.870  34.618  27.102  1.00  0.00     0.163 HD
BRANCH   5   7
ATOM      7  C   UNL A   1      34.297  34.275  29.385  1.00  0.00     0.039 A 
ATOM      8  C   UNL A   1      34.222  33.325  30.397  1.00  0.00     0.014 A 
ATOM      9  C   UNL A   1      35.567  34.701  28.962  1.00  0.00     0.014 A 
ATOM     10  C   UNL A   1      35.364  32.914  31.075  1.00  0.00     0.010 A 
ATOM     11  C   UNL A   1      36.731  34.180  29.550  1.00  0.00     0.010 A 
ATOM     12  C   UNL A   1      36.636  33.284  30.623  1.00  0.00    -0.014 A 
BRANCH  12  13
ATOM     13  C   UNL A   1      37.817  32.609  31.226  1.00  0.00     0.031 A 
ATOM     14  C   UNL A   1      38.282  32.929  32.616  1.00  0.00     0.074 A 
ATOM     15  C   UNL A   1      38.429  31.639  30.513  1.00  0.00     0.049 A 
ATOM     16  N   UNL A   1      39.246  32.372  33.306  1.00  0.00    -0.248 NA
ATOM     17  C   UNL A   1      37.590  34.015  33.324  1.00  0.00     0.031 C 
ATOM     18  C   UNL A   1      38.084  31.262  29.139  1.00  0.00     0.029 A 
ATOM     19  N   UNL A   1      39.430  30.764  30.849  1.00  0.00    -0.354 N 
ATOM     20  C   UNL A   1      39.295  33.056  34.513  1.00  0.00     0.074 A 
ATOM     21  C   UNL A   1      38.273  34.079  34.459  1.00  0.00     0.031 C 
ATOM     22  C   UNL A   1      38.793  30.183  28.782  1.00  0.00     0.029 A 
ATOM     23  C   UNL A   1      39.702  29.838  29.868  1.00  0.00     0.049 A 
ATOM     24  H   UNL A   1      39.908  30.793  31.709  1.00  0.00     0.167 HD
ATOM     25  C   UNL A   1      40.118  32.841  35.568  1.00  0.00     0.037 A 
ATOM     26  C   UNL A   1      40.592  28.830  29.836  1.00  0.00     0.037 A 
ATOM     27  C   UNL A   1      41.113  31.800  35.627  1.00  0.00     0.049 A 
ATOM     28  C   UNL A   1      41.476  28.610  31.028  1.00  0.00     0.074 A 
ATOM     29  C   UNL A   1      41.968  31.482  36.667  1.00  0.00     0.029 A 
ATOM     30  N   UNL A   1      41.381  30.905  34.601  1.00  0.00    -0.354 N 
ATOM     31  N   UNL A   1      41.492  29.250  32.172  1.00  0.00    -0.248 NA
ATOM     32  C   UNL A   1      42.474  27.538  30.923  1.00  0.00     0.031 C 
ATOM     33  C   UNL A   1      42.780  30.420  36.258  1.00  0.00     0.029 A 
ATOM     34  C   UNL A   1      42.402  30.047  34.979  1.00  0.00     0.049 A 
ATOM     35  H   UNL A   1      40.916  30.882  33.734  1.00  0.00     0.167 HD
ATOM     36  C   UNL A   1      42.497  28.662  32.922  1.00  0.00     0.074 A 
ATOM     37  C   UNL A   1      43.047  27.590  32.117  1.00  0.00     0.031 C 
ATOM     38  C   UNL A   1      42.936  28.988  34.162  1.00  0.00     0.037 A 
BRANCH  25  39
ATOM     39  C   UNL A   1      39.997  33.759  36.749  1.00  0.00     0.064 A 
ATOM     40  C   UNL A   1      40.725  34.954  36.831  1.00  0.00     0.173 A 
ATOM     41  C   UNL A   1      39.089  33.470  37.779  1.00  0.00     0.173 A 
ATOM     42  F   UNL A   1      41.615  35.270  35.878  1.00  0.00    -0.203 F 
ATOM     43  C   UNL A   1      40.559  35.821  37.909  1.00  0.00     0.198 A 
ATOM     44  C   UNL A   1      38.908  34.350  38.844  1.00  0.00     0.198 A 
ATOM     45  F   UNL A   1      38.365  32.342  37.745  1.00  0.00    -0.203 F 
ATOM     46  F   UNL A   1      41.287  36.944  37.983  1.00  0.00    -0.200 F 
ATOM     47  C   UNL A   1      39.645  35.522  38.909  1.00  0.00     0.200 A 
ATOM     48  F   UNL A   1      38.017  34.065  39.804  1.00  0.00    -0.200 F 
ATOM     49  F   UNL A   1      39.477  36.364  39.938  1.00  0.00    -0.200 F 
ENDBRANCH  25  39
BRANCH  26  50
ATOM     50  C   UNL A   1      40.698  27.969  28.630  1.00  0.00     0.064 A 
ATOM     51  C   UNL A   1      40.014  26.749  28.546  1.00  0.00     0.173 A 
ATOM     52  C   UNL A   1      41.479  28.354  27.529  1.00  0.00     0.173 A 
ATOM     53  F   UNL A   1      39.270  26.326  29.579  1.00  0.00    -0.203 F 
ATOM     54  C   UNL A   1      40.118  25.941  27.415  1.00  0.00     0.198 A 
ATOM     55  C   UNL A   1      41.557  27.562  26.387  1.00  0.00     0.198 A 
ATOM     56  F   UNL A   1      42.151  29.515  27.557  1.00  0.00    -0.203 F 
ATOM     57  F   UNL A   1      39.486  24.760  27.377  1.00  0.00    -0.200 F 
ATOM     58  C   UNL A   1      40.882  26.353  26.333  1.00  0.00     0.200 A 
ATOM     59  F   UNL A   1      42.282  27.973  25.338  1.00  0.00    -0.200 F 
ATOM     60  F   UNL A   1      40.974  25.580  25.242  1.00  0.00    -0.200 F 
ENDBRANCH  26  50
BRANCH  38  61
ATOM     61  C   UNL A   1      44.056  28.164  34.721  1.00  0.00     0.064 A 
ATOM     62  C   UNL A   1      45.395  28.547  34.558  1.00  0.00     0.173 A 
ATOM     63  C   UNL A   1      43.786  26.993  35.443  1.00  0.00     0.173 A 
ATOM     64  F   UNL A   1      45.700  29.652  33.859  1.00  0.00    -0.203 F 
ATOM     65  C   UNL A   1      46.427  27.773  35.078  1.00  0.00     0.198 A 
ATOM     66  C   UNL A   1      44.819  26.234  35.982  1.00  0.00     0.198 A 
ATOM     67  F   UNL A   1      42.520  26.588  35.625  1.00  0.00    -0.203 F 
ATOM     68  F   UNL A   1      47.701  28.131  34.871  1.00  0.00    -0.200 F 
ATOM     69  C   UNL A   1      46.138  26.619  35.794  1.00  0.00     0.200 A 
ATOM     70  F   UNL A   1      44.540  25.124  36.681  1.00  0.00    -0.200 F 
ATOM     71  F   UNL A   1      47.133  25.874  36.295  1.00  0.00    -0.200 F 
ENDBRANCH  38  61
ENDBRANCH  12  13
ENDBRANCH   5   7
ENDBRANCH   2   3
ENDBRANCH   1   2
BRANCH   1  72
ATOM     72  C   UNL A   1      31.452  30.878  25.978  1.00  0.00     0.117 C 
BRANCH  72  73
ATOM     73  N   UNL A   1      32.384  29.808  26.283  1.00  0.00    -0.354 N 
ATOM     74  C   UNL A   1      32.717  28.712  25.549  1.00  0.00     0.243 C 
ATOM     75  H   UNL A   1      32.844  29.887  27.149  1.00  0.00     0.163 HD
ATOM     76  O   UNL A   1      33.814  28.198  25.811  1.00  0.00    -0.273 OA
BRANCH  74  77
ATOM     77  C   UNL A   1      31.842  28.109  24.421  1.00  0.00     0.185 C 
BRANCH  77  78
ATOM     78  C   UNL A   1      31.188  29.091  23.408  1.00  0.00     0.071 C 
BRANCH  78  79
ATOM     79  C   UNL A   1      29.692  29.263  23.301  1.00  0.00    -0.045 A 
ATOM     80  C   UNL A   1      29.085  30.522  23.224  1.00  0.00     0.004 A 
ATOM     81  C   UNL A   1      28.870  28.125  23.226  1.00  0.00     0.004 A 
ATOM     82  C   UNL A   1      27.693  30.643  23.182  1.00  0.00     0.000 A 
ATOM     83  C   UNL A   1      27.481  28.244  23.154  1.00  0.00     0.000 A 
ATOM     84  C   UNL A   1      26.891  29.505  23.157  1.00  0.00     0.000 A 
ENDBRANCH  78  79
ENDBRANCH  77  78
BRANCH  77  85
ATOM     85  N   UNL A   1      32.192  26.769  23.897  1.00  0.00    -0.280 N 
ATOM     86  C   UNL A   1      31.615  25.633  24.411  1.00  0.00     0.266 C 
ATOM     87  C   UNL A   1      33.154  26.535  22.927  1.00  0.00     0.149 C 
ATOM     88  O   UNL A   1      30.551  25.533  25.005  1.00  0.00    -0.268 OA
ATOM     89  C   UNL A   1      32.423  24.441  24.089  1.00  0.00     0.081 C 
ATOM     90  S   UNL A   1      33.450  24.801  22.777  1.00  0.00    -0.054 SA
ATOM     91  S   UNL A   1      34.022  27.633  22.017  1.00  0.00    -0.052 S 
ATOM     92  C   UNL A   1      32.291  23.333  24.832  1.00  0.00     0.029 C 
BRANCH  92  93
ATOM     93  C   UNL A   1      32.965  22.045  24.663  1.00  0.00    -0.024 A 
ATOM     94  C   UNL A   1      34.241  21.900  25.212  1.00  0.00     0.010 A 
ATOM     95  C   UNL A   1      32.400  20.966  23.981  1.00  0.00     0.018 A 
ATOM     96  C   UNL A   1      34.893  20.665  25.166  1.00  0.00     0.029 A 
ATOM     97  C   UNL A   1      33.042  19.717  23.969  1.00  0.00     0.001 A 
ATOM     98  C   UNL A   1      34.301  19.555  24.585  1.00  0.00     0.070 A 
ATOM     99  C   UNL A   1      32.444  18.595  23.385  1.00  0.00     0.012 A 
ATOM    100  N   UNL A   1      34.928  18.368  24.640  1.00  0.00    -0.256 NA
ATOM    101  C   UNL A   1      33.078  17.361  23.461  1.00  0.00     0.021 A 
ATOM    102  C   UNL A   1      34.303  17.301  24.097  1.00  0.00     0.112 A 
ENDBRANCH  92  93
ENDBRANCH  77  85
ENDBRANCH  74  77
ENDBRANCH  72  73
ENDBRANCH   1  72
TORSDOF 14
ENDMDL
