MODEL 1
REMARK VINA RESULT:     -13.5      0.000      0.000
REMARK SMILES Cc1c(CC(=O)NCCCNC(=O)c2ccc(-c3c4nc(c(-c5c(F)c(F)c(F)c(F)c5F)c5ccc([nH]5)c(-c5c(F)c(F)c(F)c(F)c5F)c5nc(c(-c6c(F)c(F)c(F)c(F)c6F)c6ccc3[nH]6)C=C5)C=C4)cc2)c2cc(O)ccc2n1C(=O)c1ccc(Cl)cc1
REMARK SMILES IDX 8 1 7 2 5 3 6 4 4 6 3 7 1 8 2 9 84 10 77 11 83 12 78 13
REMARK SMILES IDX 82 14 79 15 81 16 85 17 86 18 87 19 88 20 93 21 89 22 92 23
REMARK SMILES IDX 90 24 91 25 80 26 9 28 10 29 11 30 12 31 13 33 14 34 15 35
REMARK SMILES IDX 76 36 16 37 75 38 17 39 18 40 19 41 69 42 20 43 74 44 68 45
REMARK SMILES IDX 70 46 21 47 73 48 67 49 66 50 22 52 54 53 34 54 53 55 35 56
REMARK SMILES IDX 38 57 52 58 71 59 36 60 37 61 51 63 72 64 39 65 23 66 24 67
REMARK SMILES IDX 32 68 25 69 26 70 30 71 33 72 27 73 28 74 31 75 29 76 55 77
REMARK SMILES IDX 56 78 64 79 57 80 58 81 62 82 65 83 59 84 60 85 63 86 61 87
REMARK SMILES IDX 40 88 41 89 49 90 42 91 43 92 47 93 50 94 44 95 45 96 48 97
REMARK SMILES IDX 46 98
REMARK H PARENT 7 5 80 27 11 32 70 51 38 62
REMARK Flexibility Score: inf
ROOT
ATOM      1  C   UNL A   1      33.532  29.940  26.714  1.00  0.00     0.117 C 
ENDROOT
BRANCH   1   2
ATOM      2  N   UNL A   1      32.576  29.258  27.566  1.00  0.00    -0.356 N 
ATOM      3  C   UNL A   1      31.608  28.355  27.234  1.00  0.00     0.224 C 
ATOM      4  O   UNL A   1      30.923  27.881  28.144  1.00  0.00    -0.275 OA
ATOM      5  H   UNL A   1      32.635  29.478  28.524  1.00  0.00     0.163 HD
BRANCH   3   6
ATOM      6  C   UNL A   1      31.426  27.913  25.792  1.00  0.00     0.138 C 
BRANCH   6   7
ATOM      7  C   UNL A   1      32.087  26.600  25.483  1.00  0.00    -0.009 A 
ATOM      8  C   UNL A   1      34.281  27.454  24.398  1.00  0.00     0.065 C 
ATOM      9  C   UNL A   1      33.308  26.410  24.851  1.00  0.00     0.028 A 
ATOM     10  N   UNL A   1      33.496  25.037  24.642  1.00  0.00    -0.280 N 
ATOM     11  C   UNL A   1      31.601  25.313  25.851  1.00  0.00     0.008 A 
ATOM     12  C   UNL A   1      32.529  24.362  25.408  1.00  0.00     0.057 A 
ATOM     13  C   UNL A   1      30.452  24.884  26.554  1.00  0.00     0.056 A 
ATOM     14  C   UNL A   1      32.352  23.000  25.738  1.00  0.00     0.031 A 
ATOM     15  C   UNL A   1      30.260  23.531  26.806  1.00  0.00     0.116 A 
ATOM     16  C   UNL A   1      31.199  22.595  26.418  1.00  0.00     0.048 A 
BRANCH  10  17
ATOM     17  C   UNL A   1      34.472  24.452  23.786  1.00  0.00     0.262 C 
ATOM     18  O   UNL A   1      34.308  24.507  22.564  1.00  0.00    -0.268 OA
BRANCH  17  19
ATOM     19  C   UNL A   1      35.682  23.750  24.237  1.00  0.00     0.040 A 
ATOM     20  C   UNL A   1      36.164  22.641  23.534  1.00  0.00     0.015 A 
ATOM     21  C   UNL A   1      36.305  24.188  25.410  1.00  0.00     0.015 A 
ATOM     22  C   UNL A   1      37.228  21.909  24.065  1.00  0.00     0.021 A 
ATOM     23  C   UNL A   1      37.374  23.457  25.930  1.00  0.00     0.021 A 
ATOM     24  C   UNL A   1      37.815  22.309  25.269  1.00  0.00     0.041 A 
ATOM     25  Cl  UNL A   1      39.075  21.363  25.957  1.00  0.00    -0.084 Cl
ENDBRANCH  17  19
ENDBRANCH  10  17
BRANCH  15  26
ATOM     26  O   UNL A   1      29.124  23.163  27.465  1.00  0.00    -0.508 OA
ATOM     27  H   UNL A   1      29.145  22.453  28.077  1.00  0.00     0.293 HD
ENDBRANCH  15  26
ENDBRANCH   6   7
ENDBRANCH   3   6
ENDBRANCH   1   2
BRANCH   1  28
ATOM     28  C   UNL A   1      34.807  30.341  27.461  1.00  0.00     0.042 C 
BRANCH  28  29
ATOM     29  C   UNL A   1      34.860  31.822  27.839  1.00  0.00     0.118 C 
BRANCH  29  30
ATOM     30  N   UNL A   1      34.672  32.074  29.256  1.00  0.00    -0.352 N 
ATOM     31  C   UNL A   1      35.403  31.892  30.393  1.00  0.00     0.251 C 
ATOM     32  H   UNL A   1      33.794  32.480  29.444  1.00  0.00     0.163 HD
ATOM     33  O   UNL A   1      34.913  32.359  31.425  1.00  0.00    -0.269 OA
BRANCH  31  34
ATOM     34  C   UNL A   1      36.682  31.139  30.499  1.00  0.00     0.039 A 
ATOM     35  C   UNL A   1      37.957  31.671  30.325  1.00  0.00     0.014 A 
ATOM     36  C   UNL A   1      36.558  29.751  30.723  1.00  0.00     0.014 A 
ATOM     37  C   UNL A   1      39.063  30.824  30.267  1.00  0.00     0.010 A 
ATOM     38  C   UNL A   1      37.660  28.903  30.680  1.00  0.00     0.010 A 
ATOM     39  C   UNL A   1      38.908  29.437  30.397  1.00  0.00    -0.014 A 
BRANCH  39  40
ATOM     40  C   UNL A   1      40.110  28.610  30.319  1.00  0.00     0.031 A 
ATOM     41  C   UNL A   1      40.814  28.450  31.618  1.00  0.00     0.074 A 
ATOM     42  C   UNL A   1      40.552  27.992  29.203  1.00  0.00     0.049 A 
ATOM     43  N   UNL A   1      41.970  28.922  31.946  1.00  0.00    -0.248 NA
ATOM     44  C   UNL A   1      40.101  27.795  32.724  1.00  0.00     0.031 C 
ATOM     45  C   UNL A   1      39.831  27.798  27.942  1.00  0.00     0.029 A 
ATOM     46  N   UNL A   1      41.736  27.337  28.980  1.00  0.00    -0.354 N 
ATOM     47  C   UNL A   1      42.223  28.457  33.234  1.00  0.00     0.074 A 
ATOM     48  C   UNL A   1      40.988  27.898  33.716  1.00  0.00     0.031 C 
ATOM     49  C   UNL A   1      40.489  26.895  27.179  1.00  0.00     0.029 A 
ATOM     50  C   UNL A   1      41.757  26.580  27.815  1.00  0.00     0.049 A 
ATOM     51  H   UNL A   1      42.503  27.397  29.593  1.00  0.00     0.167 HD
ATOM     52  C   UNL A   1      43.503  28.347  33.686  1.00  0.00     0.037 A 
ATOM     53  C   UNL A   1      42.741  25.741  27.407  1.00  0.00     0.037 A 
ATOM     54  C   UNL A   1      44.414  29.088  32.855  1.00  0.00     0.049 A 
ATOM     55  C   UNL A   1      44.002  26.162  28.057  1.00  0.00     0.074 A 
ATOM     56  C   UNL A   1      44.868  30.384  32.754  1.00  0.00     0.029 A 
ATOM     57  N   UNL A   1      44.733  28.453  31.689  1.00  0.00    -0.354 N 
ATOM     58  N   UNL A   1      44.609  27.285  27.796  1.00  0.00    -0.248 NA
ATOM     59  C   UNL A   1      44.470  25.452  29.244  1.00  0.00     0.031 C 
ATOM     60  C   UNL A   1      45.377  30.532  31.428  1.00  0.00     0.029 A 
ATOM     61  C   UNL A   1      45.253  29.317  30.765  1.00  0.00     0.049 A 
ATOM     62  H   UNL A   1      44.604  27.489  31.532  1.00  0.00     0.167 HD
ATOM     63  C   UNL A   1      45.216  27.618  28.986  1.00  0.00     0.074 A 
ATOM     64  C   UNL A   1      45.258  26.392  29.768  1.00  0.00     0.031 C 
ATOM     65  C   UNL A   1      45.309  28.918  29.380  1.00  0.00     0.037 A 
BRANCH  52  66
ATOM     66  C   UNL A   1      44.010  27.225  34.567  1.00  0.00     0.064 A 
ATOM     67  C   UNL A   1      44.027  25.906  34.068  1.00  0.00     0.173 A 
ATOM     68  C   UNL A   1      44.172  27.345  35.964  1.00  0.00     0.173 A 
ATOM     69  F   UNL A   1      43.850  25.667  32.760  1.00  0.00    -0.203 F 
ATOM     70  C   UNL A   1      44.147  24.795  34.911  1.00  0.00     0.198 A 
ATOM     71  C   UNL A   1      44.341  26.238  36.796  1.00  0.00     0.198 A 
ATOM     72  F   UNL A   1      44.061  28.521  36.594  1.00  0.00    -0.203 F 
ATOM     73  F   UNL A   1      44.049  23.558  34.404  1.00  0.00    -0.200 F 
ATOM     74  C   UNL A   1      44.303  24.962  36.275  1.00  0.00     0.200 A 
ATOM     75  F   UNL A   1      44.462  26.421  38.119  1.00  0.00    -0.200 F 
ATOM     76  F   UNL A   1      44.367  23.901  37.090  1.00  0.00    -0.200 F 
ENDBRANCH  52  66
BRANCH  53  77
ATOM     77  C   UNL A   1      42.637  24.432  26.717  1.00  0.00     0.064 A 
ATOM     78  C   UNL A   1      43.205  24.244  25.444  1.00  0.00     0.173 A 
ATOM     79  C   UNL A   1      42.295  23.268  27.429  1.00  0.00     0.173 A 
ATOM     80  F   UNL A   1      43.583  25.301  24.711  1.00  0.00    -0.203 F 
ATOM     81  C   UNL A   1      43.480  22.968  24.943  1.00  0.00     0.198 A 
ATOM     82  C   UNL A   1      42.566  21.995  26.926  1.00  0.00     0.198 A 
ATOM     83  F   UNL A   1      41.795  23.348  28.670  1.00  0.00    -0.203 F 
ATOM     84  F   UNL A   1      44.104  22.831  23.765  1.00  0.00    -0.200 F 
ATOM     85  C   UNL A   1      43.180  21.845  25.695  1.00  0.00     0.200 A 
ATOM     86  F   UNL A   1      42.302  20.915  27.676  1.00  0.00    -0.200 F 
ATOM     87  F   UNL A   1      43.522  20.625  25.257  1.00  0.00    -0.200 F 
ENDBRANCH  53  77
BRANCH  65  88
ATOM     88  C   UNL A   1      45.294  29.969  28.320  1.00  0.00     0.064 A 
ATOM     89  C   UNL A   1      44.133  30.573  27.813  1.00  0.00     0.173 A 
ATOM     90  C   UNL A   1      46.530  30.427  27.844  1.00  0.00     0.173 A 
ATOM     91  F   UNL A   1      42.922  30.228  28.268  1.00  0.00    -0.203 F 
ATOM     92  C   UNL A   1      44.213  31.577  26.847  1.00  0.00     0.198 A 
ATOM     93  C   UNL A   1      46.607  31.450  26.906  1.00  0.00     0.198 A 
ATOM     94  F   UNL A   1      47.670  29.899  28.318  1.00  0.00    -0.203 F 
ATOM     95  F   UNL A   1      43.093  32.131  26.360  1.00  0.00    -0.200 F 
ATOM     96  C   UNL A   1      45.450  32.019  26.402  1.00  0.00     0.200 A 
ATOM     97  F   UNL A   1      47.807  31.896  26.508  1.00  0.00    -0.200 F 
ATOM     98  F   UNL A   1      45.529  33.006  25.498  1.00  0.00    -0.200 F 
ENDBRANCH  65  88
ENDBRANCH  39  40
ENDBRANCH  31  34
ENDBRANCH  29  30
ENDBRANCH  28  29
ENDBRANCH   1  28
TORSDOF 14
ENDMDL
MODEL 2
REMARK VINA RESULT:     -13.4      3.097      8.687
REMARK SMILES Cc1c(CC(=O)NCCCNC(=O)c2ccc(-c3c4nc(c(-c5c(F)c(F)c(F)c(F)c5F)c5ccc([nH]5)c(-c5c(F)c(F)c(F)c(F)c5F)c5nc(c(-c6c(F)c(F)c(F)c(F)c6F)c6ccc3[nH]6)C=C5)C=C4)cc2)c2cc(O)ccc2n1C(=O)c1ccc(Cl)cc1
REMARK SMILES IDX 8 1 7 2 5 3 6 4 4 6 3 7 1 8 2 9 84 10 77 11 83 12 78 13
REMARK SMILES IDX 82 14 79 15 81 16 85 17 86 18 87 19 88 20 93 21 89 22 92 23
REMARK SMILES IDX 90 24 91 25 80 26 9 28 10 29 11 30 12 31 13 33 14 34 15 35
REMARK SMILES IDX 76 36 16 37 75 38 17 39 18 40 19 41 69 42 20 43 74 44 68 45
REMARK SMILES IDX 70 46 21 47 73 48 67 49 66 50 22 52 54 53 34 54 53 55 35 56
REMARK SMILES IDX 38 57 52 58 71 59 36 60 37 61 51 63 72 64 39 65 23 66 24 67
REMARK SMILES IDX 32 68 25 69 26 70 30 71 33 72 27 73 28 74 31 75 29 76 55 77
REMARK SMILES IDX 56 78 64 79 57 80 58 81 62 82 65 83 59 84 60 85 63 86 61 87
REMARK SMILES IDX 40 88 41 89 49 90 42 91 43 92 47 93 50 94 44 95 45 96 48 97
REMARK SMILES IDX 46 98
REMARK H PARENT 7 5 80 27 11 32 70 51 38 62
REMARK Flexibility Score: inf
ROOT
ATOM      1  C   UNL A   1      40.123  20.247  26.090  1.00  0.00     0.117 C 
ENDROOT
BRANCH   1   2
ATOM      2  N   UNL A   1      39.402  21.488  26.304  1.00  0.00    -0.356 N 
ATOM      3  C   UNL A   1      38.209  21.899  25.782  1.00  0.00     0.224 C 
ATOM      4  O   UNL A   1      37.773  22.998  26.134  1.00  0.00    -0.275 OA
ATOM      5  H   UNL A   1      39.836  22.127  26.914  1.00  0.00     0.163 HD
BRANCH   3   6
ATOM      6  C   UNL A   1      37.425  20.998  24.843  1.00  0.00     0.138 C 
BRANCH   6   7
ATOM      7  C   UNL A   1      36.106  21.580  24.422  1.00  0.00    -0.009 A 
ATOM      8  C   UNL A   1      36.937  23.475  22.861  1.00  0.00     0.065 C 
ATOM      9  C   UNL A   1      35.904  22.672  23.590  1.00  0.00     0.028 A 
ATOM     10  N   UNL A   1      34.534  22.965  23.559  1.00  0.00    -0.280 N 
ATOM     11  C   UNL A   1      34.821  21.064  24.755  1.00  0.00     0.008 A 
ATOM     12  C   UNL A   1      33.861  21.874  24.136  1.00  0.00     0.057 A 
ATOM     13  C   UNL A   1      34.400  19.948  25.515  1.00  0.00     0.056 A 
ATOM     14  C   UNL A   1      32.494  21.524  24.207  1.00  0.00     0.031 A 
ATOM     15  C   UNL A   1      33.045  19.662  25.632  1.00  0.00     0.116 A 
ATOM     16  C   UNL A   1      32.098  20.428  24.979  1.00  0.00     0.048 A 
BRANCH  10  17
ATOM     17  C   UNL A   1      33.951  24.162  23.057  1.00  0.00     0.262 C 
ATOM     18  O   UNL A   1      33.564  24.195  21.885  1.00  0.00    -0.268 OA
BRANCH  17  19
ATOM     19  C   UNL A   1      33.778  25.406  23.820  1.00  0.00     0.040 A 
ATOM     20  C   UNL A   1      33.647  26.633  23.161  1.00  0.00     0.015 A 
ATOM     21  C   UNL A   1      33.799  25.336  25.217  1.00  0.00     0.015 A 
ATOM     22  C   UNL A   1      33.631  27.811  23.913  1.00  0.00     0.021 A 
ATOM     23  C   UNL A   1      33.772  26.516  25.962  1.00  0.00     0.021 A 
ATOM     24  C   UNL A   1      33.711  27.747  25.307  1.00  0.00     0.041 A 
ATOM     25  Cl  UNL A   1      33.765  29.201  26.223  1.00  0.00    -0.084 Cl
ENDBRANCH  17  19
ENDBRANCH  10  17
BRANCH  15  26
ATOM     26  O   UNL A   1      32.686  18.591  26.397  1.00  0.00    -0.508 OA
ATOM     27  H   UNL A   1      32.752  17.724  26.049  1.00  0.00     0.293 HD
ENDBRANCH  15  26
ENDBRANCH   6   7
ENDBRANCH   3   6
ENDBRANCH   1   2
BRANCH   1  28
ATOM     28  C   UNL A   1      41.563  20.305  26.609  1.00  0.00     0.042 C 
BRANCH  28  29
ATOM     29  C   UNL A   1      42.418  19.111  26.185  1.00  0.00     0.118 C 
BRANCH  29  30
ATOM     30  N   UNL A   1      43.372  19.413  25.134  1.00  0.00    -0.352 N 
ATOM     31  C   UNL A   1      44.139  20.485  24.781  1.00  0.00     0.251 C 
ATOM     32  H   UNL A   1      43.498  18.653  24.521  1.00  0.00     0.163 HD
ATOM     33  O   UNL A   1      44.929  20.295  23.852  1.00  0.00    -0.269 OA
BRANCH  31  34
ATOM     34  C   UNL A   1      44.057  21.850  25.366  1.00  0.00     0.039 A 
ATOM     35  C   UNL A   1      44.724  22.287  26.509  1.00  0.00     0.014 A 
ATOM     36  C   UNL A   1      43.160  22.736  24.732  1.00  0.00     0.014 A 
ATOM     37  C   UNL A   1      44.419  23.531  27.059  1.00  0.00     0.010 A 
ATOM     38  C   UNL A   1      42.863  23.984  25.270  1.00  0.00     0.010 A 
ATOM     39  C   UNL A   1      43.455  24.357  26.467  1.00  0.00    -0.014 A 
BRANCH  39  40
ATOM     40  C   UNL A   1      43.181  25.645  27.102  1.00  0.00     0.031 A 
ATOM     41  C   UNL A   1      44.175  26.701  26.772  1.00  0.00     0.074 A 
ATOM     42  C   UNL A   1      42.114  25.909  27.886  1.00  0.00     0.049 A 
ATOM     43  N   UNL A   1      45.032  27.245  27.570  1.00  0.00    -0.248 NA
ATOM     44  C   UNL A   1      44.318  27.112  25.369  1.00  0.00     0.031 C 
ATOM     45  C   UNL A   1      40.909  25.094  28.061  1.00  0.00     0.029 A 
ATOM     46  N   UNL A   1      41.849  27.013  28.654  1.00  0.00    -0.354 N 
ATOM     47  C   UNL A   1      45.693  28.214  26.818  1.00  0.00     0.074 A 
ATOM     48  C   UNL A   1      45.321  27.990  25.446  1.00  0.00     0.031 C 
ATOM     49  C   UNL A   1      39.958  25.822  28.691  1.00  0.00     0.029 A 
ATOM     50  C   UNL A   1      40.540  27.083  29.116  1.00  0.00     0.049 A 
ATOM     51  H   UNL A   1      42.527  27.697  28.859  1.00  0.00     0.167 HD
ATOM     52  C   UNL A   1      46.285  29.275  27.432  1.00  0.00     0.037 A 
ATOM     53  C   UNL A   1      39.969  28.113  29.790  1.00  0.00     0.037 A 
ATOM     54  C   UNL A   1      46.444  29.038  28.842  1.00  0.00     0.049 A 
ATOM     55  C   UNL A   1      41.046  28.883  30.451  1.00  0.00     0.074 A 
ATOM     56  C   UNL A   1      47.355  28.420  29.669  1.00  0.00     0.029 A 
ATOM     57  N   UNL A   1      45.297  29.216  29.562  1.00  0.00    -0.354 N 
ATOM     58  N   UNL A   1      41.773  28.416  31.426  1.00  0.00    -0.248 NA
ATOM     59  C   UNL A   1      41.532  30.113  29.833  1.00  0.00     0.031 C 
ATOM     60  C   UNL A   1      46.668  28.132  30.887  1.00  0.00     0.029 A 
ATOM     61  C   UNL A   1      45.367  28.611  30.787  1.00  0.00     0.049 A 
ATOM     62  H   UNL A   1      44.515  29.718  29.237  1.00  0.00     0.167 HD
ATOM     63  C   UNL A   1      42.990  29.038  31.260  1.00  0.00     0.074 A 
ATOM     64  C   UNL A   1      42.736  30.186  30.403  1.00  0.00     0.031 C 
ATOM     65  C   UNL A   1      44.151  28.380  31.529  1.00  0.00     0.037 A 
BRANCH  52  66
ATOM     66  C   UNL A   1      46.296  30.688  26.888  1.00  0.00     0.064 A 
ATOM     67  C   UNL A   1      47.505  31.414  26.870  1.00  0.00     0.173 A 
ATOM     68  C   UNL A   1      45.128  31.455  26.690  1.00  0.00     0.173 A 
ATOM     69  F   UNL A   1      48.677  30.796  27.079  1.00  0.00    -0.203 F 
ATOM     70  C   UNL A   1      47.533  32.805  26.715  1.00  0.00     0.198 A 
ATOM     71  C   UNL A   1      45.163  32.834  26.487  1.00  0.00     0.198 A 
ATOM     72  F   UNL A   1      43.903  30.924  26.798  1.00  0.00    -0.203 F 
ATOM     73  F   UNL A   1      48.696  33.464  26.812  1.00  0.00    -0.200 F 
ATOM     74  C   UNL A   1      46.362  33.514  26.525  1.00  0.00     0.200 A 
ATOM     75  F   UNL A   1      44.013  33.507  26.333  1.00  0.00    -0.200 F 
ATOM     76  F   UNL A   1      46.380  34.850  26.426  1.00  0.00    -0.200 F 
ENDBRANCH  52  66
BRANCH  53  77
ATOM     77  C   UNL A   1      38.593  28.656  29.689  1.00  0.00     0.064 A 
ATOM     78  C   UNL A   1      37.833  28.906  30.846  1.00  0.00     0.173 A 
ATOM     79  C   UNL A   1      38.142  29.257  28.500  1.00  0.00     0.173 A 
ATOM     80  F   UNL A   1      38.209  28.392  32.026  1.00  0.00    -0.203 F 
ATOM     81  C   UNL A   1      36.729  29.764  30.828  1.00  0.00     0.198 A 
ATOM     82  C   UNL A   1      37.037  30.110  28.483  1.00  0.00     0.198 A 
ATOM     83  F   UNL A   1      38.830  29.116  27.359  1.00  0.00    -0.203 F 
ATOM     84  F   UNL A   1      36.084  30.050  31.968  1.00  0.00    -0.200 F 
ATOM     85  C   UNL A   1      36.346  30.383  29.650  1.00  0.00     0.200 A 
ATOM     86  F   UNL A   1      36.695  30.730  27.344  1.00  0.00    -0.200 F 
ATOM     87  F   UNL A   1      35.344  31.273  29.648  1.00  0.00    -0.200 F 
ENDBRANCH  53  77
BRANCH  65  88
ATOM     88  C   UNL A   1      44.103  27.258  32.512  1.00  0.00     0.064 A 
ATOM     89  C   UNL A   1      44.109  25.897  32.170  1.00  0.00     0.173 A 
ATOM     90  C   UNL A   1      44.115  27.589  33.873  1.00  0.00     0.173 A 
ATOM     91  F   UNL A   1      44.161  25.508  30.889  1.00  0.00    -0.203 F 
ATOM     92  C   UNL A   1      44.100  24.911  33.157  1.00  0.00     0.198 A 
ATOM     93  C   UNL A   1      44.140  26.605  34.855  1.00  0.00     0.198 A 
ATOM     94  F   UNL A   1      44.137  28.877  34.251  1.00  0.00    -0.203 F 
ATOM     95  F   UNL A   1      44.088  23.615  32.814  1.00  0.00    -0.200 F 
ATOM     96  C   UNL A   1      44.124  25.267  34.498  1.00  0.00     0.200 A 
ATOM     97  F   UNL A   1      44.199  26.957  36.147  1.00  0.00    -0.200 F 
ATOM     98  F   UNL A   1      44.148  24.321  35.447  1.00  0.00    -0.200 F 
ENDBRANCH  65  88
ENDBRANCH  39  40
ENDBRANCH  31  34
ENDBRANCH  29  30
ENDBRANCH  28  29
ENDBRANCH   1  28
TORSDOF 14
ENDMDL
MODEL 3
REMARK VINA RESULT:     -13.2      3.745      9.208
REMARK SMILES Cc1c(CC(=O)NCCCNC(=O)c2ccc(-c3c4nc(c(-c5c(F)c(F)c(F)c(F)c5F)c5ccc([nH]5)c(-c5c(F)c(F)c(F)c(F)c5F)c5nc(c(-c6c(F)c(F)c(F)c(F)c6F)c6ccc3[nH]6)C=C5)C=C4)cc2)c2cc(O)ccc2n1C(=O)c1ccc(Cl)cc1
REMARK SMILES IDX 8 1 7 2 5 3 6 4 4 6 3 7 1 8 2 9 84 10 77 11 83 12 78 13
REMARK SMILES IDX 82 14 79 15 81 16 85 17 86 18 87 19 88 20 93 21 89 22 92 23
REMARK SMILES IDX 90 24 91 25 80 26 9 28 10 29 11 30 12 31 13 33 14 34 15 35
REMARK SMILES IDX 76 36 16 37 75 38 17 39 18 40 19 41 69 42 20 43 74 44 68 45
REMARK SMILES IDX 70 46 21 47 73 48 67 49 66 50 22 52 54 53 34 54 53 55 35 56
REMARK SMILES IDX 38 57 52 58 71 59 36 60 37 61 51 63 72 64 39 65 23 66 24 67
REMARK SMILES IDX 32 68 25 69 26 70 30 71 33 72 27 73 28 74 31 75 29 76 55 77
REMARK SMILES IDX 56 78 64 79 57 80 58 81 62 82 65 83 59 84 60 85 63 86 61 87
REMARK SMILES IDX 40 88 41 89 49 90 42 91 43 92 47 93 50 94 44 95 45 96 48 97
REMARK SMILES IDX 46 98
REMARK H PARENT 7 5 80 27 11 32 70 51 38 62
REMARK Flexibility Score: inf
ROOT
ATOM      1  C   UNL A   1      36.690  23.140  24.508  1.00  0.00     0.117 C 
ENDROOT
BRANCH   1   2
ATOM      2  N   UNL A   1      35.633  23.199  25.500  1.00  0.00    -0.356 N 
ATOM      3  C   UNL A   1      34.510  23.975  25.526  1.00  0.00     0.224 C 
ATOM      4  O   UNL A   1      33.730  23.830  26.471  1.00  0.00    -0.275 OA
ATOM      5  H   UNL A   1      35.741  22.589  26.266  1.00  0.00     0.163 HD
BRANCH   3   6
ATOM      6  C   UNL A   1      34.213  24.942  24.393  1.00  0.00     0.138 C 
BRANCH   6   7
ATOM      7  C   UNL A   1      33.003  25.797  24.641  1.00  0.00    -0.009 A 
ATOM      8  C   UNL A   1      31.210  24.396  23.399  1.00  0.00     0.065 C 
ATOM      9  C   UNL A   1      31.713  25.570  24.181  1.00  0.00     0.028 A 
ATOM     10  N   UNL A   1      30.915  26.669  24.524  1.00  0.00    -0.280 N 
ATOM     11  C   UNL A   1      32.957  26.964  25.457  1.00  0.00     0.008 A 
ATOM     12  C   UNL A   1      31.639  27.438  25.452  1.00  0.00     0.057 A 
ATOM     13  C   UNL A   1      33.934  27.639  26.224  1.00  0.00     0.056 A 
ATOM     14  C   UNL A   1      31.282  28.529  26.274  1.00  0.00     0.031 A 
ATOM     15  C   UNL A   1      33.576  28.755  26.971  1.00  0.00     0.116 A 
ATOM     16  C   UNL A   1      32.267  29.194  27.011  1.00  0.00     0.048 A 
BRANCH  10  17
ATOM     17  C   UNL A   1      29.622  26.954  24.000  1.00  0.00     0.262 C 
ATOM     18  O   UNL A   1      28.693  26.178  24.243  1.00  0.00    -0.268 OA
BRANCH  17  19
ATOM     19  C   UNL A   1      29.285  28.110  23.158  1.00  0.00     0.040 A 
ATOM     20  C   UNL A   1      30.283  28.795  22.457  1.00  0.00     0.015 A 
ATOM     21  C   UNL A   1      27.953  28.535  23.117  1.00  0.00     0.015 A 
ATOM     22  C   UNL A   1      29.955  29.974  21.783  1.00  0.00     0.021 A 
ATOM     23  C   UNL A   1      27.631  29.708  22.433  1.00  0.00     0.021 A 
ATOM     24  C   UNL A   1      28.635  30.433  21.790  1.00  0.00     0.041 A 
ATOM     25  Cl  UNL A   1      28.250  31.923  21.022  1.00  0.00    -0.084 Cl
ENDBRANCH  17  19
ENDBRANCH  10  17
BRANCH  15  26
ATOM     26  O   UNL A   1      34.558  29.389  27.675  1.00  0.00    -0.508 OA
ATOM     27  H   UNL A   1      34.599  30.325  27.683  1.00  0.00     0.293 HD
ENDBRANCH  15  26
ENDBRANCH   6   7
ENDBRANCH   3   6
ENDBRANCH   1   2
BRANCH   1  28
ATOM     28  C   UNL A   1      37.772  22.115  24.859  1.00  0.00     0.042 C 
BRANCH  28  29
ATOM     29  C   UNL A   1      38.503  22.415  26.169  1.00  0.00     0.118 C 
BRANCH  29  30
ATOM     30  N   UNL A   1      39.923  22.118  26.132  1.00  0.00    -0.352 N 
ATOM     31  C   UNL A   1      41.070  22.747  26.521  1.00  0.00     0.251 C 
ATOM     32  H   UNL A   1      40.105  21.241  25.723  1.00  0.00     0.163 HD
ATOM     33  O   UNL A   1      42.106  22.085  26.410  1.00  0.00    -0.269 OA
BRANCH  31  34
ATOM     34  C   UNL A   1      41.179  24.152  26.995  1.00  0.00     0.039 A 
ATOM     35  C   UNL A   1      41.768  24.565  28.188  1.00  0.00     0.014 A 
ATOM     36  C   UNL A   1      40.556  25.123  26.182  1.00  0.00     0.014 A 
ATOM     37  C   UNL A   1      41.642  25.889  28.604  1.00  0.00     0.010 A 
ATOM     38  C   UNL A   1      40.440  26.449  26.587  1.00  0.00     0.010 A 
ATOM     39  C   UNL A   1      40.937  26.818  27.826  1.00  0.00    -0.014 A 
BRANCH  39  40
ATOM     40  C   UNL A   1      40.838  28.188  28.328  1.00  0.00     0.031 A 
ATOM     41  C   UNL A   1      41.958  29.067  27.899  1.00  0.00     0.074 A 
ATOM     42  C   UNL A   1      39.821  28.666  29.077  1.00  0.00     0.049 A 
ATOM     43  N   UNL A   1      42.885  29.572  28.641  1.00  0.00    -0.248 NA
ATOM     44  C   UNL A   1      42.142  29.314  26.462  1.00  0.00     0.031 C 
ATOM     45  C   UNL A   1      38.522  28.036  29.326  1.00  0.00     0.029 A 
ATOM     46  N   UNL A   1      39.708  29.866  29.728  1.00  0.00    -0.354 N 
ATOM     47  C   UNL A   1      43.660  30.367  27.800  1.00  0.00     0.074 A 
ATOM     48  C   UNL A   1      43.251  30.056  26.456  1.00  0.00     0.031 C 
ATOM     49  C   UNL A   1      37.679  28.941  29.876  1.00  0.00     0.029 A 
ATOM     50  C   UNL A   1      38.424  30.152  30.175  1.00  0.00     0.049 A 
ATOM     51  H   UNL A   1      40.471  30.473  29.867  1.00  0.00     0.167 HD
ATOM     52  C   UNL A   1      44.390  31.397  28.307  1.00  0.00     0.037 A 
ATOM     53  C   UNL A   1      37.997  31.310  30.739  1.00  0.00     0.037 A 
ATOM     54  C   UNL A   1      44.529  31.284  29.735  1.00  0.00     0.049 A 
ATOM     55  C   UNL A   1      39.170  31.995  31.324  1.00  0.00     0.074 A 
ATOM     56  C   UNL A   1      45.359  30.639  30.624  1.00  0.00     0.029 A 
ATOM     57  N   UNL A   1      43.421  31.681  30.427  1.00  0.00    -0.354 N 
ATOM     58  N   UNL A   1      39.839  31.538  32.345  1.00  0.00    -0.248 NA
ATOM     59  C   UNL A   1      39.807  33.083  30.589  1.00  0.00     0.031 C 
ATOM     60  C   UNL A   1      44.650  30.567  31.861  1.00  0.00     0.029 A 
ATOM     61  C   UNL A   1      43.421  31.198  31.707  1.00  0.00     0.049 A 
ATOM     62  H   UNL A   1      42.708  32.246  30.050  1.00  0.00     0.167 HD
ATOM     63  C   UNL A   1      41.124  31.976  32.123  1.00  0.00     0.074 A 
ATOM     64  C   UNL A   1      41.015  33.056  31.155  1.00  0.00     0.031 C 
ATOM     65  C   UNL A   1      42.192  31.203  32.462  1.00  0.00     0.037 A 
BRANCH  52  66
ATOM     66  C   UNL A   1      44.580  32.735  27.624  1.00  0.00     0.064 A 
ATOM     67  C   UNL A   1      45.740  32.962  26.854  1.00  0.00     0.173 A 
ATOM     68  C   UNL A   1      43.841  33.890  27.956  1.00  0.00     0.173 A 
ATOM     69  F   UNL A   1      46.540  31.943  26.506  1.00  0.00    -0.203 F 
ATOM     70  C   UNL A   1      46.150  34.249  26.490  1.00  0.00     0.198 A 
ATOM     71  C   UNL A   1      44.224  35.168  27.549  1.00  0.00     0.198 A 
ATOM     72  F   UNL A   1      42.785  33.846  28.778  1.00  0.00    -0.203 F 
ATOM     73  F   UNL A   1      47.315  34.424  25.851  1.00  0.00    -0.200 F 
ATOM     74  C   UNL A   1      45.392  35.352  26.839  1.00  0.00     0.200 A 
ATOM     75  F   UNL A   1      43.491  36.226  27.922  1.00  0.00    -0.200 F 
ATOM     76  F   UNL A   1      45.806  36.589  26.535  1.00  0.00    -0.200 F 
ENDBRANCH  52  66
BRANCH  53  77
ATOM     77  C   UNL A   1      36.702  32.015  30.578  1.00  0.00     0.064 A 
ATOM     78  C   UNL A   1      35.831  32.176  31.670  1.00  0.00     0.173 A 
ATOM     79  C   UNL A   1      36.463  32.833  29.458  1.00  0.00     0.173 A 
ATOM     80  F   UNL A   1      36.006  31.453  32.786  1.00  0.00    -0.203 F 
ATOM     81  C   UNL A   1      34.825  33.147  31.670  1.00  0.00     0.198 A 
ATOM     82  C   UNL A   1      35.455  33.799  29.458  1.00  0.00     0.198 A 
ATOM     83  F   UNL A   1      37.272  32.784  28.391  1.00  0.00    -0.203 F 
ATOM     84  F   UNL A   1      34.073  33.332  32.763  1.00  0.00    -0.200 F 
ATOM     85  C   UNL A   1      34.653  33.972  30.572  1.00  0.00     0.200 A 
ATOM     86  F   UNL A   1      35.319  34.615  28.403  1.00  0.00    -0.200 F 
ATOM     87  F   UNL A   1      33.748  34.962  30.603  1.00  0.00    -0.200 F 
ENDBRANCH  53  77
BRANCH  65  88
ATOM     88  C   UNL A   1      42.007  30.201  33.553  1.00  0.00     0.064 A 
ATOM     89  C   UNL A   1      41.641  28.861  33.352  1.00  0.00     0.173 A 
ATOM     90  C   UNL A   1      42.278  30.614  34.864  1.00  0.00     0.173 A 
ATOM     91  F   UNL A   1      41.429  28.383  32.119  1.00  0.00    -0.203 F 
ATOM     92  C   UNL A   1      41.526  27.981  34.428  1.00  0.00     0.198 A 
ATOM     93  C   UNL A   1      42.195  29.726  35.931  1.00  0.00     0.198 A 
ATOM     94  F   UNL A   1      42.658  31.879  35.106  1.00  0.00    -0.203 F 
ATOM     95  F   UNL A   1      41.159  26.709  34.221  1.00  0.00    -0.200 F 
ATOM     96  C   UNL A   1      41.812  28.414  35.715  1.00  0.00     0.200 A 
ATOM     97  F   UNL A   1      42.507  30.143  37.167  1.00  0.00    -0.200 F 
ATOM     98  F   UNL A   1      41.733  27.561  36.747  1.00  0.00    -0.200 F 
ENDBRANCH  65  88
ENDBRANCH  39  40
ENDBRANCH  31  34
ENDBRANCH  29  30
ENDBRANCH  28  29
ENDBRANCH   1  28
TORSDOF 14
ENDMDL
