MODEL 1
REMARK VINA RESULT:     -13.5      0.000      0.000
REMARK SMILES CNC(=O)c1ccc(-n2nc(C)c(C(=O)NCCCNC(=O)c3ccc(-c4c5nc(c(-c6c(F)c(F)c(F)c(F)c6F)c6ccc([nH]6)c(-c6c(F)c(F)c(F)c(F)c6F)c6nc(c(-c7c(F)c(F)c(F)c(F)c7F)c7ccc4[nH]7)C=C6)C=C5)cc3)c2C)nn1
REMARK SMILES IDX 18 1 17 2 16 3 14 4 15 5 13 7 9 8 10 9 86 10 11 11 87 12
REMARK SMILES IDX 12 13 8 14 5 15 6 16 89 17 7 18 88 19 3 20 1 21 2 22 4 24
REMARK SMILES IDX 19 25 20 26 21 27 22 29 23 30 24 31 85 32 25 33 84 34 26 35
REMARK SMILES IDX 27 36 28 37 78 38 29 39 83 40 77 41 79 42 30 43 82 44 76 45
REMARK SMILES IDX 75 46 31 48 63 49 43 50 62 51 44 52 47 53 61 54 80 55 45 56
REMARK SMILES IDX 46 57 60 59 81 60 48 61 32 62 33 63 41 64 34 65 35 66 39 67
REMARK SMILES IDX 42 68 36 69 37 70 40 71 38 72 64 73 65 74 73 75 66 76 67 77
REMARK SMILES IDX 71 78 74 79 68 80 69 81 72 82 70 83 49 84 50 85 58 86 51 87
REMARK SMILES IDX 52 88 56 89 59 90 53 91 54 92 57 93 55 94
REMARK H PARENT 16 6 2 23 20 28 79 47 47 58
REMARK Flexibility Score: inf
ROOT
ATOM      1  C   UNL A   1      38.224  21.478  25.491  1.00  0.00     0.042 C 
ENDROOT
BRANCH   1   2
ATOM      2  C   UNL A   1      36.874  22.165  25.248  1.00  0.00     0.118 C 
BRANCH   2   3
ATOM      3  N   UNL A   1      35.909  21.831  26.278  1.00  0.00    -0.352 N 
ATOM      4  C   UNL A   1      34.540  21.893  26.367  1.00  0.00     0.255 C 
ATOM      5  O   UNL A   1      34.084  21.452  27.424  1.00  0.00    -0.269 OA
ATOM      6  H   UNL A   1      36.330  21.480  27.097  1.00  0.00     0.163 HD
BRANCH   4   7
ATOM      7  C   UNL A   1      33.649  22.387  25.308  1.00  0.00     0.084 A 
ATOM      8  N   UNL A   1      32.369  23.513  23.857  1.00  0.00    -0.217 N 
ATOM      9  N   UNL A   1      32.155  22.232  23.537  1.00  0.00    -0.171 NA
ATOM     10  C   UNL A   1      33.130  23.646  25.011  1.00  0.00     0.056 A 
ATOM     11  C   UNL A   1      32.947  21.542  24.371  1.00  0.00     0.073 A 
ATOM     12  C   UNL A   1      33.110  24.948  25.719  1.00  0.00     0.068 C 
ATOM     13  C   UNL A   1      32.943  20.057  24.243  1.00  0.00     0.069 C 
BRANCH   8  14
ATOM     14  C   UNL A   1      31.754  24.596  23.168  1.00  0.00     0.175 A 
ATOM     15  C   UNL A   1      31.004  27.154  22.644  1.00  0.00     0.150 A 
ATOM     16  C   UNL A   1      32.205  26.701  22.118  1.00  0.00     0.040 A 
ATOM     17  N   UNL A   1      30.193  26.350  23.371  1.00  0.00    -0.143 NA
ATOM     18  C   UNL A   1      32.576  25.385  22.362  1.00  0.00     0.053 A 
ATOM     19  N   UNL A   1      30.568  25.049  23.632  1.00  0.00    -0.130 NA
BRANCH  15  20
ATOM     20  C   UNL A   1      30.619  28.587  22.554  1.00  0.00     0.271 C 
ATOM     21  C   UNL A   1      31.945  29.314  24.613  1.00  0.00     0.143 C 
ATOM     22  N   UNL A   1      31.010  29.483  23.524  1.00  0.00    -0.354 N 
ATOM     23  H   UNL A   1      30.589  30.372  23.467  1.00  0.00     0.163 HD
ATOM     24  O   UNL A   1      29.907  28.982  21.633  1.00  0.00    -0.267 OA
ENDBRANCH  15  20
ENDBRANCH   8  14
ENDBRANCH   4   7
ENDBRANCH   2   3
ENDBRANCH   1   2
BRANCH   1  25
ATOM     25  C   UNL A   1      39.118  22.146  26.495  1.00  0.00     0.118 C 
BRANCH  25  26
ATOM     26  N   UNL A   1      40.541  21.982  26.187  1.00  0.00    -0.352 N 
ATOM     27  C   UNL A   1      41.540  22.948  26.246  1.00  0.00     0.251 C 
ATOM     28  H   UNL A   1      40.824  21.082  25.905  1.00  0.00     0.163 HD
ATOM     29  O   UNL A   1      42.585  22.827  25.646  1.00  0.00    -0.269 OA
BRANCH  27  30
ATOM     30  C   UNL A   1      41.259  24.139  27.069  1.00  0.00     0.039 A 
ATOM     31  C   UNL A   1      41.864  24.374  28.304  1.00  0.00     0.014 A 
ATOM     32  C   UNL A   1      40.484  25.109  26.458  1.00  0.00     0.014 A 
ATOM     33  C   UNL A   1      41.746  25.648  28.853  1.00  0.00     0.010 A 
ATOM     34  C   UNL A   1      40.700  26.404  26.806  1.00  0.00     0.010 A 
ATOM     35  C   UNL A   1      41.183  26.669  28.072  1.00  0.00    -0.014 A 
BRANCH  35  36
ATOM     36  C   UNL A   1      41.046  28.041  28.522  1.00  0.00     0.031 A 
ATOM     37  C   UNL A   1      42.061  28.989  28.015  1.00  0.00     0.074 A 
ATOM     38  C   UNL A   1      39.977  28.465  29.230  1.00  0.00     0.049 A 
ATOM     39  N   UNL A   1      43.042  29.494  28.681  1.00  0.00    -0.248 NA
ATOM     40  C   UNL A   1      42.070  29.323  26.586  1.00  0.00     0.031 C 
ATOM     41  C   UNL A   1      38.725  27.770  29.571  1.00  0.00     0.029 A 
ATOM     42  N   UNL A   1      39.777  29.697  29.759  1.00  0.00    -0.354 N 
ATOM     43  C   UNL A   1      43.718  30.337  27.808  1.00  0.00     0.074 A 
ATOM     44  C   UNL A   1      43.168  30.081  26.500  1.00  0.00     0.031 C 
ATOM     45  C   UNL A   1      37.823  28.656  30.047  1.00  0.00     0.029 A 
ATOM     46  C   UNL A   1      38.495  29.925  30.233  1.00  0.00     0.049 A 
ATOM     47  H   UNL A   1      40.488  30.377  29.801  1.00  0.00     0.167 HD
ATOM     48  C   UNL A   1      44.552  31.305  28.283  1.00  0.00     0.037 A 
ATOM     49  C   UNL A   1      38.031  31.089  30.741  1.00  0.00     0.037 A 
ATOM     50  C   UNL A   1      44.815  31.111  29.689  1.00  0.00     0.049 A 
ATOM     51  C   UNL A   1      39.221  31.861  31.189  1.00  0.00     0.074 A 
ATOM     52  C   UNL A   1      45.434  30.118  30.423  1.00  0.00     0.029 A 
ATOM     53  N   UNL A   1      44.055  31.819  30.590  1.00  0.00    -0.354 N 
ATOM     54  N   UNL A   1      39.985  31.493  32.182  1.00  0.00    -0.248 NA
ATOM     55  C   UNL A   1      39.841  32.764  30.229  1.00  0.00     0.031 C 
ATOM     56  C   UNL A   1      44.634  29.975  31.596  1.00  0.00     0.029 A 
ATOM     57  C   UNL A   1      43.621  30.935  31.545  1.00  0.00     0.049 A 
ATOM     58  H   UNL A   1      43.858  32.784  30.556  1.00  0.00     0.167 HD
ATOM     59  C   UNL A   1      41.279  31.760  31.756  1.00  0.00     0.074 A 
ATOM     60  C   UNL A   1      41.122  32.617  30.581  1.00  0.00     0.031 C 
ATOM     61  C   UNL A   1      42.342  31.034  32.213  1.00  0.00     0.037 A 
BRANCH  48  62
ATOM     62  C   UNL A   1      44.889  32.595  27.587  1.00  0.00     0.064 A 
ATOM     63  C   UNL A   1      46.138  32.720  26.945  1.00  0.00     0.173 A 
ATOM     64  C   UNL A   1      44.171  33.794  27.766  1.00  0.00     0.173 A 
ATOM     65  F   UNL A   1      46.908  31.643  26.727  1.00  0.00    -0.203 F 
ATOM     66  C   UNL A   1      46.663  33.963  26.587  1.00  0.00     0.198 A 
ATOM     67  C   UNL A   1      44.675  35.029  27.358  1.00  0.00     0.198 A 
ATOM     68  F   UNL A   1      43.015  33.836  28.436  1.00  0.00    -0.203 F 
ATOM     69  F   UNL A   1      47.906  34.044  26.094  1.00  0.00    -0.200 F 
ATOM     70  C   UNL A   1      45.934  35.118  26.801  1.00  0.00     0.200 A 
ATOM     71  F   UNL A   1      43.959  36.140  27.586  1.00  0.00    -0.200 F 
ATOM     72  F   UNL A   1      46.459  36.317  26.517  1.00  0.00    -0.200 F 
ENDBRANCH  48  62
BRANCH  49  73
ATOM     73  C   UNL A   1      36.694  31.688  30.535  1.00  0.00     0.064 A 
ATOM     74  C   UNL A   1      35.868  31.993  31.627  1.00  0.00     0.173 A 
ATOM     75  C   UNL A   1      36.316  32.232  29.291  1.00  0.00     0.173 A 
ATOM     76  F   UNL A   1      36.177  31.541  32.852  1.00  0.00    -0.203 F 
ATOM     77  C   UNL A   1      34.754  32.827  31.492  1.00  0.00     0.198 A 
ATOM     78  C   UNL A   1      35.201  33.061  29.156  1.00  0.00     0.198 A 
ATOM     79  F   UNL A   1      37.073  32.051  28.199  1.00  0.00    -0.203 F 
ATOM     80  F   UNL A   1      34.029  33.153  32.571  1.00  0.00    -0.200 F 
ATOM     81  C   UNL A   1      34.431  33.373  30.260  1.00  0.00     0.200 A 
ATOM     82  F   UNL A   1      34.920  33.608  27.965  1.00  0.00    -0.200 F 
ATOM     83  F   UNL A   1      33.405  34.227  30.144  1.00  0.00    -0.200 F 
ENDBRANCH  49  73
BRANCH  61  84
ATOM     84  C   UNL A   1      42.105  30.087  33.361  1.00  0.00     0.064 A 
ATOM     85  C   UNL A   1      41.755  28.733  33.207  1.00  0.00     0.173 A 
ATOM     86  C   UNL A   1      42.397  30.526  34.660  1.00  0.00     0.173 A 
ATOM     87  F   UNL A   1      41.561  28.205  31.996  1.00  0.00    -0.203 F 
ATOM     88  C   UNL A   1      41.659  27.877  34.303  1.00  0.00     0.198 A 
ATOM     89  C   UNL A   1      42.336  29.660  35.749  1.00  0.00     0.198 A 
ATOM     90  F   UNL A   1      42.794  31.791  34.866  1.00  0.00    -0.203 F 
ATOM     91  F   UNL A   1      41.314  26.592  34.125  1.00  0.00    -0.200 F 
ATOM     92  C   UNL A   1      41.957  28.339  35.573  1.00  0.00     0.200 A 
ATOM     93  F   UNL A   1      42.675  30.099  36.969  1.00  0.00    -0.200 F 
ATOM     94  F   UNL A   1      41.907  27.506  36.623  1.00  0.00    -0.200 F 
ENDBRANCH  61  84
ENDBRANCH  35  36
ENDBRANCH  27  30
ENDBRANCH  25  26
ENDBRANCH   1  25
TORSDOF 12
ENDMDL
MODEL 2
REMARK VINA RESULT:     -13.4      3.063      8.999
REMARK SMILES CNC(=O)c1ccc(-n2nc(C)c(C(=O)NCCCNC(=O)c3ccc(-c4c5nc(c(-c6c(F)c(F)c(F)c(F)c6F)c6ccc([nH]6)c(-c6c(F)c(F)c(F)c(F)c6F)c6nc(c(-c7c(F)c(F)c(F)c(F)c7F)c7ccc4[nH]7)C=C6)C=C5)cc3)c2C)nn1
REMARK SMILES IDX 18 1 17 2 16 3 14 4 15 5 13 7 9 8 10 9 86 10 11 11 87 12
REMARK SMILES IDX 12 13 8 14 5 15 6 16 89 17 7 18 88 19 3 20 1 21 2 22 4 24
REMARK SMILES IDX 19 25 20 26 21 27 22 29 23 30 24 31 85 32 25 33 84 34 26 35
REMARK SMILES IDX 27 36 28 37 78 38 29 39 83 40 77 41 79 42 30 43 82 44 76 45
REMARK SMILES IDX 75 46 31 48 63 49 43 50 62 51 44 52 47 53 61 54 80 55 45 56
REMARK SMILES IDX 46 57 60 59 81 60 48 61 32 62 33 63 41 64 34 65 35 66 39 67
REMARK SMILES IDX 42 68 36 69 37 70 40 71 38 72 64 73 65 74 73 75 66 76 67 77
REMARK SMILES IDX 71 78 74 79 68 80 69 81 72 82 70 83 49 84 50 85 58 86 51 87
REMARK SMILES IDX 52 88 56 89 59 90 53 91 54 92 57 93 55 94
REMARK H PARENT 16 6 2 23 20 28 79 47 47 58
REMARK Flexibility Score: inf
ROOT
ATOM      1  C   UNL A   1      32.540  31.008  26.906  1.00  0.00     0.042 C 
ENDROOT
BRANCH   1   2
ATOM      2  C   UNL A   1      32.182  29.674  26.238  1.00  0.00     0.118 C 
BRANCH   2   3
ATOM      3  N   UNL A   1      31.446  29.874  25.004  1.00  0.00    -0.352 N 
ATOM      4  C   UNL A   1      30.931  29.032  24.049  1.00  0.00     0.255 C 
ATOM      5  O   UNL A   1      30.309  29.610  23.153  1.00  0.00    -0.269 OA
ATOM      6  H   UNL A   1      31.279  30.824  24.807  1.00  0.00     0.163 HD
BRANCH   4   7
ATOM      7  C   UNL A   1      31.039  27.567  24.069  1.00  0.00     0.084 A 
ATOM      8  N   UNL A   1      31.613  25.404  24.127  1.00  0.00    -0.217 N 
ATOM      9  N   UNL A   1      30.289  25.374  23.934  1.00  0.00    -0.171 NA
ATOM     10  C   UNL A   1      32.125  26.693  24.053  1.00  0.00     0.056 A 
ATOM     11  C   UNL A   1      29.921  26.663  23.937  1.00  0.00     0.073 A 
ATOM     12  C   UNL A   1      33.581  26.859  23.834  1.00  0.00     0.068 C 
ATOM     13  C   UNL A   1      28.471  26.959  23.759  1.00  0.00     0.069 C 
BRANCH   8  14
ATOM     14  C   UNL A   1      32.406  24.228  24.241  1.00  0.00     0.175 A 
ATOM     15  C   UNL A   1      32.983  21.599  24.615  1.00  0.00     0.150 A 
ATOM     16  C   UNL A   1      32.726  22.038  23.324  1.00  0.00     0.040 A 
ATOM     17  N   UNL A   1      32.989  22.447  25.670  1.00  0.00    -0.143 NA
ATOM     18  C   UNL A   1      32.459  23.387  23.129  1.00  0.00     0.053 A 
ATOM     19  N   UNL A   1      32.703  23.783  25.482  1.00  0.00    -0.130 NA
BRANCH  15  20
ATOM     20  C   UNL A   1      33.125  20.151  24.918  1.00  0.00     0.271 C 
ATOM     21  C   UNL A   1      35.678  20.179  24.994  1.00  0.00     0.143 C 
ATOM     22  N   UNL A   1      34.369  19.566  24.989  1.00  0.00    -0.354 N 
ATOM     23  H   UNL A   1      34.368  18.583  25.044  1.00  0.00     0.163 HD
ATOM     24  O   UNL A   1      32.129  19.446  25.067  1.00  0.00    -0.267 OA
ENDBRANCH  15  20
ENDBRANCH   8  14
ENDBRANCH   4   7
ENDBRANCH   2   3
ENDBRANCH   1   2
BRANCH   1  25
ATOM     25  C   UNL A   1      33.819  31.016  27.692  1.00  0.00     0.118 C 
BRANCH  25  26
ATOM     26  N   UNL A   1      34.513  32.305  27.636  1.00  0.00    -0.352 N 
ATOM     27  C   UNL A   1      35.760  32.622  28.164  1.00  0.00     0.251 C 
ATOM     28  H   UNL A   1      34.041  33.033  27.170  1.00  0.00     0.163 HD
ATOM     29  O   UNL A   1      36.091  33.766  28.385  1.00  0.00    -0.269 OA
BRANCH  27  30
ATOM     30  C   UNL A   1      36.661  31.491  28.453  1.00  0.00     0.039 A 
ATOM     31  C   UNL A   1      36.721  30.342  27.665  1.00  0.00     0.014 A 
ATOM     32  C   UNL A   1      37.582  31.714  29.462  1.00  0.00     0.014 A 
ATOM     33  C   UNL A   1      37.794  29.476  27.860  1.00  0.00     0.010 A 
ATOM     34  C   UNL A   1      38.783  31.085  29.374  1.00  0.00     0.010 A 
ATOM     35  C   UNL A   1      38.841  29.880  28.704  1.00  0.00    -0.014 A 
BRANCH  35  36
ATOM     36  C   UNL A   1      40.027  29.081  28.950  1.00  0.00     0.031 A 
ATOM     37  C   UNL A   1      40.296  28.746  30.364  1.00  0.00     0.074 A 
ATOM     38  C   UNL A   1      40.754  28.542  27.947  1.00  0.00     0.049 A 
ATOM     39  N   UNL A   1      41.211  29.259  31.114  1.00  0.00    -0.248 NA
ATOM     40  C   UNL A   1      39.381  27.840  31.067  1.00  0.00     0.031 C 
ATOM     41  C   UNL A   1      40.489  28.491  26.500  1.00  0.00     0.029 A 
ATOM     42  N   UNL A   1      41.909  27.840  28.054  1.00  0.00    -0.354 N 
ATOM     43  C   UNL A   1      41.101  28.635  32.351  1.00  0.00     0.074 A 
ATOM     44  C   UNL A   1      39.872  27.883  32.310  1.00  0.00     0.031 C 
ATOM     45  C   UNL A   1      41.332  27.617  25.909  1.00  0.00     0.029 A 
ATOM     46  C   UNL A   1      42.314  27.206  26.891  1.00  0.00     0.049 A 
ATOM     47  H   UNL A   1      42.419  27.786  28.894  1.00  0.00     0.167 HD
ATOM     48  C   UNL A   1      42.138  28.658  33.235  1.00  0.00     0.037 A 
ATOM     49  C   UNL A   1      43.389  26.397  26.760  1.00  0.00     0.037 A 
ATOM     50  C   UNL A   1      43.144  29.608  32.823  1.00  0.00     0.049 A 
ATOM     51  C   UNL A   1      44.314  26.736  27.874  1.00  0.00     0.074 A 
ATOM     52  C   UNL A   1      43.161  30.979  32.659  1.00  0.00     0.029 A 
ATOM     53  N   UNL A   1      44.222  29.135  32.112  1.00  0.00    -0.354 N 
ATOM     54  N   UNL A   1      44.931  27.883  27.973  1.00  0.00    -0.248 NA
ATOM     55  C   UNL A   1      44.168  26.000  29.121  1.00  0.00     0.031 C 
ATOM     56  C   UNL A   1      43.926  31.198  31.475  1.00  0.00     0.029 A 
ATOM     57  C   UNL A   1      44.391  29.960  31.028  1.00  0.00     0.049 A 
ATOM     58  H   UNL A   1      44.771  28.350  32.339  1.00  0.00     0.167 HD
ATOM     59  C   UNL A   1      44.869  28.208  29.321  1.00  0.00     0.074 A 
ATOM     60  C   UNL A   1      44.460  26.973  29.990  1.00  0.00     0.031 C 
ATOM     61  C   UNL A   1      44.870  29.508  29.739  1.00  0.00     0.037 A 
BRANCH  48  62
ATOM     62  C   UNL A   1      42.413  27.627  34.295  1.00  0.00     0.064 A 
ATOM     63  C   UNL A   1      43.062  26.429  33.934  1.00  0.00     0.173 A 
ATOM     64  C   UNL A   1      41.820  27.640  35.574  1.00  0.00     0.173 A 
ATOM     65  F   UNL A   1      43.656  26.305  32.738  1.00  0.00    -0.203 F 
ATOM     66  C   UNL A   1      43.043  25.302  34.758  1.00  0.00     0.198 A 
ATOM     67  C   UNL A   1      41.850  26.530  36.417  1.00  0.00     0.198 A 
ATOM     68  F   UNL A   1      41.098  28.677  36.011  1.00  0.00    -0.203 F 
ATOM     69  F   UNL A   1      43.564  24.148  34.320  1.00  0.00    -0.200 F 
ATOM     70  C   UNL A   1      42.430  25.351  35.996  1.00  0.00     0.200 A 
ATOM     71  F   UNL A   1      41.238  26.591  37.608  1.00  0.00    -0.200 F 
ATOM     72  F   UNL A   1      42.355  24.255  36.762  1.00  0.00    -0.200 F 
ENDBRANCH  48  62
BRANCH  49  73
ATOM     73  C   UNL A   1      43.484  25.153  25.964  1.00  0.00     0.064 A 
ATOM     74  C   UNL A   1      44.592  24.912  25.138  1.00  0.00     0.173 A 
ATOM     75  C   UNL A   1      42.635  24.055  26.212  1.00  0.00     0.173 A 
ATOM     76  F   UNL A   1      45.466  25.897  24.880  1.00  0.00    -0.203 F 
ATOM     77  C   UNL A   1      44.860  23.639  24.625  1.00  0.00     0.198 A 
ATOM     78  C   UNL A   1      42.901  22.786  25.696  1.00  0.00     0.198 A 
ATOM     79  F   UNL A   1      41.586  24.167  27.039  1.00  0.00    -0.203 F 
ATOM     80  F   UNL A   1      45.966  23.431  23.897  1.00  0.00    -0.200 F 
ATOM     81  C   UNL A   1      44.022  22.575  24.917  1.00  0.00     0.200 A 
ATOM     82  F   UNL A   1      42.101  21.758  26.014  1.00  0.00    -0.200 F 
ATOM     83  F   UNL A   1      44.316  21.341  24.483  1.00  0.00    -0.200 F 
ENDBRANCH  49  73
BRANCH  61  84
ATOM     84  C   UNL A   1      45.169  30.575  28.719  1.00  0.00     0.064 A 
ATOM     85  C   UNL A   1      44.197  31.174  27.897  1.00  0.00     0.173 A 
ATOM     86  C   UNL A   1      46.459  31.123  28.683  1.00  0.00     0.173 A 
ATOM     87  F   UNL A   1      42.919  30.785  27.943  1.00  0.00    -0.203 F 
ATOM     88  C   UNL A   1      44.513  32.236  27.050  1.00  0.00     0.198 A 
ATOM     89  C   UNL A   1      46.764  32.207  27.863  1.00  0.00     0.198 A 
ATOM     90  F   UNL A   1      47.416  30.635  29.487  1.00  0.00    -0.203 F 
ATOM     91  F   UNL A   1      43.566  32.780  26.270  1.00  0.00    -0.200 F 
ATOM     92  C   UNL A   1      45.795  32.756  27.040  1.00  0.00     0.200 A 
ATOM     93  F   UNL A   1      47.993  32.740  27.895  1.00  0.00    -0.200 F 
ATOM     94  F   UNL A   1      46.090  33.805  26.258  1.00  0.00    -0.200 F 
ENDBRANCH  61  84
ENDBRANCH  35  36
ENDBRANCH  27  30
ENDBRANCH  25  26
ENDBRANCH   1  25
TORSDOF 12
ENDMDL
MODEL 3
REMARK VINA RESULT:     -13.1      4.348      7.652
REMARK SMILES CNC(=O)c1ccc(-n2nc(C)c(C(=O)NCCCNC(=O)c3ccc(-c4c5nc(c(-c6c(F)c(F)c(F)c(F)c6F)c6ccc([nH]6)c(-c6c(F)c(F)c(F)c(F)c6F)c6nc(c(-c7c(F)c(F)c(F)c(F)c7F)c7ccc4[nH]7)C=C6)C=C5)cc3)c2C)nn1
REMARK SMILES IDX 18 1 17 2 16 3 14 4 15 5 13 7 9 8 10 9 86 10 11 11 87 12
REMARK SMILES IDX 12 13 8 14 5 15 6 16 89 17 7 18 88 19 3 20 1 21 2 22 4 24
REMARK SMILES IDX 19 25 20 26 21 27 22 29 23 30 24 31 85 32 25 33 84 34 26 35
REMARK SMILES IDX 27 36 28 37 78 38 29 39 83 40 77 41 79 42 30 43 82 44 76 45
REMARK SMILES IDX 75 46 31 48 63 49 43 50 62 51 44 52 47 53 61 54 80 55 45 56
REMARK SMILES IDX 46 57 60 59 81 60 48 61 32 62 33 63 41 64 34 65 35 66 39 67
REMARK SMILES IDX 42 68 36 69 37 70 40 71 38 72 64 73 65 74 73 75 66 76 67 77
REMARK SMILES IDX 71 78 74 79 68 80 69 81 72 82 70 83 49 84 50 85 58 86 51 87
REMARK SMILES IDX 52 88 56 89 59 90 53 91 54 92 57 93 55 94
REMARK H PARENT 16 6 2 23 20 28 79 47 47 58
REMARK Flexibility Score: inf
ROOT
ATOM      1  C   UNL A   1      42.891  24.691  25.044  1.00  0.00     0.042 C 
ENDROOT
BRANCH   1   2
ATOM      2  C   UNL A   1      44.128  25.594  25.142  1.00  0.00     0.118 C 
BRANCH   2   3
ATOM      3  N   UNL A   1      45.341  24.822  25.333  1.00  0.00    -0.352 N 
ATOM      4  C   UNL A   1      46.172  24.594  26.402  1.00  0.00     0.255 C 
ATOM      5  O   UNL A   1      47.096  23.812  26.162  1.00  0.00    -0.269 OA
ATOM      6  H   UNL A   1      45.633  24.358  24.515  1.00  0.00     0.163 HD
BRANCH   4   7
ATOM      7  C   UNL A   1      45.995  25.164  27.745  1.00  0.00     0.084 A 
ATOM      8  N   UNL A   1      45.629  25.645  29.900  1.00  0.00    -0.217 N 
ATOM      9  N   UNL A   1      45.861  26.840  29.346  1.00  0.00    -0.171 NA
ATOM     10  C   UNL A   1      45.541  24.635  28.952  1.00  0.00     0.056 A 
ATOM     11  C   UNL A   1      46.123  26.568  28.060  1.00  0.00     0.073 A 
ATOM     12  C   UNL A   1      44.893  23.360  29.341  1.00  0.00     0.068 C 
ATOM     13  C   UNL A   1      46.446  27.719  27.171  1.00  0.00     0.069 C 
BRANCH   8  14
ATOM     14  C   UNL A   1      45.356  25.474  31.286  1.00  0.00     0.175 A 
ATOM     15  C   UNL A   1      45.106  26.134  33.910  1.00  0.00     0.150 A 
ATOM     16  C   UNL A   1      44.001  26.287  33.086  1.00  0.00     0.040 A 
ATOM     17  N   UNL A   1      46.277  25.636  33.450  1.00  0.00    -0.143 NA
ATOM     18  C   UNL A   1      44.120  25.923  31.751  1.00  0.00     0.053 A 
ATOM     19  N   UNL A   1      46.405  25.293  32.120  1.00  0.00    -0.130 NA
BRANCH  15  20
ATOM     20  C   UNL A   1      45.098  26.644  35.307  1.00  0.00     0.271 C 
ATOM     21  C   UNL A   1      44.620  24.375  36.379  1.00  0.00     0.143 C 
ATOM     22  N   UNL A   1      44.786  25.810  36.357  1.00  0.00    -0.354 N 
ATOM     23  H   UNL A   1      44.658  26.259  37.224  1.00  0.00     0.163 HD
ATOM     24  O   UNL A   1      45.326  27.830  35.537  1.00  0.00    -0.267 OA
ENDBRANCH  15  20
ENDBRANCH   8  14
ENDBRANCH   4   7
ENDBRANCH   2   3
ENDBRANCH   1   2
BRANCH   1  25
ATOM     25  C   UNL A   1      42.990  23.379  25.767  1.00  0.00     0.118 C 
BRANCH  25  26
ATOM     26  N   UNL A   1      41.721  22.646  25.790  1.00  0.00    -0.352 N 
ATOM     27  C   UNL A   1      40.694  22.756  26.721  1.00  0.00     0.251 C 
ATOM     28  H   UNL A   1      41.579  21.999  25.061  1.00  0.00     0.163 HD
ATOM     29  O   UNL A   1      39.867  21.883  26.869  1.00  0.00    -0.269 OA
BRANCH  27  30
ATOM     30  C   UNL A   1      40.666  23.987  27.532  1.00  0.00     0.039 A 
ATOM     31  C   UNL A   1      41.667  24.323  28.444  1.00  0.00     0.014 A 
ATOM     32  C   UNL A   1      39.669  24.887  27.204  1.00  0.00     0.014 A 
ATOM     33  C   UNL A   1      41.686  25.625  28.937  1.00  0.00     0.010 A 
ATOM     34  C   UNL A   1      39.923  26.209  27.385  1.00  0.00     0.010 A 
ATOM     35  C   UNL A   1      40.819  26.572  28.370  1.00  0.00    -0.014 A 
BRANCH  35  36
ATOM     36  C   UNL A   1      40.780  27.965  28.773  1.00  0.00     0.031 A 
ATOM     37  C   UNL A   1      41.842  28.828  28.213  1.00  0.00     0.074 A 
ATOM     38  C   UNL A   1      39.755  28.482  29.485  1.00  0.00     0.049 A 
ATOM     39  N   UNL A   1      42.867  29.291  28.842  1.00  0.00    -0.248 NA
ATOM     40  C   UNL A   1      41.844  29.111  26.773  1.00  0.00     0.031 C 
ATOM     41  C   UNL A   1      38.468  27.882  29.873  1.00  0.00     0.029 A 
ATOM     42  N   UNL A   1      39.644  29.742  29.971  1.00  0.00    -0.354 N 
ATOM     43  C   UNL A   1      43.577  30.058  27.927  1.00  0.00     0.074 A 
ATOM     44  C   UNL A   1      42.986  29.792  26.640  1.00  0.00     0.031 C 
ATOM     45  C   UNL A   1      37.634  28.840  30.332  1.00  0.00     0.029 A 
ATOM     46  C   UNL A   1      38.389  30.069  30.460  1.00  0.00     0.049 A 
ATOM     47  H   UNL A   1      40.397  30.376  29.976  1.00  0.00     0.167 HD
ATOM     48  C   UNL A   1      44.480  30.987  28.352  1.00  0.00     0.037 A 
ATOM     49  C   UNL A   1      38.011  31.277  30.935  1.00  0.00     0.037 A 
ATOM     50  C   UNL A   1      44.760  30.825  29.759  1.00  0.00     0.049 A 
ATOM     51  C   UNL A   1      39.256  31.987  31.332  1.00  0.00     0.074 A 
ATOM     52  C   UNL A   1      45.329  29.821  30.517  1.00  0.00     0.029 A 
ATOM     53  N   UNL A   1      44.065  31.612  30.647  1.00  0.00    -0.354 N 
ATOM     54  N   UNL A   1      40.016  31.605  32.323  1.00  0.00    -0.248 NA
ATOM     55  C   UNL A   1      39.913  32.813  30.329  1.00  0.00     0.031 C 
ATOM     56  C   UNL A   1      44.546  29.771  31.708  1.00  0.00     0.029 A 
ATOM     57  C   UNL A   1      43.595  30.791  31.641  1.00  0.00     0.049 A 
ATOM     58  H   UNL A   1      43.929  32.586  30.581  1.00  0.00     0.167 HD
ATOM     59  C   UNL A   1      41.315  31.773  31.865  1.00  0.00     0.074 A 
ATOM     60  C   UNL A   1      41.189  32.596  30.663  1.00  0.00     0.031 C 
ATOM     61  C   UNL A   1      42.339  30.996  32.329  1.00  0.00     0.037 A 
BRANCH  48  62
ATOM     62  C   UNL A   1      44.885  32.227  27.604  1.00  0.00     0.064 A 
ATOM     63  C   UNL A   1      46.131  32.253  26.943  1.00  0.00     0.173 A 
ATOM     64  C   UNL A   1      44.242  33.473  27.744  1.00  0.00     0.173 A 
ATOM     65  F   UNL A   1      46.832  31.124  26.758  1.00  0.00    -0.203 F 
ATOM     66  C   UNL A   1      46.724  33.448  26.533  1.00  0.00     0.198 A 
ATOM     67  C   UNL A   1      44.813  34.659  27.284  1.00  0.00     0.198 A 
ATOM     68  F   UNL A   1      43.099  33.609  28.425  1.00  0.00    -0.203 F 
ATOM     69  F   UNL A   1      47.963  33.435  26.023  1.00  0.00    -0.200 F 
ATOM     70  C   UNL A   1      46.068  34.652  26.710  1.00  0.00     0.200 A 
ATOM     71  F   UNL A   1      44.168  35.819  27.477  1.00  0.00    -0.200 F 
ATOM     72  F   UNL A   1      46.660  35.805  26.375  1.00  0.00    -0.200 F 
ENDBRANCH  48  62
BRANCH  49  73
ATOM     73  C   UNL A   1      36.711  31.953  30.731  1.00  0.00     0.064 A 
ATOM     74  C   UNL A   1      35.841  32.174  31.809  1.00  0.00     0.173 A 
ATOM     75  C   UNL A   1      36.420  32.645  29.537  1.00  0.00     0.173 A 
ATOM     76  F   UNL A   1      36.067  31.580  32.990  1.00  0.00    -0.203 F 
ATOM     77  C   UNL A   1      34.769  33.067  31.713  1.00  0.00     0.198 A 
ATOM     78  C   UNL A   1      35.347  33.532  29.441  1.00  0.00     0.198 A 
ATOM     79  F   UNL A   1      37.227  32.549  28.471  1.00  0.00    -0.203 F 
ATOM     80  F   UNL A   1      34.001  33.307  32.785  1.00  0.00    -0.200 F 
ATOM     81  C   UNL A   1      34.532  33.756  30.534  1.00  0.00     0.200 A 
ATOM     82  F   UNL A   1      35.151  34.216  28.306  1.00  0.00    -0.200 F 
ATOM     83  F   UNL A   1      33.548  34.663  30.463  1.00  0.00    -0.200 F 
ENDBRANCH  49  73
BRANCH  61  84
ATOM     84  C   UNL A   1      42.066  30.108  33.514  1.00  0.00     0.064 A 
ATOM     85  C   UNL A   1      41.576  28.792  33.418  1.00  0.00     0.173 A 
ATOM     86  C   UNL A   1      42.463  30.547  34.785  1.00  0.00     0.173 A 
ATOM     87  F   UNL A   1      41.271  28.256  32.233  1.00  0.00    -0.203 F 
ATOM     88  C   UNL A   1      41.449  27.978  34.542  1.00  0.00     0.198 A 
ATOM     89  C   UNL A   1      42.370  29.719  35.901  1.00  0.00     0.198 A 
ATOM     90  F   UNL A   1      42.994  31.771  34.934  1.00  0.00    -0.203 F 
ATOM     91  F   UNL A   1      40.969  26.730  34.419  1.00  0.00    -0.200 F 
ATOM     92  C   UNL A   1      41.854  28.440  35.782  1.00  0.00     0.200 A 
ATOM     93  F   UNL A   1      42.810  30.153  37.090  1.00  0.00    -0.200 F 
ATOM     94  F   UNL A   1      41.772  27.643  36.857  1.00  0.00    -0.200 F 
ENDBRANCH  61  84
ENDBRANCH  35  36
ENDBRANCH  27  30
ENDBRANCH  25  26
ENDBRANCH   1  25
TORSDOF 12
ENDMDL
