MODEL 1
REMARK VINA RESULT:     -13.2      0.000      0.000
REMARK SMILES O=C(CC(=O)c1ccccc1)Nc1cccc(C(=O)NCCCNC(=O)c2ccc(-c3c4nc(c(-c5c(F)c(F)c(F)c(F)c5F)c5ccc([nH]5)c(-c5c(F)c(F)c(F)c(F)c5F)c5nc(c(-c6c(F)c(F)c(F)c(F)c6F)c6ccc3[nH]6)C=C5)C=C4)cc2)c1
REMARK SMILES IDX 21 1 20 2 18 3 19 4 17 6 13 7 14 8 90 9 15 10 16 11 12 12
REMARK SMILES IDX 1 13 2 14 3 16 4 17 5 18 6 19 7 20 11 21 8 22 10 23 9 24
REMARK SMILES IDX 22 25 23 26 24 27 25 28 26 30 27 31 28 32 89 33 29 34 88 35
REMARK SMILES IDX 30 36 31 37 32 38 82 39 33 40 87 41 81 42 83 43 34 44 86 45
REMARK SMILES IDX 80 46 79 47 35 49 67 50 47 51 66 52 48 53 51 54 65 55 84 56
REMARK SMILES IDX 49 57 50 58 64 60 85 61 52 62 36 63 37 64 45 65 38 66 39 67
REMARK SMILES IDX 43 68 46 69 40 70 41 71 44 72 42 73 68 74 69 75 77 76 70 77
REMARK SMILES IDX 71 78 75 79 78 80 72 81 73 82 76 83 74 84 53 85 54 86 62 87
REMARK SMILES IDX 55 88 56 89 60 90 63 91 57 92 58 93 61 94 59 95
REMARK H PARENT 20 5 12 15 24 29 83 48 51 59
REMARK Flexibility Score: inf
ROOT
ATOM      1  C   UNL A   1      31.734  30.457  26.370  1.00  0.00     0.118 C 
ENDROOT
BRANCH   1   2
ATOM      2  N   UNL A   1      32.569  30.090  25.228  1.00  0.00    -0.352 N 
ATOM      3  C   UNL A   1      32.486  29.059  24.311  1.00  0.00     0.251 C 
ATOM      4  O   UNL A   1      33.338  28.991  23.427  1.00  0.00    -0.269 OA
ATOM      5  H   UNL A   1      33.335  30.692  25.084  1.00  0.00     0.163 HD
BRANCH   3   6
ATOM      6  C   UNL A   1      31.463  27.981  24.412  1.00  0.00     0.041 A 
ATOM      7  C   UNL A   1      30.988  25.641  24.758  1.00  0.00     0.041 A 
ATOM      8  C   UNL A   1      29.766  25.792  24.103  1.00  0.00     0.026 A 
ATOM      9  C   UNL A   1      31.725  26.781  25.063  1.00  0.00     0.040 A 
ATOM     10  C   UNL A   1      29.360  27.055  23.659  1.00  0.00     0.003 A 
ATOM     11  C   UNL A   1      30.235  28.139  23.764  1.00  0.00     0.014 A 
BRANCH   7  12
ATOM     12  N   UNL A   1      31.493  24.337  24.971  1.00  0.00    -0.326 N 
ATOM     13  O   UNL A   1      31.187  24.103  27.275  1.00  0.00    -0.274 OA
ATOM     14  C   UNL A   1      31.599  23.688  26.194  1.00  0.00     0.232 C 
ATOM     15  H   UNL A   1      31.796  23.842  24.175  1.00  0.00     0.169 HD
BRANCH  14  16
ATOM     16  C   UNL A   1      32.322  22.378  26.153  1.00  0.00     0.181 C 
BRANCH  16  17
ATOM     17  C   UNL A   1      32.840  21.905  24.829  1.00  0.00     0.172 C 
ATOM     18  O   UNL A   1      32.045  21.527  23.965  1.00  0.00    -0.294 OA
BRANCH  17  19
ATOM     19  C   UNL A   1      34.294  21.941  24.488  1.00  0.00     0.018 A 
ATOM     20  C   UNL A   1      35.118  21.011  25.136  1.00  0.00     0.012 A 
ATOM     21  C   UNL A   1      34.882  22.882  23.634  1.00  0.00     0.012 A 
ATOM     22  C   UNL A   1      36.501  21.037  24.955  1.00  0.00     0.001 A 
ATOM     23  C   UNL A   1      36.270  22.923  23.474  1.00  0.00     0.001 A 
ATOM     24  C   UNL A   1      37.078  22.005  24.135  1.00  0.00     0.000 A 
ENDBRANCH  17  19
ENDBRANCH  16  17
ENDBRANCH  14  16
ENDBRANCH   7  12
ENDBRANCH   3   6
ENDBRANCH   1   2
BRANCH   1  25
ATOM     25  C   UNL A   1      31.554  31.948  26.591  1.00  0.00     0.042 C 
BRANCH  25  26
ATOM     26  C   UNL A   1      32.707  32.637  27.294  1.00  0.00     0.118 C 
BRANCH  26  27
ATOM     27  N   UNL A   1      32.426  34.026  27.635  1.00  0.00    -0.352 N 
ATOM     28  C   UNL A   1      32.984  34.865  28.571  1.00  0.00     0.251 C 
ATOM     29  H   UNL A   1      31.709  34.437  27.099  1.00  0.00     0.163 HD
ATOM     30  O   UNL A   1      32.470  35.957  28.788  1.00  0.00    -0.269 OA
BRANCH  28  31
ATOM     31  C   UNL A   1      34.176  34.457  29.350  1.00  0.00     0.039 A 
ATOM     32  C   UNL A   1      33.996  33.935  30.635  1.00  0.00     0.014 A 
ATOM     33  C   UNL A   1      35.465  34.595  28.837  1.00  0.00     0.014 A 
ATOM     34  C   UNL A   1      35.095  33.455  31.354  1.00  0.00     0.010 A 
ATOM     35  C   UNL A   1      36.544  34.023  29.505  1.00  0.00     0.010 A 
ATOM     36  C   UNL A   1      36.371  33.437  30.766  1.00  0.00    -0.014 A 
BRANCH  36  37
ATOM     37  C   UNL A   1      37.526  32.783  31.433  1.00  0.00     0.031 A 
ATOM     38  C   UNL A   1      38.203  31.600  30.796  1.00  0.00     0.074 A 
ATOM     39  C   UNL A   1      37.903  33.197  32.659  1.00  0.00     0.049 A 
ATOM     40  N   UNL A   1      39.151  30.832  31.273  1.00  0.00    -0.248 NA
ATOM     41  C   UNL A   1      37.733  31.210  29.458  1.00  0.00     0.031 C 
ATOM     42  C   UNL A   1      37.292  34.298  33.405  1.00  0.00     0.029 A 
ATOM     43  N   UNL A   1      38.880  32.729  33.504  1.00  0.00    -0.354 N 
ATOM     44  C   UNL A   1      39.375  29.863  30.305  1.00  0.00     0.074 A 
ATOM     45  C   UNL A   1      38.430  30.105  29.236  1.00  0.00     0.031 C 
ATOM     46  C   UNL A   1      37.916  34.433  34.585  1.00  0.00     0.029 A 
ATOM     47  C   UNL A   1      38.937  33.397  34.704  1.00  0.00     0.049 A 
ATOM     48  H   UNL A   1      39.481  31.985  33.273  1.00  0.00     0.167 HD
ATOM     49  C   UNL A   1      40.299  28.873  30.300  1.00  0.00     0.037 A 
ATOM     50  C   UNL A   1      39.709  33.188  35.787  1.00  0.00     0.037 A 
ATOM     51  C   UNL A   1      41.250  28.650  31.358  1.00  0.00     0.049 A 
ATOM     52  C   UNL A   1      40.712  32.067  35.763  1.00  0.00     0.074 A 
ATOM     53  C   UNL A   1      42.277  27.724  31.413  1.00  0.00     0.029 A 
ATOM     54  N   UNL A   1      41.286  29.357  32.551  1.00  0.00    -0.354 N 
ATOM     55  N   UNL A   1      40.973  31.209  34.807  1.00  0.00    -0.248 NA
ATOM     56  C   UNL A   1      41.532  31.885  36.971  1.00  0.00     0.031 C 
ATOM     57  C   UNL A   1      42.891  27.826  32.665  1.00  0.00     0.029 A 
ATOM     58  C   UNL A   1      42.291  28.859  33.365  1.00  0.00     0.049 A 
ATOM     59  H   UNL A   1      40.685  30.101  32.785  1.00  0.00     0.167 HD
ATOM     60  C   UNL A   1      41.996  30.402  35.285  1.00  0.00     0.074 A 
ATOM     61  C   UNL A   1      42.325  30.886  36.609  1.00  0.00     0.031 C 
ATOM     62  C   UNL A   1      42.607  29.352  34.683  1.00  0.00     0.037 A 
BRANCH  49  63
ATOM     63  C   UNL A   1      40.329  27.948  29.117  1.00  0.00     0.064 A 
ATOM     64  C   UNL A   1      39.570  26.768  29.082  1.00  0.00     0.173 A 
ATOM     65  C   UNL A   1      41.086  28.272  27.980  1.00  0.00     0.173 A 
ATOM     66  F   UNL A   1      38.835  26.406  30.145  1.00  0.00    -0.203 F 
ATOM     67  C   UNL A   1      39.590  25.934  27.967  1.00  0.00     0.198 A 
ATOM     68  C   UNL A   1      41.077  27.453  26.853  1.00  0.00     0.198 A 
ATOM     69  F   UNL A   1      41.824  29.392  27.955  1.00  0.00    -0.203 F 
ATOM     70  F   UNL A   1      38.896  24.787  27.977  1.00  0.00    -0.200 F 
ATOM     71  C   UNL A   1      40.337  26.281  26.851  1.00  0.00     0.200 A 
ATOM     72  F   UNL A   1      41.787  27.799  25.770  1.00  0.00    -0.200 F 
ATOM     73  F   UNL A   1      40.346  25.483  25.774  1.00  0.00    -0.200 F 
ENDBRANCH  49  63
BRANCH  50  74
ATOM     74  C   UNL A   1      39.562  34.056  36.986  1.00  0.00     0.064 A 
ATOM     75  C   UNL A   1      40.223  35.290  37.069  1.00  0.00     0.173 A 
ATOM     76  C   UNL A   1      38.768  33.669  38.077  1.00  0.00     0.173 A 
ATOM     77  F   UNL A   1      41.010  35.696  36.061  1.00  0.00    -0.203 F 
ATOM     78  C   UNL A   1      40.115  36.091  38.204  1.00  0.00     0.198 A 
ATOM     79  C   UNL A   1      38.635  34.486  39.197  1.00  0.00     0.198 A 
ATOM     80  F   UNL A   1      38.111  32.500  38.049  1.00  0.00    -0.203 F 
ATOM     81  F   UNL A   1      40.800  37.240  38.277  1.00  0.00    -0.200 F 
ATOM     82  C   UNL A   1      39.316  35.692  39.264  1.00  0.00     0.200 A 
ATOM     83  F   UNL A   1      37.848  34.104  40.212  1.00  0.00    -0.200 F 
ATOM     84  F   UNL A   1      39.209  36.464  40.354  1.00  0.00    -0.200 F 
ENDBRANCH  50  74
BRANCH  62  85
ATOM     85  C   UNL A   1      43.708  28.667  35.439  1.00  0.00     0.064 A 
ATOM     86  C   UNL A   1      45.051  29.039  35.282  1.00  0.00     0.173 A 
ATOM     87  C   UNL A   1      43.411  27.659  36.370  1.00  0.00     0.173 A 
ATOM     88  F   UNL A   1      45.389  29.986  34.394  1.00  0.00    -0.203 F 
ATOM     89  C   UNL A   1      46.057  28.412  36.011  1.00  0.00     0.198 A 
ATOM     90  C   UNL A   1      44.417  27.059  37.121  1.00  0.00     0.198 A 
ATOM     91  F   UNL A   1      42.143  27.270  36.564  1.00  0.00    -0.203 F 
ATOM     92  F   UNL A   1      47.339  28.751  35.809  1.00  0.00    -0.200 F 
ATOM     93  C   UNL A   1      45.740  27.430  36.936  1.00  0.00     0.200 A 
ATOM     94  F   UNL A   1      44.105  26.122  38.028  1.00  0.00    -0.200 F 
ATOM     95  F   UNL A   1      46.709  26.837  37.646  1.00  0.00    -0.200 F 
ENDBRANCH  62  85
ENDBRANCH  36  37
ENDBRANCH  28  31
ENDBRANCH  26  27
ENDBRANCH  25  26
ENDBRANCH   1  25
TORSDOF 14
ENDMDL
MODEL 2
REMARK VINA RESULT:     -13.0      1.256      1.976
REMARK SMILES O=C(CC(=O)c1ccccc1)Nc1cccc(C(=O)NCCCNC(=O)c2ccc(-c3c4nc(c(-c5c(F)c(F)c(F)c(F)c5F)c5ccc([nH]5)c(-c5c(F)c(F)c(F)c(F)c5F)c5nc(c(-c6c(F)c(F)c(F)c(F)c6F)c6ccc3[nH]6)C=C5)C=C4)cc2)c1
REMARK SMILES IDX 21 1 20 2 18 3 19 4 17 6 13 7 14 8 90 9 15 10 16 11 12 12
REMARK SMILES IDX 1 13 2 14 3 16 4 17 5 18 6 19 7 20 11 21 8 22 10 23 9 24
REMARK SMILES IDX 22 25 23 26 24 27 25 28 26 30 27 31 28 32 89 33 29 34 88 35
REMARK SMILES IDX 30 36 31 37 32 38 82 39 33 40 87 41 81 42 83 43 34 44 86 45
REMARK SMILES IDX 80 46 79 47 35 49 67 50 47 51 66 52 48 53 51 54 65 55 84 56
REMARK SMILES IDX 49 57 50 58 64 60 85 61 52 62 36 63 37 64 45 65 38 66 39 67
REMARK SMILES IDX 43 68 46 69 40 70 41 71 44 72 42 73 68 74 69 75 77 76 70 77
REMARK SMILES IDX 71 78 75 79 78 80 72 81 73 82 76 83 74 84 53 85 54 86 62 87
REMARK SMILES IDX 55 88 56 89 60 90 63 91 57 92 58 93 61 94 59 95
REMARK H PARENT 20 5 12 15 24 29 83 48 51 59
REMARK Flexibility Score: inf
ROOT
ATOM      1  C   UNL A   1      31.799  30.420  26.778  1.00  0.00     0.118 C 
ENDROOT
BRANCH   1   2
ATOM      2  N   UNL A   1      33.120  29.952  27.193  1.00  0.00    -0.352 N 
ATOM      3  C   UNL A   1      33.944  28.955  26.707  1.00  0.00     0.251 C 
ATOM      4  O   UNL A   1      35.033  28.777  27.254  1.00  0.00    -0.269 OA
ATOM      5  H   UNL A   1      33.493  30.441  27.962  1.00  0.00     0.163 HD
BRANCH   3   6
ATOM      6  C   UNL A   1      33.525  28.033  25.615  1.00  0.00     0.041 A 
ATOM      7  C   UNL A   1      33.061  25.770  24.918  1.00  0.00     0.041 A 
ATOM      8  C   UNL A   1      33.285  26.134  23.589  1.00  0.00     0.026 A 
ATOM      9  C   UNL A   1      33.003  26.772  25.881  1.00  0.00     0.040 A 
ATOM     10  C   UNL A   1      33.564  27.465  23.265  1.00  0.00     0.003 A 
ATOM     11  C   UNL A   1      33.740  28.404  24.285  1.00  0.00     0.014 A 
BRANCH   7  12
ATOM     12  N   UNL A   1      33.033  24.397  25.254  1.00  0.00    -0.326 N 
ATOM     13  O   UNL A   1      35.268  23.802  24.917  1.00  0.00    -0.274 OA
ATOM     14  C   UNL A   1      34.104  23.514  25.188  1.00  0.00     0.232 C 
ATOM     15  H   UNL A   1      32.173  24.032  25.566  1.00  0.00     0.169 HD
BRANCH  14  16
ATOM     16  C   UNL A   1      33.757  22.081  25.442  1.00  0.00     0.181 C 
BRANCH  16  17
ATOM     17  C   UNL A   1      32.813  21.409  24.490  1.00  0.00     0.172 C 
ATOM     18  O   UNL A   1      31.896  22.060  23.984  1.00  0.00    -0.294 OA
BRANCH  17  19
ATOM     19  C   UNL A   1      32.987  19.985  24.073  1.00  0.00     0.018 A 
ATOM     20  C   UNL A   1      34.054  19.285  24.653  1.00  0.00     0.012 A 
ATOM     21  C   UNL A   1      32.210  19.346  23.100  1.00  0.00     0.012 A 
ATOM     22  C   UNL A   1      34.352  17.982  24.250  1.00  0.00     0.001 A 
ATOM     23  C   UNL A   1      32.527  18.052  22.679  1.00  0.00     0.001 A 
ATOM     24  C   UNL A   1      33.598  17.372  23.251  1.00  0.00     0.000 A 
ENDBRANCH  17  19
ENDBRANCH  16  17
ENDBRANCH  14  16
ENDBRANCH   7  12
ENDBRANCH   3   6
ENDBRANCH   1   2
BRANCH   1  25
ATOM     25  C   UNL A   1      31.582  31.920  26.870  1.00  0.00     0.042 C 
BRANCH  25  26
ATOM     26  C   UNL A   1      32.811  32.725  27.240  1.00  0.00     0.118 C 
BRANCH  26  27
ATOM     27  N   UNL A   1      32.507  34.098  27.625  1.00  0.00    -0.352 N 
ATOM     28  C   UNL A   1      33.039  34.911  28.599  1.00  0.00     0.251 C 
ATOM     29  H   UNL A   1      31.793  34.518  27.093  1.00  0.00     0.163 HD
ATOM     30  O   UNL A   1      32.507  35.988  28.846  1.00  0.00    -0.269 OA
BRANCH  28  31
ATOM     31  C   UNL A   1      34.225  34.491  29.381  1.00  0.00     0.039 A 
ATOM     32  C   UNL A   1      34.033  33.938  30.652  1.00  0.00     0.014 A 
ATOM     33  C   UNL A   1      35.519  34.647  28.886  1.00  0.00     0.014 A 
ATOM     34  C   UNL A   1      35.127  33.448  31.372  1.00  0.00     0.010 A 
ATOM     35  C   UNL A   1      36.593  34.065  29.553  1.00  0.00     0.010 A 
ATOM     36  C   UNL A   1      36.409  33.450  30.799  1.00  0.00    -0.014 A 
BRANCH  36  37
ATOM     37  C   UNL A   1      37.560  32.787  31.463  1.00  0.00     0.031 A 
ATOM     38  C   UNL A   1      38.240  31.611  30.815  1.00  0.00     0.074 A 
ATOM     39  C   UNL A   1      37.931  33.185  32.696  1.00  0.00     0.049 A 
ATOM     40  N   UNL A   1      39.184  30.837  31.287  1.00  0.00    -0.248 NA
ATOM     41  C   UNL A   1      37.777  31.238  29.469  1.00  0.00     0.031 C 
ATOM     42  C   UNL A   1      37.317  34.277  33.452  1.00  0.00     0.029 A 
ATOM     43  N   UNL A   1      38.903  32.706  33.541  1.00  0.00    -0.354 N 
ATOM     44  C   UNL A   1      39.413  29.880  30.308  1.00  0.00     0.074 A 
ATOM     45  C   UNL A   1      38.474  30.136  29.237  1.00  0.00     0.031 C 
ATOM     46  C   UNL A   1      37.935  34.397  34.638  1.00  0.00     0.029 A 
ATOM     47  C   UNL A   1      38.954  33.359  34.749  1.00  0.00     0.049 A 
ATOM     48  H   UNL A   1      39.505  31.964  33.303  1.00  0.00     0.167 HD
ATOM     49  C   UNL A   1      40.336  28.889  30.295  1.00  0.00     0.037 A 
ATOM     50  C   UNL A   1      39.721  33.135  35.833  1.00  0.00     0.037 A 
ATOM     51  C   UNL A   1      41.282  28.653  31.355  1.00  0.00     0.049 A 
ATOM     52  C   UNL A   1      40.723  32.014  35.801  1.00  0.00     0.074 A 
ATOM     53  C   UNL A   1      42.308  27.725  31.404  1.00  0.00     0.029 A 
ATOM     54  N   UNL A   1      41.312  29.345  32.558  1.00  0.00    -0.354 N 
ATOM     55  N   UNL A   1      40.989  31.168  34.835  1.00  0.00    -0.248 NA
ATOM     56  C   UNL A   1      41.536  31.816  37.010  1.00  0.00     0.031 C 
ATOM     57  C   UNL A   1      42.915  27.811  32.660  1.00  0.00     0.029 A 
ATOM     58  C   UNL A   1      42.312  28.835  33.371  1.00  0.00     0.049 A 
ATOM     59  H   UNL A   1      40.710  30.086  32.798  1.00  0.00     0.167 HD
ATOM     60  C   UNL A   1      42.009  30.355  35.308  1.00  0.00     0.074 A 
ATOM     61  C   UNL A   1      42.331  30.822  36.640  1.00  0.00     0.031 C 
ATOM     62  C   UNL A   1      42.621  29.312  34.696  1.00  0.00     0.037 A 
BRANCH  49  63
ATOM     63  C   UNL A   1      40.372  27.979  29.101  1.00  0.00     0.064 A 
ATOM     64  C   UNL A   1      39.628  26.790  29.055  1.00  0.00     0.173 A 
ATOM     65  C   UNL A   1      41.119  28.327  27.964  1.00  0.00     0.173 A 
ATOM     66  F   UNL A   1      38.903  26.406  30.117  1.00  0.00    -0.203 F 
ATOM     67  C   UNL A   1      39.653  25.970  27.931  1.00  0.00     0.198 A 
ATOM     68  C   UNL A   1      41.115  27.521  26.828  1.00  0.00     0.198 A 
ATOM     69  F   UNL A   1      41.843  29.456  27.949  1.00  0.00    -0.203 F 
ATOM     70  F   UNL A   1      38.972  24.815  27.929  1.00  0.00    -0.200 F 
ATOM     71  C   UNL A   1      40.389  26.340  26.815  1.00  0.00     0.200 A 
ATOM     72  F   UNL A   1      41.814  27.889  25.746  1.00  0.00    -0.200 F 
ATOM     73  F   UNL A   1      40.403  25.555  25.728  1.00  0.00    -0.200 F 
ENDBRANCH  49  63
BRANCH  50  74
ATOM     74  C   UNL A   1      39.568  33.989  37.042  1.00  0.00     0.064 A 
ATOM     75  C   UNL A   1      38.772  33.576  38.120  1.00  0.00     0.173 A 
ATOM     76  C   UNL A   1      40.203  35.235  37.143  1.00  0.00     0.173 A 
ATOM     77  F   UNL A   1      38.125  32.402  38.064  1.00  0.00    -0.203 F 
ATOM     78  C   UNL A   1      38.598  34.387  39.240  1.00  0.00     0.198 A 
ATOM     79  C   UNL A   1      40.056  36.031  38.277  1.00  0.00     0.198 A 
ATOM     80  F   UNL A   1      40.980  35.677  36.142  1.00  0.00    -0.203 F 
ATOM     81  F   UNL A   1      37.789  33.991  40.232  1.00  0.00    -0.200 F 
ATOM     82  C   UNL A   1      39.245  35.611  39.321  1.00  0.00     0.200 A 
ATOM     83  F   UNL A   1      40.697  37.204  38.357  1.00  0.00    -0.200 F 
ATOM     84  F   UNL A   1      39.081  36.389  40.399  1.00  0.00    -0.200 F 
ENDBRANCH  50  74
BRANCH  62  85
ATOM     85  C   UNL A   1      43.718  28.616  35.450  1.00  0.00     0.064 A 
ATOM     86  C   UNL A   1      45.061  28.996  35.311  1.00  0.00     0.173 A 
ATOM     87  C   UNL A   1      43.417  27.591  36.359  1.00  0.00     0.173 A 
ATOM     88  F   UNL A   1      45.405  29.959  34.443  1.00  0.00    -0.203 F 
ATOM     89  C   UNL A   1      46.063  28.358  36.037  1.00  0.00     0.198 A 
ATOM     90  C   UNL A   1      44.417  26.980  37.108  1.00  0.00     0.198 A 
ATOM     91  F   UNL A   1      42.148  27.194  36.535  1.00  0.00    -0.203 F 
ATOM     92  F   UNL A   1      47.345  28.705  35.852  1.00  0.00    -0.200 F 
ATOM     93  C   UNL A   1      45.741  27.359  36.942  1.00  0.00     0.200 A 
ATOM     94  F   UNL A   1      44.101  26.025  37.995  1.00  0.00    -0.200 F 
ATOM     95  F   UNL A   1      46.706  26.756  37.649  1.00  0.00    -0.200 F 
ENDBRANCH  62  85
ENDBRANCH  36  37
ENDBRANCH  28  31
ENDBRANCH  26  27
ENDBRANCH  25  26
ENDBRANCH   1  25
TORSDOF 14
ENDMDL
MODEL 3
REMARK VINA RESULT:     -12.7      5.689     11.332
REMARK SMILES O=C(CC(=O)c1ccccc1)Nc1cccc(C(=O)NCCCNC(=O)c2ccc(-c3c4nc(c(-c5c(F)c(F)c(F)c(F)c5F)c5ccc([nH]5)c(-c5c(F)c(F)c(F)c(F)c5F)c5nc(c(-c6c(F)c(F)c(F)c(F)c6F)c6ccc3[nH]6)C=C5)C=C4)cc2)c1
REMARK SMILES IDX 21 1 20 2 18 3 19 4 17 6 13 7 14 8 90 9 15 10 16 11 12 12
REMARK SMILES IDX 1 13 2 14 3 16 4 17 5 18 6 19 7 20 11 21 8 22 10 23 9 24
REMARK SMILES IDX 22 25 23 26 24 27 25 28 26 30 27 31 28 32 89 33 29 34 88 35
REMARK SMILES IDX 30 36 31 37 32 38 82 39 33 40 87 41 81 42 83 43 34 44 86 45
REMARK SMILES IDX 80 46 79 47 35 49 67 50 47 51 66 52 48 53 51 54 65 55 84 56
REMARK SMILES IDX 49 57 50 58 64 60 85 61 52 62 36 63 37 64 45 65 38 66 39 67
REMARK SMILES IDX 43 68 46 69 40 70 41 71 44 72 42 73 68 74 69 75 77 76 70 77
REMARK SMILES IDX 71 78 75 79 78 80 72 81 73 82 76 83 74 84 53 85 54 86 62 87
REMARK SMILES IDX 55 88 56 89 60 90 63 91 57 92 58 93 61 94 59 95
REMARK H PARENT 20 5 12 15 24 29 83 48 51 59
REMARK Flexibility Score: inf
ROOT
ATOM      1  C   UNL A   1      36.740  20.192  25.037  1.00  0.00     0.118 C 
ENDROOT
BRANCH   1   2
ATOM      2  N   UNL A   1      36.375  21.298  25.920  1.00  0.00    -0.352 N 
ATOM      3  C   UNL A   1      35.326  22.199  25.892  1.00  0.00     0.251 C 
ATOM      4  O   UNL A   1      35.254  23.040  26.787  1.00  0.00    -0.269 OA
ATOM      5  H   UNL A   1      36.990  21.424  26.678  1.00  0.00     0.163 HD
BRANCH   3   6
ATOM      6  C   UNL A   1      34.342  22.245  24.775  1.00  0.00     0.041 A 
ATOM      7  C   UNL A   1      32.835  23.569  23.435  1.00  0.00     0.041 A 
ATOM      8  C   UNL A   1      32.120  22.418  23.102  1.00  0.00     0.026 A 
ATOM      9  C   UNL A   1      34.042  23.430  24.113  1.00  0.00     0.040 A 
ATOM     10  C   UNL A   1      32.556  21.168  23.553  1.00  0.00     0.003 A 
ATOM     11  C   UNL A   1      33.635  21.088  24.436  1.00  0.00     0.014 A 
BRANCH   7  12
ATOM     12  N   UNL A   1      32.248  24.832  23.189  1.00  0.00    -0.326 N 
ATOM     13  O   UNL A   1      33.654  25.667  21.519  1.00  0.00    -0.274 OA
ATOM     14  C   UNL A   1      32.714  25.793  22.301  1.00  0.00     0.232 C 
ATOM     15  H   UNL A   1      31.432  25.050  23.694  1.00  0.00     0.169 HD
BRANCH  14  16
ATOM     16  C   UNL A   1      31.998  27.106  22.360  1.00  0.00     0.181 C 
BRANCH  16  17
ATOM     17  C   UNL A   1      31.009  27.317  23.467  1.00  0.00     0.172 C 
ATOM     18  O   UNL A   1      29.869  26.859  23.358  1.00  0.00    -0.294 OA
BRANCH  17  19
ATOM     19  C   UNL A   1      31.380  28.005  24.740  1.00  0.00     0.018 A 
ATOM     20  C   UNL A   1      31.460  27.206  25.889  1.00  0.00     0.012 A 
ATOM     21  C   UNL A   1      31.573  29.386  24.864  1.00  0.00     0.012 A 
ATOM     22  C   UNL A   1      31.702  27.779  27.139  1.00  0.00     0.001 A 
ATOM     23  C   UNL A   1      31.789  29.960  26.120  1.00  0.00     0.001 A 
ATOM     24  C   UNL A   1      31.850  29.159  27.255  1.00  0.00     0.000 A 
ENDBRANCH  17  19
ENDBRANCH  16  17
ENDBRANCH  14  16
ENDBRANCH   7  12
ENDBRANCH   3   6
ENDBRANCH   1   2
BRANCH   1  25
ATOM     25  C   UNL A   1      38.217  20.090  24.700  1.00  0.00     0.042 C 
BRANCH  25  26
ATOM     26  C   UNL A   1      39.156  20.241  25.880  1.00  0.00     0.118 C 
BRANCH  26  27
ATOM     27  N   UNL A   1      40.170  19.195  25.947  1.00  0.00    -0.352 N 
ATOM     28  C   UNL A   1      41.533  19.257  26.119  1.00  0.00     0.251 C 
ATOM     29  H   UNL A   1      39.815  18.281  25.852  1.00  0.00     0.163 HD
ATOM     30  O   UNL A   1      42.207  18.242  25.980  1.00  0.00    -0.269 OA
BRANCH  28  31
ATOM     31  C   UNL A   1      42.207  20.537  26.433  1.00  0.00     0.039 A 
ATOM     32  C   UNL A   1      42.706  21.314  25.381  1.00  0.00     0.014 A 
ATOM     33  C   UNL A   1      42.366  20.976  27.747  1.00  0.00     0.014 A 
ATOM     34  C   UNL A   1      43.262  22.569  25.642  1.00  0.00     0.010 A 
ATOM     35  C   UNL A   1      42.820  22.267  27.999  1.00  0.00     0.010 A 
ATOM     36  C   UNL A   1      43.264  23.083  26.949  1.00  0.00    -0.014 A 
BRANCH  36  37
ATOM     37  C   UNL A   1      43.692  24.477  27.237  1.00  0.00     0.031 A 
ATOM     38  C   UNL A   1      42.693  25.494  27.721  1.00  0.00     0.074 A 
ATOM     39  C   UNL A   1      44.959  24.848  26.971  1.00  0.00     0.049 A 
ATOM     40  N   UNL A   1      42.851  26.779  27.920  1.00  0.00    -0.248 NA
ATOM     41  C   UNL A   1      41.330  25.010  27.987  1.00  0.00     0.031 C 
ATOM     42  C   UNL A   1      46.006  23.968  26.450  1.00  0.00     0.029 A 
ATOM     43  N   UNL A   1      45.580  26.068  27.085  1.00  0.00    -0.354 N 
ATOM     44  C   UNL A   1      41.609  27.255  28.316  1.00  0.00     0.074 A 
ATOM     45  C   UNL A   1      40.694  26.135  28.278  1.00  0.00     0.031 C 
ATOM     46  C   UNL A   1      47.142  24.669  26.306  1.00  0.00     0.029 A 
ATOM     47  C   UNL A   1      46.892  26.059  26.674  1.00  0.00     0.049 A 
ATOM     48  H   UNL A   1      45.129  26.873  27.427  1.00  0.00     0.167 HD
ATOM     49  C   UNL A   1      41.268  28.509  28.695  1.00  0.00     0.037 A 
ATOM     50  C   UNL A   1      47.788  27.060  26.583  1.00  0.00     0.037 A 
ATOM     51  C   UNL A   1      42.189  29.615  28.750  1.00  0.00     0.049 A 
ATOM     52  C   UNL A   1      47.376  28.449  26.991  1.00  0.00     0.074 A 
ATOM     53  C   UNL A   1      41.960  30.906  29.195  1.00  0.00     0.029 A 
ATOM     54  N   UNL A   1      43.513  29.563  28.340  1.00  0.00    -0.354 N 
ATOM     55  N   UNL A   1      46.221  28.870  27.444  1.00  0.00    -0.248 NA
ATOM     56  C   UNL A   1      48.395  29.503  26.875  1.00  0.00     0.031 C 
ATOM     57  C   UNL A   1      43.125  31.651  28.992  1.00  0.00     0.029 A 
ATOM     58  C   UNL A   1      44.101  30.810  28.482  1.00  0.00     0.049 A 
ATOM     59  H   UNL A   1      43.967  28.760  27.997  1.00  0.00     0.167 HD
ATOM     60  C   UNL A   1      46.377  30.227  27.688  1.00  0.00     0.074 A 
ATOM     61  C   UNL A   1      47.747  30.556  27.353  1.00  0.00     0.031 C 
ATOM     62  C   UNL A   1      45.467  31.122  28.144  1.00  0.00     0.037 A 
BRANCH  49  63
ATOM     63  C   UNL A   1      39.837  28.761  29.078  1.00  0.00     0.064 A 
ATOM     64  C   UNL A   1      39.379  28.569  30.390  1.00  0.00     0.173 A 
ATOM     65  C   UNL A   1      38.924  29.252  28.132  1.00  0.00     0.173 A 
ATOM     66  F   UNL A   1      40.207  28.094  31.333  1.00  0.00    -0.203 F 
ATOM     67  C   UNL A   1      38.055  28.831  30.734  1.00  0.00     0.198 A 
ATOM     68  C   UNL A   1      37.609  29.545  28.487  1.00  0.00     0.198 A 
ATOM     69  F   UNL A   1      39.310  29.462  26.864  1.00  0.00    -0.203 F 
ATOM     70  F   UNL A   1      37.628  28.593  31.982  1.00  0.00    -0.200 F 
ATOM     71  C   UNL A   1      37.174  29.327  29.784  1.00  0.00     0.200 A 
ATOM     72  F   UNL A   1      36.764  30.039  27.571  1.00  0.00    -0.200 F 
ATOM     73  F   UNL A   1      35.903  29.589  30.119  1.00  0.00    -0.200 F 
ENDBRANCH  49  63
BRANCH  50  74
ATOM     74  C   UNL A   1      49.163  26.786  26.084  1.00  0.00     0.064 A 
ATOM     75  C   UNL A   1      50.175  26.358  26.954  1.00  0.00     0.173 A 
ATOM     76  C   UNL A   1      49.496  26.956  24.732  1.00  0.00     0.173 A 
ATOM     77  F   UNL A   1      49.912  26.201  28.261  1.00  0.00    -0.203 F 
ATOM     78  C   UNL A   1      51.472  26.133  26.497  1.00  0.00     0.198 A 
ATOM     79  C   UNL A   1      50.785  26.699  24.269  1.00  0.00     0.198 A 
ATOM     80  F   UNL A   1      48.566  27.360  23.854  1.00  0.00    -0.203 F 
ATOM     81  F   UNL A   1      52.431  25.775  27.361  1.00  0.00    -0.200 F 
ATOM     82  C   UNL A   1      51.775  26.297  25.154  1.00  0.00     0.200 A 
ATOM     83  F   UNL A   1      51.069  26.842  22.968  1.00  0.00    -0.200 F 
ATOM     84  F   UNL A   1      53.021  26.077  24.714  1.00  0.00    -0.200 F 
ENDBRANCH  50  74
BRANCH  62  85
ATOM     85  C   UNL A   1      45.926  32.540  28.330  1.00  0.00     0.064 A 
ATOM     86  C   UNL A   1      45.789  33.497  27.314  1.00  0.00     0.173 A 
ATOM     87  C   UNL A   1      46.464  32.958  29.557  1.00  0.00     0.173 A 
ATOM     88  F   UNL A   1      45.295  33.145  26.118  1.00  0.00    -0.203 F 
ATOM     89  C   UNL A   1      46.195  34.814  27.512  1.00  0.00     0.198 A 
ATOM     90  C   UNL A   1      46.837  34.283  29.762  1.00  0.00     0.198 A 
ATOM     91  F   UNL A   1      46.611  32.084  30.564  1.00  0.00    -0.203 F 
ATOM     92  F   UNL A   1      46.099  35.700  26.511  1.00  0.00    -0.200 F 
ATOM     93  C   UNL A   1      46.709  35.208  28.738  1.00  0.00     0.200 A 
ATOM     94  F   UNL A   1      47.318  34.665  30.954  1.00  0.00    -0.200 F 
ATOM     95  F   UNL A   1      47.088  36.479  28.931  1.00  0.00    -0.200 F 
ENDBRANCH  62  85
ENDBRANCH  36  37
ENDBRANCH  28  31
ENDBRANCH  26  27
ENDBRANCH  25  26
ENDBRANCH   1  25
TORSDOF 14
ENDMDL
