MODEL 1
REMARK VINA RESULT:     -11.3      0.000      0.000
REMARK SMILES CC(C)c1ccc(C(=O)N2CCC[C@@H](C(=O)NCCCNC(=O)c3ccc(-c4c5nc(c(-c6c(F)c(F)c(F)c(F)c6F)c6ccc([nH]6)c(-c6c(F)c(F)c(F)c(F)c6F)c6nc(c(-c7c(F)c(F)c(F)c(F)c7F)c7ccc4[nH]7)C=C6)C=C5)cc3)C2)cc1
REMARK SMILES IDX 18 1 17 2 15 3 16 4 14 6 10 7 11 8 87 9 12 10 13 11 8 12
REMARK SMILES IDX 9 13 7 14 4 15 5 16 89 17 6 18 88 19 2 20 1 21 3 22 19 23
REMARK SMILES IDX 20 24 21 25 22 26 23 28 24 29 25 30 86 31 26 32 85 33 27 34
REMARK SMILES IDX 28 35 29 36 79 37 30 38 84 39 78 40 80 41 31 42 83 43 77 44
REMARK SMILES IDX 76 45 32 47 64 48 44 49 63 50 45 51 48 52 62 53 81 54 46 55
REMARK SMILES IDX 47 56 61 58 82 59 49 60 33 61 34 62 42 63 35 64 36 65 40 66
REMARK SMILES IDX 43 67 37 68 38 69 41 70 39 71 65 72 66 73 74 74 67 75 68 76
REMARK SMILES IDX 72 77 75 78 69 79 70 80 73 81 71 82 50 83 51 84 59 85 52 86
REMARK SMILES IDX 53 87 57 88 60 89 54 90 55 91 58 92 56 93
REMARK H PARENT 17 5 21 27 80 46 48 57
REMARK Flexibility Score: inf
ROOT
ATOM      1  C   UNL A   1      41.529  19.767  25.996  1.00  0.00     0.117 C 
ENDROOT
BRANCH   1   2
ATOM      2  N   UNL A   1      42.878  19.579  25.496  1.00  0.00    -0.356 N 
ATOM      3  C   UNL A   1      43.951  20.386  25.326  1.00  0.00     0.224 C 
ATOM      4  O   UNL A   1      44.926  19.842  24.789  1.00  0.00    -0.275 OA
ATOM      5  H   UNL A   1      43.053  18.651  25.217  1.00  0.00     0.163 HD
BRANCH   3   6
ATOM      6  C   UNL A   1      44.061  21.853  25.762  1.00  0.00     0.098 C 
ATOM      7  N   UNL A   1      45.832  23.639  25.896  1.00  0.00    -0.338 N 
ATOM      8  C   UNL A   1      45.011  24.598  25.191  1.00  0.00     0.120 C 
ATOM      9  C   UNL A   1      45.563  22.219  25.681  1.00  0.00     0.133 C 
ATOM     10  C   UNL A   1      43.545  24.331  25.450  1.00  0.00     0.022 C 
ATOM     11  C   UNL A   1      43.195  22.899  25.057  1.00  0.00     0.017 C 
BRANCH   7  12
ATOM     12  C   UNL A   1      46.588  24.090  26.967  1.00  0.00     0.253 C 
ATOM     13  O   UNL A   1      47.814  24.138  26.925  1.00  0.00    -0.269 OA
BRANCH  12  14
ATOM     14  C   UNL A   1      45.857  24.279  28.259  1.00  0.00     0.040 A 
ATOM     15  C   UNL A   1      44.727  24.467  30.851  1.00  0.00    -0.045 A 
ATOM     16  C   UNL A   1      45.822  25.266  30.476  1.00  0.00     0.005 A 
ATOM     17  C   UNL A   1      44.194  23.596  29.892  1.00  0.00     0.005 A 
ATOM     18  C   UNL A   1      46.381  25.174  29.198  1.00  0.00     0.014 A 
ATOM     19  C   UNL A   1      44.752  23.501  28.614  1.00  0.00     0.014 A 
BRANCH  15  20
ATOM     20  C   UNL A   1      44.187  24.562  32.271  1.00  0.00     0.013 C 
ATOM     21  C   UNL A   1      44.186  23.242  33.053  1.00  0.00     0.012 C 
ATOM     22  C   UNL A   1      44.954  25.620  33.074  1.00  0.00     0.012 C 
ENDBRANCH  15  20
ENDBRANCH  12  14
ENDBRANCH   7  12
ENDBRANCH   3   6
ENDBRANCH   1   2
BRANCH   1  23
ATOM     23  C   UNL A   1      41.518  20.221  27.454  1.00  0.00     0.042 C 
BRANCH  23  24
ATOM     24  C   UNL A   1      40.839  21.573  27.656  1.00  0.00     0.118 C 
BRANCH  24  25
ATOM     25  N   UNL A   1      39.760  21.788  26.697  1.00  0.00    -0.352 N 
ATOM     26  C   UNL A   1      39.008  22.904  26.436  1.00  0.00     0.251 C 
ATOM     27  H   UNL A   1      39.533  21.003  26.149  1.00  0.00     0.163 HD
ATOM     28  O   UNL A   1      37.980  22.795  25.765  1.00  0.00    -0.269 OA
BRANCH  26  29
ATOM     29  C   UNL A   1      39.410  24.230  26.942  1.00  0.00     0.039 A 
ATOM     30  C   UNL A   1      39.098  24.574  28.262  1.00  0.00     0.014 A 
ATOM     31  C   UNL A   1      40.035  25.160  26.108  1.00  0.00     0.014 A 
ATOM     32  C   UNL A   1      39.460  25.827  28.759  1.00  0.00     0.010 A 
ATOM     33  C   UNL A   1      40.465  26.379  26.626  1.00  0.00     0.010 A 
ATOM     34  C   UNL A   1      40.173  26.728  27.952  1.00  0.00    -0.014 A 
BRANCH  34  35
ATOM     35  C   UNL A   1      40.614  28.046  28.470  1.00  0.00     0.031 A 
ATOM     36  C   UNL A   1      42.067  28.293  28.763  1.00  0.00     0.074 A 
ATOM     37  C   UNL A   1      39.698  28.993  28.743  1.00  0.00     0.049 A 
ATOM     38  N   UNL A   1      42.641  29.345  29.291  1.00  0.00    -0.248 NA
ATOM     39  C   UNL A   1      42.998  27.199  28.445  1.00  0.00     0.031 C 
ATOM     40  C   UNL A   1      38.255  28.856  28.536  1.00  0.00     0.029 A 
ATOM     41  N   UNL A   1      39.843  30.255  29.261  1.00  0.00    -0.354 N 
ATOM     42  C   UNL A   1      43.990  29.032  29.384  1.00  0.00     0.074 A 
ATOM     43  C   UNL A   1      44.141  27.673  28.915  1.00  0.00     0.031 C 
ATOM     44  C   UNL A   1      37.651  30.001  28.893  1.00  0.00     0.029 A 
ATOM     45  C   UNL A   1      38.657  30.934  29.390  1.00  0.00     0.049 A 
ATOM     46  H   UNL A   1      40.713  30.637  29.514  1.00  0.00     0.167 HD
ATOM     47  C   UNL A   1      45.013  29.816  29.801  1.00  0.00     0.037 A 
ATOM     48  C   UNL A   1      38.410  32.170  29.860  1.00  0.00     0.037 A 
ATOM     49  C   UNL A   1      44.857  31.175  30.251  1.00  0.00     0.049 A 
ATOM     50  C   UNL A   1      39.558  33.014  30.342  1.00  0.00     0.074 A 
ATOM     51  C   UNL A   1      45.832  32.075  30.643  1.00  0.00     0.029 A 
ATOM     52  N   UNL A   1      43.638  31.829  30.373  1.00  0.00    -0.354 N 
ATOM     53  N   UNL A   1      40.837  32.732  30.370  1.00  0.00    -0.248 NA
ATOM     54  C   UNL A   1      39.226  34.350  30.856  1.00  0.00     0.031 C 
ATOM     55  C   UNL A   1      45.200  33.256  31.047  1.00  0.00     0.029 A 
ATOM     56  C   UNL A   1      43.835  33.112  30.858  1.00  0.00     0.049 A 
ATOM     57  H   UNL A   1      42.763  31.438  30.148  1.00  0.00     0.167 HD
ATOM     58  C   UNL A   1      41.467  33.861  30.875  1.00  0.00     0.074 A 
ATOM     59  C   UNL A   1      40.426  34.838  31.130  1.00  0.00     0.031 C 
ATOM     60  C   UNL A   1      42.787  34.072  31.104  1.00  0.00     0.037 A 
BRANCH  47  61
ATOM     61  C   UNL A   1      46.389  29.211  29.791  1.00  0.00     0.064 A 
ATOM     62  C   UNL A   1      47.196  29.233  28.642  1.00  0.00     0.173 A 
ATOM     63  C   UNL A   1      46.908  28.598  30.942  1.00  0.00     0.173 A 
ATOM     64  F   UNL A   1      46.745  29.797  27.512  1.00  0.00    -0.203 F 
ATOM     65  C   UNL A   1      48.448  28.621  28.632  1.00  0.00     0.198 A 
ATOM     66  C   UNL A   1      48.175  28.019  30.937  1.00  0.00     0.198 A 
ATOM     67  F   UNL A   1      46.185  28.555  32.071  1.00  0.00    -0.203 F 
ATOM     68  F   UNL A   1      49.167  28.594  27.501  1.00  0.00    -0.200 F 
ATOM     69  C   UNL A   1      48.937  28.019  29.779  1.00  0.00     0.200 A 
ATOM     70  F   UNL A   1      48.652  27.447  32.051  1.00  0.00    -0.200 F 
ATOM     71  F   UNL A   1      50.139  27.426  29.766  1.00  0.00    -0.200 F 
ENDBRANCH  47  61
BRANCH  48  72
ATOM     72  C   UNL A   1      37.022  32.699  29.850  1.00  0.00     0.064 A 
ATOM     73  C   UNL A   1      36.195  32.548  30.971  1.00  0.00     0.173 A 
ATOM     74  C   UNL A   1      36.503  33.383  28.742  1.00  0.00     0.173 A 
ATOM     75  F   UNL A   1      36.643  31.885  32.048  1.00  0.00    -0.203 F 
ATOM     76  C   UNL A   1      34.897  33.054  30.982  1.00  0.00     0.198 A 
ATOM     77  C   UNL A   1      35.214  33.910  28.763  1.00  0.00     0.198 A 
ATOM     78  F   UNL A   1      37.257  33.559  27.647  1.00  0.00    -0.203 F 
ATOM     79  F   UNL A   1      34.118  32.868  32.055  1.00  0.00    -0.200 F 
ATOM     80  C   UNL A   1      34.410  33.740  29.880  1.00  0.00     0.200 A 
ATOM     81  F   UNL A   1      34.751  34.587  27.703  1.00  0.00    -0.200 F 
ATOM     82  F   UNL A   1      33.165  34.236  29.896  1.00  0.00    -0.200 F 
ENDBRANCH  48  72
BRANCH  60  83
ATOM     83  C   UNL A   1      43.185  35.422  31.625  1.00  0.00     0.064 A 
ATOM     84  C   UNL A   1      43.170  35.715  32.997  1.00  0.00     0.173 A 
ATOM     85  C   UNL A   1      43.621  36.422  30.744  1.00  0.00     0.173 A 
ATOM     86  F   UNL A   1      42.745  34.798  33.879  1.00  0.00    -0.203 F 
ATOM     87  C   UNL A   1      43.554  36.970  33.464  1.00  0.00     0.198 A 
ATOM     88  C   UNL A   1      44.034  37.665  31.216  1.00  0.00     0.198 A 
ATOM     89  F   UNL A   1      43.659  36.190  29.423  1.00  0.00    -0.203 F 
ATOM     90  F   UNL A   1      43.487  37.244  34.774  1.00  0.00    -0.200 F 
ATOM     91  C   UNL A   1      43.992  37.940  32.576  1.00  0.00     0.200 A 
ATOM     92  F   UNL A   1      44.468  38.596  30.357  1.00  0.00    -0.200 F 
ATOM     93  F   UNL A   1      44.369  39.143  33.028  1.00  0.00    -0.200 F 
ENDBRANCH  60  83
ENDBRANCH  34  35
ENDBRANCH  26  29
ENDBRANCH  24  25
ENDBRANCH  23  24
ENDBRANCH   1  23
TORSDOF 13
ENDMDL
MODEL 2
REMARK VINA RESULT:     -11.1      5.312     10.160
REMARK SMILES CC(C)c1ccc(C(=O)N2CCC[C@@H](C(=O)NCCCNC(=O)c3ccc(-c4c5nc(c(-c6c(F)c(F)c(F)c(F)c6F)c6ccc([nH]6)c(-c6c(F)c(F)c(F)c(F)c6F)c6nc(c(-c7c(F)c(F)c(F)c(F)c7F)c7ccc4[nH]7)C=C6)C=C5)cc3)C2)cc1
REMARK SMILES IDX 18 1 17 2 15 3 16 4 14 6 10 7 11 8 87 9 12 10 13 11 8 12
REMARK SMILES IDX 9 13 7 14 4 15 5 16 89 17 6 18 88 19 2 20 1 21 3 22 19 23
REMARK SMILES IDX 20 24 21 25 22 26 23 28 24 29 25 30 86 31 26 32 85 33 27 34
REMARK SMILES IDX 28 35 29 36 79 37 30 38 84 39 78 40 80 41 31 42 83 43 77 44
REMARK SMILES IDX 76 45 32 47 64 48 44 49 63 50 45 51 48 52 62 53 81 54 46 55
REMARK SMILES IDX 47 56 61 58 82 59 49 60 33 61 34 62 42 63 35 64 36 65 40 66
REMARK SMILES IDX 43 67 37 68 38 69 41 70 39 71 65 72 66 73 74 74 67 75 68 76
REMARK SMILES IDX 72 77 75 78 69 79 70 80 73 81 71 82 50 83 51 84 59 85 52 86
REMARK SMILES IDX 53 87 57 88 60 89 54 90 55 91 58 92 56 93
REMARK H PARENT 17 5 21 27 80 46 48 57
REMARK Flexibility Score: inf
ROOT
ATOM      1  C   UNL A   1      31.293  30.958  25.947  1.00  0.00     0.117 C 
ENDROOT
BRANCH   1   2
ATOM      2  N   UNL A   1      32.549  30.325  26.308  1.00  0.00    -0.356 N 
ATOM      3  C   UNL A   1      33.039  29.066  26.223  1.00  0.00     0.224 C 
ATOM      4  O   UNL A   1      34.163  28.916  26.720  1.00  0.00    -0.275 OA
ATOM      5  H   UNL A   1      33.191  30.956  26.706  1.00  0.00     0.163 HD
BRANCH   3   6
ATOM      6  C   UNL A   1      32.351  27.868  25.555  1.00  0.00     0.098 C 
ATOM      7  N   UNL A   1      31.004  25.856  26.248  1.00  0.00    -0.338 N 
ATOM      8  C   UNL A   1      29.959  26.146  25.291  1.00  0.00     0.120 C 
ATOM      9  C   UNL A   1      31.840  26.964  26.703  1.00  0.00     0.133 C 
ATOM     10  C   UNL A   1      30.528  26.859  24.085  1.00  0.00     0.022 C 
ATOM     11  C   UNL A   1      31.255  28.128  24.520  1.00  0.00     0.017 C 
BRANCH   7  12
ATOM     12  C   UNL A   1      31.373  24.533  26.428  1.00  0.00     0.253 C 
ATOM     13  O   UNL A   1      30.760  23.782  27.181  1.00  0.00    -0.269 OA
BRANCH  12  14
ATOM     14  C   UNL A   1      32.697  24.133  25.858  1.00  0.00     0.040 A 
ATOM     15  C   UNL A   1      35.330  23.650  24.929  1.00  0.00    -0.045 A 
ATOM     16  C   UNL A   1      34.975  23.399  26.266  1.00  0.00     0.005 A 
ATOM     17  C   UNL A   1      34.334  24.119  24.063  1.00  0.00     0.005 A 
ATOM     18  C   UNL A   1      33.676  23.637  26.726  1.00  0.00     0.014 A 
ATOM     19  C   UNL A   1      33.036  24.360  24.521  1.00  0.00     0.014 A 
BRANCH  15  20
ATOM     20  C   UNL A   1      36.770  23.427  24.487  1.00  0.00     0.013 C 
ATOM     21  C   UNL A   1      37.635  22.633  25.474  1.00  0.00     0.012 C 
ATOM     22  C   UNL A   1      36.817  22.742  23.116  1.00  0.00     0.012 C 
ENDBRANCH  15  20
ENDBRANCH  12  14
ENDBRANCH   7  12
ENDBRANCH   3   6
ENDBRANCH   1   2
BRANCH   1  23
ATOM     23  C   UNL A   1      31.199  32.384  26.484  1.00  0.00     0.042 C 
BRANCH  23  24
ATOM     24  C   UNL A   1      32.470  32.842  27.195  1.00  0.00     0.118 C 
BRANCH  24  25
ATOM     25  N   UNL A   1      32.389  34.239  27.609  1.00  0.00    -0.352 N 
ATOM     26  C   UNL A   1      33.023  34.907  28.623  1.00  0.00     0.251 C 
ATOM     27  H   UNL A   1      31.777  34.793  27.073  1.00  0.00     0.163 HD
ATOM     28  O   UNL A   1      32.619  36.023  28.956  1.00  0.00    -0.269 OA
BRANCH  26  29
ATOM     29  C   UNL A   1      34.182  34.314  29.320  1.00  0.00     0.039 A 
ATOM     30  C   UNL A   1      33.963  33.566  30.481  1.00  0.00     0.014 A 
ATOM     31  C   UNL A   1      35.485  34.543  28.872  1.00  0.00     0.014 A 
ATOM     32  C   UNL A   1      35.045  33.005  31.162  1.00  0.00     0.010 A 
ATOM     33  C   UNL A   1      36.556  33.919  29.506  1.00  0.00     0.010 A 
ATOM     34  C   UNL A   1      36.348  33.154  30.661  1.00  0.00    -0.014 A 
BRANCH  34  35
ATOM     35  C   UNL A   1      37.510  32.526  31.336  1.00  0.00     0.031 A 
ATOM     36  C   UNL A   1      38.230  31.378  30.685  1.00  0.00     0.074 A 
ATOM     37  C   UNL A   1      37.871  32.942  32.563  1.00  0.00     0.049 A 
ATOM     38  N   UNL A   1      39.214  30.646  31.145  1.00  0.00    -0.248 NA
ATOM     39  C   UNL A   1      37.762  30.981  29.348  1.00  0.00     0.031 C 
ATOM     40  C   UNL A   1      37.224  34.021  33.312  1.00  0.00     0.029 A 
ATOM     41  N   UNL A   1      38.863  32.502  33.402  1.00  0.00    -0.354 N 
ATOM     42  C   UNL A   1      39.468  29.697  30.165  1.00  0.00     0.074 A 
ATOM     43  C   UNL A   1      38.498  29.905  29.114  1.00  0.00     0.031 C 
ATOM     44  C   UNL A   1      37.857  34.181  34.484  1.00  0.00     0.029 A 
ATOM     45  C   UNL A   1      38.924  33.191  34.587  1.00  0.00     0.049 A 
ATOM     46  H   UNL A   1      39.473  31.764  33.175  1.00  0.00     0.167 HD
ATOM     47  C   UNL A   1      40.439  28.752  30.135  1.00  0.00     0.037 A 
ATOM     48  C   UNL A   1      39.750  33.038  35.640  1.00  0.00     0.037 A 
ATOM     49  C   UNL A   1      41.412  28.561  31.179  1.00  0.00     0.049 A 
ATOM     50  C   UNL A   1      40.803  31.965  35.595  1.00  0.00     0.074 A 
ATOM     51  C   UNL A   1      42.470  27.670  31.224  1.00  0.00     0.029 A 
ATOM     52  N   UNL A   1      41.440  29.276  32.369  1.00  0.00    -0.354 N 
ATOM     53  N   UNL A   1      41.074  31.112  34.639  1.00  0.00    -0.248 NA
ATOM     54  C   UNL A   1      41.665  31.839  36.778  1.00  0.00     0.031 C 
ATOM     55  C   UNL A   1      43.109  27.813  32.461  1.00  0.00     0.029 A 
ATOM     56  C   UNL A   1      42.482  28.829  33.166  1.00  0.00     0.049 A 
ATOM     57  H   UNL A   1      40.812  29.995  32.611  1.00  0.00     0.167 HD
ATOM     58  C   UNL A   1      42.155  30.366  35.089  1.00  0.00     0.074 A 
ATOM     59  C   UNL A   1      42.495  30.877  36.402  1.00  0.00     0.031 C 
ATOM     60  C   UNL A   1      42.808  29.351  34.470  1.00  0.00     0.037 A 
BRANCH  47  61
ATOM     61  C   UNL A   1      40.483  27.852  28.932  1.00  0.00     0.064 A 
ATOM     62  C   UNL A   1      41.269  28.159  27.810  1.00  0.00     0.173 A 
ATOM     63  C   UNL A   1      39.727  26.670  28.896  1.00  0.00     0.173 A 
ATOM     64  F   UNL A   1      42.002  29.282  27.787  1.00  0.00    -0.203 F 
ATOM     65  C   UNL A   1      41.259  27.344  26.680  1.00  0.00     0.198 A 
ATOM     66  C   UNL A   1      39.748  25.839  27.778  1.00  0.00     0.198 A 
ATOM     67  F   UNL A   1      38.964  26.322  29.943  1.00  0.00    -0.203 F 
ATOM     68  F   UNL A   1      41.963  27.697  25.596  1.00  0.00    -0.200 F 
ATOM     69  C   UNL A   1      40.502  26.183  26.667  1.00  0.00     0.200 A 
ATOM     70  F   UNL A   1      39.024  24.710  27.771  1.00  0.00    -0.200 F 
ATOM     71  F   UNL A   1      40.488  25.403  25.578  1.00  0.00    -0.200 F 
ENDBRANCH  47  61
BRANCH  48  72
ATOM     72  C   UNL A   1      39.641  33.958  36.800  1.00  0.00     0.064 A 
ATOM     73  C   UNL A   1      38.861  33.611  37.912  1.00  0.00     0.173 A 
ATOM     74  C   UNL A   1      40.326  35.181  36.838  1.00  0.00     0.173 A 
ATOM     75  F   UNL A   1      38.173  32.460  37.913  1.00  0.00    -0.203 F 
ATOM     76  C   UNL A   1      38.763  34.456  39.015  1.00  0.00     0.198 A 
ATOM     77  C   UNL A   1      40.247  36.014  37.952  1.00  0.00     0.198 A 
ATOM     78  F   UNL A   1      41.091  35.555  35.802  1.00  0.00    -0.203 F 
ATOM     79  F   UNL A   1      37.986  34.115  40.051  1.00  0.00    -0.200 F 
ATOM     80  C   UNL A   1      39.463  35.654  39.037  1.00  0.00     0.200 A 
ATOM     81  F   UNL A   1      40.937  37.162  37.977  1.00  0.00    -0.200 F 
ATOM     82  F   UNL A   1      39.377  36.461  40.103  1.00  0.00    -0.200 F 
ENDBRANCH  48  72
BRANCH  60  83
ATOM     83  C   UNL A   1      43.979  28.750  35.191  1.00  0.00     0.064 A 
ATOM     84  C   UNL A   1      45.277  29.264  35.046  1.00  0.00     0.173 A 
ATOM     85  C   UNL A   1      43.794  27.668  36.065  1.00  0.00     0.173 A 
ATOM     86  F   UNL A   1      45.509  30.286  34.209  1.00  0.00    -0.203 F 
ATOM     87  C   UNL A   1      46.349  28.699  35.733  1.00  0.00     0.198 A 
ATOM     88  C   UNL A   1      44.863  27.127  36.773  1.00  0.00     0.198 A 
ATOM     89  F   UNL A   1      42.572  27.143  36.242  1.00  0.00    -0.203 F 
ATOM     90  F   UNL A   1      47.588  29.176  35.543  1.00  0.00    -0.200 F 
ATOM     91  C   UNL A   1      46.141  27.638  36.600  1.00  0.00     0.200 A 
ATOM     92  F   UNL A   1      44.658  26.109  37.619  1.00  0.00    -0.200 F 
ATOM     93  F   UNL A   1      47.174  27.102  37.265  1.00  0.00    -0.200 F 
ENDBRANCH  60  83
ENDBRANCH  34  35
ENDBRANCH  26  29
ENDBRANCH  24  25
ENDBRANCH  23  24
ENDBRANCH   1  23
TORSDOF 13
ENDMDL
MODEL 3
REMARK VINA RESULT:     -11.1      0.272      2.035
REMARK SMILES CC(C)c1ccc(C(=O)N2CCC[C@@H](C(=O)NCCCNC(=O)c3ccc(-c4c5nc(c(-c6c(F)c(F)c(F)c(F)c6F)c6ccc([nH]6)c(-c6c(F)c(F)c(F)c(F)c6F)c6nc(c(-c7c(F)c(F)c(F)c(F)c7F)c7ccc4[nH]7)C=C6)C=C5)cc3)C2)cc1
REMARK SMILES IDX 18 1 17 2 15 3 16 4 14 6 10 7 11 8 87 9 12 10 13 11 8 12
REMARK SMILES IDX 9 13 7 14 4 15 5 16 89 17 6 18 88 19 2 20 1 21 3 22 19 23
REMARK SMILES IDX 20 24 21 25 22 26 23 28 24 29 25 30 86 31 26 32 85 33 27 34
REMARK SMILES IDX 28 35 29 36 79 37 30 38 84 39 78 40 80 41 31 42 83 43 77 44
REMARK SMILES IDX 76 45 32 47 64 48 44 49 63 50 45 51 48 52 62 53 81 54 46 55
REMARK SMILES IDX 47 56 61 58 82 59 49 60 33 61 34 62 42 63 35 64 36 65 40 66
REMARK SMILES IDX 43 67 37 68 38 69 41 70 39 71 65 72 66 73 74 74 67 75 68 76
REMARK SMILES IDX 72 77 75 78 69 79 70 80 73 81 71 82 50 83 51 84 59 85 52 86
REMARK SMILES IDX 53 87 57 88 60 89 54 90 55 91 58 92 56 93
REMARK H PARENT 17 5 21 27 80 46 48 57
REMARK Flexibility Score: inf
ROOT
ATOM      1  C   UNL A   1      41.490  19.868  25.877  1.00  0.00     0.117 C 
ENDROOT
BRANCH   1   2
ATOM      2  N   UNL A   1      42.848  19.653  25.411  1.00  0.00    -0.356 N 
ATOM      3  C   UNL A   1      43.942  20.436  25.276  1.00  0.00     0.224 C 
ATOM      4  O   UNL A   1      44.918  19.874  24.759  1.00  0.00    -0.275 OA
ATOM      5  H   UNL A   1      43.009  18.723  25.129  1.00  0.00     0.163 HD
BRANCH   3   6
ATOM      6  C   UNL A   1      44.074  21.898  25.725  1.00  0.00     0.098 C 
ATOM      7  N   UNL A   1      45.864  23.664  25.853  1.00  0.00    -0.338 N 
ATOM      8  C   UNL A   1      45.042  24.639  25.171  1.00  0.00     0.120 C 
ATOM      9  C   UNL A   1      45.578  22.250  25.626  1.00  0.00     0.133 C 
ATOM     10  C   UNL A   1      43.577  24.384  25.450  1.00  0.00     0.022 C 
ATOM     11  C   UNL A   1      43.207  22.960  25.046  1.00  0.00     0.017 C 
BRANCH   7  12
ATOM     12  C   UNL A   1      46.641  24.096  26.916  1.00  0.00     0.253 C 
ATOM     13  O   UNL A   1      47.868  24.081  26.876  1.00  0.00    -0.269 OA
BRANCH  12  14
ATOM     14  C   UNL A   1      45.919  24.346  28.203  1.00  0.00     0.040 A 
ATOM     15  C   UNL A   1      44.791  24.629  30.787  1.00  0.00    -0.045 A 
ATOM     16  C   UNL A   1      45.949  25.336  30.419  1.00  0.00     0.005 A 
ATOM     17  C   UNL A   1      44.195  23.802  29.826  1.00  0.00     0.005 A 
ATOM     18  C   UNL A   1      46.508  25.197  29.144  1.00  0.00     0.014 A 
ATOM     19  C   UNL A   1      44.753  23.660  28.552  1.00  0.00     0.014 A 
BRANCH  15  20
ATOM     20  C   UNL A   1      44.251  24.770  32.204  1.00  0.00     0.013 C 
ATOM     21  C   UNL A   1      45.043  24.013  33.277  1.00  0.00     0.012 C 
ATOM     22  C   UNL A   1      44.152  26.247  32.602  1.00  0.00     0.012 C 
ENDBRANCH  15  20
ENDBRANCH  12  14
ENDBRANCH   7  12
ENDBRANCH   3   6
ENDBRANCH   1   2
BRANCH   1  23
ATOM     23  C   UNL A   1      41.443  20.191  27.368  1.00  0.00     0.042 C 
BRANCH  23  24
ATOM     24  C   UNL A   1      40.729  21.505  27.675  1.00  0.00     0.118 C 
BRANCH  24  25
ATOM     25  N   UNL A   1      39.644  21.767  26.735  1.00  0.00    -0.352 N 
ATOM     26  C   UNL A   1      38.935  22.913  26.487  1.00  0.00     0.251 C 
ATOM     27  H   UNL A   1      39.376  20.993  26.189  1.00  0.00     0.163 HD
ATOM     28  O   UNL A   1      37.893  22.849  25.833  1.00  0.00    -0.269 OA
BRANCH  26  29
ATOM     29  C   UNL A   1      39.401  24.221  26.989  1.00  0.00     0.039 A 
ATOM     30  C   UNL A   1      40.031  25.101  26.102  1.00  0.00     0.014 A 
ATOM     31  C   UNL A   1      39.279  24.560  28.339  1.00  0.00     0.014 A 
ATOM     32  C   UNL A   1      40.489  26.338  26.558  1.00  0.00     0.010 A 
ATOM     33  C   UNL A   1      39.664  25.824  28.775  1.00  0.00     0.010 A 
ATOM     34  C   UNL A   1      40.282  26.721  27.892  1.00  0.00    -0.014 A 
BRANCH  34  35
ATOM     35  C   UNL A   1      40.712  28.050  28.390  1.00  0.00     0.031 A 
ATOM     36  C   UNL A   1      42.168  28.326  28.641  1.00  0.00     0.074 A 
ATOM     37  C   UNL A   1      39.787  28.982  28.682  1.00  0.00     0.049 A 
ATOM     38  N   UNL A   1      42.737  29.392  29.147  1.00  0.00    -0.248 NA
ATOM     39  C   UNL A   1      43.110  27.247  28.305  1.00  0.00     0.031 C 
ATOM     40  C   UNL A   1      38.342  28.817  28.516  1.00  0.00     0.029 A 
ATOM     41  N   UNL A   1      39.922  30.250  29.187  1.00  0.00    -0.354 N 
ATOM     42  C   UNL A   1      44.093  29.105  29.205  1.00  0.00     0.074 A 
ATOM     43  C   UNL A   1      44.257  27.745  28.741  1.00  0.00     0.031 C 
ATOM     44  C   UNL A   1      37.727  29.953  28.881  1.00  0.00     0.029 A 
ATOM     45  C   UNL A   1      38.727  30.907  29.345  1.00  0.00     0.049 A 
ATOM     46  H   UNL A   1      40.792  30.650  29.414  1.00  0.00     0.167 HD
ATOM     47  C   UNL A   1      45.113  29.910  29.588  1.00  0.00     0.037 A 
ATOM     48  C   UNL A   1      38.471  32.143  29.813  1.00  0.00     0.037 A 
ATOM     49  C   UNL A   1      44.943  31.269  30.034  1.00  0.00     0.049 A 
ATOM     50  C   UNL A   1      39.616  33.011  30.258  1.00  0.00     0.074 A 
ATOM     51  C   UNL A   1      45.912  32.190  30.393  1.00  0.00     0.029 A 
ATOM     52  N   UNL A   1      43.716  31.901  30.185  1.00  0.00    -0.354 N 
ATOM     53  N   UNL A   1      40.900  32.752  30.253  1.00  0.00    -0.248 NA
ATOM     54  C   UNL A   1      39.272  34.343  30.772  1.00  0.00     0.031 C 
ATOM     55  C   UNL A   1      45.270  33.362  30.807  1.00  0.00     0.029 A 
ATOM     56  C   UNL A   1      43.902  33.191  30.656  1.00  0.00     0.049 A 
ATOM     57  H   UNL A   1      42.843  31.492  29.986  1.00  0.00     0.167 HD
ATOM     58  C   UNL A   1      41.522  33.896  30.733  1.00  0.00     0.074 A 
ATOM     59  C   UNL A   1      40.471  34.855  31.010  1.00  0.00     0.031 C 
ATOM     60  C   UNL A   1      42.844  34.133  30.924  1.00  0.00     0.037 A 
BRANCH  47  61
ATOM     61  C   UNL A   1      46.499  29.331  29.545  1.00  0.00     0.064 A 
ATOM     62  C   UNL A   1      47.078  28.720  30.669  1.00  0.00     0.173 A 
ATOM     63  C   UNL A   1      47.261  29.388  28.368  1.00  0.00     0.173 A 
ATOM     64  F   UNL A   1      46.398  28.648  31.823  1.00  0.00    -0.203 F 
ATOM     65  C   UNL A   1      48.383  28.235  30.631  1.00  0.00     0.198 A 
ATOM     66  C   UNL A   1      48.553  28.869  28.324  1.00  0.00     0.198 A 
ATOM     67  F   UNL A   1      46.756  29.952  27.261  1.00  0.00    -0.203 F 
ATOM     68  F   UNL A   1      48.937  27.722  31.738  1.00  0.00    -0.200 F 
ATOM     69  C   UNL A   1      49.117  28.306  29.458  1.00  0.00     0.200 A 
ATOM     70  F   UNL A   1      49.258  28.928  27.185  1.00  0.00    -0.200 F 
ATOM     71  F   UNL A   1      50.375  27.844  29.424  1.00  0.00    -0.200 F 
ENDBRANCH  47  61
BRANCH  48  72
ATOM     72  C   UNL A   1      37.074  32.645  29.838  1.00  0.00     0.064 A 
ATOM     73  C   UNL A   1      36.529  33.289  28.718  1.00  0.00     0.173 A 
ATOM     74  C   UNL A   1      36.249  32.473  30.959  1.00  0.00     0.173 A 
ATOM     75  F   UNL A   1      37.286  33.491  27.630  1.00  0.00    -0.203 F 
ATOM     76  C   UNL A   1      35.215  33.749  28.721  1.00  0.00     0.198 A 
ATOM     77  C   UNL A   1      34.927  32.913  30.952  1.00  0.00     0.198 A 
ATOM     78  F   UNL A   1      36.721  31.858  32.053  1.00  0.00    -0.203 F 
ATOM     79  F   UNL A   1      34.730  34.389  27.649  1.00  0.00    -0.200 F 
ATOM     80  C   UNL A   1      34.412  33.555  29.836  1.00  0.00     0.200 A 
ATOM     81  F   UNL A   1      34.149  32.709  32.023  1.00  0.00    -0.200 F 
ATOM     82  F   UNL A   1      33.145  33.988  29.833  1.00  0.00    -0.200 F 
ENDBRANCH  48  72
BRANCH  60  83
ATOM     83  C   UNL A   1      43.231  35.494  31.426  1.00  0.00     0.064 A 
ATOM     84  C   UNL A   1      43.611  36.521  30.550  1.00  0.00     0.173 A 
ATOM     85  C   UNL A   1      43.185  35.783  32.798  1.00  0.00     0.173 A 
ATOM     86  F   UNL A   1      43.686  36.291  29.230  1.00  0.00    -0.203 F 
ATOM     87  C   UNL A   1      43.955  37.781  31.033  1.00  0.00     0.198 A 
ATOM     88  C   UNL A   1      43.500  37.052  33.275  1.00  0.00     0.198 A 
ATOM     89  F   UNL A   1      42.823  34.836  33.677  1.00  0.00    -0.203 F 
ATOM     90  F   UNL A   1      44.361  38.734  30.182  1.00  0.00    -0.200 F 
ATOM     91  C   UNL A   1      43.892  38.048  32.392  1.00  0.00     0.200 A 
ATOM     92  F   UNL A   1      43.427  37.311  34.587  1.00  0.00    -0.200 F 
ATOM     93  F   UNL A   1      44.216  39.264  32.854  1.00  0.00    -0.200 F 
ENDBRANCH  60  83
ENDBRANCH  34  35
ENDBRANCH  26  29
ENDBRANCH  24  25
ENDBRANCH  23  24
ENDBRANCH   1  23
TORSDOF 13
ENDMDL
