MODEL 1
REMARK VINA RESULT:     -11.8      0.000      0.000
REMARK SMILES C#CC[C@]1(C(=O)NCCCNC(=O)c2ccc(-c3c4nc(c(-c5c(F)c(F)c(F)c(F)c5F)c5ccc([nH]5)c(-c5c(F)c(F)c(F)c(F)c5F)c5nc(c(-c6c(F)c(F)c(F)c(F)c6F)c6ccc3[nH]6)C=C5)C=C4)cc2)CC[C@@H](C)C1
REMARK SMILES IDX 9 1 8 2 7 3 5 4 6 5 4 7 77 8 81 9 78 10 79 11 80 12 3 13
REMARK SMILES IDX 2 14 1 15 10 16 11 17 12 18 13 20 14 21 15 22 76 23 16 24
REMARK SMILES IDX 75 25 17 26 18 27 19 28 69 29 20 30 74 31 68 32 70 33 21 34
REMARK SMILES IDX 73 35 67 36 66 37 22 39 54 40 34 41 53 42 35 43 38 44 52 45
REMARK SMILES IDX 71 46 36 47 37 48 51 50 72 51 39 52 23 53 24 54 32 55 25 56
REMARK SMILES IDX 26 57 30 58 33 59 27 60 28 61 31 62 29 63 55 64 56 65 64 66
REMARK SMILES IDX 57 67 58 68 62 69 65 70 59 71 60 72 63 73 61 74 40 75 41 76
REMARK SMILES IDX 49 77 42 78 43 79 47 80 50 81 44 82 45 83 48 84 46 85
REMARK H PARENT 7 6 11 19 70 38 38 49
REMARK Flexibility Score: inf
ROOT
ATOM      1  C   UNL A   1      31.618  31.775  26.790  1.00  0.00     0.042 C 
ENDROOT
BRANCH   1   2
ATOM      2  C   UNL A   1      31.965  30.360  26.359  1.00  0.00     0.117 C 
BRANCH   2   3
ATOM      3  N   UNL A   1      31.632  30.078  24.981  1.00  0.00    -0.356 N 
ATOM      4  C   UNL A   1      31.447  28.931  24.284  1.00  0.00     0.227 C 
ATOM      5  O   UNL A   1      30.896  29.088  23.185  1.00  0.00    -0.274 OA
ATOM      6  H   UNL A   1      31.518  30.889  24.434  1.00  0.00     0.163 HD
BRANCH   4   7
ATOM      7  C   UNL A   1      31.829  27.503  24.753  1.00  0.00     0.060 C 
ATOM      8  C   UNL A   1      31.311  27.053  26.138  1.00  0.00     0.018 C 
ATOM      9  C   UNL A   1      31.227  26.452  23.787  1.00  0.00     0.021 C 
ATOM     10  C   UNL A   1      30.136  26.091  25.914  1.00  0.00     0.004 C 
ATOM     11  C   UNL A   1      29.919  25.961  24.408  1.00  0.00    -0.013 C 
ATOM     12  C   UNL A   1      28.687  26.691  23.876  1.00  0.00     0.007 C 
BRANCH   7  13
ATOM     13  C   UNL A   1      33.402  27.493  24.613  1.00  0.00     0.106 C 
BRANCH  13  14
ATOM     14  C   UNL A   1      34.007  26.146  24.973  1.00  0.00    -0.106 C 
ATOM     15  C   UNL A   1      34.526  24.990  25.282  1.00  0.00     0.004 C 
ENDBRANCH  13  14
ENDBRANCH   7  13
ENDBRANCH   4   7
ENDBRANCH   2   3
ENDBRANCH   1   2
BRANCH   1  16
ATOM     16  C   UNL A   1      32.819  32.514  27.351  1.00  0.00     0.118 C 
BRANCH  16  17
ATOM     17  N   UNL A   1      32.528  33.922  27.615  1.00  0.00    -0.352 N 
ATOM     18  C   UNL A   1      33.048  34.771  28.560  1.00  0.00     0.251 C 
ATOM     19  H   UNL A   1      31.853  34.324  27.021  1.00  0.00     0.163 HD
ATOM     20  O   UNL A   1      32.545  35.867  28.754  1.00  0.00    -0.269 OA
BRANCH  18  21
ATOM     21  C   UNL A   1      34.215  34.337  29.351  1.00  0.00     0.039 A 
ATOM     22  C   UNL A   1      34.015  33.670  30.563  1.00  0.00     0.014 A 
ATOM     23  C   UNL A   1      35.504  34.575  28.875  1.00  0.00     0.014 A 
ATOM     24  C   UNL A   1      35.116  33.172  31.261  1.00  0.00     0.010 A 
ATOM     25  C   UNL A   1      36.584  33.988  29.510  1.00  0.00     0.010 A 
ATOM     26  C   UNL A   1      36.403  33.293  30.716  1.00  0.00    -0.014 A 
BRANCH  26  27
ATOM     27  C   UNL A   1      37.609  32.757  31.387  1.00  0.00     0.031 A 
ATOM     28  C   UNL A   1      38.356  31.630  30.733  1.00  0.00     0.074 A 
ATOM     29  C   UNL A   1      37.934  33.171  32.625  1.00  0.00     0.049 A 
ATOM     30  N   UNL A   1      39.257  30.827  31.234  1.00  0.00    -0.248 NA
ATOM     31  C   UNL A   1      37.984  31.325  29.341  1.00  0.00     0.031 C 
ATOM     32  C   UNL A   1      37.251  34.222  33.377  1.00  0.00     0.029 A 
ATOM     33  N   UNL A   1      38.908  32.724  33.483  1.00  0.00    -0.354 N 
ATOM     34  C   UNL A   1      39.510  29.889  30.243  1.00  0.00     0.074 A 
ATOM     35  C   UNL A   1      38.638  30.194  29.131  1.00  0.00     0.031 C 
ATOM     36  C   UNL A   1      37.829  34.346  34.583  1.00  0.00     0.029 A 
ATOM     37  C   UNL A   1      38.891  33.352  34.703  1.00  0.00     0.049 A 
ATOM     38  H   UNL A   1      39.555  32.022  33.246  1.00  0.00     0.167 HD
ATOM     39  C   UNL A   1      40.403  28.871  30.258  1.00  0.00     0.037 A 
ATOM     40  C   UNL A   1      39.637  33.131  35.802  1.00  0.00     0.037 A 
ATOM     41  C   UNL A   1      41.313  28.627  31.344  1.00  0.00     0.049 A 
ATOM     42  C   UNL A   1      40.676  32.045  35.771  1.00  0.00     0.074 A 
ATOM     43  C   UNL A   1      42.322  27.686  31.431  1.00  0.00     0.029 A 
ATOM     44  N   UNL A   1      41.329  29.347  32.530  1.00  0.00    -0.354 N 
ATOM     45  N   UNL A   1      40.944  31.187  34.815  1.00  0.00    -0.248 NA
ATOM     46  C   UNL A   1      41.518  31.896  36.965  1.00  0.00     0.031 C 
ATOM     47  C   UNL A   1      42.932  27.819  32.684  1.00  0.00     0.029 A 
ATOM     48  C   UNL A   1      42.330  28.869  33.358  1.00  0.00     0.049 A 
ATOM     49  H   UNL A   1      40.719  30.088  32.750  1.00  0.00     0.167 HD
ATOM     50  C   UNL A   1      42.003  30.417  35.277  1.00  0.00     0.074 A 
ATOM     51  C   UNL A   1      42.330  30.911  36.600  1.00  0.00     0.031 C 
ATOM     52  C   UNL A   1      42.647  29.397  34.661  1.00  0.00     0.037 A 
BRANCH  39  53
ATOM     53  C   UNL A   1      40.431  27.959  29.067  1.00  0.00     0.064 A 
ATOM     54  C   UNL A   1      41.207  28.245  27.933  1.00  0.00     0.173 A 
ATOM     55  C   UNL A   1      39.660  26.787  29.053  1.00  0.00     0.173 A 
ATOM     56  F   UNL A   1      41.951  29.361  27.887  1.00  0.00    -0.203 F 
ATOM     57  C   UNL A   1      41.174  27.418  26.813  1.00  0.00     0.198 A 
ATOM     58  C   UNL A   1      39.656  25.943  27.945  1.00  0.00     0.198 A 
ATOM     59  F   UNL A   1      38.903  26.462  30.112  1.00  0.00    -0.203 F 
ATOM     60  F   UNL A   1      41.867  27.751  25.716  1.00  0.00    -0.200 F 
ATOM     61  C   UNL A   1      40.403  26.266  26.822  1.00  0.00     0.200 A 
ATOM     62  F   UNL A   1      38.919  24.824  27.959  1.00  0.00    -0.200 F 
ATOM     63  F   UNL A   1      40.368  25.472  25.742  1.00  0.00    -0.200 F 
ENDBRANCH  39  53
BRANCH  40  64
ATOM     64  C   UNL A   1      39.444  33.983  37.002  1.00  0.00     0.064 A 
ATOM     65  C   UNL A   1      38.686  33.525  38.087  1.00  0.00     0.173 A 
ATOM     66  C   UNL A   1      40.043  35.246  37.108  1.00  0.00     0.173 A 
ATOM     67  F   UNL A   1      38.083  32.329  38.024  1.00  0.00    -0.203 F 
ATOM     68  C   UNL A   1      38.528  34.301  39.233  1.00  0.00     0.198 A 
ATOM     69  C   UNL A   1      39.903  36.012  38.264  1.00  0.00     0.198 A 
ATOM     70  F   UNL A   1      40.787  35.724  36.100  1.00  0.00    -0.203 F 
ATOM     71  F   UNL A   1      37.777  33.849  40.248  1.00  0.00    -0.200 F 
ATOM     72  C   UNL A   1      39.143  35.541  39.324  1.00  0.00     0.200 A 
ATOM     73  F   UNL A   1      40.511  37.203  38.354  1.00  0.00    -0.200 F 
ATOM     74  F   UNL A   1      39.001  36.281  40.432  1.00  0.00    -0.200 F 
ENDBRANCH  40  64
BRANCH  52  75
ATOM     75  C   UNL A   1      43.804  28.776  35.383  1.00  0.00     0.064 A 
ATOM     76  C   UNL A   1      45.115  29.239  35.204  1.00  0.00     0.173 A 
ATOM     77  C   UNL A   1      43.583  27.760  36.325  1.00  0.00     0.173 A 
ATOM     78  F   UNL A   1      45.375  30.200  34.305  1.00  0.00    -0.203 F 
ATOM     79  C   UNL A   1      46.166  28.701  35.940  1.00  0.00     0.198 A 
ATOM     80  C   UNL A   1      44.633  27.240  37.075  1.00  0.00     0.198 A 
ATOM     81  F   UNL A   1      42.344  27.291  36.533  1.00  0.00    -0.203 F 
ATOM     82  F   UNL A   1      47.417  29.139  35.738  1.00  0.00    -0.200 F 
ATOM     83  C   UNL A   1      45.923  27.710  36.881  1.00  0.00     0.200 A 
ATOM     84  F   UNL A   1      44.395  26.293  37.991  1.00  0.00    -0.200 F 
ATOM     85  F   UNL A   1      46.935  27.204  37.600  1.00  0.00    -0.200 F 
ENDBRANCH  52  75
ENDBRANCH  26  27
ENDBRANCH  18  21
ENDBRANCH  16  17
ENDBRANCH   1  16
TORSDOF 12
ENDMDL
MODEL 2
REMARK VINA RESULT:     -11.8      0.341      2.072
REMARK SMILES C#CC[C@]1(C(=O)NCCCNC(=O)c2ccc(-c3c4nc(c(-c5c(F)c(F)c(F)c(F)c5F)c5ccc([nH]5)c(-c5c(F)c(F)c(F)c(F)c5F)c5nc(c(-c6c(F)c(F)c(F)c(F)c6F)c6ccc3[nH]6)C=C5)C=C4)cc2)CC[C@@H](C)C1
REMARK SMILES IDX 9 1 8 2 7 3 5 4 6 5 4 7 77 8 81 9 78 10 79 11 80 12 3 13
REMARK SMILES IDX 2 14 1 15 10 16 11 17 12 18 13 20 14 21 15 22 76 23 16 24
REMARK SMILES IDX 75 25 17 26 18 27 19 28 69 29 20 30 74 31 68 32 70 33 21 34
REMARK SMILES IDX 73 35 67 36 66 37 22 39 54 40 34 41 53 42 35 43 38 44 52 45
REMARK SMILES IDX 71 46 36 47 37 48 51 50 72 51 39 52 23 53 24 54 32 55 25 56
REMARK SMILES IDX 26 57 30 58 33 59 27 60 28 61 31 62 29 63 55 64 56 65 64 66
REMARK SMILES IDX 57 67 58 68 62 69 65 70 59 71 60 72 63 73 61 74 40 75 41 76
REMARK SMILES IDX 49 77 42 78 43 79 47 80 50 81 44 82 45 83 48 84 46 85
REMARK H PARENT 7 6 11 19 70 38 38 49
REMARK Flexibility Score: inf
ROOT
ATOM      1  C   UNL A   1      31.558  31.735  26.804  1.00  0.00     0.042 C 
ENDROOT
BRANCH   1   2
ATOM      2  C   UNL A   1      31.896  30.352  26.274  1.00  0.00     0.117 C 
BRANCH   2   3
ATOM      3  N   UNL A   1      31.403  30.111  24.936  1.00  0.00    -0.356 N 
ATOM      4  C   UNL A   1      31.139  28.985  24.231  1.00  0.00     0.227 C 
ATOM      5  O   UNL A   1      30.461  29.172  23.211  1.00  0.00    -0.274 OA
ATOM      6  H   UNL A   1      31.223  30.938  24.432  1.00  0.00     0.163 HD
BRANCH   4   7
ATOM      7  C   UNL A   1      31.577  27.545  24.606  1.00  0.00     0.060 C 
ATOM      8  C   UNL A   1      31.151  27.018  25.995  1.00  0.00     0.018 C 
ATOM      9  C   UNL A   1      30.940  26.528  23.627  1.00  0.00     0.021 C 
ATOM     10  C   UNL A   1      29.985  26.040  25.794  1.00  0.00     0.004 C 
ATOM     11  C   UNL A   1      29.681  25.978  24.299  1.00  0.00    -0.013 C 
ATOM     12  C   UNL A   1      28.405  26.703  23.876  1.00  0.00     0.007 C 
BRANCH   7  13
ATOM     13  C   UNL A   1      33.139  27.578  24.374  1.00  0.00     0.106 C 
BRANCH  13  14
ATOM     14  C   UNL A   1      33.819  26.297  24.830  1.00  0.00    -0.106 C 
ATOM     15  C   UNL A   1      34.403  25.199  25.221  1.00  0.00     0.004 C 
ENDBRANCH  13  14
ENDBRANCH   7  13
ENDBRANCH   4   7
ENDBRANCH   2   3
ENDBRANCH   1   2
BRANCH   1  16
ATOM     16  C   UNL A   1      32.794  32.492  27.256  1.00  0.00     0.118 C 
BRANCH  16  17
ATOM     17  N   UNL A   1      32.503  33.892  27.560  1.00  0.00    -0.352 N 
ATOM     18  C   UNL A   1      33.031  34.717  28.523  1.00  0.00     0.251 C 
ATOM     19  H   UNL A   1      31.822  34.309  26.984  1.00  0.00     0.163 HD
ATOM     20  O   UNL A   1      32.528  35.806  28.751  1.00  0.00    -0.269 OA
BRANCH  18  21
ATOM     21  C   UNL A   1      34.206  34.263  29.291  1.00  0.00     0.039 A 
ATOM     22  C   UNL A   1      34.020  33.504  30.449  1.00  0.00     0.014 A 
ATOM     23  C   UNL A   1      35.490  34.576  28.845  1.00  0.00     0.014 A 
ATOM     24  C   UNL A   1      35.131  32.991  31.119  1.00  0.00     0.010 A 
ATOM     25  C   UNL A   1      36.584  33.978  29.446  1.00  0.00     0.010 A 
ATOM     26  C   UNL A   1      36.417  33.193  30.597  1.00  0.00    -0.014 A 
BRANCH  26  27
ATOM     27  C   UNL A   1      37.636  32.647  31.238  1.00  0.00     0.031 A 
ATOM     28  C   UNL A   1      38.366  31.526  30.558  1.00  0.00     0.074 A 
ATOM     29  C   UNL A   1      37.986  33.048  32.473  1.00  0.00     0.049 A 
ATOM     30  N   UNL A   1      39.276  30.716  31.033  1.00  0.00    -0.248 NA
ATOM     31  C   UNL A   1      37.967  31.236  29.171  1.00  0.00     0.031 C 
ATOM     32  C   UNL A   1      37.319  34.093  33.250  1.00  0.00     0.029 A 
ATOM     33  N   UNL A   1      38.975  32.591  33.307  1.00  0.00    -0.354 N 
ATOM     34  C   UNL A   1      39.508  29.788  30.027  1.00  0.00     0.074 A 
ATOM     35  C   UNL A   1      38.614  30.106  28.936  1.00  0.00     0.031 C 
ATOM     36  C   UNL A   1      37.922  34.203  34.445  1.00  0.00     0.029 A 
ATOM     37  C   UNL A   1      38.984  33.206  34.534  1.00  0.00     0.049 A 
ATOM     38  H   UNL A   1      39.617  31.890  33.050  1.00  0.00     0.167 HD
ATOM     39  C   UNL A   1      40.399  28.769  30.014  1.00  0.00     0.037 A 
ATOM     40  C   UNL A   1      39.751  32.972  35.616  1.00  0.00     0.037 A 
ATOM     41  C   UNL A   1      41.330  28.512  31.079  1.00  0.00     0.049 A 
ATOM     42  C   UNL A   1      40.787  31.885  35.553  1.00  0.00     0.074 A 
ATOM     43  C   UNL A   1      42.338  27.568  31.137  1.00  0.00     0.029 A 
ATOM     44  N   UNL A   1      41.371  29.220  32.272  1.00  0.00    -0.354 N 
ATOM     45  N   UNL A   1      41.034  31.036  34.582  1.00  0.00    -0.248 NA
ATOM     46  C   UNL A   1      41.653  31.722  36.728  1.00  0.00     0.031 C 
ATOM     47  C   UNL A   1      42.974  27.687  32.378  1.00  0.00     0.029 A 
ATOM     48  C   UNL A   1      42.387  28.731  33.075  1.00  0.00     0.049 A 
ATOM     49  H   UNL A   1      40.766  29.959  32.511  1.00  0.00     0.167 HD
ATOM     50  C   UNL A   1      42.101  30.260  35.016  1.00  0.00     0.074 A 
ATOM     51  C   UNL A   1      42.455  30.740  36.337  1.00  0.00     0.031 C 
ATOM     52  C   UNL A   1      42.731  29.245  34.377  1.00  0.00     0.037 A 
BRANCH  39  53
ATOM     53  C   UNL A   1      40.401  27.869  28.813  1.00  0.00     0.064 A 
ATOM     54  C   UNL A   1      39.653  26.682  28.775  1.00  0.00     0.173 A 
ATOM     55  C   UNL A   1      41.173  28.192  27.687  1.00  0.00     0.173 A 
ATOM     56  F   UNL A   1      38.910  26.318  29.832  1.00  0.00    -0.203 F 
ATOM     57  C   UNL A   1      39.714  25.830  27.676  1.00  0.00     0.198 A 
ATOM     58  C   UNL A   1      41.204  27.355  26.574  1.00  0.00     0.198 A 
ATOM     59  F   UNL A   1      41.903  29.317  27.666  1.00  0.00    -0.203 F 
ATOM     60  F   UNL A   1      39.048  24.668  27.694  1.00  0.00    -0.200 F 
ATOM     61  C   UNL A   1      40.485  26.169  26.575  1.00  0.00     0.200 A 
ATOM     62  F   UNL A   1      41.940  27.690  25.506  1.00  0.00    -0.200 F 
ATOM     63  F   UNL A   1      40.547  25.346  25.518  1.00  0.00    -0.200 F 
ENDBRANCH  39  53
BRANCH  40  64
ATOM     64  C   UNL A   1      39.584  33.813  36.828  1.00  0.00     0.064 A 
ATOM     65  C   UNL A   1      40.199  35.068  36.915  1.00  0.00     0.173 A 
ATOM     66  C   UNL A   1      38.776  33.404  37.898  1.00  0.00     0.173 A 
ATOM     67  F   UNL A   1      40.991  35.495  35.921  1.00  0.00    -0.203 F 
ATOM     68  C   UNL A   1      40.019  35.882  38.031  1.00  0.00     0.198 A 
ATOM     69  C   UNL A   1      38.579  34.228  39.005  1.00  0.00     0.198 A 
ATOM     70  F   UNL A   1      38.157  32.215  37.857  1.00  0.00    -0.203 F 
ATOM     71  F   UNL A   1      40.639  37.068  38.099  1.00  0.00    -0.200 F 
ATOM     72  C   UNL A   1      39.203  35.464  39.072  1.00  0.00     0.200 A 
ATOM     73  F   UNL A   1      37.778  33.828  40.001  1.00  0.00    -0.200 F 
ATOM     74  F   UNL A   1      39.020  36.253  40.140  1.00  0.00    -0.200 F 
ENDBRANCH  40  64
BRANCH  52  75
ATOM     75  C   UNL A   1      43.901  28.615  35.069  1.00  0.00     0.064 A 
ATOM     76  C   UNL A   1      43.748  27.493  35.895  1.00  0.00     0.173 A 
ATOM     77  C   UNL A   1      45.198  29.094  34.835  1.00  0.00     0.173 A 
ATOM     78  F   UNL A   1      42.525  27.009  36.158  1.00  0.00    -0.203 F 
ATOM     79  C   UNL A   1      44.856  26.876  36.469  1.00  0.00     0.198 A 
ATOM     80  C   UNL A   1      46.305  28.461  35.391  1.00  0.00     0.198 A 
ATOM     81  F   UNL A   1      45.392  30.161  34.045  1.00  0.00    -0.203 F 
ATOM     82  F   UNL A   1      44.689  25.820  37.276  1.00  0.00    -0.200 F 
ATOM     83  C   UNL A   1      46.133  27.354  36.209  1.00  0.00     0.200 A 
ATOM     84  F   UNL A   1      47.538  28.916  35.129  1.00  0.00    -0.200 F 
ATOM     85  F   UNL A   1      47.200  26.749  36.749  1.00  0.00    -0.200 F 
ENDBRANCH  52  75
ENDBRANCH  26  27
ENDBRANCH  18  21
ENDBRANCH  16  17
ENDBRANCH   1  16
TORSDOF 12
ENDMDL
MODEL 3
REMARK VINA RESULT:     -11.6      6.363     11.648
REMARK SMILES C#CC[C@]1(C(=O)NCCCNC(=O)c2ccc(-c3c4nc(c(-c5c(F)c(F)c(F)c(F)c5F)c5ccc([nH]5)c(-c5c(F)c(F)c(F)c(F)c5F)c5nc(c(-c6c(F)c(F)c(F)c(F)c6F)c6ccc3[nH]6)C=C5)C=C4)cc2)CC[C@@H](C)C1
REMARK SMILES IDX 9 1 8 2 7 3 5 4 6 5 4 7 77 8 81 9 78 10 79 11 80 12 3 13
REMARK SMILES IDX 2 14 1 15 10 16 11 17 12 18 13 20 14 21 15 22 76 23 16 24
REMARK SMILES IDX 75 25 17 26 18 27 19 28 69 29 20 30 74 31 68 32 70 33 21 34
REMARK SMILES IDX 73 35 67 36 66 37 22 39 54 40 34 41 53 42 35 43 38 44 52 45
REMARK SMILES IDX 71 46 36 47 37 48 51 50 72 51 39 52 23 53 24 54 32 55 25 56
REMARK SMILES IDX 26 57 30 58 33 59 27 60 28 61 31 62 29 63 55 64 56 65 64 66
REMARK SMILES IDX 57 67 58 68 62 69 65 70 59 71 60 72 63 73 61 74 40 75 41 76
REMARK SMILES IDX 49 77 42 78 43 79 47 80 50 81 44 82 45 83 48 84 46 85
REMARK H PARENT 7 6 11 19 70 38 38 49
REMARK Flexibility Score: inf
ROOT
ATOM      1  C   UNL A   1      37.935  19.890  24.994  1.00  0.00     0.042 C 
ENDROOT
BRANCH   1   2
ATOM      2  C   UNL A   1      36.876  20.979  25.009  1.00  0.00     0.117 C 
BRANCH   2   3
ATOM      3  N   UNL A   1      35.563  20.503  25.381  1.00  0.00    -0.356 N 
ATOM      4  C   UNL A   1      34.314  21.002  25.225  1.00  0.00     0.227 C 
ATOM      5  O   UNL A   1      33.409  20.178  25.423  1.00  0.00    -0.274 OA
ATOM      6  H   UNL A   1      35.580  19.634  25.845  1.00  0.00     0.163 HD
BRANCH   4   7
ATOM      7  C   UNL A   1      33.952  22.452  24.811  1.00  0.00     0.060 C 
ATOM      8  C   UNL A   1      34.656  23.024  23.559  1.00  0.00     0.018 C 
ATOM      9  C   UNL A   1      32.449  22.537  24.445  1.00  0.00     0.021 C 
ATOM     10  C   UNL A   1      33.650  23.008  22.400  1.00  0.00     0.004 C 
ATOM     11  C   UNL A   1      32.344  22.416  22.925  1.00  0.00    -0.013 C 
ATOM     12  C   UNL A   1      32.053  20.993  22.452  1.00  0.00     0.007 C 
BRANCH   7  13
ATOM     13  C   UNL A   1      34.210  23.275  26.134  1.00  0.00     0.106 C 
BRANCH  13  14
ATOM     14  C   UNL A   1      33.939  24.760  25.955  1.00  0.00    -0.106 C 
ATOM     15  C   UNL A   1      33.707  26.033  25.803  1.00  0.00     0.004 C 
ENDBRANCH  13  14
ENDBRANCH   7  13
ENDBRANCH   4   7
ENDBRANCH   2   3
ENDBRANCH   1   2
BRANCH   1  16
ATOM     16  C   UNL A   1      39.191  20.302  25.739  1.00  0.00     0.118 C 
BRANCH  16  17
ATOM     17  N   UNL A   1      40.139  19.198  25.878  1.00  0.00    -0.352 N 
ATOM     18  C   UNL A   1      41.498  19.217  26.077  1.00  0.00     0.251 C 
ATOM     19  H   UNL A   1      39.741  18.299  25.818  1.00  0.00     0.163 HD
ATOM     20  O   UNL A   1      42.154  18.192  25.978  1.00  0.00    -0.269 OA
BRANCH  18  21
ATOM     21  C   UNL A   1      42.159  20.497  26.398  1.00  0.00     0.039 A 
ATOM     22  C   UNL A   1      42.613  21.315  25.360  1.00  0.00     0.014 A 
ATOM     23  C   UNL A   1      42.303  20.889  27.728  1.00  0.00     0.014 A 
ATOM     24  C   UNL A   1      43.147  22.569  25.660  1.00  0.00     0.010 A 
ATOM     25  C   UNL A   1      42.731  22.173  28.016  1.00  0.00     0.010 A 
ATOM     26  C   UNL A   1      43.171  23.019  26.988  1.00  0.00    -0.014 A 
BRANCH  26  27
ATOM     27  C   UNL A   1      43.691  24.352  27.371  1.00  0.00     0.031 A 
ATOM     28  C   UNL A   1      42.734  25.365  27.931  1.00  0.00     0.074 A 
ATOM     29  C   UNL A   1      44.959  24.692  27.079  1.00  0.00     0.049 A 
ATOM     30  N   UNL A   1      42.882  26.655  28.085  1.00  0.00    -0.248 NA
ATOM     31  C   UNL A   1      41.402  24.862  28.308  1.00  0.00     0.031 C 
ATOM     32  C   UNL A   1      45.962  23.807  26.488  1.00  0.00     0.029 A 
ATOM     33  N   UNL A   1      45.609  25.893  27.210  1.00  0.00    -0.354 N 
ATOM     34  C   UNL A   1      41.647  27.121  28.513  1.00  0.00     0.074 A 
ATOM     35  C   UNL A   1      40.751  25.988  28.553  1.00  0.00     0.031 C 
ATOM     36  C   UNL A   1      47.104  24.492  26.313  1.00  0.00     0.029 A 
ATOM     37  C   UNL A   1      46.896  25.874  26.735  1.00  0.00     0.049 A 
ATOM     38  H   UNL A   1      45.192  26.692  27.606  1.00  0.00     0.167 HD
ATOM     39  C   UNL A   1      41.300  28.384  28.856  1.00  0.00     0.037 A 
ATOM     40  C   UNL A   1      47.798  26.869  26.634  1.00  0.00     0.037 A 
ATOM     41  C   UNL A   1      42.223  29.485  28.880  1.00  0.00     0.049 A 
ATOM     42  C   UNL A   1      47.416  28.249  27.092  1.00  0.00     0.074 A 
ATOM     43  C   UNL A   1      42.008  30.785  29.298  1.00  0.00     0.029 A 
ATOM     44  N   UNL A   1      43.550  29.404  28.480  1.00  0.00    -0.354 N 
ATOM     45  N   UNL A   1      46.259  28.678  27.539  1.00  0.00    -0.248 NA
ATOM     46  C   UNL A   1      48.459  29.281  27.036  1.00  0.00     0.031 C 
ATOM     47  C   UNL A   1      43.199  31.499  29.125  1.00  0.00     0.029 A 
ATOM     48  C   UNL A   1      44.166  30.633  28.638  1.00  0.00     0.049 A 
ATOM     49  H   UNL A   1      43.987  28.592  28.135  1.00  0.00     0.167 HD
ATOM     50  C   UNL A   1      46.442  30.019  27.846  1.00  0.00     0.074 A 
ATOM     51  C   UNL A   1      47.822  30.333  27.535  1.00  0.00     0.031 C 
ATOM     52  C   UNL A   1      45.549  30.909  28.342  1.00  0.00     0.037 A 
BRANCH  39  53
ATOM     53  C   UNL A   1      39.867  28.628  29.230  1.00  0.00     0.064 A 
ATOM     54  C   UNL A   1      38.924  29.081  28.294  1.00  0.00     0.173 A 
ATOM     55  C   UNL A   1      39.432  28.417  30.547  1.00  0.00     0.173 A 
ATOM     56  F   UNL A   1      39.291  29.313  27.024  1.00  0.00    -0.203 F 
ATOM     57  C   UNL A   1      37.613  29.359  28.672  1.00  0.00     0.198 A 
ATOM     58  C   UNL A   1      38.111  28.663  30.914  1.00  0.00     0.198 A 
ATOM     59  F   UNL A   1      40.289  27.980  31.481  1.00  0.00    -0.203 F 
ATOM     60  F   UNL A   1      36.751  29.860  27.776  1.00  0.00    -0.200 F 
ATOM     61  C   UNL A   1      37.207  29.145  29.980  1.00  0.00     0.200 A 
ATOM     62  F   UNL A   1      37.716  28.445  32.176  1.00  0.00    -0.200 F 
ATOM     63  F   UNL A   1      35.946  29.417  30.344  1.00  0.00    -0.200 F 
ENDBRANCH  39  53
BRANCH  40  64
ATOM     64  C   UNL A   1      49.155  26.576  26.109  1.00  0.00     0.064 A 
ATOM     65  C   UNL A   1      49.497  26.906  24.792  1.00  0.00     0.173 A 
ATOM     66  C   UNL A   1      50.147  26.005  26.919  1.00  0.00     0.173 A 
ATOM     67  F   UNL A   1      48.576  27.441  23.977  1.00  0.00    -0.203 F 
ATOM     68  C   UNL A   1      50.778  26.669  24.299  1.00  0.00     0.198 A 
ATOM     69  C   UNL A   1      51.436  25.789  26.432  1.00  0.00     0.198 A 
ATOM     70  F   UNL A   1      49.873  25.681  28.191  1.00  0.00    -0.203 F 
ATOM     71  F   UNL A   1      51.071  26.972  23.026  1.00  0.00    -0.200 F 
ATOM     72  C   UNL A   1      51.749  26.117  25.122  1.00  0.00     0.200 A 
ATOM     73  F   UNL A   1      52.375  25.269  27.234  1.00  0.00    -0.200 F 
ATOM     74  F   UNL A   1      52.985  25.902  24.652  1.00  0.00    -0.200 F 
ENDBRANCH  40  64
BRANCH  52  75
ATOM     75  C   UNL A   1      46.043  32.294  28.632  1.00  0.00     0.064 A 
ATOM     76  C   UNL A   1      46.627  32.622  29.863  1.00  0.00     0.173 A 
ATOM     77  C   UNL A   1      46.004  33.278  27.633  1.00  0.00     0.173 A 
ATOM     78  F   UNL A   1      46.673  31.717  30.851  1.00  0.00    -0.203 F 
ATOM     79  C   UNL A   1      47.149  33.893  30.086  1.00  0.00     0.198 A 
ATOM     80  C   UNL A   1      46.548  34.540  27.852  1.00  0.00     0.198 A 
ATOM     81  F   UNL A   1      45.461  33.005  26.437  1.00  0.00    -0.203 F 
ATOM     82  F   UNL A   1      47.680  34.197  31.279  1.00  0.00    -0.200 F 
ATOM     83  C   UNL A   1      47.118  34.847  29.078  1.00  0.00     0.200 A 
ATOM     84  F   UNL A   1      46.528  35.455  26.873  1.00  0.00    -0.200 F 
ATOM     85  F   UNL A   1      47.636  36.064  29.290  1.00  0.00    -0.200 F 
ENDBRANCH  52  75
ENDBRANCH  26  27
ENDBRANCH  18  21
ENDBRANCH  16  17
ENDBRANCH   1  16
TORSDOF 12
ENDMDL
