MODEL 1
REMARK VINA RESULT:      -9.3      0.000      0.000
REMARK SMILES C[C@@H](C(=O)NCCCNC(=O)c1ccc(-c2c3nc(c(-c4c(F)c(F)c(F)c(F)c4F)c4ccc([nH]4)c(-c4c(F)c(F)c(F)c(F)c4F)c4nc(c(-c5c(F)c(F)c(F)c(F)c5F)c5ccc2[nH]5)C=C4)C=C3)cc1)c1ccc(C[C@H]2CCC[C@@H]2O)cc1F
REMARK SMILES IDX 6 1 5 2 3 3 4 4 2 6 1 7 75 8 76 9 87 10 77 11 86 12 88 13
REMARK SMILES IDX 78 14 79 15 80 16 81 17 84 18 82 19 83 20 85 21 7 23 8 24
REMARK SMILES IDX 9 25 10 26 11 28 12 29 13 30 74 31 14 32 73 33 15 34 16 35
REMARK SMILES IDX 17 36 67 37 18 38 72 39 66 40 68 41 19 42 71 43 65 44 64 45
REMARK SMILES IDX 20 47 52 48 32 49 51 50 33 51 36 52 50 53 69 54 34 55 35 56
REMARK SMILES IDX 49 58 70 59 37 60 21 61 22 62 30 63 23 64 24 65 28 66 31 67
REMARK SMILES IDX 25 68 26 69 29 70 27 71 53 72 54 73 62 74 55 75 56 76 60 77
REMARK SMILES IDX 63 78 57 79 58 80 61 81 59 82 38 83 39 84 47 85 40 86 41 87
REMARK SMILES IDX 45 88 48 89 42 90 43 91 46 92 44 93
REMARK H PARENT 5 5 85 22 9 27 68 46 36 57
REMARK Flexibility Score: inf
ROOT
ATOM      1  C   UNL A   1      35.193  33.928  31.259  1.00  0.00     0.117 C 
ENDROOT
BRANCH   1   2
ATOM      2  N   UNL A   1      36.613  34.178  31.103  1.00  0.00    -0.356 N 
ATOM      3  C   UNL A   1      37.635  34.048  31.998  1.00  0.00     0.227 C 
ATOM      4  O   UNL A   1      38.734  34.487  31.653  1.00  0.00    -0.274 OA
ATOM      5  H   UNL A   1      36.883  34.492  30.209  1.00  0.00     0.163 HD
BRANCH   3   6
ATOM      6  C   UNL A   1      37.397  33.335  33.336  1.00  0.00     0.108 C 
ATOM      7  C   UNL A   1      37.688  34.256  34.526  1.00  0.00     0.023 C 
BRANCH   6   8
ATOM      8  C   UNL A   1      38.130  32.002  33.387  1.00  0.00    -0.000 A 
ATOM      9  C   UNL A   1      39.452  31.979  33.863  1.00  0.00     0.008 A 
ATOM     10  C   UNL A   1      37.556  30.787  33.005  1.00  0.00     0.127 A 
ATOM     11  C   UNL A   1      40.187  30.791  33.881  1.00  0.00     0.004 A 
ATOM     12  C   UNL A   1      38.295  29.607  32.989  1.00  0.00     0.043 A 
ATOM     13  F   UNL A   1      36.278  30.724  32.606  1.00  0.00    -0.207 F 
ATOM     14  C   UNL A   1      39.634  29.604  33.388  1.00  0.00    -0.045 A 
BRANCH  14  15
ATOM     15  C   UNL A   1      40.470  28.356  33.252  1.00  0.00     0.041 C 
BRANCH  15  16
ATOM     16  C   UNL A   1      41.980  28.536  33.498  1.00  0.00     0.022 C 
ATOM     17  C   UNL A   1      42.419  28.702  34.963  1.00  0.00     0.007 C 
ATOM     18  C   UNL A   1      42.875  27.414  32.963  1.00  0.00     0.117 C 
ATOM     19  C   UNL A   1      43.772  27.992  35.086  1.00  0.00     0.003 C 
ATOM     20  C   UNL A   1      44.201  27.678  33.661  1.00  0.00     0.032 C 
BRANCH  18  21
ATOM     21  O   UNL A   1      42.998  27.454  31.554  1.00  0.00    -0.393 OA
ATOM     22  H   UNL A   1      43.623  26.772  31.264  1.00  0.00     0.210 HD
ENDBRANCH  18  21
ENDBRANCH  15  16
ENDBRANCH  14  15
ENDBRANCH   6   8
ENDBRANCH   3   6
ENDBRANCH   1   2
BRANCH   1  23
ATOM     23  C   UNL A   1      34.783  32.623  30.577  1.00  0.00     0.042 C 
BRANCH  23  24
ATOM     24  C   UNL A   1      34.826  32.678  29.052  1.00  0.00     0.118 C 
BRANCH  24  25
ATOM     25  N   UNL A   1      34.094  31.584  28.433  1.00  0.00    -0.352 N 
ATOM     26  C   UNL A   1      34.546  30.372  27.977  1.00  0.00     0.251 C 
ATOM     27  H   UNL A   1      33.128  31.737  28.326  1.00  0.00     0.163 HD
ATOM     28  O   UNL A   1      33.798  29.655  27.318  1.00  0.00    -0.269 OA
BRANCH  26  29
ATOM     29  C   UNL A   1      35.931  29.930  28.251  1.00  0.00     0.039 A 
ATOM     30  C   UNL A   1      36.894  30.090  27.251  1.00  0.00     0.014 A 
ATOM     31  C   UNL A   1      36.278  29.328  29.465  1.00  0.00     0.014 A 
ATOM     32  C   UNL A   1      38.215  29.703  27.488  1.00  0.00     0.010 A 
ATOM     33  C   UNL A   1      37.609  29.004  29.724  1.00  0.00     0.010 A 
ATOM     34  C   UNL A   1      38.590  29.187  28.739  1.00  0.00    -0.014 A 
BRANCH  34  35
ATOM     35  C   UNL A   1      40.003  28.837  29.033  1.00  0.00     0.031 A 
ATOM     36  C   UNL A   1      40.895  29.816  29.746  1.00  0.00     0.074 A 
ATOM     37  C   UNL A   1      40.500  27.662  28.601  1.00  0.00     0.049 A 
ATOM     38  N   UNL A   1      42.171  29.723  30.023  1.00  0.00    -0.248 NA
ATOM     39  C   UNL A   1      40.276  31.076  30.184  1.00  0.00     0.031 C 
ATOM     40  C   UNL A   1      39.749  26.647  27.861  1.00  0.00     0.029 A 
ATOM     41  N   UNL A   1      41.760  27.128  28.709  1.00  0.00    -0.354 N 
ATOM     42  C   UNL A   1      42.510  30.915  30.650  1.00  0.00     0.074 A 
ATOM     43  C   UNL A   1      41.316  31.734  30.675  1.00  0.00     0.031 C 
ATOM     44  C   UNL A   1      40.557  25.608  27.597  1.00  0.00     0.029 A 
ATOM     45  C   UNL A   1      41.890  25.897  28.115  1.00  0.00     0.049 A 
ATOM     46  H   UNL A   1      42.502  27.584  29.170  1.00  0.00     0.167 HD
ATOM     47  C   UNL A   1      43.703  31.284  31.175  1.00  0.00     0.037 A 
ATOM     48  C   UNL A   1      42.966  25.097  27.990  1.00  0.00     0.037 A 
ATOM     49  C   UNL A   1      44.880  30.456  31.176  1.00  0.00     0.049 A 
ATOM     50  C   UNL A   1      44.278  25.531  28.585  1.00  0.00     0.074 A 
ATOM     51  C   UNL A   1      46.118  30.717  31.738  1.00  0.00     0.029 A 
ATOM     52  N   UNL A   1      44.966  29.204  30.585  1.00  0.00    -0.354 N 
ATOM     53  N   UNL A   1      44.569  26.633  29.233  1.00  0.00    -0.248 NA
ATOM     54  C   UNL A   1      45.411  24.608  28.435  1.00  0.00     0.031 C 
ATOM     55  C   UNL A   1      46.964  29.640  31.452  1.00  0.00     0.029 A 
ATOM     56  C   UNL A   1      46.241  28.688  30.752  1.00  0.00     0.049 A 
ATOM     57  H   UNL A   1      44.230  28.750  30.115  1.00  0.00     0.167 HD
ATOM     58  C   UNL A   1      45.905  26.523  29.593  1.00  0.00     0.074 A 
ATOM     59  C   UNL A   1      46.365  25.241  29.103  1.00  0.00     0.031 C 
ATOM     60  C   UNL A   1      46.680  27.405  30.269  1.00  0.00     0.037 A 
BRANCH  47  61
ATOM     61  C   UNL A   1      43.797  32.644  31.801  1.00  0.00     0.064 A 
ATOM     62  C   UNL A   1      44.055  33.791  31.034  1.00  0.00     0.173 A 
ATOM     63  C   UNL A   1      43.576  32.811  33.177  1.00  0.00     0.173 A 
ATOM     64  F   UNL A   1      44.282  33.683  29.717  1.00  0.00    -0.203 F 
ATOM     65  C   UNL A   1      44.111  35.050  31.625  1.00  0.00     0.198 A 
ATOM     66  C   UNL A   1      43.605  34.076  33.760  1.00  0.00     0.198 A 
ATOM     67  F   UNL A   1      43.319  31.749  33.955  1.00  0.00    -0.203 F 
ATOM     68  F   UNL A   1      44.399  36.125  30.879  1.00  0.00    -0.200 F 
ATOM     69  C   UNL A   1      43.879  35.192  32.984  1.00  0.00     0.200 A 
ATOM     70  F   UNL A   1      43.368  34.214  35.071  1.00  0.00    -0.200 F 
ATOM     71  F   UNL A   1      43.922  36.407  33.549  1.00  0.00    -0.200 F 
ENDBRANCH  47  61
BRANCH  48  72
ATOM     72  C   UNL A   1      42.844  23.792  27.292  1.00  0.00     0.064 A 
ATOM     73  C   UNL A   1      42.362  22.660  27.963  1.00  0.00     0.173 A 
ATOM     74  C   UNL A   1      43.215  23.645  25.948  1.00  0.00     0.173 A 
ATOM     75  F   UNL A   1      42.014  22.746  29.256  1.00  0.00    -0.203 F 
ATOM     76  C   UNL A   1      42.275  21.425  27.323  1.00  0.00     0.198 A 
ATOM     77  C   UNL A   1      43.102  22.416  25.301  1.00  0.00     0.198 A 
ATOM     78  F   UNL A   1      43.678  24.699  25.260  1.00  0.00    -0.203 F 
ATOM     79  F   UNL A   1      41.855  20.349  28.002  1.00  0.00    -0.200 F 
ATOM     80  C   UNL A   1      42.641  21.306  25.991  1.00  0.00     0.200 A 
ATOM     81  F   UNL A   1      43.443  22.308  24.009  1.00  0.00    -0.200 F 
ATOM     82  F   UNL A   1      42.556  20.119  25.375  1.00  0.00    -0.200 F 
ENDBRANCH  48  72
BRANCH  60  83
ATOM     83  C   UNL A   1      48.096  26.998  30.553  1.00  0.00     0.064 A 
ATOM     84  C   UNL A   1      48.432  26.243  31.685  1.00  0.00     0.173 A 
ATOM     85  C   UNL A   1      49.122  27.335  29.657  1.00  0.00     0.173 A 
ATOM     86  F   UNL A   1      47.489  25.910  32.579  1.00  0.00    -0.203 F 
ATOM     87  C   UNL A   1      49.750  25.861  31.923  1.00  0.00     0.198 A 
ATOM     88  C   UNL A   1      50.434  26.928  29.884  1.00  0.00     0.198 A 
ATOM     89  F   UNL A   1      48.851  28.052  28.557  1.00  0.00    -0.203 F 
ATOM     90  F   UNL A   1      50.057  25.178  33.035  1.00  0.00    -0.200 F 
ATOM     91  C   UNL A   1      50.747  26.197  31.020  1.00  0.00     0.200 A 
ATOM     92  F   UNL A   1      51.394  27.243  29.004  1.00  0.00    -0.200 F 
ATOM     93  F   UNL A   1      52.014  25.822  31.247  1.00  0.00    -0.200 F 
ENDBRANCH  60  83
ENDBRANCH  34  35
ENDBRANCH  26  29
ENDBRANCH  24  25
ENDBRANCH  23  24
ENDBRANCH   1  23
TORSDOF 14
ENDMDL
MODEL 2
REMARK VINA RESULT:      -8.9      0.301      1.711
REMARK SMILES C[C@@H](C(=O)NCCCNC(=O)c1ccc(-c2c3nc(c(-c4c(F)c(F)c(F)c(F)c4F)c4ccc([nH]4)c(-c4c(F)c(F)c(F)c(F)c4F)c4nc(c(-c5c(F)c(F)c(F)c(F)c5F)c5ccc2[nH]5)C=C4)C=C3)cc1)c1ccc(C[C@H]2CCC[C@@H]2O)cc1F
REMARK SMILES IDX 6 1 5 2 3 3 4 4 2 6 1 7 75 8 76 9 87 10 77 11 86 12 88 13
REMARK SMILES IDX 78 14 79 15 80 16 81 17 84 18 82 19 83 20 85 21 7 23 8 24
REMARK SMILES IDX 9 25 10 26 11 28 12 29 13 30 74 31 14 32 73 33 15 34 16 35
REMARK SMILES IDX 17 36 67 37 18 38 72 39 66 40 68 41 19 42 71 43 65 44 64 45
REMARK SMILES IDX 20 47 52 48 32 49 51 50 33 51 36 52 50 53 69 54 34 55 35 56
REMARK SMILES IDX 49 58 70 59 37 60 21 61 22 62 30 63 23 64 24 65 28 66 31 67
REMARK SMILES IDX 25 68 26 69 29 70 27 71 53 72 54 73 62 74 55 75 56 76 60 77
REMARK SMILES IDX 63 78 57 79 58 80 61 81 59 82 38 83 39 84 47 85 40 86 41 87
REMARK SMILES IDX 45 88 48 89 42 90 43 91 46 92 44 93
REMARK H PARENT 5 5 85 22 9 27 68 46 36 57
REMARK Flexibility Score: inf
ROOT
ATOM      1  C   UNL A   1      35.343  32.634  30.761  1.00  0.00     0.117 C 
ENDROOT
BRANCH   1   2
ATOM      2  N   UNL A   1      36.639  33.260  30.587  1.00  0.00    -0.356 N 
ATOM      3  C   UNL A   1      37.576  33.616  31.513  1.00  0.00     0.227 C 
ATOM      4  O   UNL A   1      38.528  34.287  31.108  1.00  0.00    -0.274 OA
ATOM      5  H   UNL A   1      36.882  33.460  29.655  1.00  0.00     0.163 HD
BRANCH   3   6
ATOM      6  C   UNL A   1      37.440  33.140  32.966  1.00  0.00     0.108 C 
ATOM      7  C   UNL A   1      37.793  34.252  33.960  1.00  0.00     0.023 C 
BRANCH   6   8
ATOM      8  C   UNL A   1      38.199  31.840  33.191  1.00  0.00    -0.000 A 
ATOM      9  C   UNL A   1      39.530  31.905  33.640  1.00  0.00     0.008 A 
ATOM     10  C   UNL A   1      37.642  30.574  32.996  1.00  0.00     0.127 A 
ATOM     11  C   UNL A   1      40.286  30.745  33.812  1.00  0.00     0.004 A 
ATOM     12  C   UNL A   1      38.402  29.415  33.133  1.00  0.00     0.043 A 
ATOM     13  F   UNL A   1      36.359  30.434  32.635  1.00  0.00    -0.207 F 
ATOM     14  C   UNL A   1      39.748  29.491  33.503  1.00  0.00    -0.045 A 
BRANCH  14  15
ATOM     15  C   UNL A   1      40.605  28.250  33.529  1.00  0.00     0.041 C 
BRANCH  15  16
ATOM     16  C   UNL A   1      42.121  28.490  33.657  1.00  0.00     0.022 C 
ATOM     17  C   UNL A   1      42.668  28.659  35.086  1.00  0.00     0.007 C 
ATOM     18  C   UNL A   1      43.016  27.412  33.038  1.00  0.00     0.117 C 
ATOM     19  C   UNL A   1      44.054  28.005  35.092  1.00  0.00     0.003 C 
ATOM     20  C   UNL A   1      44.381  27.724  33.633  1.00  0.00     0.032 C 
BRANCH  18  21
ATOM     21  O   UNL A   1      43.025  27.473  31.625  1.00  0.00    -0.393 OA
ATOM     22  H   UNL A   1      42.712  28.345  31.336  1.00  0.00     0.210 HD
ENDBRANCH  18  21
ENDBRANCH  15  16
ENDBRANCH  14  15
ENDBRANCH   6   8
ENDBRANCH   3   6
ENDBRANCH   1   2
BRANCH   1  23
ATOM     23  C   UNL A   1      34.360  33.088  29.682  1.00  0.00     0.042 C 
BRANCH  23  24
ATOM     24  C   UNL A   1      34.688  32.574  28.284  1.00  0.00     0.118 C 
BRANCH  24  25
ATOM     25  N   UNL A   1      34.028  31.312  27.984  1.00  0.00    -0.352 N 
ATOM     26  C   UNL A   1      34.562  30.060  27.814  1.00  0.00     0.251 C 
ATOM     27  H   UNL A   1      33.050  31.365  27.889  1.00  0.00     0.163 HD
ATOM     28  O   UNL A   1      33.855  29.152  27.385  1.00  0.00    -0.269 OA
BRANCH  26  29
ATOM     29  C   UNL A   1      35.986  29.797  28.122  1.00  0.00     0.039 A 
ATOM     30  C   UNL A   1      36.319  29.328  29.395  1.00  0.00     0.014 A 
ATOM     31  C   UNL A   1      36.992  30.043  27.183  1.00  0.00     0.014 A 
ATOM     32  C   UNL A   1      37.651  29.050  29.709  1.00  0.00     0.010 A 
ATOM     33  C   UNL A   1      38.312  29.702  27.473  1.00  0.00     0.010 A 
ATOM     34  C   UNL A   1      38.655  29.204  28.739  1.00  0.00    -0.014 A 
BRANCH  34  35
ATOM     35  C   UNL A   1      40.066  28.844  29.032  1.00  0.00     0.031 A 
ATOM     36  C   UNL A   1      40.969  29.823  29.731  1.00  0.00     0.074 A 
ATOM     37  C   UNL A   1      40.552  27.661  28.611  1.00  0.00     0.049 A 
ATOM     38  N   UNL A   1      42.245  29.722  30.005  1.00  0.00    -0.248 NA
ATOM     39  C   UNL A   1      40.362  31.093  30.158  1.00  0.00     0.031 C 
ATOM     40  C   UNL A   1      39.789  26.645  27.884  1.00  0.00     0.029 A 
ATOM     41  N   UNL A   1      41.807  27.117  28.721  1.00  0.00    -0.354 N 
ATOM     42  C   UNL A   1      42.596  30.918  30.619  1.00  0.00     0.074 A 
ATOM     43  C   UNL A   1      41.410  31.747  30.639  1.00  0.00     0.031 C 
ATOM     44  C   UNL A   1      40.587  25.596  27.628  1.00  0.00     0.029 A 
ATOM     45  C   UNL A   1      41.924  25.879  28.139  1.00  0.00     0.049 A 
ATOM     46  H   UNL A   1      42.554  27.572  29.174  1.00  0.00     0.167 HD
ATOM     47  C   UNL A   1      43.794  31.282  31.135  1.00  0.00     0.037 A 
ATOM     48  C   UNL A   1      42.993  25.068  28.019  1.00  0.00     0.037 A 
ATOM     49  C   UNL A   1      44.964  30.444  31.142  1.00  0.00     0.049 A 
ATOM     50  C   UNL A   1      44.311  25.498  28.605  1.00  0.00     0.074 A 
ATOM     51  C   UNL A   1      46.206  30.700  31.697  1.00  0.00     0.029 A 
ATOM     52  N   UNL A   1      45.037  29.185  30.563  1.00  0.00    -0.354 N 
ATOM     53  N   UNL A   1      44.613  26.603  29.241  1.00  0.00    -0.248 NA
ATOM     54  C   UNL A   1      45.435  24.562  28.461  1.00  0.00     0.031 C 
ATOM     55  C   UNL A   1      47.042  29.613  31.419  1.00  0.00     0.029 A 
ATOM     56  C   UNL A   1      46.308  28.660  30.732  1.00  0.00     0.049 A 
ATOM     57  H   UNL A   1      44.295  28.732  30.101  1.00  0.00     0.167 HD
ATOM     58  C   UNL A   1      45.949  26.486  29.597  1.00  0.00     0.074 A 
ATOM     59  C   UNL A   1      46.397  25.194  29.119  1.00  0.00     0.031 C 
ATOM     60  C   UNL A   1      46.735  27.368  30.262  1.00  0.00     0.037 A 
BRANCH  47  61
ATOM     61  C   UNL A   1      43.902  32.648  31.747  1.00  0.00     0.064 A 
ATOM     62  C   UNL A   1      43.713  32.854  33.122  1.00  0.00     0.173 A 
ATOM     63  C   UNL A   1      44.249  33.756  30.959  1.00  0.00     0.173 A 
ATOM     64  F   UNL A   1      43.370  31.829  33.917  1.00  0.00    -0.203 F 
ATOM     65  C   UNL A   1      43.844  34.123  33.681  1.00  0.00     0.198 A 
ATOM     66  C   UNL A   1      44.408  35.018  31.526  1.00  0.00     0.198 A 
ATOM     67  F   UNL A   1      44.448  33.613  29.640  1.00  0.00    -0.203 F 
ATOM     68  F   UNL A   1      43.619  34.303  34.990  1.00  0.00    -0.200 F 
ATOM     69  C   UNL A   1      44.199  35.201  32.885  1.00  0.00     0.200 A 
ATOM     70  F   UNL A   1      44.763  36.056  30.758  1.00  0.00    -0.200 F 
ATOM     71  F   UNL A   1      44.336  36.419  33.427  1.00  0.00    -0.200 F 
ENDBRANCH  47  61
BRANCH  48  72
ATOM     72  C   UNL A   1      42.858  23.757  27.336  1.00  0.00     0.064 A 
ATOM     73  C   UNL A   1      43.266  23.596  26.004  1.00  0.00     0.173 A 
ATOM     74  C   UNL A   1      42.311  22.644  27.990  1.00  0.00     0.173 A 
ATOM     75  F   UNL A   1      43.776  24.637  25.330  1.00  0.00    -0.203 F 
ATOM     76  C   UNL A   1      43.113  22.377  25.347  1.00  0.00     0.198 A 
ATOM     77  C   UNL A   1      42.184  21.418  27.340  1.00  0.00     0.198 A 
ATOM     78  F   UNL A   1      41.909  22.745  29.266  1.00  0.00    -0.203 F 
ATOM     79  F   UNL A   1      43.468  22.263  24.059  1.00  0.00    -0.200 F 
ATOM     80  C   UNL A   1      42.576  21.288  26.017  1.00  0.00     0.200 A 
ATOM     81  F   UNL A   1      41.678  20.364  27.995  1.00  0.00    -0.200 F 
ATOM     82  F   UNL A   1      42.431  20.115  25.384  1.00  0.00    -0.200 F 
ENDBRANCH  48  72
BRANCH  60  83
ATOM     83  C   UNL A   1      48.148  26.952  30.545  1.00  0.00     0.064 A 
ATOM     84  C   UNL A   1      48.483  26.215  31.689  1.00  0.00     0.173 A 
ATOM     85  C   UNL A   1      49.172  27.262  29.637  1.00  0.00     0.173 A 
ATOM     86  F   UNL A   1      47.541  25.908  32.594  1.00  0.00    -0.203 F 
ATOM     87  C   UNL A   1      49.798  25.823  31.926  1.00  0.00     0.198 A 
ATOM     88  C   UNL A   1      50.481  26.845  29.864  1.00  0.00     0.198 A 
ATOM     89  F   UNL A   1      48.902  27.960  28.525  1.00  0.00    -0.203 F 
ATOM     90  F   UNL A   1      50.104  25.159  33.050  1.00  0.00    -0.200 F 
ATOM     91  C   UNL A   1      50.793  26.132  31.012  1.00  0.00     0.200 A 
ATOM     92  F   UNL A   1      51.439  27.133  28.973  1.00  0.00    -0.200 F 
ATOM     93  F   UNL A   1      52.057  25.748  31.239  1.00  0.00    -0.200 F 
ENDBRANCH  60  83
ENDBRANCH  34  35
ENDBRANCH  26  29
ENDBRANCH  24  25
ENDBRANCH  23  24
ENDBRANCH   1  23
TORSDOF 14
ENDMDL
MODEL 3
REMARK VINA RESULT:      -8.9      4.355     10.568
REMARK SMILES C[C@@H](C(=O)NCCCNC(=O)c1ccc(-c2c3nc(c(-c4c(F)c(F)c(F)c(F)c4F)c4ccc([nH]4)c(-c4c(F)c(F)c(F)c(F)c4F)c4nc(c(-c5c(F)c(F)c(F)c(F)c5F)c5ccc2[nH]5)C=C4)C=C3)cc1)c1ccc(C[C@H]2CCC[C@@H]2O)cc1F
REMARK SMILES IDX 6 1 5 2 3 3 4 4 2 6 1 7 75 8 76 9 87 10 77 11 86 12 88 13
REMARK SMILES IDX 78 14 79 15 80 16 81 17 84 18 82 19 83 20 85 21 7 23 8 24
REMARK SMILES IDX 9 25 10 26 11 28 12 29 13 30 74 31 14 32 73 33 15 34 16 35
REMARK SMILES IDX 17 36 67 37 18 38 72 39 66 40 68 41 19 42 71 43 65 44 64 45
REMARK SMILES IDX 20 47 52 48 32 49 51 50 33 51 36 52 50 53 69 54 34 55 35 56
REMARK SMILES IDX 49 58 70 59 37 60 21 61 22 62 30 63 23 64 24 65 28 66 31 67
REMARK SMILES IDX 25 68 26 69 29 70 27 71 53 72 54 73 62 74 55 75 56 76 60 77
REMARK SMILES IDX 63 78 57 79 58 80 61 81 59 82 38 83 39 84 47 85 40 86 41 87
REMARK SMILES IDX 45 88 48 89 42 90 43 91 46 92 44 93
REMARK H PARENT 5 5 85 22 9 27 68 46 36 57
REMARK Flexibility Score: inf
ROOT
ATOM      1  C   UNL A   1      31.430  31.127  26.124  1.00  0.00     0.117 C 
ENDROOT
BRANCH   1   2
ATOM      2  N   UNL A   1      32.736  30.567  26.412  1.00  0.00    -0.356 N 
ATOM      3  C   UNL A   1      33.108  29.277  26.657  1.00  0.00     0.227 C 
ATOM      4  O   UNL A   1      34.266  29.097  27.038  1.00  0.00    -0.274 OA
ATOM      5  H   UNL A   1      33.472  31.221  26.433  1.00  0.00     0.163 HD
BRANCH   3   6
ATOM      6  C   UNL A   1      32.116  28.132  26.410  1.00  0.00     0.108 C 
ATOM      7  C   UNL A   1      31.403  27.714  27.700  1.00  0.00     0.023 C 
BRANCH   6   8
ATOM      8  C   UNL A   1      32.779  26.982  25.665  1.00  0.00    -0.000 A 
ATOM      9  C   UNL A   1      32.902  25.741  26.314  1.00  0.00     0.008 A 
ATOM     10  C   UNL A   1      33.260  27.081  24.357  1.00  0.00     0.127 A 
ATOM     11  C   UNL A   1      33.549  24.670  25.695  1.00  0.00     0.004 A 
ATOM     12  C   UNL A   1      33.936  26.026  23.749  1.00  0.00     0.043 A 
ATOM     13  F   UNL A   1      33.115  28.213  23.654  1.00  0.00    -0.207 F 
ATOM     14  C   UNL A   1      34.125  24.820  24.429  1.00  0.00    -0.045 A 
BRANCH  14  15
ATOM     15  C   UNL A   1      34.964  23.724  23.822  1.00  0.00     0.041 C 
BRANCH  15  16
ATOM     16  C   UNL A   1      34.182  22.527  23.248  1.00  0.00     0.022 C 
ATOM     17  C   UNL A   1      33.733  21.457  24.259  1.00  0.00     0.007 C 
ATOM     18  C   UNL A   1      32.905  22.879  22.481  1.00  0.00     0.117 C 
ATOM     19  C   UNL A   1      32.368  20.957  23.771  1.00  0.00     0.003 C 
ATOM     20  C   UNL A   1      32.193  21.538  22.376  1.00  0.00     0.032 C 
BRANCH  18  21
ATOM     21  O   UNL A   1      33.181  23.435  21.210  1.00  0.00    -0.393 OA
ATOM     22  H   UNL A   1      32.397  23.903  20.884  1.00  0.00     0.210 HD
ENDBRANCH  18  21
ENDBRANCH  15  16
ENDBRANCH  14  15
ENDBRANCH   6   8
ENDBRANCH   3   6
ENDBRANCH   1   2
BRANCH   1  23
ATOM     23  C   UNL A   1      31.367  32.607  26.501  1.00  0.00     0.042 C 
BRANCH  23  24
ATOM     24  C   UNL A   1      32.554  33.089  27.330  1.00  0.00     0.118 C 
BRANCH  24  25
ATOM     25  N   UNL A   1      32.425  34.481  27.733  1.00  0.00    -0.352 N 
ATOM     26  C   UNL A   1      33.085  35.176  28.714  1.00  0.00     0.251 C 
ATOM     27  H   UNL A   1      31.763  35.003  27.225  1.00  0.00     0.163 HD
ATOM     28  O   UNL A   1      32.703  36.302  29.021  1.00  0.00    -0.269 OA
BRANCH  26  29
ATOM     29  C   UNL A   1      34.239  34.576  29.420  1.00  0.00     0.039 A 
ATOM     30  C   UNL A   1      34.028  34.001  30.677  1.00  0.00     0.014 A 
ATOM     31  C   UNL A   1      35.525  34.606  28.873  1.00  0.00     0.014 A 
ATOM     32  C   UNL A   1      35.092  33.407  31.358  1.00  0.00     0.010 A 
ATOM     33  C   UNL A   1      36.572  33.955  29.522  1.00  0.00     0.010 A 
ATOM     34  C   UNL A   1      36.367  33.350  30.771  1.00  0.00    -0.014 A 
BRANCH  34  35
ATOM     35  C   UNL A   1      37.494  32.659  31.449  1.00  0.00     0.031 A 
ATOM     36  C   UNL A   1      38.185  31.502  30.783  1.00  0.00     0.074 A 
ATOM     37  C   UNL A   1      37.852  33.035  32.692  1.00  0.00     0.049 A 
ATOM     38  N   UNL A   1      39.133  30.727  31.246  1.00  0.00    -0.248 NA
ATOM     39  C   UNL A   1      37.734  31.154  29.427  1.00  0.00     0.031 C 
ATOM     40  C   UNL A   1      37.230  34.113  33.461  1.00  0.00     0.029 A 
ATOM     41  N   UNL A   1      38.817  32.541  33.534  1.00  0.00    -0.354 N 
ATOM     42  C   UNL A   1      39.380  29.793  30.248  1.00  0.00     0.074 A 
ATOM     43  C   UNL A   1      38.453  30.070  29.171  1.00  0.00     0.031 C 
ATOM     44  C   UNL A   1      37.839  34.211  34.653  1.00  0.00     0.029 A 
ATOM     45  C   UNL A   1      38.869  33.180  34.748  1.00  0.00     0.049 A 
ATOM     46  H   UNL A   1      39.417  31.799  33.290  1.00  0.00     0.167 HD
ATOM     47  C   UNL A   1      40.309  28.807  30.224  1.00  0.00     0.037 A 
ATOM     48  C   UNL A   1      39.649  32.954  35.821  1.00  0.00     0.037 A 
ATOM     49  C   UNL A   1      41.250  28.553  31.282  1.00  0.00     0.049 A 
ATOM     50  C   UNL A   1      40.674  31.853  35.767  1.00  0.00     0.074 A 
ATOM     51  C   UNL A   1      42.270  27.617  31.325  1.00  0.00     0.029 A 
ATOM     52  N   UNL A   1      41.286  29.238  32.488  1.00  0.00    -0.354 N 
ATOM     53  N   UNL A   1      40.941  31.019  34.791  1.00  0.00    -0.248 NA
ATOM     54  C   UNL A   1      41.510  31.666  36.960  1.00  0.00     0.031 C 
ATOM     55  C   UNL A   1      42.897  27.709  32.572  1.00  0.00     0.029 A 
ATOM     56  C   UNL A   1      42.299  28.733  33.288  1.00  0.00     0.049 A 
ATOM     57  H   UNL A   1      40.682  29.974  32.738  1.00  0.00     0.167 HD
ATOM     58  C   UNL A   1      41.991  30.230  35.240  1.00  0.00     0.074 A 
ATOM     59  C   UNL A   1      42.322  30.694  36.571  1.00  0.00     0.031 C 
ATOM     60  C   UNL A   1      42.625  29.214  34.606  1.00  0.00     0.037 A 
BRANCH  47  61
ATOM     61  C   UNL A   1      40.360  27.929  29.009  1.00  0.00     0.064 A 
ATOM     62  C   UNL A   1      39.628  26.734  28.933  1.00  0.00     0.173 A 
ATOM     63  C   UNL A   1      41.111  28.310  27.886  1.00  0.00     0.173 A 
ATOM     64  F   UNL A   1      38.903  26.321  29.983  1.00  0.00    -0.203 F 
ATOM     65  C   UNL A   1      39.663  25.943  27.788  1.00  0.00     0.198 A 
ATOM     66  C   UNL A   1      41.121  27.531  26.732  1.00  0.00     0.198 A 
ATOM     67  F   UNL A   1      41.824  29.446  27.902  1.00  0.00    -0.203 F 
ATOM     68  F   UNL A   1      38.987  24.787  27.754  1.00  0.00    -0.200 F 
ATOM     69  C   UNL A   1      40.402  26.346  26.686  1.00  0.00     0.200 A 
ATOM     70  F   UNL A   1      41.825  27.928  25.663  1.00  0.00    -0.200 F 
ATOM     71  F   UNL A   1      40.425  25.589  25.581  1.00  0.00    -0.200 F 
ENDBRANCH  47  61
BRANCH  48  72
ATOM     72  C   UNL A   1      39.509  33.799  37.034  1.00  0.00     0.064 A 
ATOM     73  C   UNL A   1      40.197  35.015  37.146  1.00  0.00     0.173 A 
ATOM     74  C   UNL A   1      38.696  33.408  38.108  1.00  0.00     0.173 A 
ATOM     75  F   UNL A   1      41.003  35.422  36.153  1.00  0.00    -0.203 F 
ATOM     76  C   UNL A   1      40.094  35.798  38.294  1.00  0.00     0.198 A 
ATOM     77  C   UNL A   1      38.573  34.205  39.244  1.00  0.00     0.198 A 
ATOM     78  F   UNL A   1      38.013  32.255  38.048  1.00  0.00    -0.203 F 
ATOM     79  F   UNL A   1      40.800  36.933  38.394  1.00  0.00    -0.200 F 
ATOM     80  C   UNL A   1      39.278  35.395  39.340  1.00  0.00     0.200 A 
ATOM     81  F   UNL A   1      37.772  33.819  40.247  1.00  0.00    -0.200 F 
ATOM     82  F   UNL A   1      39.179  36.149  40.443  1.00  0.00    -0.200 F 
ENDBRANCH  48  72
BRANCH  60  83
ATOM     83  C   UNL A   1      43.765  28.558  35.327  1.00  0.00     0.064 A 
ATOM     84  C   UNL A   1      43.566  27.453  36.167  1.00  0.00     0.173 A 
ATOM     85  C   UNL A   1      45.077  29.018  35.143  1.00  0.00     0.173 A 
ATOM     86  F   UNL A   1      42.327  26.987  36.388  1.00  0.00    -0.203 F 
ATOM     87  C   UNL A   1      44.639  26.847  36.816  1.00  0.00     0.198 A 
ATOM     88  C   UNL A   1      46.150  28.392  35.771  1.00  0.00     0.198 A 
ATOM     89  F   UNL A   1      45.320  30.068  34.345  1.00  0.00    -0.203 F 
ATOM     90  F   UNL A   1      44.421  25.821  37.650  1.00  0.00    -0.200 F 
ATOM     91  C   UNL A   1      45.929  27.312  36.612  1.00  0.00     0.200 A 
ATOM     92  F   UNL A   1      47.398  28.835  35.564  1.00  0.00    -0.200 F 
ATOM     93  F   UNL A   1      46.961  26.723  37.232  1.00  0.00    -0.200 F 
ENDBRANCH  60  83
ENDBRANCH  34  35
ENDBRANCH  26  29
ENDBRANCH  24  25
ENDBRANCH  23  24
ENDBRANCH   1  23
TORSDOF 14
ENDMDL
