MODEL 1
REMARK VINA RESULT:     -13.6      0.000      0.000
REMARK SMILES O=C(NCCCNC(=O)c1cccnc1C(=O)Nc1ccc([N+](=O)[O-])cc1)c1ccc(-c2c3nc(c(-c4c(F)c(F)c(F)c(F)c4F)c4ccc([nH]4)c(-c4c(F)c(F)c(F)c(F)c4F)c4nc(c(-c5c(F)c(F)c(F)c(F)c5F)c5ccc2[nH]5)C=C4)C=C3)cc1
REMARK SMILES IDX 5 1 4 2 3 3 1 4 2 5 28 7 29 8 90 9 30 10 89 11 31 12 32 13
REMARK SMILES IDX 33 14 83 15 34 16 88 17 82 18 84 19 35 20 87 21 81 22 80 23
REMARK SMILES IDX 36 25 68 26 48 27 67 28 49 29 52 30 66 31 85 32 50 33 51 34
REMARK SMILES IDX 65 36 86 37 53 38 37 39 38 40 46 41 39 42 40 43 44 44 47 45
REMARK SMILES IDX 41 46 42 47 45 48 43 49 69 50 70 51 78 52 71 53 72 54 76 55
REMARK SMILES IDX 79 56 73 57 74 58 77 59 75 60 54 61 55 62 63 63 56 64 57 65
REMARK SMILES IDX 61 66 64 67 58 68 59 69 62 70 60 71 6 72 7 73 8 74 9 76
REMARK SMILES IDX 10 77 11 78 15 79 12 80 14 81 13 82 16 83 17 84 18 85 19 87
REMARK SMILES IDX 20 88 27 89 21 90 26 91 22 92 23 93 24 94 25 95
REMARK H PARENT 3 6 84 24 52 35 7 75 18 86
REMARK Flexibility Score: inf
ROOT
ATOM      1  C   UNL A   1      38.144  20.010  25.017  1.00  0.00     0.042 C 
ENDROOT
BRANCH   1   2
ATOM      2  C   UNL A   1      39.445  20.177  25.811  1.00  0.00     0.118 C 
BRANCH   2   3
ATOM      3  N   UNL A   1      40.387  19.073  25.831  1.00  0.00    -0.352 N 
ATOM      4  O   UNL A   1      42.465  18.159  25.916  1.00  0.00    -0.269 OA
ATOM      5  C   UNL A   1      41.745  19.139  26.070  1.00  0.00     0.251 C 
ATOM      6  H   UNL A   1      40.017  18.178  25.654  1.00  0.00     0.163 HD
BRANCH   5   7
ATOM      7  C   UNL A   1      42.340  20.428  26.489  1.00  0.00     0.039 A 
ATOM      8  C   UNL A   1      42.236  20.851  27.816  1.00  0.00     0.014 A 
ATOM      9  C   UNL A   1      42.991  21.224  25.544  1.00  0.00     0.014 A 
ATOM     10  C   UNL A   1      42.647  22.135  28.166  1.00  0.00     0.010 A 
ATOM     11  C   UNL A   1      43.453  22.492  25.910  1.00  0.00     0.010 A 
ATOM     12  C   UNL A   1      43.237  22.978  27.210  1.00  0.00    -0.014 A 
BRANCH  12  13
ATOM     13  C   UNL A   1      43.584  24.374  27.582  1.00  0.00     0.031 A 
ATOM     14  C   UNL A   1      45.016  24.839  27.544  1.00  0.00     0.074 A 
ATOM     15  C   UNL A   1      42.609  25.242  27.907  1.00  0.00     0.049 A 
ATOM     16  N   UNL A   1      45.507  26.031  27.779  1.00  0.00    -0.248 NA
ATOM     17  C   UNL A   1      46.031  23.832  27.200  1.00  0.00     0.031 C 
ATOM     18  C   UNL A   1      41.185  24.916  27.985  1.00  0.00     0.029 A 
ATOM     19  N   UNL A   1      42.663  26.577  28.219  1.00  0.00    -0.354 N 
ATOM     20  C   UNL A   1      46.884  25.913  27.631  1.00  0.00     0.074 A 
ATOM     21  C   UNL A   1      47.154  24.528  27.311  1.00  0.00     0.031 C 
ATOM     22  C   UNL A   1      40.497  26.027  28.290  1.00  0.00     0.029 A 
ATOM     23  C   UNL A   1      41.433  27.135  28.465  1.00  0.00     0.049 A 
ATOM     24  H   UNL A   1      43.506  27.087  28.262  1.00  0.00     0.167 HD
ATOM     25  C   UNL A   1      47.833  26.873  27.740  1.00  0.00     0.037 A 
ATOM     26  C   UNL A   1      41.098  28.396  28.793  1.00  0.00     0.037 A 
ATOM     27  C   UNL A   1      47.565  28.256  28.036  1.00  0.00     0.049 A 
ATOM     28  C   UNL A   1      42.174  29.440  28.916  1.00  0.00     0.074 A 
ATOM     29  C   UNL A   1      48.459  29.310  28.125  1.00  0.00     0.029 A 
ATOM     30  N   UNL A   1      46.306  28.779  28.294  1.00  0.00    -0.354 N 
ATOM     31  N   UNL A   1      43.465  29.325  28.726  1.00  0.00    -0.248 NA
ATOM     32  C   UNL A   1      41.740  30.793  29.292  1.00  0.00     0.031 C 
ATOM     33  C   UNL A   1      47.746  30.462  28.478  1.00  0.00     0.029 A 
ATOM     34  C   UNL A   1      46.402  30.136  28.562  1.00  0.00     0.049 A 
ATOM     35  H   UNL A   1      45.468  28.262  28.288  1.00  0.00     0.167 HD
ATOM     36  C   UNL A   1      43.995  30.592  28.932  1.00  0.00     0.074 A 
ATOM     37  C   UNL A   1      42.883  31.464  29.248  1.00  0.00     0.031 C 
ATOM     38  C   UNL A   1      45.287  30.995  28.864  1.00  0.00     0.037 A 
BRANCH  25  39
ATOM     39  C   UNL A   1      49.265  26.460  27.555  1.00  0.00     0.064 A 
ATOM     40  C   UNL A   1      49.824  26.290  26.279  1.00  0.00     0.173 A 
ATOM     41  C   UNL A   1      50.100  26.276  28.667  1.00  0.00     0.173 A 
ATOM     42  F   UNL A   1      49.065  26.441  25.183  1.00  0.00    -0.203 F 
ATOM     43  C   UNL A   1      51.161  25.929  26.125  1.00  0.00     0.198 A 
ATOM     44  C   UNL A   1      51.442  25.941  28.509  1.00  0.00     0.198 A 
ATOM     45  F   UNL A   1      49.616  26.431  29.908  1.00  0.00    -0.203 F 
ATOM     46  F   UNL A   1      51.663  25.730  24.898  1.00  0.00    -0.200 F 
ATOM     47  C   UNL A   1      51.970  25.762  27.240  1.00  0.00     0.200 A 
ATOM     48  F   UNL A   1      52.225  25.790  29.586  1.00  0.00    -0.200 F 
ATOM     49  F   UNL A   1      53.257  25.421  27.089  1.00  0.00    -0.200 F 
ENDBRANCH  25  39
BRANCH  26  50
ATOM     50  C   UNL A   1      39.671  28.747  29.007  1.00  0.00     0.064 A 
ATOM     51  C   UNL A   1      39.073  28.597  30.265  1.00  0.00     0.173 A 
ATOM     52  C   UNL A   1      38.878  29.239  27.960  1.00  0.00     0.173 A 
ATOM     53  F   UNL A   1      39.785  28.107  31.290  1.00  0.00    -0.203 F 
ATOM     54  C   UNL A   1      37.730  28.911  30.466  1.00  0.00     0.198 A 
ATOM     55  C   UNL A   1      37.544  29.579  28.168  1.00  0.00     0.198 A 
ATOM     56  F   UNL A   1      39.406  29.401  26.737  1.00  0.00    -0.203 F 
ATOM     57  F   UNL A   1      37.173  28.719  31.668  1.00  0.00    -0.200 F 
ATOM     58  C   UNL A   1      36.969  29.409  29.419  1.00  0.00     0.200 A 
ATOM     59  F   UNL A   1      36.815  30.070  27.157  1.00  0.00    -0.200 F 
ATOM     60  F   UNL A   1      35.679  29.716  29.613  1.00  0.00    -0.200 F 
ENDBRANCH  26  50
BRANCH  38  61
ATOM     61  C   UNL A   1      45.564  32.452  29.096  1.00  0.00     0.064 A 
ATOM     62  C   UNL A   1      45.527  33.386  28.051  1.00  0.00     0.173 A 
ATOM     63  C   UNL A   1      45.849  32.921  30.387  1.00  0.00     0.173 A 
ATOM     64  F   UNL A   1      45.274  32.984  26.796  1.00  0.00    -0.203 F 
ATOM     65  C   UNL A   1      45.795  34.732  28.284  1.00  0.00     0.198 A 
ATOM     66  C   UNL A   1      46.089  34.272  30.623  1.00  0.00     0.198 A 
ATOM     67  F   UNL A   1      45.890  32.069  31.423  1.00  0.00    -0.203 F 
ATOM     68  F   UNL A   1      45.803  35.599  27.263  1.00  0.00    -0.200 F 
ATOM     69  C   UNL A   1      46.070  35.175  29.570  1.00  0.00     0.200 A 
ATOM     70  F   UNL A   1      46.344  34.700  31.867  1.00  0.00    -0.200 F 
ATOM     71  F   UNL A   1      46.326  36.471  29.793  1.00  0.00    -0.200 F 
ENDBRANCH  38  61
ENDBRANCH  12  13
ENDBRANCH   5   7
ENDBRANCH   2   3
ENDBRANCH   1   2
BRANCH   1  72
ATOM     72  C   UNL A   1      36.974  20.949  25.280  1.00  0.00     0.118 C 
BRANCH  72  73
ATOM     73  N   UNL A   1      36.538  21.769  24.152  1.00  0.00    -0.352 N 
ATOM     74  C   UNL A   1      35.406  22.550  23.976  1.00  0.00     0.253 C 
ATOM     75  H   UNL A   1      37.154  21.766  23.385  1.00  0.00     0.163 HD
ATOM     76  O   UNL A   1      35.350  23.360  23.058  1.00  0.00    -0.269 OA
BRANCH  74  77
ATOM     77  C   UNL A   1      34.316  22.508  24.954  1.00  0.00     0.071 A 
ATOM     78  C   UNL A   1      34.575  23.278  26.111  1.00  0.00     0.018 A 
ATOM     79  C   UNL A   1      33.058  21.920  24.813  1.00  0.00     0.141 A 
ATOM     80  C   UNL A   1      33.646  23.374  27.136  1.00  0.00     0.021 A 
ATOM     81  N   UNL A   1      32.175  21.978  25.871  1.00  0.00    -0.250 NA
ATOM     82  C   UNL A   1      32.467  22.692  26.977  1.00  0.00     0.112 A 
BRANCH  79  83
ATOM     83  C   UNL A   1      32.322  21.329  23.606  1.00  0.00     0.275 C 
ATOM     84  O   UNL A   1      31.644  22.097  22.906  1.00  0.00    -0.267 OA
ATOM     85  N   UNL A   1      32.460  20.076  23.063  1.00  0.00    -0.321 N 
ATOM     86  H   UNL A   1      32.434  20.075  22.078  1.00  0.00     0.170 HD
BRANCH  85  87
ATOM     87  C   UNL A   1      32.630  18.811  23.604  1.00  0.00     0.042 A 
ATOM     88  C   UNL A   1      33.066  17.800  22.734  1.00  0.00     0.033 A 
ATOM     89  C   UNL A   1      32.399  18.539  24.949  1.00  0.00     0.033 A 
ATOM     90  C   UNL A   1      33.509  16.584  23.249  1.00  0.00     0.088 A 
ATOM     91  C   UNL A   1      32.792  17.305  25.461  1.00  0.00     0.088 A 
ATOM     92  C   UNL A   1      33.428  16.382  24.624  1.00  0.00     0.269 A 
BRANCH  92  93
ATOM     93  N   UNL A   1      34.166  15.286  25.231  1.00  0.00     0.062 N 
ATOM     94  O   UNL A   1      35.391  15.406  25.342  1.00  0.00    -0.258 OA
ATOM     95  O   UNL A   1      33.493  14.318  25.623  1.00  0.00    -0.258 OA
ENDBRANCH  92  93
ENDBRANCH  85  87
ENDBRANCH  79  83
ENDBRANCH  74  77
ENDBRANCH  72  73
ENDBRANCH   1  72
TORSDOF 13
ENDMDL
MODEL 2
REMARK VINA RESULT:     -13.5      5.128     10.312
REMARK SMILES O=C(NCCCNC(=O)c1cccnc1C(=O)Nc1ccc([N+](=O)[O-])cc1)c1ccc(-c2c3nc(c(-c4c(F)c(F)c(F)c(F)c4F)c4ccc([nH]4)c(-c4c(F)c(F)c(F)c(F)c4F)c4nc(c(-c5c(F)c(F)c(F)c(F)c5F)c5ccc2[nH]5)C=C4)C=C3)cc1
REMARK SMILES IDX 5 1 4 2 3 3 1 4 2 5 28 7 29 8 90 9 30 10 89 11 31 12 32 13
REMARK SMILES IDX 33 14 83 15 34 16 88 17 82 18 84 19 35 20 87 21 81 22 80 23
REMARK SMILES IDX 36 25 68 26 48 27 67 28 49 29 52 30 66 31 85 32 50 33 51 34
REMARK SMILES IDX 65 36 86 37 53 38 37 39 38 40 46 41 39 42 40 43 44 44 47 45
REMARK SMILES IDX 41 46 42 47 45 48 43 49 69 50 70 51 78 52 71 53 72 54 76 55
REMARK SMILES IDX 79 56 73 57 74 58 77 59 75 60 54 61 55 62 63 63 56 64 57 65
REMARK SMILES IDX 61 66 64 67 58 68 59 69 62 70 60 71 6 72 7 73 8 74 9 76
REMARK SMILES IDX 10 77 11 78 15 79 12 80 14 81 13 82 16 83 17 84 18 85 19 87
REMARK SMILES IDX 20 88 27 89 21 90 26 91 22 92 23 93 24 94 25 95
REMARK H PARENT 3 6 84 24 52 35 7 75 18 86
REMARK Flexibility Score: inf
ROOT
ATOM      1  C   UNL A   1      31.933  28.234  26.321  1.00  0.00     0.042 C 
ENDROOT
BRANCH   1   2
ATOM      2  C   UNL A   1      32.857  29.395  25.932  1.00  0.00     0.118 C 
BRANCH   2   3
ATOM      3  N   UNL A   1      32.474  30.741  26.320  1.00  0.00    -0.352 N 
ATOM      4  O   UNL A   1      32.657  32.647  27.542  1.00  0.00    -0.269 OA
ATOM      5  C   UNL A   1      33.153  31.588  27.173  1.00  0.00     0.251 C 
ATOM      6  H   UNL A   1      31.638  31.086  25.934  1.00  0.00     0.163 HD
BRANCH   5   7
ATOM      7  C   UNL A   1      34.489  31.190  27.670  1.00  0.00     0.039 A 
ATOM      8  C   UNL A   1      34.754  29.856  27.984  1.00  0.00     0.014 A 
ATOM      9  C   UNL A   1      35.477  32.163  27.838  1.00  0.00     0.014 A 
ATOM     10  C   UNL A   1      35.952  29.518  28.609  1.00  0.00     0.010 A 
ATOM     11  C   UNL A   1      36.701  31.812  28.415  1.00  0.00     0.010 A 
ATOM     12  C   UNL A   1      36.928  30.497  28.853  1.00  0.00    -0.014 A 
BRANCH  12  13
ATOM     13  C   UNL A   1      38.159  30.132  29.601  1.00  0.00     0.031 A 
ATOM     14  C   UNL A   1      38.361  30.611  31.015  1.00  0.00     0.074 A 
ATOM     15  C   UNL A   1      39.074  29.329  29.031  1.00  0.00     0.049 A 
ATOM     16  N   UNL A   1      39.340  30.350  31.846  1.00  0.00    -0.248 NA
ATOM     17  C   UNL A   1      37.330  31.502  31.568  1.00  0.00     0.031 C 
ATOM     18  C   UNL A   1      38.998  28.802  27.668  1.00  0.00     0.029 A 
ATOM     19  N   UNL A   1      40.241  28.803  29.528  1.00  0.00    -0.354 N 
ATOM     20  C   UNL A   1      39.054  31.058  33.007  1.00  0.00     0.074 A 
ATOM     21  C   UNL A   1      37.823  31.780  32.767  1.00  0.00     0.031 C 
ATOM     22  C   UNL A   1      40.053  28.002  27.449  1.00  0.00     0.029 A 
ATOM     23  C   UNL A   1      40.898  27.988  28.640  1.00  0.00     0.049 A 
ATOM     24  H   UNL A   1      40.574  28.994  30.435  1.00  0.00     0.167 HD
ATOM     25  C   UNL A   1      39.748  31.094  34.170  1.00  0.00     0.037 A 
ATOM     26  C   UNL A   1      42.051  27.307  28.771  1.00  0.00     0.037 A 
ATOM     27  C   UNL A   1      40.960  30.359  34.420  1.00  0.00     0.049 A 
ATOM     28  C   UNL A   1      42.805  27.371  30.072  1.00  0.00     0.074 A 
ATOM     29  C   UNL A   1      41.711  30.299  35.583  1.00  0.00     0.029 A 
ATOM     30  N   UNL A   1      41.603  29.556  33.490  1.00  0.00    -0.354 N 
ATOM     31  N   UNL A   1      42.498  28.005  31.176  1.00  0.00    -0.248 NA
ATOM     32  C   UNL A   1      44.064  26.617  30.142  1.00  0.00     0.031 C 
ATOM     33  C   UNL A   1      42.830  29.494  35.343  1.00  0.00     0.029 A 
ATOM     34  C   UNL A   1      42.752  29.013  34.045  1.00  0.00     0.049 A 
ATOM     35  H   UNL A   1      41.291  29.396  32.570  1.00  0.00     0.167 HD
ATOM     36  C   UNL A   1      43.507  27.706  32.081  1.00  0.00     0.074 A 
ATOM     37  C   UNL A   1      44.430  26.821  31.400  1.00  0.00     0.031 C 
ATOM     38  C   UNL A   1      43.656  28.125  33.361  1.00  0.00     0.037 A 
BRANCH  25  39
ATOM     39  C   UNL A   1      39.221  31.973  35.268  1.00  0.00     0.064 A 
ATOM     40  C   UNL A   1      38.424  31.462  36.305  1.00  0.00     0.173 A 
ATOM     41  C   UNL A   1      39.554  33.335  35.308  1.00  0.00     0.173 A 
ATOM     42  F   UNL A   1      38.066  30.169  36.305  1.00  0.00    -0.203 F 
ATOM     43  C   UNL A   1      37.964  32.287  37.327  1.00  0.00     0.198 A 
ATOM     44  C   UNL A   1      39.114  34.152  36.346  1.00  0.00     0.198 A 
ATOM     45  F   UNL A   1      40.317  33.872  34.344  1.00  0.00    -0.203 F 
ATOM     46  F   UNL A   1      37.169  31.788  38.283  1.00  0.00    -0.200 F 
ATOM     47  C   UNL A   1      38.314  33.630  37.350  1.00  0.00     0.200 A 
ATOM     48  F   UNL A   1      39.462  35.445  36.373  1.00  0.00    -0.200 F 
ATOM     49  F   UNL A   1      37.875  34.421  38.339  1.00  0.00    -0.200 F 
ENDBRANCH  25  39
BRANCH  26  50
ATOM     50  C   UNL A   1      42.553  26.483  27.643  1.00  0.00     0.064 A 
ATOM     51  C   UNL A   1      43.494  26.996  26.739  1.00  0.00     0.173 A 
ATOM     52  C   UNL A   1      42.104  25.170  27.445  1.00  0.00     0.173 A 
ATOM     53  F   UNL A   1      43.935  28.255  26.875  1.00  0.00    -0.203 F 
ATOM     54  C   UNL A   1      43.956  26.231  25.670  1.00  0.00     0.198 A 
ATOM     55  C   UNL A   1      42.587  24.396  26.392  1.00  0.00     0.198 A 
ATOM     56  F   UNL A   1      41.204  24.634  28.284  1.00  0.00    -0.203 F 
ATOM     57  F   UNL A   1      44.824  26.759  24.798  1.00  0.00    -0.200 F 
ATOM     58  C   UNL A   1      43.507  24.929  25.502  1.00  0.00     0.200 A 
ATOM     59  F   UNL A   1      42.160  23.136  26.240  1.00  0.00    -0.200 F 
ATOM     60  F   UNL A   1      43.956  24.191  24.477  1.00  0.00    -0.200 F 
ENDBRANCH  26  50
BRANCH  38  61
ATOM     61  C   UNL A   1      44.837  27.600  34.123  1.00  0.00     0.064 A 
ATOM     62  C   UNL A   1      46.058  28.288  34.158  1.00  0.00     0.173 A 
ATOM     63  C   UNL A   1      44.737  26.400  34.845  1.00  0.00     0.173 A 
ATOM     64  F   UNL A   1      46.207  29.431  33.471  1.00  0.00    -0.203 F 
ATOM     65  C   UNL A   1      47.146  27.781  34.864  1.00  0.00     0.198 A 
ATOM     66  C   UNL A   1      45.818  25.910  35.573  1.00  0.00     0.198 A 
ATOM     67  F   UNL A   1      43.589  25.707  34.850  1.00  0.00    -0.203 F 
ATOM     68  F   UNL A   1      48.318  28.430  34.843  1.00  0.00    -0.200 F 
ATOM     69  C   UNL A   1      47.023  26.596  35.575  1.00  0.00     0.200 A 
ATOM     70  F   UNL A   1      45.695  24.771  36.268  1.00  0.00    -0.200 F 
ATOM     71  F   UNL A   1      48.071  26.110  36.255  1.00  0.00    -0.200 F 
ENDBRANCH  38  61
ENDBRANCH  12  13
ENDBRANCH   5   7
ENDBRANCH   2   3
ENDBRANCH   1   2
BRANCH   1  72
ATOM     72  C   UNL A   1      32.478  26.812  26.343  1.00  0.00     0.118 C 
BRANCH  72  73
ATOM     73  N   UNL A   1      31.527  25.762  26.699  1.00  0.00    -0.352 N 
ATOM     74  C   UNL A   1      31.615  24.382  26.602  1.00  0.00     0.253 C 
ATOM     75  H   UNL A   1      30.677  26.091  27.071  1.00  0.00     0.163 HD
ATOM     76  O   UNL A   1      30.809  23.668  27.190  1.00  0.00    -0.269 OA
BRANCH  74  77
ATOM     77  C   UNL A   1      32.739  23.756  25.903  1.00  0.00     0.071 A 
ATOM     78  C   UNL A   1      33.800  23.394  26.764  1.00  0.00     0.018 A 
ATOM     79  C   UNL A   1      32.815  23.382  24.560  1.00  0.00     0.141 A 
ATOM     80  C   UNL A   1      34.940  22.770  26.282  1.00  0.00     0.021 A 
ATOM     81  N   UNL A   1      33.984  22.818  24.092  1.00  0.00    -0.250 NA
ATOM     82  C   UNL A   1      34.992  22.519  24.935  1.00  0.00     0.112 A 
BRANCH  79  83
ATOM     83  C   UNL A   1      31.763  23.296  23.449  1.00  0.00     0.275 C 
ATOM     84  O   UNL A   1      31.732  22.267  22.758  1.00  0.00    -0.267 OA
ATOM     85  N   UNL A   1      30.700  24.135  23.226  1.00  0.00    -0.321 N 
ATOM     86  H   UNL A   1      29.883  23.660  22.950  1.00  0.00     0.170 HD
BRANCH  85  87
ATOM     87  C   UNL A   1      30.530  25.509  23.309  1.00  0.00     0.042 A 
ATOM     88  C   UNL A   1      31.547  26.309  22.766  1.00  0.00     0.033 A 
ATOM     89  C   UNL A   1      29.403  26.086  23.885  1.00  0.00     0.033 A 
ATOM     90  C   UNL A   1      31.330  27.671  22.574  1.00  0.00     0.088 A 
ATOM     91  C   UNL A   1      29.204  27.457  23.742  1.00  0.00     0.088 A 
ATOM     92  C   UNL A   1      30.124  28.214  23.007  1.00  0.00     0.269 A 
BRANCH  92  93
ATOM     93  N   UNL A   1      29.723  29.533  22.542  1.00  0.00     0.062 N 
ATOM     94  O   UNL A   1      29.537  30.412  23.391  1.00  0.00    -0.258 OA
ATOM     95  O   UNL A   1      29.631  29.679  21.312  1.00  0.00    -0.258 OA
ENDBRANCH  92  93
ENDBRANCH  85  87
ENDBRANCH  79  83
ENDBRANCH  74  77
ENDBRANCH  72  73
ENDBRANCH   1  72
TORSDOF 13
ENDMDL
MODEL 3
REMARK VINA RESULT:     -13.5      5.136     10.313
REMARK SMILES O=C(NCCCNC(=O)c1cccnc1C(=O)Nc1ccc([N+](=O)[O-])cc1)c1ccc(-c2c3nc(c(-c4c(F)c(F)c(F)c(F)c4F)c4ccc([nH]4)c(-c4c(F)c(F)c(F)c(F)c4F)c4nc(c(-c5c(F)c(F)c(F)c(F)c5F)c5ccc2[nH]5)C=C4)C=C3)cc1
REMARK SMILES IDX 5 1 4 2 3 3 1 4 2 5 28 7 29 8 90 9 30 10 89 11 31 12 32 13
REMARK SMILES IDX 33 14 83 15 34 16 88 17 82 18 84 19 35 20 87 21 81 22 80 23
REMARK SMILES IDX 36 25 68 26 48 27 67 28 49 29 52 30 66 31 85 32 50 33 51 34
REMARK SMILES IDX 65 36 86 37 53 38 37 39 38 40 46 41 39 42 40 43 44 44 47 45
REMARK SMILES IDX 41 46 42 47 45 48 43 49 69 50 70 51 78 52 71 53 72 54 76 55
REMARK SMILES IDX 79 56 73 57 74 58 77 59 75 60 54 61 55 62 63 63 56 64 57 65
REMARK SMILES IDX 61 66 64 67 58 68 59 69 62 70 60 71 6 72 7 73 8 74 9 76
REMARK SMILES IDX 10 77 11 78 15 79 12 80 14 81 13 82 16 83 17 84 18 85 19 87
REMARK SMILES IDX 20 88 27 89 21 90 26 91 22 92 23 93 24 94 25 95
REMARK H PARENT 3 6 84 24 52 35 7 75 18 86
REMARK Flexibility Score: inf
ROOT
ATOM      1  C   UNL A   1      31.981  28.259  26.106  1.00  0.00     0.042 C 
ENDROOT
BRANCH   1   2
ATOM      2  C   UNL A   1      32.902  29.447  25.804  1.00  0.00     0.118 C 
BRANCH   2   3
ATOM      3  N   UNL A   1      32.503  30.764  26.268  1.00  0.00    -0.352 N 
ATOM      4  O   UNL A   1      32.645  32.587  27.614  1.00  0.00    -0.269 OA
ATOM      5  C   UNL A   1      33.155  31.556  27.191  1.00  0.00     0.251 C 
ATOM      6  H   UNL A   1      31.675  31.131  25.883  1.00  0.00     0.163 HD
BRANCH   5   7
ATOM      7  C   UNL A   1      34.480  31.132  27.696  1.00  0.00     0.039 A 
ATOM      8  C   UNL A   1      34.704  29.799  28.046  1.00  0.00     0.014 A 
ATOM      9  C   UNL A   1      35.497  32.078  27.835  1.00  0.00     0.014 A 
ATOM     10  C   UNL A   1      35.894  29.442  28.677  1.00  0.00     0.010 A 
ATOM     11  C   UNL A   1      36.712  31.706  28.419  1.00  0.00     0.010 A 
ATOM     12  C   UNL A   1      36.900  30.397  28.893  1.00  0.00    -0.014 A 
BRANCH  12  13
ATOM     13  C   UNL A   1      38.121  30.015  29.648  1.00  0.00     0.031 A 
ATOM     14  C   UNL A   1      38.325  30.497  31.060  1.00  0.00     0.074 A 
ATOM     15  C   UNL A   1      39.025  29.193  29.086  1.00  0.00     0.049 A 
ATOM     16  N   UNL A   1      39.296  30.225  31.898  1.00  0.00    -0.248 NA
ATOM     17  C   UNL A   1      37.307  31.409  31.604  1.00  0.00     0.031 C 
ATOM     18  C   UNL A   1      38.945  28.660  27.726  1.00  0.00     0.029 A 
ATOM     19  N   UNL A   1      40.180  28.650  29.591  1.00  0.00    -0.354 N 
ATOM     20  C   UNL A   1      39.017  30.943  33.053  1.00  0.00     0.074 A 
ATOM     21  C   UNL A   1      37.799  31.685  32.803  1.00  0.00     0.031 C 
ATOM     22  C   UNL A   1      39.988  27.841  27.515  1.00  0.00     0.029 A 
ATOM     23  C   UNL A   1      40.827  27.819  28.710  1.00  0.00     0.049 A 
ATOM     24  H   UNL A   1      40.513  28.840  30.499  1.00  0.00     0.167 HD
ATOM     25  C   UNL A   1      39.706  30.973  34.219  1.00  0.00     0.037 A 
ATOM     26  C   UNL A   1      41.968  27.120  28.850  1.00  0.00     0.037 A 
ATOM     27  C   UNL A   1      40.905  30.219  34.478  1.00  0.00     0.049 A 
ATOM     28  C   UNL A   1      42.717  27.178  30.154  1.00  0.00     0.074 A 
ATOM     29  C   UNL A   1      41.649  30.153  35.645  1.00  0.00     0.029 A 
ATOM     30  N   UNL A   1      41.538  29.401  33.555  1.00  0.00    -0.354 N 
ATOM     31  N   UNL A   1      42.416  27.823  31.254  1.00  0.00    -0.248 NA
ATOM     32  C   UNL A   1      43.963  26.402  30.234  1.00  0.00     0.031 C 
ATOM     33  C   UNL A   1      42.755  29.328  35.414  1.00  0.00     0.029 A 
ATOM     34  C   UNL A   1      42.675  28.842  34.119  1.00  0.00     0.049 A 
ATOM     35  H   UNL A   1      41.227  29.241  32.635  1.00  0.00     0.167 HD
ATOM     36  C   UNL A   1      43.416  27.511  32.165  1.00  0.00     0.074 A 
ATOM     37  C   UNL A   1      44.327  26.607  31.492  1.00  0.00     0.031 C 
ATOM     38  C   UNL A   1      43.566  27.934  33.443  1.00  0.00     0.037 A 
BRANCH  25  39
ATOM     39  C   UNL A   1      39.190  31.867  35.310  1.00  0.00     0.064 A 
ATOM     40  C   UNL A   1      38.401  31.371  36.359  1.00  0.00     0.173 A 
ATOM     41  C   UNL A   1      39.526  33.229  35.330  1.00  0.00     0.173 A 
ATOM     42  F   UNL A   1      38.040  30.079  36.379  1.00  0.00    -0.203 F 
ATOM     43  C   UNL A   1      37.950  32.210  37.375  1.00  0.00     0.198 A 
ATOM     44  C   UNL A   1      39.095  34.060  36.361  1.00  0.00     0.198 A 
ATOM     45  F   UNL A   1      40.282  33.753  34.353  1.00  0.00    -0.203 F 
ATOM     46  F   UNL A   1      37.161  31.724  38.344  1.00  0.00    -0.200 F 
ATOM     47  C   UNL A   1      38.303  33.552  37.378  1.00  0.00     0.200 A 
ATOM     48  F   UNL A   1      39.446  35.353  36.369  1.00  0.00    -0.200 F 
ATOM     49  F   UNL A   1      37.872  34.356  38.360  1.00  0.00    -0.200 F 
ENDBRANCH  25  39
BRANCH  26  50
ATOM     50  C   UNL A   1      42.461  26.281  27.728  1.00  0.00     0.064 A 
ATOM     51  C   UNL A   1      41.975  24.982  27.532  1.00  0.00     0.173 A 
ATOM     52  C   UNL A   1      43.426  26.761  26.831  1.00  0.00     0.173 A 
ATOM     53  F   UNL A   1      41.069  24.472  28.379  1.00  0.00    -0.203 F 
ATOM     54  C   UNL A   1      42.446  24.187  26.490  1.00  0.00     0.198 A 
ATOM     55  C   UNL A   1      43.876  25.976  25.773  1.00  0.00     0.198 A 
ATOM     56  F   UNL A   1      43.921  28.000  26.977  1.00  0.00    -0.203 F 
ATOM     57  F   UNL A   1      41.994  22.934  26.349  1.00  0.00    -0.200 F 
ATOM     58  C   UNL A   1      43.391  24.688  25.606  1.00  0.00     0.200 A 
ATOM     59  F   UNL A   1      44.780  26.468  24.915  1.00  0.00    -0.200 F 
ATOM     60  F   UNL A   1      43.840  23.925  24.600  1.00  0.00    -0.200 F 
ENDBRANCH  26  50
BRANCH  38  61
ATOM     61  C   UNL A   1      44.735  27.393  34.213  1.00  0.00     0.064 A 
ATOM     62  C   UNL A   1      44.652  26.195  34.936  1.00  0.00     0.173 A 
ATOM     63  C   UNL A   1      45.962  28.075  34.209  1.00  0.00     0.173 A 
ATOM     64  F   UNL A   1      43.496  25.515  34.983  1.00  0.00    -0.203 F 
ATOM     65  C   UNL A   1      45.745  25.713  35.651  1.00  0.00     0.198 A 
ATOM     66  C   UNL A   1      47.061  27.576  34.902  1.00  0.00     0.198 A 
ATOM     67  F   UNL A   1      46.096  29.223  33.528  1.00  0.00    -0.203 F 
ATOM     68  F   UNL A   1      45.629  24.591  36.375  1.00  0.00    -0.200 F 
ATOM     69  C   UNL A   1      46.950  26.400  35.629  1.00  0.00     0.200 A 
ATOM     70  F   UNL A   1      48.227  28.236  34.871  1.00  0.00    -0.200 F 
ATOM     71  F   UNL A   1      48.001  25.934  36.316  1.00  0.00    -0.200 F 
ENDBRANCH  38  61
ENDBRANCH  12  13
ENDBRANCH   5   7
ENDBRANCH   2   3
ENDBRANCH   1   2
BRANCH   1  72
ATOM     72  C   UNL A   1      32.555  26.847  26.128  1.00  0.00     0.118 C 
BRANCH  72  73
ATOM     73  N   UNL A   1      31.659  25.795  26.601  1.00  0.00    -0.352 N 
ATOM     74  C   UNL A   1      31.781  24.414  26.574  1.00  0.00     0.253 C 
ATOM     75  H   UNL A   1      30.826  26.122  27.010  1.00  0.00     0.163 HD
ATOM     76  O   UNL A   1      31.036  23.714  27.250  1.00  0.00    -0.269 OA
BRANCH  74  77
ATOM     77  C   UNL A   1      32.877  23.780  25.838  1.00  0.00     0.071 A 
ATOM     78  C   UNL A   1      33.996  23.482  26.649  1.00  0.00     0.018 A 
ATOM     79  C   UNL A   1      32.882  23.344  24.511  1.00  0.00     0.141 A 
ATOM     80  C   UNL A   1      35.120  22.860  26.129  1.00  0.00     0.021 A 
ATOM     81  N   UNL A   1      34.035  22.783  24.000  1.00  0.00    -0.250 NA
ATOM     82  C   UNL A   1      35.098  22.546  24.794  1.00  0.00     0.112 A 
BRANCH  79  83
ATOM     83  C   UNL A   1      31.769  23.184  23.471  1.00  0.00     0.275 C 
ATOM     84  O   UNL A   1      31.723  22.123  22.830  1.00  0.00    -0.267 OA
ATOM     85  N   UNL A   1      30.674  23.987  23.275  1.00  0.00    -0.321 N 
ATOM     86  H   UNL A   1      29.854  23.481  23.070  1.00  0.00     0.170 HD
BRANCH  85  87
ATOM     87  C   UNL A   1      30.475  25.359  23.306  1.00  0.00     0.042 A 
ATOM     88  C   UNL A   1      31.402  26.152  22.612  1.00  0.00     0.033 A 
ATOM     89  C   UNL A   1      29.403  25.941  23.975  1.00  0.00     0.033 A 
ATOM     90  C   UNL A   1      31.126  27.496  22.376  1.00  0.00     0.088 A 
ATOM     91  C   UNL A   1      29.151  27.298  23.785  1.00  0.00     0.088 A 
ATOM     92  C   UNL A   1      29.960  28.034  22.914  1.00  0.00     0.269 A 
BRANCH  92  93
ATOM     93  N   UNL A   1      29.473  29.317  22.430  1.00  0.00     0.062 N 
ATOM     94  O   UNL A   1      29.908  29.728  21.348  1.00  0.00    -0.258 OA
ATOM     95  O   UNL A   1      28.626  29.887  23.136  1.00  0.00    -0.258 OA
ENDBRANCH  92  93
ENDBRANCH  85  87
ENDBRANCH  79  83
ENDBRANCH  74  77
ENDBRANCH  72  73
ENDBRANCH   1  72
TORSDOF 13
ENDMDL
