MODEL 1
REMARK VINA RESULT:     -12.4      0.000      0.000
REMARK SMILES C[C@@H](C(=O)NCCCNC(=O)c1ccc(-c2c3nc(c(-c4c(F)c(F)c(F)c(F)c4F)c4ccc([nH]4)c(-c4c(F)c(F)c(F)c(F)c4F)c4nc(c(-c5c(F)c(F)c(F)c(F)c5F)c5ccc2[nH]5)C=C4)C=C3)cc1)c1ccc(C[C@H]2CCC[C@H]2O)cc1
REMARK SMILES IDX 6 1 5 2 3 3 4 4 2 6 1 7 75 8 76 9 87 10 77 11 86 12 78 13
REMARK SMILES IDX 79 14 80 15 81 16 84 17 82 18 83 19 85 20 7 22 8 23 9 24
REMARK SMILES IDX 10 25 11 27 12 28 13 29 74 30 14 31 73 32 15 33 16 34 17 35
REMARK SMILES IDX 67 36 18 37 72 38 66 39 68 40 19 41 71 42 65 43 64 44 20 46
REMARK SMILES IDX 52 47 32 48 51 49 33 50 36 51 50 52 69 53 34 54 35 55 49 57
REMARK SMILES IDX 70 58 37 59 21 60 22 61 30 62 23 63 24 64 28 65 31 66 25 67
REMARK SMILES IDX 26 68 29 69 27 70 53 71 54 72 62 73 55 74 56 75 60 76 63 77
REMARK SMILES IDX 57 78 58 79 61 80 59 81 38 82 39 83 47 84 40 85 41 86 45 87
REMARK SMILES IDX 48 88 42 89 43 90 46 91 44 92
REMARK H PARENT 5 5 85 21 9 26 68 45 36 56
REMARK Flexibility Score: inf
ROOT
ATOM      1  C   UNL A   1      31.927  27.564  27.139  1.00  0.00     0.117 C 
ENDROOT
BRANCH   1   2
ATOM      2  N   UNL A   1      31.382  26.313  26.644  1.00  0.00    -0.356 N 
ATOM      3  C   UNL A   1      31.907  25.408  25.767  1.00  0.00     0.227 C 
ATOM      4  O   UNL A   1      31.134  24.539  25.356  1.00  0.00    -0.274 OA
ATOM      5  H   UNL A   1      30.493  26.080  26.998  1.00  0.00     0.163 HD
BRANCH   3   6
ATOM      6  C   UNL A   1      33.390  25.503  25.347  1.00  0.00     0.105 C 
ATOM      7  C   UNL A   1      33.455  26.220  23.991  1.00  0.00     0.023 C 
BRANCH   6   8
ATOM      8  C   UNL A   1      34.096  24.142  25.334  1.00  0.00    -0.036 A 
ATOM      9  C   UNL A   1      34.609  23.579  24.157  1.00  0.00     0.005 A 
ATOM     10  C   UNL A   1      34.250  23.407  26.522  1.00  0.00     0.005 A 
ATOM     11  C   UNL A   1      35.112  22.278  24.139  1.00  0.00     0.004 A 
ATOM     12  C   UNL A   1      34.724  22.092  26.498  1.00  0.00     0.004 A 
ATOM     13  C   UNL A   1      35.089  21.492  25.290  1.00  0.00    -0.048 A 
BRANCH  13  14
ATOM     14  C   UNL A   1      35.372  20.015  25.203  1.00  0.00     0.041 C 
BRANCH  14  15
ATOM     15  C   UNL A   1      34.294  19.142  24.529  1.00  0.00     0.022 C 
ATOM     16  C   UNL A   1      34.685  17.680  24.251  1.00  0.00     0.007 C 
ATOM     17  C   UNL A   1      32.905  19.044  25.180  1.00  0.00     0.117 C 
ATOM     18  C   UNL A   1      33.374  16.887  24.232  1.00  0.00     0.003 C 
ATOM     19  C   UNL A   1      32.253  17.911  24.395  1.00  0.00     0.032 C 
BRANCH  17  20
ATOM     20  O   UNL A   1      32.903  18.687  26.552  1.00  0.00    -0.393 OA
ATOM     21  H   UNL A   1      32.332  17.913  26.683  1.00  0.00     0.210 HD
ENDBRANCH  17  20
ENDBRANCH  14  15
ENDBRANCH  13  14
ENDBRANCH   6   8
ENDBRANCH   3   6
ENDBRANCH   1   2
BRANCH   1  22
ATOM     22  C   UNL A   1      31.744  28.692  26.125  1.00  0.00     0.042 C 
BRANCH  22  23
ATOM     23  C   UNL A   1      32.976  29.568  25.926  1.00  0.00     0.118 C 
BRANCH  23  24
ATOM     24  N   UNL A   1      32.747  30.945  26.326  1.00  0.00    -0.352 N 
ATOM     25  C   UNL A   1      33.403  31.714  27.253  1.00  0.00     0.251 C 
ATOM     26  H   UNL A   1      32.007  31.395  25.859  1.00  0.00     0.163 HD
ATOM     27  O   UNL A   1      32.925  32.797  27.578  1.00  0.00    -0.269 OA
BRANCH  25  28
ATOM     28  C   UNL A   1      34.669  31.258  27.872  1.00  0.00     0.039 A 
ATOM     29  C   UNL A   1      34.731  29.953  28.374  1.00  0.00     0.014 A 
ATOM     30  C   UNL A   1      35.763  32.113  28.033  1.00  0.00     0.014 A 
ATOM     31  C   UNL A   1      35.887  29.503  29.015  1.00  0.00     0.010 A 
ATOM     32  C   UNL A   1      36.944  31.639  28.602  1.00  0.00     0.010 A 
ATOM     33  C   UNL A   1      37.007  30.340  29.126  1.00  0.00    -0.014 A 
BRANCH  33  34
ATOM     34  C   UNL A   1      38.224  29.893  29.852  1.00  0.00     0.031 A 
ATOM     35  C   UNL A   1      38.491  30.390  31.248  1.00  0.00     0.074 A 
ATOM     36  C   UNL A   1      39.102  29.068  29.251  1.00  0.00     0.049 A 
ATOM     37  N   UNL A   1      39.510  30.148  32.035  1.00  0.00    -0.248 NA
ATOM     38  C   UNL A   1      37.494  31.306  31.824  1.00  0.00     0.031 C 
ATOM     39  C   UNL A   1      38.982  28.554  27.887  1.00  0.00     0.029 A 
ATOM     40  N   UNL A   1      40.274  28.521  29.712  1.00  0.00    -0.354 N 
ATOM     41  C   UNL A   1      39.282  30.891  33.186  1.00  0.00     0.074 A 
ATOM     42  C   UNL A   1      38.062  31.638  32.973  1.00  0.00     0.031 C 
ATOM     43  C   UNL A   1      40.028  27.753  27.626  1.00  0.00     0.029 A 
ATOM     44  C   UNL A   1      40.903  27.715  28.796  1.00  0.00     0.049 A 
ATOM     45  H   UNL A   1      40.630  28.692  30.614  1.00  0.00     0.167 HD
ATOM     46  C   UNL A   1      40.007  30.928  34.330  1.00  0.00     0.037 A 
ATOM     47  C   UNL A   1      42.052  27.022  28.892  1.00  0.00     0.037 A 
ATOM     48  C   UNL A   1      41.205  30.163  34.552  1.00  0.00     0.049 A 
ATOM     49  C   UNL A   1      42.822  27.049  30.183  1.00  0.00     0.074 A 
ATOM     50  C   UNL A   1      41.997  30.102  35.687  1.00  0.00     0.029 A 
ATOM     51  N   UNL A   1      41.782  29.316  33.617  1.00  0.00    -0.354 N 
ATOM     52  N   UNL A   1      42.569  27.713  31.285  1.00  0.00    -0.248 NA
ATOM     53  C   UNL A   1      44.029  26.213  30.252  1.00  0.00     0.031 C 
ATOM     54  C   UNL A   1      43.068  29.240  35.427  1.00  0.00     0.029 A 
ATOM     55  C   UNL A   1      42.920  28.729  34.148  1.00  0.00     0.049 A 
ATOM     56  H   UNL A   1      41.434  29.155  32.710  1.00  0.00     0.167 HD
ATOM     57  C   UNL A   1      43.561  27.352  32.186  1.00  0.00     0.074 A 
ATOM     58  C   UNL A   1      44.416  26.401  31.506  1.00  0.00     0.031 C 
ATOM     59  C   UNL A   1      43.748  27.771  33.462  1.00  0.00     0.037 A 
BRANCH  46  60
ATOM     60  C   UNL A   1      39.513  31.822  35.431  1.00  0.00     0.064 A 
ATOM     61  C   UNL A   1      39.954  33.150  35.551  1.00  0.00     0.173 A 
ATOM     62  C   UNL A   1      38.579  31.354  36.367  1.00  0.00     0.173 A 
ATOM     63  F   UNL A   1      40.856  33.642  34.690  1.00  0.00    -0.203 F 
ATOM     64  C   UNL A   1      39.506  33.962  36.590  1.00  0.00     0.198 A 
ATOM     65  C   UNL A   1      38.110  32.180  37.387  1.00  0.00     0.198 A 
ATOM     66  F   UNL A   1      38.121  30.096  36.295  1.00  0.00    -0.203 F 
ATOM     67  F   UNL A   1      39.987  35.207  36.719  1.00  0.00    -0.200 F 
ATOM     68  C   UNL A   1      38.582  33.479  37.503  1.00  0.00     0.200 A 
ATOM     69  F   UNL A   1      37.207  31.716  38.261  1.00  0.00    -0.200 F 
ATOM     70  F   UNL A   1      38.152  34.262  38.502  1.00  0.00    -0.200 F 
ENDBRANCH  46  60
BRANCH  47  71
ATOM     71  C   UNL A   1      42.518  26.205  27.741  1.00  0.00     0.064 A 
ATOM     72  C   UNL A   1      43.475  26.702  26.846  1.00  0.00     0.173 A 
ATOM     73  C   UNL A   1      42.023  24.912  27.518  1.00  0.00     0.173 A 
ATOM     74  F   UNL A   1      43.964  27.941  27.008  1.00  0.00    -0.203 F 
ATOM     75  C   UNL A   1      43.905  25.944  25.759  1.00  0.00     0.198 A 
ATOM     76  C   UNL A   1      42.473  24.146  26.446  1.00  0.00     0.198 A 
ATOM     77  F   UNL A   1      41.112  24.389  28.351  1.00  0.00    -0.203 F 
ATOM     78  F   UNL A   1      44.791  26.459  24.895  1.00  0.00    -0.200 F 
ATOM     79  C   UNL A   1      43.408  24.665  25.563  1.00  0.00     0.200 A 
ATOM     80  F   UNL A   1      42.002  22.904  26.268  1.00  0.00    -0.200 F 
ATOM     81  F   UNL A   1      43.827  23.934  24.520  1.00  0.00    -0.200 F 
ENDBRANCH  47  71
BRANCH  59  82
ATOM     82  C   UNL A   1      44.890  27.164  34.223  1.00  0.00     0.064 A 
ATOM     83  C   UNL A   1      46.132  27.806  34.328  1.00  0.00     0.173 A 
ATOM     84  C   UNL A   1      44.725  25.936  34.883  1.00  0.00     0.173 A 
ATOM     85  F   UNL A   1      46.343  28.975  33.704  1.00  0.00    -0.203 F 
ATOM     86  C   UNL A   1      47.178  27.226  35.042  1.00  0.00     0.198 A 
ATOM     87  C   UNL A   1      45.764  25.374  35.619  1.00  0.00     0.198 A 
ATOM     88  F   UNL A   1      43.554  25.286  34.820  1.00  0.00    -0.203 F 
ATOM     89  F   UNL A   1      48.372  27.833  35.087  1.00  0.00    -0.200 F 
ATOM     90  C   UNL A   1      46.992  26.014  35.691  1.00  0.00     0.200 A 
ATOM     91  F   UNL A   1      45.579  24.209  36.255  1.00  0.00    -0.200 F 
ATOM     92  F   UNL A   1      47.999  25.460  36.379  1.00  0.00    -0.200 F 
ENDBRANCH  59  82
ENDBRANCH  33  34
ENDBRANCH  25  28
ENDBRANCH  23  24
ENDBRANCH  22  23
ENDBRANCH   1  22
TORSDOF 14
ENDMDL
MODEL 2
REMARK VINA RESULT:     -12.2      2.219      7.998
REMARK SMILES C[C@@H](C(=O)NCCCNC(=O)c1ccc(-c2c3nc(c(-c4c(F)c(F)c(F)c(F)c4F)c4ccc([nH]4)c(-c4c(F)c(F)c(F)c(F)c4F)c4nc(c(-c5c(F)c(F)c(F)c(F)c5F)c5ccc2[nH]5)C=C4)C=C3)cc1)c1ccc(C[C@H]2CCC[C@H]2O)cc1
REMARK SMILES IDX 6 1 5 2 3 3 4 4 2 6 1 7 75 8 76 9 87 10 77 11 86 12 78 13
REMARK SMILES IDX 79 14 80 15 81 16 84 17 82 18 83 19 85 20 7 22 8 23 9 24
REMARK SMILES IDX 10 25 11 27 12 28 13 29 74 30 14 31 73 32 15 33 16 34 17 35
REMARK SMILES IDX 67 36 18 37 72 38 66 39 68 40 19 41 71 42 65 43 64 44 20 46
REMARK SMILES IDX 52 47 32 48 51 49 33 50 36 51 50 52 69 53 34 54 35 55 49 57
REMARK SMILES IDX 70 58 37 59 21 60 22 61 30 62 23 63 24 64 28 65 31 66 25 67
REMARK SMILES IDX 26 68 29 69 27 70 53 71 54 72 62 73 55 74 56 75 60 76 63 77
REMARK SMILES IDX 57 78 58 79 61 80 59 81 38 82 39 83 47 84 40 85 41 86 45 87
REMARK SMILES IDX 48 88 42 89 43 90 46 91 44 92
REMARK H PARENT 5 5 85 21 9 26 68 45 36 56
REMARK Flexibility Score: inf
ROOT
ATOM      1  C   UNL A   1      31.247  30.986  26.489  1.00  0.00     0.117 C 
ENDROOT
BRANCH   1   2
ATOM      2  N   UNL A   1      31.861  30.399  25.314  1.00  0.00    -0.356 N 
ATOM      3  C   UNL A   1      32.789  29.403  25.207  1.00  0.00     0.227 C 
ATOM      4  O   UNL A   1      33.298  29.250  24.094  1.00  0.00    -0.274 OA
ATOM      5  H   UNL A   1      31.562  30.779  24.456  1.00  0.00     0.163 HD
BRANCH   3   6
ATOM      6  C   UNL A   1      33.144  28.538  26.436  1.00  0.00     0.105 C 
ATOM      7  C   UNL A   1      34.615  28.795  26.790  1.00  0.00     0.023 C 
BRANCH   6   8
ATOM      8  C   UNL A   1      32.833  27.051  26.230  1.00  0.00    -0.036 A 
ATOM      9  C   UNL A   1      31.543  26.528  26.403  1.00  0.00     0.005 A 
ATOM     10  C   UNL A   1      33.848  26.153  25.858  1.00  0.00     0.005 A 
ATOM     11  C   UNL A   1      31.308  25.154  26.358  1.00  0.00     0.004 A 
ATOM     12  C   UNL A   1      33.621  24.774  25.846  1.00  0.00     0.004 A 
ATOM     13  C   UNL A   1      32.362  24.261  26.170  1.00  0.00    -0.048 A 
BRANCH  13  14
ATOM     14  C   UNL A   1      32.153  22.786  26.397  1.00  0.00     0.041 C 
BRANCH  14  15
ATOM     15  C   UNL A   1      31.889  21.923  25.146  1.00  0.00     0.022 C 
ATOM     16  C   UNL A   1      31.726  22.687  23.820  1.00  0.00     0.007 C 
ATOM     17  C   UNL A   1      32.869  20.788  24.808  1.00  0.00     0.117 C 
ATOM     18  C   UNL A   1      32.137  21.710  22.714  1.00  0.00     0.003 C 
ATOM     19  C   UNL A   1      32.429  20.381  23.406  1.00  0.00     0.032 C 
BRANCH  17  20
ATOM     20  O   UNL A   1      34.235  21.163  24.750  1.00  0.00    -0.393 OA
ATOM     21  H   UNL A   1      34.301  22.121  24.617  1.00  0.00     0.210 HD
ENDBRANCH  17  20
ENDBRANCH  14  15
ENDBRANCH  13  14
ENDBRANCH   6   8
ENDBRANCH   3   6
ENDBRANCH   1   2
BRANCH   1  22
ATOM     22  C   UNL A   1      31.395  32.507  26.496  1.00  0.00     0.042 C 
BRANCH  22  23
ATOM     23  C   UNL A   1      32.598  33.020  27.278  1.00  0.00     0.118 C 
BRANCH  23  24
ATOM     24  N   UNL A   1      32.444  34.405  27.685  1.00  0.00    -0.352 N 
ATOM     25  C   UNL A   1      33.033  35.091  28.716  1.00  0.00     0.251 C 
ATOM     26  H   UNL A   1      31.821  34.933  27.136  1.00  0.00     0.163 HD
ATOM     27  O   UNL A   1      32.617  36.209  29.007  1.00  0.00    -0.269 OA
BRANCH  25  28
ATOM     28  C   UNL A   1      34.154  34.505  29.488  1.00  0.00     0.039 A 
ATOM     29  C   UNL A   1      35.441  34.569  28.944  1.00  0.00     0.014 A 
ATOM     30  C   UNL A   1      33.947  33.830  30.696  1.00  0.00     0.014 A 
ATOM     31  C   UNL A   1      36.515  33.979  29.613  1.00  0.00     0.010 A 
ATOM     32  C   UNL A   1      35.030  33.311  31.402  1.00  0.00     0.010 A 
ATOM     33  C   UNL A   1      36.320  33.352  30.853  1.00  0.00    -0.014 A 
BRANCH  33  34
ATOM     34  C   UNL A   1      37.444  32.675  31.550  1.00  0.00     0.031 A 
ATOM     35  C   UNL A   1      38.160  31.530  30.885  1.00  0.00     0.074 A 
ATOM     36  C   UNL A   1      37.802  33.064  32.788  1.00  0.00     0.049 A 
ATOM     37  N   UNL A   1      39.138  30.786  31.338  1.00  0.00    -0.248 NA
ATOM     38  C   UNL A   1      37.692  31.151  29.541  1.00  0.00     0.031 C 
ATOM     39  C   UNL A   1      37.158  34.128  33.559  1.00  0.00     0.029 A 
ATOM     40  N   UNL A   1      38.795  32.606  33.617  1.00  0.00    -0.354 N 
ATOM     41  C   UNL A   1      39.389  29.847  30.345  1.00  0.00     0.074 A 
ATOM     42  C   UNL A   1      38.424  30.076  29.292  1.00  0.00     0.031 C 
ATOM     43  C   UNL A   1      37.782  34.252  34.741  1.00  0.00     0.029 A 
ATOM     44  C   UNL A   1      38.855  33.263  34.820  1.00  0.00     0.049 A 
ATOM     45  H   UNL A   1      39.406  31.873  33.372  1.00  0.00     0.167 HD
ATOM     46  C   UNL A   1      40.354  28.898  30.299  1.00  0.00     0.037 A 
ATOM     47  C   UNL A   1      39.684  33.090  35.866  1.00  0.00     0.037 A 
ATOM     48  C   UNL A   1      41.333  28.690  31.334  1.00  0.00     0.049 A 
ATOM     49  C   UNL A   1      40.771  32.054  35.779  1.00  0.00     0.074 A 
ATOM     50  C   UNL A   1      42.374  27.778  31.371  1.00  0.00     0.029 A 
ATOM     51  N   UNL A   1      41.392  29.413  32.516  1.00  0.00    -0.354 N 
ATOM     52  N   UNL A   1      41.033  31.208  34.813  1.00  0.00    -0.248 NA
ATOM     53  C   UNL A   1      41.691  31.963  36.922  1.00  0.00     0.031 C 
ATOM     54  C   UNL A   1      43.046  27.931  32.589  1.00  0.00     0.029 A 
ATOM     55  C   UNL A   1      42.452  28.968  33.291  1.00  0.00     0.049 A 
ATOM     56  H   UNL A   1      40.774  30.137  32.768  1.00  0.00     0.167 HD
ATOM     57  C   UNL A   1      42.164  30.509  35.213  1.00  0.00     0.074 A 
ATOM     58  C   UNL A   1      42.545  31.037  36.507  1.00  0.00     0.031 C 
ATOM     59  C   UNL A   1      42.827  29.517  34.568  1.00  0.00     0.037 A 
BRANCH  46  60
ATOM     60  C   UNL A   1      40.400  28.020  29.082  1.00  0.00     0.064 A 
ATOM     61  C   UNL A   1      41.185  28.353  27.967  1.00  0.00     0.173 A 
ATOM     62  C   UNL A   1      39.664  26.827  29.032  1.00  0.00     0.173 A 
ATOM     63  F   UNL A   1      41.897  29.489  27.958  1.00  0.00    -0.203 F 
ATOM     64  C   UNL A   1      41.202  27.543  26.834  1.00  0.00     0.198 A 
ATOM     65  C   UNL A   1      39.707  26.004  27.909  1.00  0.00     0.198 A 
ATOM     66  F   UNL A   1      38.902  26.459  30.072  1.00  0.00    -0.203 F 
ATOM     67  F   UNL A   1      41.913  27.913  25.759  1.00  0.00    -0.200 F 
ATOM     68  C   UNL A   1      40.468  26.367  26.808  1.00  0.00     0.200 A 
ATOM     69  F   UNL A   1      39.008  24.861  27.890  1.00  0.00    -0.200 F 
ATOM     70  F   UNL A   1      40.485  25.589  25.717  1.00  0.00    -0.200 F 
ENDBRANCH  46  60
BRANCH  47  71
ATOM     71  C   UNL A   1      39.544  33.952  37.068  1.00  0.00     0.064 A 
ATOM     72  C   UNL A   1      40.144  35.218  37.120  1.00  0.00     0.173 A 
ATOM     73  C   UNL A   1      38.806  33.533  38.184  1.00  0.00     0.173 A 
ATOM     74  F   UNL A   1      40.876  35.655  36.084  1.00  0.00    -0.203 F 
ATOM     75  C   UNL A   1      40.027  36.024  38.250  1.00  0.00     0.198 A 
ATOM     76  C   UNL A   1      38.667  34.350  39.303  1.00  0.00     0.198 A 
ATOM     77  F   UNL A   1      38.207  32.332  38.180  1.00  0.00    -0.203 F 
ATOM     78  F   UNL A   1      40.644  37.213  38.289  1.00  0.00    -0.200 F 
ATOM     79  C   UNL A   1      39.284  35.592  39.338  1.00  0.00     0.200 A 
ATOM     80  F   UNL A   1      37.937  33.936  40.347  1.00  0.00    -0.200 F 
ATOM     81  F   UNL A   1      39.167  36.371  40.423  1.00  0.00    -0.200 F 
ENDBRANCH  47  71
BRANCH  59  82
ATOM     82  C   UNL A   1      44.061  28.976  35.225  1.00  0.00     0.064 A 
ATOM     83  C   UNL A   1      44.004  27.925  36.152  1.00  0.00     0.173 A 
ATOM     84  C   UNL A   1      45.323  29.497  34.898  1.00  0.00     0.173 A 
ATOM     85  F   UNL A   1      42.821  27.402  36.509  1.00  0.00    -0.203 F 
ATOM     86  C   UNL A   1      45.163  27.436  36.750  1.00  0.00     0.198 A 
ATOM     87  C   UNL A   1      46.481  28.987  35.476  1.00  0.00     0.198 A 
ATOM     88  F   UNL A   1      45.431  30.498  34.011  1.00  0.00    -0.203 F 
ATOM     89  F   UNL A   1      45.081  26.465  37.670  1.00  0.00    -0.200 F 
ATOM     90  C   UNL A   1      46.400  27.962  36.408  1.00  0.00     0.200 A 
ATOM     91  F   UNL A   1      47.676  29.488  35.135  1.00  0.00    -0.200 F 
ATOM     92  F   UNL A   1      47.514  27.488  36.982  1.00  0.00    -0.200 F 
ENDBRANCH  59  82
ENDBRANCH  33  34
ENDBRANCH  25  28
ENDBRANCH  23  24
ENDBRANCH  22  23
ENDBRANCH   1  22
TORSDOF 14
ENDMDL
MODEL 3
REMARK VINA RESULT:     -12.2      4.493     10.478
REMARK SMILES C[C@@H](C(=O)NCCCNC(=O)c1ccc(-c2c3nc(c(-c4c(F)c(F)c(F)c(F)c4F)c4ccc([nH]4)c(-c4c(F)c(F)c(F)c(F)c4F)c4nc(c(-c5c(F)c(F)c(F)c(F)c5F)c5ccc2[nH]5)C=C4)C=C3)cc1)c1ccc(C[C@H]2CCC[C@H]2O)cc1
REMARK SMILES IDX 6 1 5 2 3 3 4 4 2 6 1 7 75 8 76 9 87 10 77 11 86 12 78 13
REMARK SMILES IDX 79 14 80 15 81 16 84 17 82 18 83 19 85 20 7 22 8 23 9 24
REMARK SMILES IDX 10 25 11 27 12 28 13 29 74 30 14 31 73 32 15 33 16 34 17 35
REMARK SMILES IDX 67 36 18 37 72 38 66 39 68 40 19 41 71 42 65 43 64 44 20 46
REMARK SMILES IDX 52 47 32 48 51 49 33 50 36 51 50 52 69 53 34 54 35 55 49 57
REMARK SMILES IDX 70 58 37 59 21 60 22 61 30 62 23 63 24 64 28 65 31 66 25 67
REMARK SMILES IDX 26 68 29 69 27 70 53 71 54 72 62 73 55 74 56 75 60 76 63 77
REMARK SMILES IDX 57 78 58 79 61 80 59 81 38 82 39 83 47 84 40 85 41 86 45 87
REMARK SMILES IDX 48 88 42 89 43 90 46 91 44 92
REMARK H PARENT 5 5 85 21 9 26 68 45 36 56
REMARK Flexibility Score: inf
ROOT
ATOM      1  C   UNL A   1      43.350  22.071  25.958  1.00  0.00     0.117 C 
ENDROOT
BRANCH   1   2
ATOM      2  N   UNL A   1      43.782  22.619  27.229  1.00  0.00    -0.356 N 
ATOM      3  C   UNL A   1      44.759  23.531  27.511  1.00  0.00     0.227 C 
ATOM      4  O   UNL A   1      45.060  23.655  28.701  1.00  0.00    -0.274 OA
ATOM      5  H   UNL A   1      43.294  22.279  28.014  1.00  0.00     0.163 HD
BRANCH   3   6
ATOM      6  C   UNL A   1      45.414  24.343  26.373  1.00  0.00     0.105 C 
ATOM      7  C   UNL A   1      46.937  24.232  26.525  1.00  0.00     0.023 C 
BRANCH   6   8
ATOM      8  C   UNL A   1      44.927  25.796  26.319  1.00  0.00    -0.036 A 
ATOM      9  C   UNL A   1      45.569  26.825  27.023  1.00  0.00     0.005 A 
ATOM     10  C   UNL A   1      43.802  26.144  25.551  1.00  0.00     0.005 A 
ATOM     11  C   UNL A   1      45.026  28.108  27.081  1.00  0.00     0.004 A 
ATOM     12  C   UNL A   1      43.239  27.421  25.636  1.00  0.00     0.004 A 
ATOM     13  C   UNL A   1      43.808  28.392  26.464  1.00  0.00    -0.048 A 
BRANCH  13  14
ATOM     14  C   UNL A   1      43.095  29.686  26.758  1.00  0.00     0.041 C 
BRANCH  14  15
ATOM     15  C   UNL A   1      43.961  30.851  27.279  1.00  0.00     0.022 C 
ATOM     16  C   UNL A   1      43.853  32.174  26.500  1.00  0.00     0.007 C 
ATOM     17  C   UNL A   1      43.832  31.270  28.752  1.00  0.00     0.117 C 
ATOM     18  C   UNL A   1      44.208  33.283  27.495  1.00  0.00     0.003 C 
ATOM     19  C   UNL A   1      44.611  32.581  28.790  1.00  0.00     0.032 C 
BRANCH  17  20
ATOM     20  O   UNL A   1      42.511  31.529  29.196  1.00  0.00    -0.393 OA
ATOM     21  H   UNL A   1      42.184  30.768  29.701  1.00  0.00     0.210 HD
ENDBRANCH  17  20
ENDBRANCH  14  15
ENDBRANCH  13  14
ENDBRANCH   6   8
ENDBRANCH   3   6
ENDBRANCH   1   2
BRANCH   1  22
ATOM     22  C   UNL A   1      42.137  21.157  26.127  1.00  0.00     0.042 C 
BRANCH  22  23
ATOM     23  C   UNL A   1      40.994  21.768  26.928  1.00  0.00     0.118 C 
BRANCH  23  24
ATOM     24  N   UNL A   1      39.828  22.044  26.109  1.00  0.00    -0.352 N 
ATOM     25  C   UNL A   1      38.972  23.116  26.126  1.00  0.00     0.251 C 
ATOM     26  H   UNL A   1      39.619  21.355  25.437  1.00  0.00     0.163 HD
ATOM     27  O   UNL A   1      37.931  23.062  25.477  1.00  0.00    -0.269 OA
BRANCH  25  28
ATOM     28  C   UNL A   1      39.278  24.331  26.917  1.00  0.00     0.039 A 
ATOM     29  C   UNL A   1      40.029  25.345  26.313  1.00  0.00     0.014 A 
ATOM     30  C   UNL A   1      38.904  24.452  28.259  1.00  0.00     0.014 A 
ATOM     31  C   UNL A   1      40.386  26.481  27.042  1.00  0.00     0.010 A 
ATOM     32  C   UNL A   1      39.193  25.621  28.963  1.00  0.00     0.010 A 
ATOM     33  C   UNL A   1      39.963  26.632  28.372  1.00  0.00    -0.014 A 
BRANCH  33  34
ATOM     34  C   UNL A   1      40.380  27.810  29.175  1.00  0.00     0.031 A 
ATOM     35  C   UNL A   1      41.762  27.862  29.770  1.00  0.00     0.074 A 
ATOM     36  C   UNL A   1      39.514  28.817  29.396  1.00  0.00     0.049 A 
ATOM     37  N   UNL A   1      42.305  28.781  30.530  1.00  0.00    -0.248 NA
ATOM     38  C   UNL A   1      42.640  26.712  29.501  1.00  0.00     0.031 C 
ATOM     39  C   UNL A   1      38.133  28.864  28.914  1.00  0.00     0.029 A 
ATOM     40  N   UNL A   1      39.667  29.992  30.088  1.00  0.00    -0.354 N 
ATOM     41  C   UNL A   1      43.576  28.312  30.838  1.00  0.00     0.074 A 
ATOM     42  C   UNL A   1      43.702  27.004  30.236  1.00  0.00     0.031 C 
ATOM     43  C   UNL A   1      37.570  30.018  29.310  1.00  0.00     0.029 A 
ATOM     44  C   UNL A   1      38.542  30.779  30.091  1.00  0.00     0.049 A 
ATOM     45  H   UNL A   1      40.504  30.247  30.540  1.00  0.00     0.167 HD
ATOM     46  C   UNL A   1      44.561  28.927  31.536  1.00  0.00     0.037 A 
ATOM     47  C   UNL A   1      38.322  31.980  30.658  1.00  0.00     0.037 A 
ATOM     48  C   UNL A   1      44.445  30.241  32.111  1.00  0.00     0.049 A 
ATOM     49  C   UNL A   1      39.441  32.660  31.397  1.00  0.00     0.074 A 
ATOM     50  C   UNL A   1      45.394  30.969  32.809  1.00  0.00     0.029 A 
ATOM     51  N   UNL A   1      43.305  31.029  32.048  1.00  0.00    -0.354 N 
ATOM     52  N   UNL A   1      40.657  32.231  31.637  1.00  0.00    -0.248 NA
ATOM     53  C   UNL A   1      39.164  34.002  31.929  1.00  0.00     0.031 C 
ATOM     54  C   UNL A   1      44.818  32.186  33.192  1.00  0.00     0.029 A 
ATOM     55  C   UNL A   1      43.526  32.235  32.694  1.00  0.00     0.049 A 
ATOM     56  H   UNL A   1      42.463  30.770  31.608  1.00  0.00     0.167 HD
ATOM     57  C   UNL A   1      41.298  33.259  32.316  1.00  0.00     0.074 A 
ATOM     58  C   UNL A   1      40.340  34.338  32.441  1.00  0.00     0.031 C 
ATOM     59  C   UNL A   1      42.567  33.304  32.793  1.00  0.00     0.037 A 
BRANCH  46  60
ATOM     60  C   UNL A   1      45.854  28.182  31.706  1.00  0.00     0.064 A 
ATOM     61  C   UNL A   1      46.911  28.330  30.794  1.00  0.00     0.173 A 
ATOM     62  C   UNL A   1      46.045  27.321  32.797  1.00  0.00     0.173 A 
ATOM     63  F   UNL A   1      46.774  29.130  29.727  1.00  0.00    -0.203 F 
ATOM     64  C   UNL A   1      48.096  27.616  30.948  1.00  0.00     0.198 A 
ATOM     65  C   UNL A   1      47.244  26.632  32.965  1.00  0.00     0.198 A 
ATOM     66  F   UNL A   1      45.070  27.147  33.701  1.00  0.00    -0.203 F 
ATOM     67  F   UNL A   1      49.068  27.729  30.032  1.00  0.00    -0.200 F 
ATOM     68  C   UNL A   1      48.264  26.772  32.035  1.00  0.00     0.200 A 
ATOM     69  F   UNL A   1      47.411  25.827  34.023  1.00  0.00    -0.200 F 
ATOM     70  F   UNL A   1      49.406  26.086  32.183  1.00  0.00    -0.200 F 
ENDBRANCH  46  60
BRANCH  47  71
ATOM     71  C   UNL A   1      36.998  32.636  30.505  1.00  0.00     0.064 A 
ATOM     72  C   UNL A   1      36.686  33.367  29.350  1.00  0.00     0.173 A 
ATOM     73  C   UNL A   1      36.018  32.540  31.502  1.00  0.00     0.173 A 
ATOM     74  F   UNL A   1      37.598  33.502  28.376  1.00  0.00    -0.203 F 
ATOM     75  C   UNL A   1      35.450  33.995  29.208  1.00  0.00     0.198 A 
ATOM     76  C   UNL A   1      34.774  33.146  31.349  1.00  0.00     0.198 A 
ATOM     77  F   UNL A   1      36.266  31.846  32.623  1.00  0.00    -0.203 F 
ATOM     78  F   UNL A   1      35.192  34.721  28.112  1.00  0.00    -0.200 F 
ATOM     79  C   UNL A   1      34.493  33.879  30.205  1.00  0.00     0.200 A 
ATOM     80  F   UNL A   1      33.846  33.021  32.307  1.00  0.00    -0.200 F 
ATOM     81  F   UNL A   1      33.302  34.478  30.065  1.00  0.00    -0.200 F 
ENDBRANCH  47  71
BRANCH  59  82
ATOM     82  C   UNL A   1      43.008  34.579  33.448  1.00  0.00     0.064 A 
ATOM     83  C   UNL A   1      43.518  35.653  32.704  1.00  0.00     0.173 A 
ATOM     84  C   UNL A   1      42.888  34.739  34.837  1.00  0.00     0.173 A 
ATOM     85  F   UNL A   1      43.665  35.545  31.375  1.00  0.00    -0.203 F 
ATOM     86  C   UNL A   1      43.921  36.830  33.331  1.00  0.00     0.198 A 
ATOM     87  C   UNL A   1      43.265  35.926  35.457  1.00  0.00     0.198 A 
ATOM     88  F   UNL A   1      42.399  33.744  35.592  1.00  0.00    -0.203 F 
ATOM     89  F   UNL A   1      44.452  37.825  32.608  1.00  0.00    -0.200 F 
ATOM     90  C   UNL A   1      43.789  36.968  34.706  1.00  0.00     0.200 A 
ATOM     91  F   UNL A   1      43.125  36.062  36.783  1.00  0.00    -0.200 F 
ATOM     92  F   UNL A   1      44.173  38.102  35.307  1.00  0.00    -0.200 F 
ENDBRANCH  59  82
ENDBRANCH  33  34
ENDBRANCH  25  28
ENDBRANCH  23  24
ENDBRANCH  22  23
ENDBRANCH   1  22
TORSDOF 14
ENDMDL
