MODEL 1
REMARK VINA RESULT:     -12.8      0.000      0.000
REMARK SMILES C=C(C)COc1cc2oc(=O)c(CC(=O)N3CCC[C@H](C(=O)NCCCNC(=O)c4ccc(-c5c6nc(c(-c7c(F)c(F)c(F)c(F)c7F)c7ccc([nH]7)c(-c7c(F)c(F)c(F)c(F)c7F)c7nc(c(-c8c(F)c(F)c(F)c(F)c8F)c8ccc5[nH]8)C=C7)C=C6)cc4)C3)c(C)c2cc1Cl
REMARK SMILES IDX 21 1 22 2 23 3 20 5 16 6 17 7 93 8 18 9 19 10 14 11 15 12
REMARK SMILES IDX 13 13 12 14 6 15 7 16 98 17 8 18 97 19 99 20 9 21 96 22
REMARK SMILES IDX 10 23 94 24 11 25 95 26 5 27 4 28 2 29 1 30 3 31 24 32 25 33
REMARK SMILES IDX 26 34 27 35 28 36 29 38 30 39 31 40 92 41 32 42 91 43 33 44
REMARK SMILES IDX 34 45 35 46 85 47 36 48 90 49 84 50 86 51 37 52 89 53 83 54
REMARK SMILES IDX 82 55 38 57 70 58 50 59 69 60 51 61 54 62 68 63 87 64 52 65
REMARK SMILES IDX 53 66 67 68 88 69 55 70 39 71 40 72 48 73 41 74 42 75 46 76
REMARK SMILES IDX 49 77 43 78 44 79 47 80 45 81 71 82 72 83 80 84 73 85 74 86
REMARK SMILES IDX 78 87 81 88 75 89 76 90 79 91 77 92 56 93 57 94 65 95 58 96
REMARK SMILES IDX 59 97 63 98 66 99 60 100 61 101 64 102 62 103
REMARK H PARENT 23 4 27 37 86 56 54 67
REMARK Flexibility Score: inf
ROOT
ATOM      1  C   UNL A   1      33.125  26.229  24.127  1.00  0.00     0.224 C 
ATOM      2  O   UNL A   1      34.325  25.932  24.175  1.00  0.00    -0.275 OA
ATOM      3  N   UNL A   1      32.719  27.184  25.000  1.00  0.00    -0.356 N 
ATOM      4  H   UNL A   1      33.395  27.430  25.672  1.00  0.00     0.163 HD
ENDROOT
BRANCH   1   5
ATOM      5  C   UNL A   1      32.220  25.522  23.109  1.00  0.00     0.098 C 
ATOM      6  N   UNL A   1      31.258  23.367  23.966  1.00  0.00    -0.342 N 
ATOM      7  C   UNL A   1      31.776  22.634  22.804  1.00  0.00     0.119 C 
ATOM      8  C   UNL A   1      31.026  24.786  23.722  1.00  0.00     0.133 C 
ATOM      9  C   UNL A   1      33.040  23.253  22.211  1.00  0.00     0.022 C 
ATOM     10  C   UNL A   1      32.939  24.758  22.000  1.00  0.00     0.017 C 
BRANCH   6  11
ATOM     11  C   UNL A   1      31.074  22.673  25.156  1.00  0.00     0.227 C 
ATOM     12  O   UNL A   1      30.194  23.047  25.948  1.00  0.00    -0.275 OA
BRANCH  11  13
ATOM     13  C   UNL A   1      31.965  21.502  25.624  1.00  0.00     0.143 C 
BRANCH  13  14
ATOM     14  C   UNL A   1      33.462  21.542  25.494  1.00  0.00     0.051 A 
ATOM     15  C   UNL A   1      38.501  21.891  25.765  1.00  0.00     0.142 A 
ATOM     16  C   UNL A   1      37.611  20.918  25.320  1.00  0.00     0.096 A 
ATOM     17  C   UNL A   1      38.018  23.140  26.162  1.00  0.00     0.083 A 
ATOM     18  C   UNL A   1      36.241  21.187  25.347  1.00  0.00     0.142 A 
ATOM     19  C   UNL A   1      36.639  23.377  26.209  1.00  0.00     0.036 A 
ATOM     20  Cl  UNL A   1      39.069  24.442  26.586  1.00  0.00    -0.080 Cl
ATOM     21  O   UNL A   1      35.402  20.176  24.858  1.00  0.00    -0.422 OA
ATOM     22  C   UNL A   1      35.723  22.391  25.818  1.00  0.00     0.023 A 
ATOM     23  C   UNL A   1      34.028  20.327  24.835  1.00  0.00     0.340 A 
ATOM     24  C   UNL A   1      34.258  22.548  25.921  1.00  0.00    -0.029 A 
ATOM     25  O   UNL A   1      33.310  19.454  24.361  1.00  0.00    -0.246 OA
ATOM     26  C   UNL A   1      33.750  23.805  26.581  1.00  0.00     0.046 C 
BRANCH  15  27
ATOM     27  O   UNL A   1      39.843  21.620  25.720  1.00  0.00    -0.488 OA
BRANCH  27  28
ATOM     28  C   UNL A   1      40.098  20.204  25.698  1.00  0.00     0.260 C 
BRANCH  28  29
ATOM     29  C   UNL A   1      41.286  19.873  26.570  1.00  0.00    -0.043 C 
ATOM     30  C   UNL A   1      42.180  18.930  26.224  1.00  0.00     0.011 C 
ATOM     31  C   UNL A   1      41.440  20.685  27.823  1.00  0.00     0.042 C 
ENDBRANCH  28  29
ENDBRANCH  27  28
ENDBRANCH  15  27
ENDBRANCH  13  14
ENDBRANCH  11  13
ENDBRANCH   6  11
ENDBRANCH   1   5
BRANCH   3  32
ATOM     32  C   UNL A   1      31.471  27.906  25.123  1.00  0.00     0.117 C 
BRANCH  32  33
ATOM     33  C   UNL A   1      31.634  29.414  25.110  1.00  0.00     0.042 C 
BRANCH  33  34
ATOM     34  C   UNL A   1      32.685  29.894  26.095  1.00  0.00     0.118 C 
BRANCH  34  35
ATOM     35  N   UNL A   1      32.465  31.269  26.540  1.00  0.00    -0.352 N 
ATOM     36  C   UNL A   1      33.209  32.097  27.356  1.00  0.00     0.251 C 
ATOM     37  H   UNL A   1      31.638  31.679  26.197  1.00  0.00     0.163 HD
ATOM     38  O   UNL A   1      32.758  33.176  27.704  1.00  0.00    -0.269 OA
BRANCH  36  39
ATOM     39  C   UNL A   1      34.539  31.663  27.842  1.00  0.00     0.039 A 
ATOM     40  C   UNL A   1      34.763  30.341  28.210  1.00  0.00     0.014 A 
ATOM     41  C   UNL A   1      35.572  32.599  27.951  1.00  0.00     0.014 A 
ATOM     42  C   UNL A   1      35.909  30.011  28.916  1.00  0.00     0.010 A 
ATOM     43  C   UNL A   1      36.788  32.230  28.537  1.00  0.00     0.010 A 
ATOM     44  C   UNL A   1      36.941  30.948  29.087  1.00  0.00    -0.014 A 
BRANCH  44  45
ATOM     45  C   UNL A   1      38.157  30.546  29.844  1.00  0.00     0.031 A 
ATOM     46  C   UNL A   1      38.319  30.903  31.297  1.00  0.00     0.074 A 
ATOM     47  C   UNL A   1      39.082  29.781  29.232  1.00  0.00     0.049 A 
ATOM     48  N   UNL A   1      39.304  30.610  32.112  1.00  0.00    -0.248 NA
ATOM     49  C   UNL A   1      37.248  31.695  31.920  1.00  0.00     0.031 C 
ATOM     50  C   UNL A   1      39.031  29.366  27.828  1.00  0.00     0.029 A 
ATOM     51  N   UNL A   1      40.216  29.180  29.713  1.00  0.00    -0.354 N 
ATOM     52  C   UNL A   1      38.991  31.213  33.323  1.00  0.00     0.074 A 
ATOM     53  C   UNL A   1      37.733  31.903  33.138  1.00  0.00     0.031 C 
ATOM     54  C   UNL A   1      40.033  28.511  27.585  1.00  0.00     0.029 A 
ATOM     55  C   UNL A   1      40.848  28.387  28.787  1.00  0.00     0.049 A 
ATOM     56  H   UNL A   1      40.545  29.305  30.633  1.00  0.00     0.167 HD
ATOM     57  C   UNL A   1      39.688  31.188  34.483  1.00  0.00     0.037 A 
ATOM     58  C   UNL A   1      41.972  27.651  28.884  1.00  0.00     0.037 A 
ATOM     59  C   UNL A   1      40.916  30.459  34.676  1.00  0.00     0.049 A 
ATOM     60  C   UNL A   1      42.729  27.646  30.177  1.00  0.00     0.074 A 
ATOM     61  C   UNL A   1      41.673  30.338  35.828  1.00  0.00     0.029 A 
ATOM     62  N   UNL A   1      41.560  29.722  33.693  1.00  0.00    -0.354 N 
ATOM     63  N   UNL A   1      42.427  28.233  31.310  1.00  0.00    -0.248 NA
ATOM     64  C   UNL A   1      43.992  26.899  30.202  1.00  0.00     0.031 C 
ATOM     65  C   UNL A   1      42.798  29.561  35.530  1.00  0.00     0.029 A 
ATOM     66  C   UNL A   1      42.720  29.162  34.205  1.00  0.00     0.049 A 
ATOM     67  H   UNL A   1      41.240  29.613  32.768  1.00  0.00     0.167 HD
ATOM     68  C   UNL A   1      43.464  27.935  32.180  1.00  0.00     0.074 A 
ATOM     69  C   UNL A   1      44.389  27.088  31.453  1.00  0.00     0.031 C 
ATOM     70  C   UNL A   1      43.637  28.337  33.462  1.00  0.00     0.037 A 
BRANCH  57  71
ATOM     71  C   UNL A   1      39.156  31.985  35.639  1.00  0.00     0.064 A 
ATOM     72  C   UNL A   1      38.327  31.413  36.615  1.00  0.00     0.173 A 
ATOM     73  C   UNL A   1      39.526  33.330  35.800  1.00  0.00     0.173 A 
ATOM     74  F   UNL A   1      37.934  30.135  36.502  1.00  0.00    -0.203 F 
ATOM     75  C   UNL A   1      37.873  32.163  37.698  1.00  0.00     0.198 A 
ATOM     76  C   UNL A   1      39.091  34.069  36.897  1.00  0.00     0.198 A 
ATOM     77  F   UNL A   1      40.323  33.923  34.898  1.00  0.00    -0.203 F 
ATOM     78  F   UNL A   1      37.052  31.605  38.599  1.00  0.00    -0.200 F 
ATOM     79  C   UNL A   1      38.262  33.487  37.843  1.00  0.00     0.200 A 
ATOM     80  F   UNL A   1      39.479  35.344  37.041  1.00  0.00    -0.200 F 
ATOM     81  F   UNL A   1      37.832  34.202  38.891  1.00  0.00    -0.200 F 
ENDBRANCH  57  71
BRANCH  58  82
ATOM     82  C   UNL A   1      42.430  26.875  27.706  1.00  0.00     0.064 A 
ATOM     83  C   UNL A   1      43.204  27.475  26.705  1.00  0.00     0.173 A 
ATOM     84  C   UNL A   1      42.170  25.500  27.596  1.00  0.00     0.173 A 
ATOM     85  F   UNL A   1      43.465  28.790  26.758  1.00  0.00    -0.203 F 
ATOM     86  C   UNL A   1      43.711  26.727  25.644  1.00  0.00     0.198 A 
ATOM     87  C   UNL A   1      42.699  24.749  26.551  1.00  0.00     0.198 A 
ATOM     88  F   UNL A   1      41.439  24.879  28.534  1.00  0.00    -0.203 F 
ATOM     89  F   UNL A   1      44.439  27.326  24.692  1.00  0.00    -0.200 F 
ATOM     90  C   UNL A   1      43.469  25.363  25.575  1.00  0.00     0.200 A 
ATOM     91  F   UNL A   1      42.482  23.427  26.501  1.00  0.00    -0.200 F 
ATOM     92  F   UNL A   1      43.981  24.639  24.571  1.00  0.00    -0.200 F 
ENDBRANCH  58  82
BRANCH  70  93
ATOM     93  C   UNL A   1      44.881  27.878  34.161  1.00  0.00     0.064 A 
ATOM     94  C   UNL A   1      46.045  28.659  34.160  1.00  0.00     0.173 A 
ATOM     95  C   UNL A   1      44.891  26.677  34.887  1.00  0.00     0.173 A 
ATOM     96  F   UNL A   1      46.086  29.807  33.467  1.00  0.00    -0.203 F 
ATOM     97  C   UNL A   1      47.180  28.248  34.851  1.00  0.00     0.198 A 
ATOM     98  C   UNL A   1      46.021  26.282  35.597  1.00  0.00     0.198 A 
ATOM     99  F   UNL A   1      43.798  25.899  34.921  1.00  0.00    -0.203 F 
ATOM    100  F   UNL A   1      48.294  28.995  34.812  1.00  0.00    -0.200 F 
ATOM    101  C   UNL A   1      47.165  27.065  35.576  1.00  0.00     0.200 A 
ATOM    102  F   UNL A   1      46.000  25.144  36.305  1.00  0.00    -0.200 F 
ATOM    103  F   UNL A   1      48.255  26.678  36.251  1.00  0.00    -0.200 F 
ENDBRANCH  70  93
ENDBRANCH  44  45
ENDBRANCH  36  39
ENDBRANCH  34  35
ENDBRANCH  33  34
ENDBRANCH  32  33
ENDBRANCH   3  32
TORSDOF 16
ENDMDL
MODEL 2
REMARK VINA RESULT:     -12.7      0.320      7.029
REMARK SMILES C=C(C)COc1cc2oc(=O)c(CC(=O)N3CCC[C@H](C(=O)NCCCNC(=O)c4ccc(-c5c6nc(c(-c7c(F)c(F)c(F)c(F)c7F)c7ccc([nH]7)c(-c7c(F)c(F)c(F)c(F)c7F)c7nc(c(-c8c(F)c(F)c(F)c(F)c8F)c8ccc5[nH]8)C=C7)C=C6)cc4)C3)c(C)c2cc1Cl
REMARK SMILES IDX 21 1 22 2 23 3 20 5 16 6 17 7 93 8 18 9 19 10 14 11 15 12
REMARK SMILES IDX 13 13 12 14 6 15 7 16 98 17 8 18 97 19 99 20 9 21 96 22
REMARK SMILES IDX 10 23 94 24 11 25 95 26 5 27 4 28 2 29 1 30 3 31 24 32 25 33
REMARK SMILES IDX 26 34 27 35 28 36 29 38 30 39 31 40 92 41 32 42 91 43 33 44
REMARK SMILES IDX 34 45 35 46 85 47 36 48 90 49 84 50 86 51 37 52 89 53 83 54
REMARK SMILES IDX 82 55 38 57 70 58 50 59 69 60 51 61 54 62 68 63 87 64 52 65
REMARK SMILES IDX 53 66 67 68 88 69 55 70 39 71 40 72 48 73 41 74 42 75 46 76
REMARK SMILES IDX 49 77 43 78 44 79 47 80 45 81 71 82 72 83 80 84 73 85 74 86
REMARK SMILES IDX 78 87 81 88 75 89 76 90 79 91 77 92 56 93 57 94 65 95 58 96
REMARK SMILES IDX 59 97 63 98 66 99 60 100 61 101 64 102 62 103
REMARK H PARENT 23 4 27 37 86 56 54 67
REMARK Flexibility Score: inf
ROOT
ATOM      1  C   UNL A   1      33.172  26.001  23.955  1.00  0.00     0.224 C 
ATOM      2  O   UNL A   1      34.361  25.666  24.026  1.00  0.00    -0.275 OA
ATOM      3  N   UNL A   1      32.799  27.026  24.762  1.00  0.00    -0.356 N 
ATOM      4  H   UNL A   1      33.483  27.291  25.418  1.00  0.00     0.163 HD
ENDROOT
BRANCH   1   5
ATOM      5  C   UNL A   1      32.243  25.260  22.984  1.00  0.00     0.098 C 
ATOM      6  N   UNL A   1      31.308  23.133  23.934  1.00  0.00    -0.342 N 
ATOM      7  C   UNL A   1      31.798  22.363  22.783  1.00  0.00     0.119 C 
ATOM      8  C   UNL A   1      31.067  24.543  23.650  1.00  0.00     0.133 C 
ATOM      9  C   UNL A   1      33.044  22.965  22.139  1.00  0.00     0.022 C 
ATOM     10  C   UNL A   1      32.935  24.462  21.882  1.00  0.00     0.017 C 
BRANCH   6  11
ATOM     11  C   UNL A   1      31.155  22.477  25.150  1.00  0.00     0.227 C 
ATOM     12  O   UNL A   1      30.280  22.860  25.942  1.00  0.00    -0.275 OA
BRANCH  11  13
ATOM     13  C   UNL A   1      32.077  21.341  25.644  1.00  0.00     0.143 C 
BRANCH  13  14
ATOM     14  C   UNL A   1      33.573  21.417  25.511  1.00  0.00     0.051 A 
ATOM     15  C   UNL A   1      38.603  21.889  25.770  1.00  0.00     0.142 A 
ATOM     16  C   UNL A   1      37.735  20.894  25.329  1.00  0.00     0.096 A 
ATOM     17  C   UNL A   1      38.090  23.127  26.166  1.00  0.00     0.083 A 
ATOM     18  C   UNL A   1      36.359  21.129  25.359  1.00  0.00     0.142 A 
ATOM     19  C   UNL A   1      36.706  23.330  26.216  1.00  0.00     0.036 A 
ATOM     20  Cl  UNL A   1      39.110  24.455  26.585  1.00  0.00    -0.080 Cl
ATOM     21  O   UNL A   1      35.544  20.098  24.874  1.00  0.00    -0.422 OA
ATOM     22  C   UNL A   1      35.813  22.322  25.829  1.00  0.00     0.023 A 
ATOM     23  C   UNL A   1      34.167  20.215  24.854  1.00  0.00     0.340 A 
ATOM     24  C   UNL A   1      34.345  22.444  25.934  1.00  0.00    -0.029 A 
ATOM     25  O   UNL A   1      33.469  19.323  24.383  1.00  0.00    -0.246 OA
ATOM     26  C   UNL A   1      33.808  23.688  26.593  1.00  0.00     0.046 C 
BRANCH  15  27
ATOM     27  O   UNL A   1      39.950  21.651  25.724  1.00  0.00    -0.488 OA
BRANCH  27  28
ATOM     28  C   UNL A   1      40.247  20.248  25.849  1.00  0.00     0.260 C 
BRANCH  28  29
ATOM     29  C   UNL A   1      41.462  20.046  26.722  1.00  0.00    -0.043 C 
ATOM     30  C   UNL A   1      41.595  20.666  27.908  1.00  0.00     0.011 C 
ATOM     31  C   UNL A   1      42.493  19.080  26.216  1.00  0.00     0.042 C 
ENDBRANCH  28  29
ENDBRANCH  27  28
ENDBRANCH  15  27
ENDBRANCH  13  14
ENDBRANCH  11  13
ENDBRANCH   6  11
ENDBRANCH   1   5
BRANCH   3  32
ATOM     32  C   UNL A   1      31.577  27.797  24.835  1.00  0.00     0.117 C 
BRANCH  32  33
ATOM     33  C   UNL A   1      31.801  29.297  24.813  1.00  0.00     0.042 C 
BRANCH  33  34
ATOM     34  C   UNL A   1      32.814  29.749  25.849  1.00  0.00     0.118 C 
BRANCH  34  35
ATOM     35  N   UNL A   1      32.573  31.110  26.328  1.00  0.00    -0.352 N 
ATOM     36  C   UNL A   1      33.264  31.900  27.224  1.00  0.00     0.251 C 
ATOM     37  H   UNL A   1      31.775  31.539  25.943  1.00  0.00     0.163 HD
ATOM     38  O   UNL A   1      32.796  32.970  27.579  1.00  0.00    -0.269 OA
BRANCH  36  39
ATOM     39  C   UNL A   1      34.553  31.436  27.785  1.00  0.00     0.039 A 
ATOM     40  C   UNL A   1      34.731  30.105  28.146  1.00  0.00     0.014 A 
ATOM     41  C   UNL A   1      35.593  32.352  27.974  1.00  0.00     0.014 A 
ATOM     42  C   UNL A   1      35.825  29.745  28.917  1.00  0.00     0.010 A 
ATOM     43  C   UNL A   1      36.762  31.953  28.630  1.00  0.00     0.010 A 
ATOM     44  C   UNL A   1      36.860  30.661  29.168  1.00  0.00    -0.014 A 
BRANCH  44  45
ATOM     45  C   UNL A   1      38.018  30.227  29.993  1.00  0.00     0.031 A 
ATOM     46  C   UNL A   1      39.139  29.419  29.394  1.00  0.00     0.074 A 
ATOM     47  C   UNL A   1      38.096  30.638  31.274  1.00  0.00     0.049 A 
ATOM     48  N   UNL A   1      40.234  28.979  29.965  1.00  0.00    -0.248 NA
ATOM     49  C   UNL A   1      39.017  29.047  27.976  1.00  0.00     0.031 C 
ATOM     50  C   UNL A   1      37.075  31.430  31.964  1.00  0.00     0.029 A 
ATOM     51  N   UNL A   1      39.088  30.490  32.209  1.00  0.00    -0.354 N 
ATOM     52  C   UNL A   1      40.906  28.250  28.993  1.00  0.00     0.074 A 
ATOM     53  C   UNL A   1      40.092  28.291  27.797  1.00  0.00     0.031 C 
ATOM     54  C   UNL A   1      37.529  31.771  33.177  1.00  0.00     0.029 A 
ATOM     55  C   UNL A   1      38.831  31.150  33.386  1.00  0.00     0.049 A 
ATOM     56  H   UNL A   1      39.904  29.962  32.053  1.00  0.00     0.167 HD
ATOM     57  C   UNL A   1      42.096  27.611  29.090  1.00  0.00     0.037 A 
ATOM     58  C   UNL A   1      39.553  31.235  34.519  1.00  0.00     0.037 A 
ATOM     59  C   UNL A   1      42.924  27.615  30.268  1.00  0.00     0.049 A 
ATOM     60  C   UNL A   1      40.863  30.513  34.603  1.00  0.00     0.074 A 
ATOM     61  C   UNL A   1      44.167  27.032  30.449  1.00  0.00     0.029 A 
ATOM     62  N   UNL A   1      42.597  28.239  31.463  1.00  0.00    -0.354 N 
ATOM     63  N   UNL A   1      41.479  29.816  33.680  1.00  0.00    -0.248 NA
ATOM     64  C   UNL A   1      41.568  30.566  35.890  1.00  0.00     0.031 C 
ATOM     65  C   UNL A   1      44.573  27.269  31.767  1.00  0.00     0.029 A 
ATOM     66  C   UNL A   1      43.603  28.036  32.394  1.00  0.00     0.049 A 
ATOM     67  H   UNL A   1      41.772  28.752  31.625  1.00  0.00     0.167 HD
ATOM     68  C   UNL A   1      42.638  29.340  34.273  1.00  0.00     0.074 A 
ATOM     69  C   UNL A   1      42.655  29.854  35.628  1.00  0.00     0.031 C 
ATOM     70  C   UNL A   1      43.595  28.540  33.743  1.00  0.00     0.037 A 
BRANCH  57  71
ATOM     71  C   UNL A   1      42.573  26.834  27.897  1.00  0.00     0.064 A 
ATOM     72  C   UNL A   1      42.253  25.480  27.719  1.00  0.00     0.173 A 
ATOM     73  C   UNL A   1      43.318  27.470  26.891  1.00  0.00     0.173 A 
ATOM     74  F   UNL A   1      41.555  24.822  28.656  1.00  0.00    -0.203 F 
ATOM     75  C   UNL A   1      42.678  24.787  26.586  1.00  0.00     0.198 A 
ATOM     76  C   UNL A   1      43.719  26.781  25.749  1.00  0.00     0.198 A 
ATOM     77  F   UNL A   1      43.645  28.766  27.010  1.00  0.00    -0.203 F 
ATOM     78  F   UNL A   1      42.391  23.485  26.455  1.00  0.00    -0.200 F 
ATOM     79  C   UNL A   1      43.402  25.440  25.600  1.00  0.00     0.200 A 
ATOM     80  F   UNL A   1      44.408  27.417  24.792  1.00  0.00    -0.200 F 
ATOM     81  F   UNL A   1      43.800  24.774  24.507  1.00  0.00    -0.200 F 
ENDBRANCH  57  71
BRANCH  58  82
ATOM     82  C   UNL A   1      39.026  32.035  35.652  1.00  0.00     0.064 A 
ATOM     83  C   UNL A   1      38.252  31.438  36.656  1.00  0.00     0.173 A 
ATOM     84  C   UNL A   1      39.351  33.392  35.796  1.00  0.00     0.173 A 
ATOM     85  F   UNL A   1      37.902  30.148  36.554  1.00  0.00    -0.203 F 
ATOM     86  C   UNL A   1      37.833  32.168  37.766  1.00  0.00     0.198 A 
ATOM     87  C   UNL A   1      38.954  34.112  36.919  1.00  0.00     0.198 A 
ATOM     88  F   UNL A   1      40.096  34.006  34.864  1.00  0.00    -0.203 F 
ATOM     89  F   UNL A   1      37.083  31.578  38.708  1.00  0.00    -0.200 F 
ATOM     90  C   UNL A   1      38.195  33.500  37.904  1.00  0.00     0.200 A 
ATOM     91  F   UNL A   1      39.326  35.393  37.057  1.00  0.00    -0.200 F 
ATOM     92  F   UNL A   1      37.815  34.192  38.986  1.00  0.00    -0.200 F 
ENDBRANCH  58  82
BRANCH  70  93
ATOM     93  C   UNL A   1      44.737  28.158  34.635  1.00  0.00     0.064 A 
ATOM     94  C   UNL A   1      44.707  26.977  35.389  1.00  0.00     0.173 A 
ATOM     95  C   UNL A   1      45.896  28.948  34.689  1.00  0.00     0.173 A 
ATOM     96  F   UNL A   1      43.614  26.200  35.379  1.00  0.00    -0.203 F 
ATOM     97  C   UNL A   1      45.792  26.606  36.177  1.00  0.00     0.198 A 
ATOM     98  C   UNL A   1      46.988  28.560  35.460  1.00  0.00     0.198 A 
ATOM     99  F   UNL A   1      45.973  30.085  33.980  1.00  0.00    -0.203 F 
ATOM    100  F   UNL A   1      45.730  25.488  36.916  1.00  0.00    -0.200 F 
ATOM    101  C   UNL A   1      46.934  27.392  36.206  1.00  0.00     0.200 A 
ATOM    102  F   UNL A   1      48.095  29.316  35.477  1.00  0.00    -0.200 F 
ATOM    103  F   UNL A   1      47.982  27.026  36.955  1.00  0.00    -0.200 F 
ENDBRANCH  70  93
ENDBRANCH  44  45
ENDBRANCH  36  39
ENDBRANCH  34  35
ENDBRANCH  33  34
ENDBRANCH  32  33
ENDBRANCH   3  32
TORSDOF 16
ENDMDL
MODEL 3
REMARK VINA RESULT:     -12.3      4.341     10.036
REMARK SMILES C=C(C)COc1cc2oc(=O)c(CC(=O)N3CCC[C@H](C(=O)NCCCNC(=O)c4ccc(-c5c6nc(c(-c7c(F)c(F)c(F)c(F)c7F)c7ccc([nH]7)c(-c7c(F)c(F)c(F)c(F)c7F)c7nc(c(-c8c(F)c(F)c(F)c(F)c8F)c8ccc5[nH]8)C=C7)C=C6)cc4)C3)c(C)c2cc1Cl
REMARK SMILES IDX 21 1 22 2 23 3 20 5 16 6 17 7 93 8 18 9 19 10 14 11 15 12
REMARK SMILES IDX 13 13 12 14 6 15 7 16 98 17 8 18 97 19 99 20 9 21 96 22
REMARK SMILES IDX 10 23 94 24 11 25 95 26 5 27 4 28 2 29 1 30 3 31 24 32 25 33
REMARK SMILES IDX 26 34 27 35 28 36 29 38 30 39 31 40 92 41 32 42 91 43 33 44
REMARK SMILES IDX 34 45 35 46 85 47 36 48 90 49 84 50 86 51 37 52 89 53 83 54
REMARK SMILES IDX 82 55 38 57 70 58 50 59 69 60 51 61 54 62 68 63 87 64 52 65
REMARK SMILES IDX 53 66 67 68 88 69 55 70 39 71 40 72 48 73 41 74 42 75 46 76
REMARK SMILES IDX 49 77 43 78 44 79 47 80 45 81 71 82 72 83 80 84 73 85 74 86
REMARK SMILES IDX 78 87 81 88 75 89 76 90 79 91 77 92 56 93 57 94 65 95 58 96
REMARK SMILES IDX 59 97 63 98 66 99 60 100 61 101 64 102 62 103
REMARK H PARENT 23 4 27 37 86 56 54 67
REMARK Flexibility Score: inf
ROOT
ATOM      1  C   UNL A   1      35.484  21.737  25.793  1.00  0.00     0.224 C 
ATOM      2  O   UNL A   1      34.818  22.092  26.774  1.00  0.00    -0.275 OA
ATOM      3  N   UNL A   1      36.827  21.888  25.906  1.00  0.00    -0.356 N 
ATOM      4  H   UNL A   1      37.110  22.397  26.699  1.00  0.00     0.163 HD
ENDROOT
BRANCH   1   5
ATOM      5  C   UNL A   1      34.761  21.162  24.567  1.00  0.00     0.098 C 
ATOM      6  N   UNL A   1      33.230  22.813  23.455  1.00  0.00    -0.342 N 
ATOM      7  C   UNL A   1      32.098  21.882  23.553  1.00  0.00     0.119 C 
ATOM      8  C   UNL A   1      34.536  22.165  23.433  1.00  0.00     0.133 C 
ATOM      9  C   UNL A   1      32.203  20.924  24.738  1.00  0.00     0.022 C 
ATOM     10  C   UNL A   1      33.567  20.258  24.865  1.00  0.00     0.017 C 
BRANCH   6  11
ATOM     11  C   UNL A   1      32.962  24.177  23.426  1.00  0.00     0.227 C 
ATOM     12  O   UNL A   1      33.539  24.892  22.592  1.00  0.00    -0.275 OA
BRANCH  11  13
ATOM     13  C   UNL A   1      32.051  24.903  24.440  1.00  0.00     0.143 C 
BRANCH  13  14
ATOM     14  C   UNL A   1      32.425  26.234  25.033  1.00  0.00     0.051 A 
ATOM     15  C   UNL A   1      32.984  30.738  27.266  1.00  0.00     0.142 A 
ATOM     16  C   UNL A   1      33.692  29.540  27.289  1.00  0.00     0.096 A 
ATOM     17  C   UNL A   1      31.906  30.886  26.389  1.00  0.00     0.083 A 
ATOM     18  C   UNL A   1      33.266  28.482  26.484  1.00  0.00     0.142 A 
ATOM     19  C   UNL A   1      31.478  29.802  25.613  1.00  0.00     0.036 A 
ATOM     20  Cl  UNL A   1      31.072  32.385  26.200  1.00  0.00    -0.080 Cl
ATOM     21  O   UNL A   1      34.041  27.316  26.533  1.00  0.00    -0.422 OA
ATOM     22  C   UNL A   1      32.144  28.570  25.663  1.00  0.00     0.023 A 
ATOM     23  C   UNL A   1      33.717  26.202  25.780  1.00  0.00     0.340 A 
ATOM     24  C   UNL A   1      31.695  27.368  24.932  1.00  0.00    -0.029 A 
ATOM     25  O   UNL A   1      34.431  25.205  25.797  1.00  0.00    -0.246 OA
ATOM     26  C   UNL A   1      30.391  27.469  24.184  1.00  0.00     0.046 C 
BRANCH  15  27
ATOM     27  O   UNL A   1      33.420  31.772  28.051  1.00  0.00    -0.488 OA
BRANCH  27  28
ATOM     28  C   UNL A   1      34.760  32.169  27.710  1.00  0.00     0.260 C 
BRANCH  28  29
ATOM     29  C   UNL A   1      35.468  32.720  28.925  1.00  0.00    -0.043 C 
ATOM     30  C   UNL A   1      36.633  33.383  28.828  1.00  0.00     0.011 C 
ATOM     31  C   UNL A   1      34.776  32.527  30.243  1.00  0.00     0.042 C 
ENDBRANCH  28  29
ENDBRANCH  27  28
ENDBRANCH  15  27
ENDBRANCH  13  14
ENDBRANCH  11  13
ENDBRANCH   6  11
ENDBRANCH   1   5
BRANCH   3  32
ATOM     32  C   UNL A   1      37.919  21.437  25.070  1.00  0.00     0.117 C 
BRANCH  32  33
ATOM     33  C   UNL A   1      39.268  21.466  25.762  1.00  0.00     0.042 C 
BRANCH  33  34
ATOM     34  C   UNL A   1      39.487  20.263  26.661  1.00  0.00     0.118 C 
BRANCH  34  35
ATOM     35  N   UNL A   1      40.532  19.366  26.170  1.00  0.00    -0.352 N 
ATOM     36  C   UNL A   1      41.885  19.557  25.975  1.00  0.00     0.251 C 
ATOM     37  H   UNL A   1      40.214  18.463  25.937  1.00  0.00     0.163 HD
ATOM     38  O   UNL A   1      42.548  18.696  25.421  1.00  0.00    -0.269 OA
BRANCH  36  39
ATOM     39  C   UNL A   1      42.527  20.821  26.403  1.00  0.00     0.039 A 
ATOM     40  C   UNL A   1      42.666  21.124  27.753  1.00  0.00     0.014 A 
ATOM     41  C   UNL A   1      42.977  21.727  25.437  1.00  0.00     0.014 A 
ATOM     42  C   UNL A   1      43.008  22.413  28.134  1.00  0.00     0.010 A 
ATOM     43  C   UNL A   1      43.457  22.981  25.829  1.00  0.00     0.010 A 
ATOM     44  C   UNL A   1      43.413  23.360  27.179  1.00  0.00    -0.014 A 
BRANCH  44  45
ATOM     45  C   UNL A   1      43.778  24.727  27.636  1.00  0.00     0.031 A 
ATOM     46  C   UNL A   1      45.204  25.208  27.580  1.00  0.00     0.074 A 
ATOM     47  C   UNL A   1      42.800  25.567  28.026  1.00  0.00     0.049 A 
ATOM     48  N   UNL A   1      45.692  26.378  27.916  1.00  0.00    -0.248 NA
ATOM     49  C   UNL A   1      46.217  24.258  27.095  1.00  0.00     0.031 C 
ATOM     50  C   UNL A   1      41.381  25.217  28.116  1.00  0.00     0.029 A 
ATOM     51  N   UNL A   1      42.836  26.892  28.376  1.00  0.00    -0.354 N 
ATOM     52  C   UNL A   1      47.064  26.290  27.722  1.00  0.00     0.074 A 
ATOM     53  C   UNL A   1      47.339  24.949  27.253  1.00  0.00     0.031 C 
ATOM     54  C   UNL A   1      40.674  26.317  28.409  1.00  0.00     0.029 A 
ATOM     55  C   UNL A   1      41.595  27.428  28.615  1.00  0.00     0.049 A 
ATOM     56  H   UNL A   1      43.671  27.410  28.448  1.00  0.00     0.167 HD
ATOM     57  C   UNL A   1      48.006  27.244  27.912  1.00  0.00     0.037 A 
ATOM     58  C   UNL A   1      41.231  28.672  28.980  1.00  0.00     0.037 A 
ATOM     59  C   UNL A   1      47.721  28.592  28.333  1.00  0.00     0.049 A 
ATOM     60  C   UNL A   1      42.294  29.708  29.191  1.00  0.00     0.074 A 
ATOM     61  C   UNL A   1      48.604  29.643  28.512  1.00  0.00     0.029 A 
ATOM     62  N   UNL A   1      46.456  29.076  28.630  1.00  0.00    -0.354 N 
ATOM     63  N   UNL A   1      43.589  29.605  29.016  1.00  0.00    -0.248 NA
ATOM     64  C   UNL A   1      41.851  31.022  29.672  1.00  0.00     0.031 C 
ATOM     65  C   UNL A   1      47.878  30.752  28.959  1.00  0.00     0.029 A 
ATOM     66  C   UNL A   1      46.538  30.405  29.016  1.00  0.00     0.049 A 
ATOM     67  H   UNL A   1      45.623  28.553  28.576  1.00  0.00     0.167 HD
ATOM     68  C   UNL A   1      44.119  30.836  29.373  1.00  0.00     0.074 A 
ATOM     69  C   UNL A   1      43.001  31.680  29.744  1.00  0.00     0.031 C 
ATOM     70  C   UNL A   1      45.416  31.224  29.399  1.00  0.00     0.037 A 
BRANCH  57  71
ATOM     71  C   UNL A   1      49.442  26.866  27.688  1.00  0.00     0.064 A 
ATOM     72  C   UNL A   1      50.296  26.535  28.750  1.00  0.00     0.173 A 
ATOM     73  C   UNL A   1      49.955  26.783  26.383  1.00  0.00     0.173 A 
ATOM     74  F   UNL A   1      49.859  26.609  30.016  1.00  0.00    -0.203 F 
ATOM     75  C   UNL A   1      51.615  26.153  28.515  1.00  0.00     0.198 A 
ATOM     76  C   UNL A   1      51.266  26.378  26.151  1.00  0.00     0.198 A 
ATOM     77  F   UNL A   1      49.178  27.084  25.332  1.00  0.00    -0.203 F 
ATOM     78  F   UNL A   1      52.423  25.876  29.547  1.00  0.00    -0.200 F 
ATOM     79  C   UNL A   1      52.097  26.067  27.217  1.00  0.00     0.200 A 
ATOM     80  F   UNL A   1      51.725  26.283  24.895  1.00  0.00    -0.200 F 
ATOM     81  F   UNL A   1      53.363  25.689  26.994  1.00  0.00    -0.200 F 
ENDBRANCH  57  71
BRANCH  58  82
ATOM     82  C   UNL A   1      39.792  28.978  29.168  1.00  0.00     0.064 A 
ATOM     83  C   UNL A   1      38.991  29.363  28.086  1.00  0.00     0.173 A 
ATOM     84  C   UNL A   1      39.173  28.817  30.417  1.00  0.00     0.173 A 
ATOM     85  F   UNL A   1      39.541  29.547  26.877  1.00  0.00    -0.203 F 
ATOM     86  C   UNL A   1      37.621  29.564  28.244  1.00  0.00     0.198 A 
ATOM     87  C   UNL A   1      37.800  28.992  30.567  1.00  0.00     0.198 A 
ATOM     88  F   UNL A   1      39.897  28.442  31.482  1.00  0.00    -0.203 F 
ATOM     89  F   UNL A   1      36.877  29.944  27.196  1.00  0.00    -0.200 F 
ATOM     90  C   UNL A   1      37.025  29.366  29.480  1.00  0.00     0.200 A 
ATOM     91  F   UNL A   1      37.225  28.776  31.758  1.00  0.00    -0.200 F 
ATOM     92  F   UNL A   1      35.703  29.531  29.624  1.00  0.00    -0.200 F 
ENDBRANCH  58  82
BRANCH  70  93
ATOM     93  C   UNL A   1      45.702  32.622  29.859  1.00  0.00     0.064 A 
ATOM     94  C   UNL A   1      45.688  33.699  28.960  1.00  0.00     0.173 A 
ATOM     95  C   UNL A   1      45.931  32.895  31.216  1.00  0.00     0.173 A 
ATOM     96  F   UNL A   1      45.489  33.482  27.652  1.00  0.00    -0.203 F 
ATOM     97  C   UNL A   1      45.907  35.000  29.403  1.00  0.00     0.198 A 
ATOM     98  C   UNL A   1      46.125  34.200  31.657  1.00  0.00     0.198 A 
ATOM     99  F   UNL A   1      45.948  31.897  32.113  1.00  0.00    -0.203 F 
ATOM    100  F   UNL A   1      45.921  36.011  28.524  1.00  0.00    -0.200 F 
ATOM    101  C   UNL A   1      46.116  35.251  30.752  1.00  0.00     0.200 A 
ATOM    102  F   UNL A   1      46.316  34.442  32.962  1.00  0.00    -0.200 F 
ATOM    103  F   UNL A   1      46.314  36.505  31.178  1.00  0.00    -0.200 F 
ENDBRANCH  70  93
ENDBRANCH  44  45
ENDBRANCH  36  39
ENDBRANCH  34  35
ENDBRANCH  33  34
ENDBRANCH  32  33
ENDBRANCH   3  32
TORSDOF 16
ENDMDL
