MODEL 1
REMARK VINA RESULT:     -13.3      0.000      0.000
REMARK SMILES O=C(NCCCNC(=O)[C@H]1CS[C@]2(c3ccccc3)CCC(=O)N12)c1ccc(-c2c3nc(c(-c4c(F)c(F)c(F)c(F)c4F)c4ccc([nH]4)c(-c4c(F)c(F)c(F)c(F)c4F)c4nc(c(-c5c(F)c(F)c(F)c(F)c5F)c5ccc2[nH]5)C=C4)C=C3)cc1
REMARK SMILES IDX 4 1 3 2 1 3 2 4 25 6 26 7 87 8 27 9 86 10 28 11 29 12 30 13
REMARK SMILES IDX 80 14 31 15 85 16 79 17 81 18 32 19 84 20 78 21 77 22 33 24
REMARK SMILES IDX 65 25 45 26 64 27 46 28 49 29 63 30 82 31 47 32 48 33 62 35
REMARK SMILES IDX 83 36 50 37 34 38 35 39 43 40 36 41 37 42 41 43 44 44 38 45
REMARK SMILES IDX 39 46 42 47 40 48 66 49 67 50 75 51 68 52 69 53 73 54 76 55
REMARK SMILES IDX 70 56 71 57 74 58 72 59 51 60 52 61 60 62 53 63 54 64 58 65
REMARK SMILES IDX 61 66 55 67 56 68 59 69 57 70 5 71 6 72 7 73 8 74 9 76 10 77
REMARK SMILES IDX 11 78 24 79 12 80 13 81 22 82 20 83 21 84 23 85 14 86 15 87
REMARK SMILES IDX 19 88 16 89 18 90 17 91
REMARK H PARENT 3 5 81 23 49 34 7 75
REMARK Flexibility Score: inf
ROOT
ATOM      1  C   UNL A   1      32.624  32.827  27.365  1.00  0.00     0.118 C 
ENDROOT
BRANCH   1   2
ATOM      2  N   UNL A   1      32.425  34.246  27.676  1.00  0.00    -0.352 N 
ATOM      3  O   UNL A   1      32.528  36.146  28.885  1.00  0.00    -0.269 OA
ATOM      4  C   UNL A   1      32.999  35.040  28.642  1.00  0.00     0.251 C 
ATOM      5  H   UNL A   1      31.775  34.706  27.098  1.00  0.00     0.163 HD
BRANCH   4   6
ATOM      6  C   UNL A   1      34.161  34.543  29.402  1.00  0.00     0.039 A 
ATOM      7  C   UNL A   1      35.441  34.658  28.867  1.00  0.00     0.014 A 
ATOM      8  C   UNL A   1      33.977  33.935  30.647  1.00  0.00     0.014 A 
ATOM      9  C   UNL A   1      36.484  33.949  29.433  1.00  0.00     0.010 A 
ATOM     10  C   UNL A   1      35.069  33.356  31.301  1.00  0.00     0.010 A 
ATOM     11  C   UNL A   1      36.320  33.306  30.670  1.00  0.00    -0.014 A 
BRANCH  11  12
ATOM     12  C   UNL A   1      37.495  32.628  31.276  1.00  0.00     0.031 A 
ATOM     13  C   UNL A   1      37.942  32.949  32.674  1.00  0.00     0.074 A 
ATOM     14  C   UNL A   1      38.116  31.666  30.566  1.00  0.00     0.049 A 
ATOM     15  N   UNL A   1      38.924  32.423  33.366  1.00  0.00    -0.248 NA
ATOM     16  C   UNL A   1      37.208  34.002  33.392  1.00  0.00     0.031 C 
ATOM     17  C   UNL A   1      37.767  31.271  29.198  1.00  0.00     0.029 A 
ATOM     18  N   UNL A   1      39.139  30.818  30.901  1.00  0.00    -0.354 N 
ATOM     19  C   UNL A   1      38.947  33.104  34.576  1.00  0.00     0.074 A 
ATOM     20  C   UNL A   1      37.896  34.096  34.520  1.00  0.00     0.031 C 
ATOM     21  C   UNL A   1      38.504  30.211  28.842  1.00  0.00     0.029 A 
ATOM     22  C   UNL A   1      39.438  29.908  29.918  1.00  0.00     0.049 A 
ATOM     23  H   UNL A   1      39.613  30.859  31.764  1.00  0.00     0.167 HD
ATOM     24  C   UNL A   1      39.770  32.912  35.636  1.00  0.00     0.037 A 
ATOM     25  C   UNL A   1      40.374  28.945  29.877  1.00  0.00     0.037 A 
ATOM     26  C   UNL A   1      40.793  31.898  35.692  1.00  0.00     0.049 A 
ATOM     27  C   UNL A   1      41.277  28.765  31.062  1.00  0.00     0.074 A 
ATOM     28  C   UNL A   1      41.652  31.595  36.733  1.00  0.00     0.029 A 
ATOM     29  N   UNL A   1      41.092  31.019  34.660  1.00  0.00    -0.354 N 
ATOM     30  N   UNL A   1      41.275  29.402  32.207  1.00  0.00    -0.248 NA
ATOM     31  C   UNL A   1      42.316  27.735  30.944  1.00  0.00     0.031 C 
ATOM     32  C   UNL A   1      42.507  30.570  36.313  1.00  0.00     0.029 A 
ATOM     33  C   UNL A   1      42.140  30.190  35.033  1.00  0.00     0.049 A 
ATOM     34  H   UNL A   1      40.630  30.989  33.792  1.00  0.00     0.167 HD
ATOM     35  C   UNL A   1      42.291  28.833  32.959  1.00  0.00     0.074 A 
ATOM     36  C   UNL A   1      42.877  27.787  32.144  1.00  0.00     0.031 C 
ATOM     37  C   UNL A   1      42.703  29.147  34.212  1.00  0.00     0.037 A 
BRANCH  24  38
ATOM     38  C   UNL A   1      39.625  33.840  36.810  1.00  0.00     0.064 A 
ATOM     39  C   UNL A   1      40.250  35.095  36.851  1.00  0.00     0.173 A 
ATOM     40  C   UNL A   1      38.814  33.478  37.899  1.00  0.00     0.173 A 
ATOM     41  F   UNL A   1      41.044  35.487  35.844  1.00  0.00    -0.203 F 
ATOM     42  C   UNL A   1      40.094  35.939  37.949  1.00  0.00     0.198 A 
ATOM     43  C   UNL A   1      38.637  34.337  38.980  1.00  0.00     0.198 A 
ATOM     44  F   UNL A   1      38.188  32.293  37.910  1.00  0.00    -0.203 F 
ATOM     45  F   UNL A   1      40.743  37.111  37.989  1.00  0.00    -0.200 F 
ATOM     46  C   UNL A   1      39.283  35.562  39.009  1.00  0.00     0.200 A 
ATOM     47  F   UNL A   1      37.840  33.976  39.997  1.00  0.00    -0.200 F 
ATOM     48  F   UNL A   1      39.131  36.377  40.062  1.00  0.00    -0.200 F 
ENDBRANCH  24  38
BRANCH  25  49
ATOM     49  C   UNL A   1      40.495  28.082  28.674  1.00  0.00     0.064 A 
ATOM     50  C   UNL A   1      39.818  26.857  28.595  1.00  0.00     0.173 A 
ATOM     51  C   UNL A   1      41.275  28.469  27.574  1.00  0.00     0.173 A 
ATOM     52  F   UNL A   1      39.071  26.437  29.627  1.00  0.00    -0.203 F 
ATOM     53  C   UNL A   1      39.931  26.046  27.469  1.00  0.00     0.198 A 
ATOM     54  C   UNL A   1      41.360  27.672  26.435  1.00  0.00     0.198 A 
ATOM     55  F   UNL A   1      41.935  29.636  27.595  1.00  0.00    -0.203 F 
ATOM     56  F   UNL A   1      39.307  24.859  27.436  1.00  0.00    -0.200 F 
ATOM     57  C   UNL A   1      40.695  26.457  26.388  1.00  0.00     0.200 A 
ATOM     58  F   UNL A   1      42.082  28.084  25.385  1.00  0.00    -0.200 F 
ATOM     59  F   UNL A   1      40.796  25.679  25.300  1.00  0.00    -0.200 F 
ENDBRANCH  25  49
BRANCH  37  60
ATOM     60  C   UNL A   1      43.804  28.310  34.795  1.00  0.00     0.064 A 
ATOM     61  C   UNL A   1      45.154  28.666  34.662  1.00  0.00     0.173 A 
ATOM     62  C   UNL A   1      43.499  27.140  35.507  1.00  0.00     0.173 A 
ATOM     63  F   UNL A   1      45.499  29.765  33.975  1.00  0.00    -0.203 F 
ATOM     64  C   UNL A   1      46.160  27.861  35.190  1.00  0.00     0.198 A 
ATOM     65  C   UNL A   1      44.505  26.357  36.063  1.00  0.00     0.198 A 
ATOM     66  F   UNL A   1      42.222  26.759  35.668  1.00  0.00    -0.203 F 
ATOM     67  F   UNL A   1      47.445  28.187  34.998  1.00  0.00    -0.200 F 
ATOM     68  C   UNL A   1      45.835  26.712  35.895  1.00  0.00     0.200 A 
ATOM     69  F   UNL A   1      44.188  25.254  36.755  1.00  0.00    -0.200 F 
ATOM     70  F   UNL A   1      46.804  25.939  36.403  1.00  0.00    -0.200 F 
ENDBRANCH  37  60
ENDBRANCH  11  12
ENDBRANCH   4   6
ENDBRANCH   1   2
BRANCH   1  71
ATOM     71  C   UNL A   1      31.418  32.227  26.672  1.00  0.00     0.042 C 
BRANCH  71  72
ATOM     72  C   UNL A   1      31.550  30.724  26.565  1.00  0.00     0.117 C 
BRANCH  72  73
ATOM     73  N   UNL A   1      32.909  30.257  26.817  1.00  0.00    -0.354 N 
ATOM     74  C   UNL A   1      33.556  29.200  26.206  1.00  0.00     0.243 C 
ATOM     75  H   UNL A   1      33.423  30.751  27.497  1.00  0.00     0.163 HD
ATOM     76  O   UNL A   1      34.741  28.990  26.447  1.00  0.00    -0.273 OA
BRANCH  74  77
ATOM     77  C   UNL A   1      32.736  28.420  25.174  1.00  0.00     0.186 C 
ATOM     78  C   UNL A   1      33.096  28.854  23.760  1.00  0.00     0.107 C 
ATOM     79  N   UNL A   1      32.571  26.979  25.276  1.00  0.00    -0.311 N 
ATOM     80  S   UNL A   1      33.430  27.378  22.797  1.00  0.00    -0.126 SA
ATOM     81  C   UNL A   1      32.819  26.207  24.069  1.00  0.00     0.115 C 
ATOM     82  C   UNL A   1      31.334  26.636  25.845  1.00  0.00     0.224 C 
ATOM     83  C   UNL A   1      31.416  25.672  23.689  1.00  0.00     0.055 C 
ATOM     84  C   UNL A   1      30.447  26.271  24.690  1.00  0.00     0.104 C 
ATOM     85  O   UNL A   1      30.935  26.953  26.952  1.00  0.00    -0.275 OA
BRANCH  81  86
ATOM     86  C   UNL A   1      33.871  25.109  24.246  1.00  0.00    -0.012 A 
ATOM     87  C   UNL A   1      34.661  25.034  25.409  1.00  0.00     0.007 A 
ATOM     88  C   UNL A   1      34.168  24.201  23.207  1.00  0.00     0.007 A 
ATOM     89  C   UNL A   1      35.691  24.091  25.525  1.00  0.00     0.000 A 
ATOM     90  C   UNL A   1      35.174  23.242  23.335  1.00  0.00     0.000 A 
ATOM     91  C   UNL A   1      35.942  23.192  24.492  1.00  0.00     0.000 A 
ENDBRANCH  81  86
ENDBRANCH  74  77
ENDBRANCH  72  73
ENDBRANCH  71  72
ENDBRANCH   1  71
TORSDOF 11
ENDMDL
MODEL 2
REMARK VINA RESULT:     -13.2      0.122      1.145
REMARK SMILES O=C(NCCCNC(=O)[C@H]1CS[C@]2(c3ccccc3)CCC(=O)N12)c1ccc(-c2c3nc(c(-c4c(F)c(F)c(F)c(F)c4F)c4ccc([nH]4)c(-c4c(F)c(F)c(F)c(F)c4F)c4nc(c(-c5c(F)c(F)c(F)c(F)c5F)c5ccc2[nH]5)C=C4)C=C3)cc1
REMARK SMILES IDX 4 1 3 2 1 3 2 4 25 6 26 7 87 8 27 9 86 10 28 11 29 12 30 13
REMARK SMILES IDX 80 14 31 15 85 16 79 17 81 18 32 19 84 20 78 21 77 22 33 24
REMARK SMILES IDX 65 25 45 26 64 27 46 28 49 29 63 30 82 31 47 32 48 33 62 35
REMARK SMILES IDX 83 36 50 37 34 38 35 39 43 40 36 41 37 42 41 43 44 44 38 45
REMARK SMILES IDX 39 46 42 47 40 48 66 49 67 50 75 51 68 52 69 53 73 54 76 55
REMARK SMILES IDX 70 56 71 57 74 58 72 59 51 60 52 61 60 62 53 63 54 64 58 65
REMARK SMILES IDX 61 66 55 67 56 68 59 69 57 70 5 71 6 72 7 73 8 74 9 76 10 77
REMARK SMILES IDX 11 78 24 79 12 80 13 81 22 82 20 83 21 84 23 85 14 86 15 87
REMARK SMILES IDX 19 88 16 89 18 90 17 91
REMARK H PARENT 3 5 81 23 49 34 7 75
REMARK Flexibility Score: inf
ROOT
ATOM      1  C   UNL A   1      32.679  32.797  27.276  1.00  0.00     0.118 C 
ENDROOT
BRANCH   1   2
ATOM      2  N   UNL A   1      32.460  34.203  27.626  1.00  0.00    -0.352 N 
ATOM      3  O   UNL A   1      32.528  36.069  28.889  1.00  0.00    -0.269 OA
ATOM      4  C   UNL A   1      33.015  34.976  28.619  1.00  0.00     0.251 C 
ATOM      5  H   UNL A   1      31.810  34.672  27.054  1.00  0.00     0.163 HD
BRANCH   4   6
ATOM      6  C   UNL A   1      34.175  34.471  29.377  1.00  0.00     0.039 A 
ATOM      7  C   UNL A   1      35.457  34.596  28.848  1.00  0.00     0.014 A 
ATOM      8  C   UNL A   1      33.988  33.847  30.613  1.00  0.00     0.014 A 
ATOM      9  C   UNL A   1      36.500  33.882  29.408  1.00  0.00     0.010 A 
ATOM     10  C   UNL A   1      35.079  33.261  31.263  1.00  0.00     0.010 A 
ATOM     11  C   UNL A   1      36.333  33.222  30.636  1.00  0.00    -0.014 A 
BRANCH  11  12
ATOM     12  C   UNL A   1      37.506  32.538  31.236  1.00  0.00     0.031 A 
ATOM     13  C   UNL A   1      37.951  32.844  32.639  1.00  0.00     0.074 A 
ATOM     14  C   UNL A   1      38.130  31.584  30.518  1.00  0.00     0.049 A 
ATOM     15  N   UNL A   1      38.932  32.311  33.327  1.00  0.00    -0.248 NA
ATOM     16  C   UNL A   1      37.215  33.889  33.366  1.00  0.00     0.031 C 
ATOM     17  C   UNL A   1      37.783  31.203  29.145  1.00  0.00     0.029 A 
ATOM     18  N   UNL A   1      39.152  30.733  30.846  1.00  0.00    -0.354 N 
ATOM     19  C   UNL A   1      38.952  32.980  34.544  1.00  0.00     0.074 A 
ATOM     20  C   UNL A   1      37.901  33.972  34.497  1.00  0.00     0.031 C 
ATOM     21  C   UNL A   1      38.521  30.147  28.779  1.00  0.00     0.029 A 
ATOM     22  C   UNL A   1      39.454  29.834  29.854  1.00  0.00     0.049 A 
ATOM     23  H   UNL A   1      39.625  30.765  31.709  1.00  0.00     0.167 HD
ATOM     24  C   UNL A   1      39.773  32.777  35.604  1.00  0.00     0.037 A 
ATOM     25  C   UNL A   1      40.390  28.871  29.805  1.00  0.00     0.037 A 
ATOM     26  C   UNL A   1      40.796  31.763  35.651  1.00  0.00     0.049 A 
ATOM     27  C   UNL A   1      41.291  28.679  30.989  1.00  0.00     0.074 A 
ATOM     28  C   UNL A   1      41.654  31.449  36.691  1.00  0.00     0.029 A 
ATOM     29  N   UNL A   1      41.098  30.895  34.610  1.00  0.00    -0.354 N 
ATOM     30  N   UNL A   1      41.286  29.304  32.140  1.00  0.00    -0.248 NA
ATOM     31  C   UNL A   1      42.331  27.652  30.862  1.00  0.00     0.031 C 
ATOM     32  C   UNL A   1      42.510  30.430  36.261  1.00  0.00     0.029 A 
ATOM     33  C   UNL A   1      42.146  30.063  34.976  1.00  0.00     0.049 A 
ATOM     34  H   UNL A   1      40.638  30.874  33.741  1.00  0.00     0.167 HD
ATOM     35  C   UNL A   1      42.302  28.727  32.889  1.00  0.00     0.074 A 
ATOM     36  C   UNL A   1      42.889  27.691  32.063  1.00  0.00     0.031 C 
ATOM     37  C   UNL A   1      42.711  29.028  34.146  1.00  0.00     0.037 A 
BRANCH  24  38
ATOM     38  C   UNL A   1      39.626  33.692  36.788  1.00  0.00     0.064 A 
ATOM     39  C   UNL A   1      40.279  34.932  36.859  1.00  0.00     0.173 A 
ATOM     40  C   UNL A   1      38.784  33.335  37.854  1.00  0.00     0.173 A 
ATOM     41  F   UNL A   1      41.102  35.318  35.873  1.00  0.00    -0.203 F 
ATOM     42  C   UNL A   1      40.120  35.764  37.965  1.00  0.00     0.198 A 
ATOM     43  C   UNL A   1      38.604  34.183  38.943  1.00  0.00     0.198 A 
ATOM     44  F   UNL A   1      38.130  32.165  37.836  1.00  0.00    -0.203 F 
ATOM     45  F   UNL A   1      40.794  36.920  38.034  1.00  0.00    -0.200 F 
ATOM     46  C   UNL A   1      39.278  35.393  39.002  1.00  0.00     0.200 A 
ATOM     47  F   UNL A   1      37.779  33.828  39.939  1.00  0.00    -0.200 F 
ATOM     48  F   UNL A   1      39.123  36.197  40.063  1.00  0.00    -0.200 F 
ENDBRANCH  24  38
BRANCH  25  49
ATOM     49  C   UNL A   1      40.514  28.022  28.593  1.00  0.00     0.064 A 
ATOM     50  C   UNL A   1      41.296  28.431  27.503  1.00  0.00     0.173 A 
ATOM     51  C   UNL A   1      39.870  26.778  28.504  1.00  0.00     0.173 A 
ATOM     52  F   UNL A   1      41.919  29.618  27.535  1.00  0.00    -0.203 F 
ATOM     53  C   UNL A   1      41.412  27.637  26.364  1.00  0.00     0.198 A 
ATOM     54  C   UNL A   1      40.015  25.971  27.378  1.00  0.00     0.198 A 
ATOM     55  F   UNL A   1      39.120  26.336  29.523  1.00  0.00    -0.203 F 
ATOM     56  F   UNL A   1      42.130  28.071  25.319  1.00  0.00    -0.200 F 
ATOM     57  C   UNL A   1      40.778  26.405  26.307  1.00  0.00     0.200 A 
ATOM     58  F   UNL A   1      39.419  24.772  27.336  1.00  0.00    -0.200 F 
ATOM     59  F   UNL A   1      40.899  25.637  25.214  1.00  0.00    -0.200 F 
ENDBRANCH  25  49
BRANCH  37  60
ATOM     60  C   UNL A   1      43.811  28.187  34.722  1.00  0.00     0.064 A 
ATOM     61  C   UNL A   1      45.160  28.552  34.608  1.00  0.00     0.173 A 
ATOM     62  C   UNL A   1      43.506  27.001  35.407  1.00  0.00     0.173 A 
ATOM     63  F   UNL A   1      45.505  29.667  33.946  1.00  0.00    -0.203 F 
ATOM     64  C   UNL A   1      46.166  27.743  35.129  1.00  0.00     0.198 A 
ATOM     65  C   UNL A   1      44.512  26.212  35.957  1.00  0.00     0.198 A 
ATOM     66  F   UNL A   1      42.230  26.610  35.549  1.00  0.00    -0.203 F 
ATOM     67  F   UNL A   1      47.451  28.079  34.955  1.00  0.00    -0.200 F 
ATOM     68  C   UNL A   1      45.841  26.578  35.808  1.00  0.00     0.200 A 
ATOM     69  F   UNL A   1      44.194  25.094  36.624  1.00  0.00    -0.200 F 
ATOM     70  F   UNL A   1      46.810  25.800  36.309  1.00  0.00    -0.200 F 
ENDBRANCH  37  60
ENDBRANCH  11  12
ENDBRANCH   4   6
ENDBRANCH   1   2
BRANCH   1  71
ATOM     71  C   UNL A   1      31.465  32.186  26.607  1.00  0.00     0.042 C 
BRANCH  71  72
ATOM     72  C   UNL A   1      31.579  30.679  26.556  1.00  0.00     0.117 C 
BRANCH  72  73
ATOM     73  N   UNL A   1      32.931  30.204  26.829  1.00  0.00    -0.354 N 
ATOM     74  C   UNL A   1      33.588  29.153  26.217  1.00  0.00     0.243 C 
ATOM     75  H   UNL A   1      33.432  30.687  27.526  1.00  0.00     0.163 HD
ATOM     76  O   UNL A   1      34.767  28.937  26.480  1.00  0.00    -0.273 OA
BRANCH  74  77
ATOM     77  C   UNL A   1      32.788  28.390  25.158  1.00  0.00     0.186 C 
ATOM     78  C   UNL A   1      33.189  28.832  23.757  1.00  0.00     0.107 C 
ATOM     79  N   UNL A   1      32.605  26.950  25.244  1.00  0.00    -0.311 N 
ATOM     80  S   UNL A   1      33.532  27.360  22.792  1.00  0.00    -0.126 SA
ATOM     81  C   UNL A   1      32.876  26.186  24.038  1.00  0.00     0.115 C 
ATOM     82  C   UNL A   1      31.351  26.616  25.778  1.00  0.00     0.224 C 
ATOM     83  C   UNL A   1      31.478  25.668  23.617  1.00  0.00     0.055 C 
ATOM     84  C   UNL A   1      30.490  26.269  24.597  1.00  0.00     0.104 C 
ATOM     85  O   UNL A   1      30.926  26.929  26.876  1.00  0.00    -0.275 OA
BRANCH  81  86
ATOM     86  C   UNL A   1      33.913  25.075  24.233  1.00  0.00    -0.012 A 
ATOM     87  C   UNL A   1      34.734  25.035  25.376  1.00  0.00     0.007 A 
ATOM     88  C   UNL A   1      34.162  24.117  23.228  1.00  0.00     0.007 A 
ATOM     89  C   UNL A   1      35.750  24.078  25.504  1.00  0.00     0.000 A 
ATOM     90  C   UNL A   1      35.153  23.144  23.370  1.00  0.00     0.000 A 
ATOM     91  C   UNL A   1      35.953  23.130  24.505  1.00  0.00     0.000 A 
ENDBRANCH  81  86
ENDBRANCH  74  77
ENDBRANCH  72  73
ENDBRANCH  71  72
ENDBRANCH   1  71
TORSDOF 11
ENDMDL
MODEL 3
REMARK VINA RESULT:     -13.1      2.208      3.305
REMARK SMILES O=C(NCCCNC(=O)[C@H]1CS[C@]2(c3ccccc3)CCC(=O)N12)c1ccc(-c2c3nc(c(-c4c(F)c(F)c(F)c(F)c4F)c4ccc([nH]4)c(-c4c(F)c(F)c(F)c(F)c4F)c4nc(c(-c5c(F)c(F)c(F)c(F)c5F)c5ccc2[nH]5)C=C4)C=C3)cc1
REMARK SMILES IDX 4 1 3 2 1 3 2 4 25 6 26 7 87 8 27 9 86 10 28 11 29 12 30 13
REMARK SMILES IDX 80 14 31 15 85 16 79 17 81 18 32 19 84 20 78 21 77 22 33 24
REMARK SMILES IDX 65 25 45 26 64 27 46 28 49 29 63 30 82 31 47 32 48 33 62 35
REMARK SMILES IDX 83 36 50 37 34 38 35 39 43 40 36 41 37 42 41 43 44 44 38 45
REMARK SMILES IDX 39 46 42 47 40 48 66 49 67 50 75 51 68 52 69 53 73 54 76 55
REMARK SMILES IDX 70 56 71 57 74 58 72 59 51 60 52 61 60 62 53 63 54 64 58 65
REMARK SMILES IDX 61 66 55 67 56 68 59 69 57 70 5 71 6 72 7 73 8 74 9 76 10 77
REMARK SMILES IDX 11 78 24 79 12 80 13 81 22 82 20 83 21 84 23 85 14 86 15 87
REMARK SMILES IDX 19 88 16 89 18 90 17 91
REMARK H PARENT 3 5 81 23 49 34 7 75
REMARK Flexibility Score: inf
ROOT
ATOM      1  C   UNL A   1      32.834  29.511  26.112  1.00  0.00     0.118 C 
ENDROOT
BRANCH   1   2
ATOM      2  N   UNL A   1      32.611  30.924  26.432  1.00  0.00    -0.352 N 
ATOM      3  O   UNL A   1      32.811  32.856  27.577  1.00  0.00    -0.269 OA
ATOM      4  C   UNL A   1      33.295  31.771  27.273  1.00  0.00     0.251 C 
ATOM      5  H   UNL A   1      31.846  31.335  25.968  1.00  0.00     0.163 HD
BRANCH   4   6
ATOM      6  C   UNL A   1      34.597  31.355  27.829  1.00  0.00     0.039 A 
ATOM      7  C   UNL A   1      34.799  30.030  28.207  1.00  0.00     0.014 A 
ATOM      8  C   UNL A   1      35.619  32.293  28.000  1.00  0.00     0.014 A 
ATOM      9  C   UNL A   1      35.895  29.701  28.981  1.00  0.00     0.010 A 
ATOM     10  C   UNL A   1      36.802  31.916  28.643  1.00  0.00     0.010 A 
ATOM     11  C   UNL A   1      36.924  30.632  29.192  1.00  0.00    -0.014 A 
BRANCH  11  12
ATOM     12  C   UNL A   1      38.120  30.202  29.961  1.00  0.00     0.031 A 
ATOM     13  C   UNL A   1      38.303  30.595  31.400  1.00  0.00     0.074 A 
ATOM     14  C   UNL A   1      39.012  29.391  29.359  1.00  0.00     0.049 A 
ATOM     15  N   UNL A   1      39.269  30.274  32.226  1.00  0.00    -0.248 NA
ATOM     16  C   UNL A   1      37.282  31.472  31.994  1.00  0.00     0.031 C 
ATOM     17  C   UNL A   1      38.935  28.944  27.965  1.00  0.00     0.029 A 
ATOM     18  N   UNL A   1      40.131  28.765  29.843  1.00  0.00    -0.354 N 
ATOM     19  C   UNL A   1      38.993  30.936  33.415  1.00  0.00     0.074 A 
ATOM     20  C   UNL A   1      37.780  31.695  33.201  1.00  0.00     0.031 C 
ATOM     21  C   UNL A   1      39.912  28.058  27.731  1.00  0.00     0.029 A 
ATOM     22  C   UNL A   1      40.736  27.943  28.927  1.00  0.00     0.049 A 
ATOM     23  H   UNL A   1      40.468  28.895  30.760  1.00  0.00     0.167 HD
ATOM     24  C   UNL A   1      39.689  30.907  34.578  1.00  0.00     0.037 A 
ATOM     25  C   UNL A   1      41.844  27.189  29.028  1.00  0.00     0.037 A 
ATOM     26  C   UNL A   1      40.878  30.121  34.788  1.00  0.00     0.049 A 
ATOM     27  C   UNL A   1      42.598  27.187  30.325  1.00  0.00     0.074 A 
ATOM     28  C   UNL A   1      41.634  29.990  35.940  1.00  0.00     0.029 A 
ATOM     29  N   UNL A   1      41.484  29.329  33.822  1.00  0.00    -0.354 N 
ATOM     30  N   UNL A   1      42.315  27.801  31.447  1.00  0.00    -0.248 NA
ATOM     31  C   UNL A   1      43.830  26.391  30.366  1.00  0.00     0.031 C 
ATOM     32  C   UNL A   1      42.726  29.164  35.657  1.00  0.00     0.029 A 
ATOM     33  C   UNL A   1      42.618  28.727  34.347  1.00  0.00     0.049 A 
ATOM     34  H   UNL A   1      41.157  29.212  32.902  1.00  0.00     0.167 HD
ATOM     35  C   UNL A   1      43.316  27.444  32.338  1.00  0.00     0.074 A 
ATOM     36  C   UNL A   1      44.204  26.546  31.628  1.00  0.00     0.031 C 
ATOM     37  C   UNL A   1      43.484  27.826  33.628  1.00  0.00     0.037 A 
BRANCH  24  38
ATOM     38  C   UNL A   1      39.204  31.777  35.704  1.00  0.00     0.064 A 
ATOM     39  C   UNL A   1      38.288  31.316  36.662  1.00  0.00     0.173 A 
ATOM     40  C   UNL A   1      39.694  33.086  35.846  1.00  0.00     0.173 A 
ATOM     41  F   UNL A   1      37.779  30.079  36.569  1.00  0.00    -0.203 F 
ATOM     42  C   UNL A   1      37.860  32.141  37.700  1.00  0.00     0.198 A 
ATOM     43  C   UNL A   1      39.286  33.896  36.903  1.00  0.00     0.198 A 
ATOM     44  F   UNL A   1      40.576  33.576  34.963  1.00  0.00    -0.203 F 
ATOM     45  F   UNL A   1      36.945  31.696  38.574  1.00  0.00    -0.200 F 
ATOM     46  C   UNL A   1      38.364  33.427  37.824  1.00  0.00     0.200 A 
ATOM     47  F   UNL A   1      39.786  35.134  37.027  1.00  0.00    -0.200 F 
ATOM     48  F   UNL A   1      37.954  34.216  38.826  1.00  0.00    -0.200 F 
ENDBRANCH  24  38
BRANCH  25  49
ATOM     49  C   UNL A   1      42.296  26.379  27.869  1.00  0.00     0.064 A 
ATOM     50  C   UNL A   1      41.764  25.104  27.630  1.00  0.00     0.173 A 
ATOM     51  C   UNL A   1      43.256  26.865  26.967  1.00  0.00     0.173 A 
ATOM     52  F   UNL A   1      40.855  24.589  28.472  1.00  0.00    -0.203 F 
ATOM     53  C   UNL A   1      42.188  24.340  26.545  1.00  0.00     0.198 A 
ATOM     54  C   UNL A   1      43.653  26.114  25.864  1.00  0.00     0.198 A 
ATOM     55  F   UNL A   1      43.788  28.083  27.145  1.00  0.00    -0.203 F 
ATOM     56  F   UNL A   1      41.695  23.107  26.364  1.00  0.00    -0.200 F 
ATOM     57  C   UNL A   1      43.125  24.849  25.659  1.00  0.00     0.200 A 
ATOM     58  F   UNL A   1      44.542  26.619  24.999  1.00  0.00    -0.200 F 
ATOM     59  F   UNL A   1      43.525  24.118  24.610  1.00  0.00    -0.200 F 
ENDBRANCH  25  49
BRANCH  37  60
ATOM     60  C   UNL A   1      44.643  27.226  34.368  1.00  0.00     0.064 A 
ATOM     61  C   UNL A   1      45.896  27.855  34.419  1.00  0.00     0.173 A 
ATOM     62  C   UNL A   1      44.492  26.006  35.045  1.00  0.00     0.173 A 
ATOM     63  F   UNL A   1      46.097  29.013  33.772  1.00  0.00    -0.203 F 
ATOM     64  C   UNL A   1      46.964  27.267  35.090  1.00  0.00     0.198 A 
ATOM     65  C   UNL A   1      45.553  25.439  35.744  1.00  0.00     0.198 A 
ATOM     66  F   UNL A   1      43.313  25.367  35.033  1.00  0.00    -0.203 F 
ATOM     67  F   UNL A   1      48.168  27.854  35.073  1.00  0.00    -0.200 F 
ATOM     68  C   UNL A   1      46.790  26.064  35.757  1.00  0.00     0.200 A 
ATOM     69  F   UNL A   1      45.379  24.282  36.399  1.00  0.00    -0.200 F 
ATOM     70  F   UNL A   1      47.820  25.500  36.404  1.00  0.00    -0.200 F 
ENDBRANCH  37  60
ENDBRANCH  11  12
ENDBRANCH   4   6
ENDBRANCH   1   2
BRANCH   1  71
ATOM     71  C   UNL A   1      31.779  28.619  26.732  1.00  0.00     0.042 C 
BRANCH  71  72
ATOM     72  C   UNL A   1      31.527  27.402  25.870  1.00  0.00     0.117 C 
BRANCH  72  73
ATOM     73  N   UNL A   1      31.156  26.225  26.649  1.00  0.00    -0.354 N 
ATOM     74  C   UNL A   1      31.590  24.926  26.460  1.00  0.00     0.243 C 
ATOM     75  H   UNL A   1      30.528  26.373  27.393  1.00  0.00     0.163 HD
ATOM     76  O   UNL A   1      31.272  24.055  27.264  1.00  0.00    -0.273 OA
BRANCH  74  77
ATOM     77  C   UNL A   1      32.541  24.704  25.281  1.00  0.00     0.186 C 
ATOM     78  C   UNL A   1      33.986  24.650  25.758  1.00  0.00     0.107 C 
ATOM     79  N   UNL A   1      32.263  23.699  24.268  1.00  0.00    -0.311 N 
ATOM     80  S   UNL A   1      34.743  23.182  25.058  1.00  0.00    -0.126 SA
ATOM     81  C   UNL A   1      33.354  22.802  23.923  1.00  0.00     0.115 C 
ATOM     82  C   UNL A   1      31.697  24.265  23.116  1.00  0.00     0.224 C 
ATOM     83  C   UNL A   1      33.709  23.208  22.472  1.00  0.00     0.055 C 
ATOM     84  C   UNL A   1      32.825  24.391  22.133  1.00  0.00     0.104 C 
ATOM     85  O   UNL A   1      30.653  24.890  23.056  1.00  0.00    -0.275 OA
BRANCH  81  86
ATOM     86  C   UNL A   1      33.006  21.319  24.082  1.00  0.00    -0.012 A 
ATOM     87  C   UNL A   1      33.352  20.608  25.247  1.00  0.00     0.007 A 
ATOM     88  C   UNL A   1      32.427  20.582  23.027  1.00  0.00     0.007 A 
ATOM     89  C   UNL A   1      33.124  19.229  25.348  1.00  0.00     0.000 A 
ATOM     90  C   UNL A   1      32.170  19.215  23.140  1.00  0.00     0.000 A 
ATOM     91  C   UNL A   1      32.527  18.536  24.299  1.00  0.00     0.000 A 
ENDBRANCH  81  86
ENDBRANCH  74  77
ENDBRANCH  72  73
ENDBRANCH  71  72
ENDBRANCH   1  71
TORSDOF 11
ENDMDL
