MODEL 1
REMARK VINA RESULT:     -12.1      0.000      0.000
REMARK SMILES O=C(NCCCNC(=O)C1CN(C(=O)CC2CC[NH2+]CC2)C1)c1ccc(-c2c3nc(c(-c4c(F)c(F)c(F)c(F)c4F)c4ccc([nH]4)c(-c4c(F)c(F)c(F)c(F)c4F)c4nc(c(-c5c(F)c(F)c(F)c(F)c5F)c5ccc2[nH]5)C=C4)C=C3)cc1
REMARK SMILES IDX 5 1 4 2 3 3 1 4 2 5 23 7 24 8 85 9 25 10 84 11 26 12 27 13
REMARK SMILES IDX 28 14 78 15 29 16 83 17 77 18 79 19 30 20 82 21 76 22 75 23
REMARK SMILES IDX 31 25 63 26 43 27 62 28 44 29 47 30 61 31 80 32 45 33 46 34
REMARK SMILES IDX 60 36 81 37 48 38 32 39 33 40 41 41 34 42 35 43 39 44 42 45
REMARK SMILES IDX 36 46 37 47 40 48 38 49 64 50 65 51 73 52 66 53 67 54 71 55
REMARK SMILES IDX 74 56 68 57 69 58 72 59 70 60 49 61 50 62 58 63 51 64 52 65
REMARK SMILES IDX 56 66 59 67 53 68 54 69 57 70 55 71 6 72 7 73 8 74 9 76
REMARK SMILES IDX 10 77 11 78 22 79 12 80 13 81 14 82 15 83 16 84 17 85 21 86
REMARK SMILES IDX 18 87 20 88 19 89
REMARK H PARENT 3 6 79 24 47 35 7 75 19 90 19 91
REMARK Flexibility Score: inf
ROOT
ATOM      1  C   UNL A   1      31.575  32.043  26.784  1.00  0.00     0.042 C 
ENDROOT
BRANCH   1   2
ATOM      2  C   UNL A   1      32.841  32.818  27.133  1.00  0.00     0.118 C 
BRANCH   2   3
ATOM      3  N   UNL A   1      32.546  34.174  27.578  1.00  0.00    -0.352 N 
ATOM      4  O   UNL A   1      32.493  35.904  29.021  1.00  0.00    -0.269 OA
ATOM      5  C   UNL A   1      33.031  34.859  28.659  1.00  0.00     0.251 C 
ATOM      6  H   UNL A   1      31.902  34.669  27.022  1.00  0.00     0.163 HD
BRANCH   5   7
ATOM      7  C   UNL A   1      34.207  34.343  29.382  1.00  0.00     0.039 A 
ATOM      8  C   UNL A   1      34.036  33.592  30.549  1.00  0.00     0.014 A 
ATOM      9  C   UNL A   1      35.485  34.567  28.866  1.00  0.00     0.014 A 
ATOM     10  C   UNL A   1      35.144  33.160  31.260  1.00  0.00     0.010 A 
ATOM     11  C   UNL A   1      36.597  34.048  29.533  1.00  0.00     0.010 A 
ATOM     12  C   UNL A   1      36.432  33.343  30.735  1.00  0.00    -0.014 A 
BRANCH  12  13
ATOM     13  C   UNL A   1      37.573  32.656  31.383  1.00  0.00     0.031 A 
ATOM     14  C   UNL A   1      38.259  31.493  30.733  1.00  0.00     0.074 A 
ATOM     15  C   UNL A   1      37.973  33.109  32.588  1.00  0.00     0.049 A 
ATOM     16  N   UNL A   1      39.252  30.771  31.186  1.00  0.00    -0.248 NA
ATOM     17  C   UNL A   1      37.769  31.077  29.410  1.00  0.00     0.031 C 
ATOM     18  C   UNL A   1      37.357  34.224  33.314  1.00  0.00     0.029 A 
ATOM     19  N   UNL A   1      38.985  32.698  33.415  1.00  0.00    -0.354 N 
ATOM     20  C   UNL A   1      39.495  29.807  30.218  1.00  0.00     0.074 A 
ATOM     21  C   UNL A   1      38.536  30.024  29.155  1.00  0.00     0.031 C 
ATOM     22  C   UNL A   1      38.018  34.425  34.462  1.00  0.00     0.029 A 
ATOM     23  C   UNL A   1      39.052  33.407  34.590  1.00  0.00     0.049 A 
ATOM     24  H   UNL A   1      39.605  31.966  33.190  1.00  0.00     0.167 HD
ATOM     25  C   UNL A   1      40.436  28.833  30.229  1.00  0.00     0.037 A 
ATOM     26  C   UNL A   1      39.831  33.231  35.672  1.00  0.00     0.037 A 
ATOM     27  C   UNL A   1      41.394  28.645  31.289  1.00  0.00     0.049 A 
ATOM     28  C   UNL A   1      40.835  32.114  35.661  1.00  0.00     0.074 A 
ATOM     29  C   UNL A   1      42.437  27.738  31.354  1.00  0.00     0.029 A 
ATOM     30  N   UNL A   1      41.416  29.365  32.475  1.00  0.00    -0.354 N 
ATOM     31  N   UNL A   1      41.108  31.259  34.706  1.00  0.00    -0.248 NA
ATOM     32  C   UNL A   1      41.634  31.932  36.879  1.00  0.00     0.031 C 
ATOM     33  C   UNL A   1      43.045  27.859  32.606  1.00  0.00     0.029 A 
ATOM     34  C   UNL A   1      42.422  28.885  33.298  1.00  0.00     0.049 A 
ATOM     35  H   UNL A   1      40.807  30.105  32.698  1.00  0.00     0.167 HD
ATOM     36  C   UNL A   1      42.114  30.445  35.202  1.00  0.00     0.074 A 
ATOM     37  C   UNL A   1      42.429  30.932  36.530  1.00  0.00     0.031 C 
ATOM     38  C   UNL A   1      42.717  29.382  34.618  1.00  0.00     0.037 A 
BRANCH  25  39
ATOM     39  C   UNL A   1      40.483  27.871  29.078  1.00  0.00     0.064 A 
ATOM     40  C   UNL A   1      39.678  26.724  29.038  1.00  0.00     0.173 A 
ATOM     41  C   UNL A   1      41.265  28.164  27.949  1.00  0.00     0.173 A 
ATOM     42  F   UNL A   1      38.917  26.395  30.093  1.00  0.00    -0.203 F 
ATOM     43  C   UNL A   1      39.654  25.906  27.910  1.00  0.00     0.198 A 
ATOM     44  C   UNL A   1      41.220  27.359  26.815  1.00  0.00     0.198 A 
ATOM     45  F   UNL A   1      42.049  29.253  27.936  1.00  0.00    -0.203 F 
ATOM     46  F   UNL A   1      38.889  24.806  27.899  1.00  0.00    -0.200 F 
ATOM     47  C   UNL A   1      40.414  26.230  26.797  1.00  0.00     0.200 A 
ATOM     48  F   UNL A   1      41.944  27.683  25.735  1.00  0.00    -0.200 F 
ATOM     49  F   UNL A   1      40.369  25.457  25.703  1.00  0.00    -0.200 F 
ENDBRANCH  25  39
BRANCH  26  50
ATOM     50  C   UNL A   1      39.653  34.094  36.870  1.00  0.00     0.064 A 
ATOM     51  C   UNL A   1      40.304  35.329  36.979  1.00  0.00     0.173 A 
ATOM     52  C   UNL A   1      38.848  33.683  37.945  1.00  0.00     0.173 A 
ATOM     53  F   UNL A   1      41.098  35.757  35.986  1.00  0.00    -0.203 F 
ATOM     54  C   UNL A   1      40.188  36.104  38.131  1.00  0.00     0.198 A 
ATOM     55  C   UNL A   1      38.700  34.478  39.079  1.00  0.00     0.198 A 
ATOM     56  F   UNL A   1      38.196  32.514  37.890  1.00  0.00    -0.203 F 
ATOM     57  F   UNL A   1      40.876  37.248  38.237  1.00  0.00    -0.200 F 
ATOM     58  C   UNL A   1      39.382  35.680  39.178  1.00  0.00     0.200 A 
ATOM     59  F   UNL A   1      37.905  34.073  40.078  1.00  0.00    -0.200 F 
ATOM     60  F   UNL A   1      39.274  36.424  40.287  1.00  0.00    -0.200 F 
ENDBRANCH  26  50
BRANCH  38  61
ATOM     61  C   UNL A   1      43.781  28.681  35.411  1.00  0.00     0.064 A 
ATOM     62  C   UNL A   1      43.464  27.660  36.319  1.00  0.00     0.173 A 
ATOM     63  C   UNL A   1      45.133  29.013  35.239  1.00  0.00     0.173 A 
ATOM     64  F   UNL A   1      42.184  27.320  36.533  1.00  0.00    -0.203 F 
ATOM     65  C   UNL A   1      44.460  27.013  37.043  1.00  0.00     0.198 A 
ATOM     66  C   UNL A   1      46.129  28.340  35.940  1.00  0.00     0.198 A 
ATOM     67  F   UNL A   1      45.489  29.980  34.380  1.00  0.00    -0.203 F 
ATOM     68  F   UNL A   1      44.129  26.076  37.944  1.00  0.00    -0.200 F 
ATOM     69  C   UNL A   1      45.792  27.347  36.847  1.00  0.00     0.200 A 
ATOM     70  F   UNL A   1      47.416  28.654  35.738  1.00  0.00    -0.200 F 
ATOM     71  F   UNL A   1      46.750  26.716  37.538  1.00  0.00    -0.200 F 
ENDBRANCH  38  61
ENDBRANCH  12  13
ENDBRANCH   5   7
ENDBRANCH   2   3
ENDBRANCH   1   2
BRANCH   1  72
ATOM     72  C   UNL A   1      31.852  30.579  26.470  1.00  0.00     0.117 C 
BRANCH  72  73
ATOM     73  N   UNL A   1      33.215  30.230  26.814  1.00  0.00    -0.356 N 
ATOM     74  C   UNL A   1      33.871  29.051  26.578  1.00  0.00     0.226 C 
ATOM     75  H   UNL A   1      33.734  30.926  27.277  1.00  0.00     0.163 HD
ATOM     76  O   UNL A   1      34.998  28.926  27.067  1.00  0.00    -0.275 OA
BRANCH  74  77
ATOM     77  C   UNL A   1      33.164  27.982  25.713  1.00  0.00     0.117 C 
ATOM     78  C   UNL A   1      33.702  27.839  24.278  1.00  0.00     0.134 C 
ATOM     79  C   UNL A   1      33.564  26.522  25.944  1.00  0.00     0.134 C 
ATOM     80  N   UNL A   1      33.711  26.411  24.513  1.00  0.00    -0.341 N 
ATOM     81  C   UNL A   1      33.801  25.398  23.608  1.00  0.00     0.222 C 
ATOM     82  O   UNL A   1      33.956  25.617  22.407  1.00  0.00    -0.275 OA
BRANCH  81  83
ATOM     83  C   UNL A   1      33.641  23.983  24.127  1.00  0.00     0.104 C 
BRANCH  83  84
ATOM     84  C   UNL A   1      34.831  23.049  23.828  1.00  0.00     0.009 C 
ATOM     85  C   UNL A   1      34.623  21.676  24.492  1.00  0.00     0.065 C 
ATOM     86  C   UNL A   1      36.188  23.565  24.325  1.00  0.00     0.065 C 
ATOM     87  C   UNL A   1      34.729  21.755  26.019  1.00  0.00     0.260 C 
ATOM     88  C   UNL A   1      36.240  23.662  25.851  1.00  0.00     0.260 C 
ATOM     89  N   UNL A   1      35.987  22.360  26.462  1.00  0.00    -0.346 N 
ATOM     90  H   UNL A   1      36.753  21.732  26.220  1.00  0.00     0.346 HD
ATOM     91  H   UNL A   1      35.917  22.504  27.470  1.00  0.00     0.346 HD
ENDBRANCH  83  84
ENDBRANCH  81  83
ENDBRANCH  74  77
ENDBRANCH  72  73
ENDBRANCH   1  72
TORSDOF 12
ENDMDL
MODEL 2
REMARK VINA RESULT:     -12.1      1.105      1.754
REMARK SMILES O=C(NCCCNC(=O)C1CN(C(=O)CC2CC[NH2+]CC2)C1)c1ccc(-c2c3nc(c(-c4c(F)c(F)c(F)c(F)c4F)c4ccc([nH]4)c(-c4c(F)c(F)c(F)c(F)c4F)c4nc(c(-c5c(F)c(F)c(F)c(F)c5F)c5ccc2[nH]5)C=C4)C=C3)cc1
REMARK SMILES IDX 5 1 4 2 3 3 1 4 2 5 23 7 24 8 85 9 25 10 84 11 26 12 27 13
REMARK SMILES IDX 28 14 78 15 29 16 83 17 77 18 79 19 30 20 82 21 76 22 75 23
REMARK SMILES IDX 31 25 63 26 43 27 62 28 44 29 47 30 61 31 80 32 45 33 46 34
REMARK SMILES IDX 60 36 81 37 48 38 32 39 33 40 41 41 34 42 35 43 39 44 42 45
REMARK SMILES IDX 36 46 37 47 40 48 38 49 64 50 65 51 73 52 66 53 67 54 71 55
REMARK SMILES IDX 74 56 68 57 69 58 72 59 70 60 49 61 50 62 58 63 51 64 52 65
REMARK SMILES IDX 56 66 59 67 53 68 54 69 57 70 55 71 6 72 7 73 8 74 9 76
REMARK SMILES IDX 10 77 11 78 22 79 12 80 13 81 14 82 15 83 16 84 17 85 21 86
REMARK SMILES IDX 18 87 20 88 19 89
REMARK H PARENT 3 6 79 24 47 35 7 75 19 90 19 91
REMARK Flexibility Score: inf
ROOT
ATOM      1  C   UNL A   1      31.539  32.140  26.730  1.00  0.00     0.042 C 
ENDROOT
BRANCH   1   2
ATOM      2  C   UNL A   1      32.803  32.845  27.211  1.00  0.00     0.118 C 
BRANCH   2   3
ATOM      3  N   UNL A   1      32.536  34.210  27.643  1.00  0.00    -0.352 N 
ATOM      4  O   UNL A   1      32.525  35.958  29.067  1.00  0.00    -0.269 OA
ATOM      5  C   UNL A   1      33.042  34.899  28.712  1.00  0.00     0.251 C 
ATOM      6  H   UNL A   1      31.897  34.710  27.086  1.00  0.00     0.163 HD
BRANCH   5   7
ATOM      7  C   UNL A   1      34.214  34.369  29.433  1.00  0.00     0.039 A 
ATOM      8  C   UNL A   1      34.038  33.634  30.609  1.00  0.00     0.014 A 
ATOM      9  C   UNL A   1      35.492  34.565  28.905  1.00  0.00     0.014 A 
ATOM     10  C   UNL A   1      35.144  33.190  31.317  1.00  0.00     0.010 A 
ATOM     11  C   UNL A   1      36.599  34.034  29.569  1.00  0.00     0.010 A 
ATOM     12  C   UNL A   1      36.431  33.345  30.780  1.00  0.00    -0.014 A 
BRANCH  12  13
ATOM     13  C   UNL A   1      37.564  32.644  31.428  1.00  0.00     0.031 A 
ATOM     14  C   UNL A   1      38.254  31.492  30.764  1.00  0.00     0.074 A 
ATOM     15  C   UNL A   1      37.954  33.076  32.643  1.00  0.00     0.049 A 
ATOM     16  N   UNL A   1      39.241  30.760  31.215  1.00  0.00    -0.248 NA
ATOM     17  C   UNL A   1      37.776  31.099  29.429  1.00  0.00     0.031 C 
ATOM     18  C   UNL A   1      37.332  34.180  33.382  1.00  0.00     0.029 A 
ATOM     19  N   UNL A   1      38.957  32.650  33.473  1.00  0.00    -0.354 N 
ATOM     20  C   UNL A   1      39.492  29.811  30.233  1.00  0.00     0.074 A 
ATOM     21  C   UNL A   1      38.543  30.048  29.164  1.00  0.00     0.031 C 
ATOM     22  C   UNL A   1      37.983  34.361  34.539  1.00  0.00     0.029 A 
ATOM     23  C   UNL A   1      39.014  33.339  34.660  1.00  0.00     0.049 A 
ATOM     24  H   UNL A   1      39.577  31.920  33.241  1.00  0.00     0.167 HD
ATOM     25  C   UNL A   1      40.430  28.836  30.236  1.00  0.00     0.037 A 
ATOM     26  C   UNL A   1      39.782  33.143  35.747  1.00  0.00     0.037 A 
ATOM     27  C   UNL A   1      41.378  28.628  31.302  1.00  0.00     0.049 A 
ATOM     28  C   UNL A   1      40.784  32.024  35.726  1.00  0.00     0.074 A 
ATOM     29  C   UNL A   1      42.419  27.718  31.362  1.00  0.00     0.029 A 
ATOM     30  N   UNL A   1      41.390  29.328  32.500  1.00  0.00    -0.354 N 
ATOM     31  N   UNL A   1      41.064  31.184  34.759  1.00  0.00    -0.248 NA
ATOM     32  C   UNL A   1      41.571  31.820  36.948  1.00  0.00     0.031 C 
ATOM     33  C   UNL A   1      43.014  27.816  32.622  1.00  0.00     0.029 A 
ATOM     34  C   UNL A   1      42.387  28.832  33.325  1.00  0.00     0.049 A 
ATOM     35  H   UNL A   1      40.781  30.065  32.730  1.00  0.00     0.167 HD
ATOM     36  C   UNL A   1      42.064  30.360  35.252  1.00  0.00     0.074 A 
ATOM     37  C   UNL A   1      42.367  30.824  36.590  1.00  0.00     0.031 C 
ATOM     38  C   UNL A   1      42.670  29.306  34.655  1.00  0.00     0.037 A 
BRANCH  25  39
ATOM     39  C   UNL A   1      40.486  27.892  29.070  1.00  0.00     0.064 A 
ATOM     40  C   UNL A   1      39.700  26.734  29.015  1.00  0.00     0.173 A 
ATOM     41  C   UNL A   1      41.258  28.217  27.942  1.00  0.00     0.173 A 
ATOM     42  F   UNL A   1      38.950  26.376  30.070  1.00  0.00    -0.203 F 
ATOM     43  C   UNL A   1      39.683  25.934  27.875  1.00  0.00     0.198 A 
ATOM     44  C   UNL A   1      41.219  27.429  26.795  1.00  0.00     0.198 A 
ATOM     45  F   UNL A   1      42.024  29.317  27.942  1.00  0.00    -0.203 F 
ATOM     46  F   UNL A   1      38.935  24.821  27.850  1.00  0.00    -0.200 F 
ATOM     47  C   UNL A   1      40.432  26.288  26.763  1.00  0.00     0.200 A 
ATOM     48  F   UNL A   1      41.932  27.781  25.717  1.00  0.00    -0.200 F 
ATOM     49  F   UNL A   1      40.393  25.531  25.657  1.00  0.00    -0.200 F 
ENDBRANCH  25  39
BRANCH  26  50
ATOM     50  C   UNL A   1      39.594  33.986  36.957  1.00  0.00     0.064 A 
ATOM     51  C   UNL A   1      38.805  33.550  38.030  1.00  0.00     0.173 A 
ATOM     52  C   UNL A   1      40.180  35.258  37.053  1.00  0.00     0.173 A 
ATOM     53  F   UNL A   1      38.212  32.348  37.979  1.00  0.00    -0.203 F 
ATOM     54  C   UNL A   1      38.578  34.369  39.133  1.00  0.00     0.198 A 
ATOM     55  C   UNL A   1      39.984  36.059  38.175  1.00  0.00     0.198 A 
ATOM     56  F   UNL A   1      40.951  35.721  36.058  1.00  0.00    -0.203 F 
ATOM     57  F   UNL A   1      37.764  33.955  40.114  1.00  0.00    -0.200 F 
ATOM     58  C   UNL A   1      39.171  35.620  39.207  1.00  0.00     0.200 A 
ATOM     59  F   UNL A   1      40.577  37.259  38.250  1.00  0.00    -0.200 F 
ATOM     60  F   UNL A   1      38.948  36.408  40.268  1.00  0.00    -0.200 F 
ENDBRANCH  26  50
BRANCH  38  61
ATOM     61  C   UNL A   1      43.725  28.590  35.447  1.00  0.00     0.064 A 
ATOM     62  C   UNL A   1      43.396  27.564  36.345  1.00  0.00     0.173 A 
ATOM     63  C   UNL A   1      45.081  28.911  35.282  1.00  0.00     0.173 A 
ATOM     64  F   UNL A   1      42.112  27.234  36.552  1.00  0.00    -0.203 F 
ATOM     65  C   UNL A   1      44.384  26.903  37.068  1.00  0.00     0.198 A 
ATOM     66  C   UNL A   1      46.068  28.224  35.981  1.00  0.00     0.198 A 
ATOM     67  F   UNL A   1      45.448  29.882  34.432  1.00  0.00    -0.203 F 
ATOM     68  F   UNL A   1      44.042  25.962  37.960  1.00  0.00    -0.200 F 
ATOM     69  C   UNL A   1      45.719  27.227  36.879  1.00  0.00     0.200 A 
ATOM     70  F   UNL A   1      47.359  28.528  35.786  1.00  0.00    -0.200 F 
ATOM     71  F   UNL A   1      46.670  26.582  37.569  1.00  0.00    -0.200 F 
ENDBRANCH  38  61
ENDBRANCH  12  13
ENDBRANCH   5   7
ENDBRANCH   2   3
ENDBRANCH   1   2
BRANCH   1  72
ATOM     72  C   UNL A   1      31.748  30.648  26.507  1.00  0.00     0.117 C 
BRANCH  72  73
ATOM     73  N   UNL A   1      31.233  30.246  25.214  1.00  0.00    -0.356 N 
ATOM     74  C   UNL A   1      31.415  29.055  24.564  1.00  0.00     0.226 C 
ATOM     75  H   UNL A   1      30.685  30.915  24.742  1.00  0.00     0.163 HD
ATOM     76  O   UNL A   1      30.985  28.971  23.410  1.00  0.00    -0.275 OA
BRANCH  74  77
ATOM     77  C   UNL A   1      32.128  27.911  25.322  1.00  0.00     0.117 C 
ATOM     78  C   UNL A   1      31.242  27.123  26.303  1.00  0.00     0.134 C 
ATOM     79  C   UNL A   1      32.347  26.600  24.561  1.00  0.00     0.134 C 
ATOM     80  N   UNL A   1      31.796  25.925  25.712  1.00  0.00    -0.341 N 
ATOM     81  C   UNL A   1      31.772  24.649  26.187  1.00  0.00     0.222 C 
ATOM     82  O   UNL A   1      31.176  24.357  27.223  1.00  0.00    -0.275 OA
BRANCH  81  83
ATOM     83  C   UNL A   1      32.563  23.606  25.423  1.00  0.00     0.104 C 
BRANCH  83  84
ATOM     84  C   UNL A   1      34.072  23.583  25.738  1.00  0.00     0.009 C 
ATOM     85  C   UNL A   1      34.837  22.779  24.671  1.00  0.00     0.065 C 
ATOM     86  C   UNL A   1      34.433  22.952  27.090  1.00  0.00     0.065 C 
ATOM     87  C   UNL A   1      34.530  21.280  24.752  1.00  0.00     0.260 C 
ATOM     88  C   UNL A   1      34.078  21.465  27.142  1.00  0.00     0.260 C 
ATOM     89  N   UNL A   1      34.773  20.730  26.087  1.00  0.00    -0.346 N 
ATOM     90  H   UNL A   1      35.775  20.760  26.275  1.00  0.00     0.346 HD
ATOM     91  H   UNL A   1      34.413  19.775  26.094  1.00  0.00     0.346 HD
ENDBRANCH  83  84
ENDBRANCH  81  83
ENDBRANCH  74  77
ENDBRANCH  72  73
ENDBRANCH   1  72
TORSDOF 12
ENDMDL
MODEL 3
REMARK VINA RESULT:     -12.0      0.136      1.635
REMARK SMILES O=C(NCCCNC(=O)C1CN(C(=O)CC2CC[NH2+]CC2)C1)c1ccc(-c2c3nc(c(-c4c(F)c(F)c(F)c(F)c4F)c4ccc([nH]4)c(-c4c(F)c(F)c(F)c(F)c4F)c4nc(c(-c5c(F)c(F)c(F)c(F)c5F)c5ccc2[nH]5)C=C4)C=C3)cc1
REMARK SMILES IDX 5 1 4 2 3 3 1 4 2 5 23 7 24 8 85 9 25 10 84 11 26 12 27 13
REMARK SMILES IDX 28 14 78 15 29 16 83 17 77 18 79 19 30 20 82 21 76 22 75 23
REMARK SMILES IDX 31 25 63 26 43 27 62 28 44 29 47 30 61 31 80 32 45 33 46 34
REMARK SMILES IDX 60 36 81 37 48 38 32 39 33 40 41 41 34 42 35 43 39 44 42 45
REMARK SMILES IDX 36 46 37 47 40 48 38 49 64 50 65 51 73 52 66 53 67 54 71 55
REMARK SMILES IDX 74 56 68 57 69 58 72 59 70 60 49 61 50 62 58 63 51 64 52 65
REMARK SMILES IDX 56 66 59 67 53 68 54 69 57 70 55 71 6 72 7 73 8 74 9 76
REMARK SMILES IDX 10 77 11 78 22 79 12 80 13 81 14 82 15 83 16 84 17 85 21 86
REMARK SMILES IDX 18 87 20 88 19 89
REMARK H PARENT 3 6 79 24 47 35 7 75 19 90 19 91
REMARK Flexibility Score: inf
ROOT
ATOM      1  C   UNL A   1      31.559  32.106  26.758  1.00  0.00     0.042 C 
ENDROOT
BRANCH   1   2
ATOM      2  C   UNL A   1      32.822  32.831  27.210  1.00  0.00     0.118 C 
BRANCH   2   3
ATOM      3  N   UNL A   1      32.541  34.189  27.657  1.00  0.00    -0.352 N 
ATOM      4  O   UNL A   1      32.515  35.922  29.098  1.00  0.00    -0.269 OA
ATOM      5  C   UNL A   1      33.042  34.872  28.732  1.00  0.00     0.251 C 
ATOM      6  H   UNL A   1      31.897  34.689  27.105  1.00  0.00     0.163 HD
BRANCH   5   7
ATOM      7  C   UNL A   1      34.220  34.347  29.446  1.00  0.00     0.039 A 
ATOM      8  C   UNL A   1      34.053  33.609  30.621  1.00  0.00     0.014 A 
ATOM      9  C   UNL A   1      35.494  34.550  28.912  1.00  0.00     0.014 A 
ATOM     10  C   UNL A   1      35.165  33.169  31.323  1.00  0.00     0.010 A 
ATOM     11  C   UNL A   1      36.608  34.023  29.569  1.00  0.00     0.010 A 
ATOM     12  C   UNL A   1      36.448  33.331  30.780  1.00  0.00    -0.014 A 
BRANCH  12  13
ATOM     13  C   UNL A   1      37.588  32.634  31.421  1.00  0.00     0.031 A 
ATOM     14  C   UNL A   1      38.270  31.477  30.759  1.00  0.00     0.074 A 
ATOM     15  C   UNL A   1      37.991  33.075  32.629  1.00  0.00     0.049 A 
ATOM     16  N   UNL A   1      39.263  30.748  31.204  1.00  0.00    -0.248 NA
ATOM     17  C   UNL A   1      37.778  31.074  29.432  1.00  0.00     0.031 C 
ATOM     18  C   UNL A   1      37.378  34.185  33.367  1.00  0.00     0.029 A 
ATOM     19  N   UNL A   1      39.003  32.655  33.451  1.00  0.00    -0.354 N 
ATOM     20  C   UNL A   1      39.502  29.792  30.227  1.00  0.00     0.074 A 
ATOM     21  C   UNL A   1      38.543  30.022  29.167  1.00  0.00     0.031 C 
ATOM     22  C   UNL A   1      38.041  34.374  34.515  1.00  0.00     0.029 A 
ATOM     23  C   UNL A   1      39.073  33.352  34.632  1.00  0.00     0.049 A 
ATOM     24  H   UNL A   1      39.620  31.923  33.218  1.00  0.00     0.167 HD
ATOM     25  C   UNL A   1      40.440  28.816  30.227  1.00  0.00     0.037 A 
ATOM     26  C   UNL A   1      39.853  33.165  35.712  1.00  0.00     0.037 A 
ATOM     27  C   UNL A   1      41.399  28.616  31.285  1.00  0.00     0.049 A 
ATOM     28  C   UNL A   1      40.854  32.045  35.690  1.00  0.00     0.074 A 
ATOM     29  C   UNL A   1      42.441  27.706  31.340  1.00  0.00     0.029 A 
ATOM     30  N   UNL A   1      41.424  29.325  32.477  1.00  0.00    -0.354 N 
ATOM     31  N   UNL A   1      41.123  31.198  34.726  1.00  0.00    -0.248 NA
ATOM     32  C   UNL A   1      41.654  31.849  36.905  1.00  0.00     0.031 C 
ATOM     33  C   UNL A   1      43.049  27.813  32.593  1.00  0.00     0.029 A 
ATOM     34  C   UNL A   1      42.431  28.834  33.295  1.00  0.00     0.049 A 
ATOM     35  H   UNL A   1      40.818  30.064  32.708  1.00  0.00     0.167 HD
ATOM     36  C   UNL A   1      42.128  30.377  35.214  1.00  0.00     0.074 A 
ATOM     37  C   UNL A   1      42.446  30.851  36.545  1.00  0.00     0.031 C 
ATOM     38  C   UNL A   1      42.727  29.318  34.619  1.00  0.00     0.037 A 
BRANCH  25  39
ATOM     39  C   UNL A   1      40.484  27.864  29.067  1.00  0.00     0.064 A 
ATOM     40  C   UNL A   1      39.690  26.710  29.026  1.00  0.00     0.173 A 
ATOM     41  C   UNL A   1      41.250  28.176  27.933  1.00  0.00     0.173 A 
ATOM     42  F   UNL A   1      38.945  26.364  30.087  1.00  0.00    -0.203 F 
ATOM     43  C   UNL A   1      39.661  25.902  27.892  1.00  0.00     0.198 A 
ATOM     44  C   UNL A   1      41.200  27.380  26.792  1.00  0.00     0.198 A 
ATOM     45  F   UNL A   1      42.023  29.272  27.920  1.00  0.00    -0.203 F 
ATOM     46  F   UNL A   1      38.907  24.794  27.879  1.00  0.00    -0.200 F 
ATOM     47  C   UNL A   1      40.406  26.243  26.773  1.00  0.00     0.200 A 
ATOM     48  F   UNL A   1      41.909  27.720  25.707  1.00  0.00    -0.200 F 
ATOM     49  F   UNL A   1      40.356  25.479  25.673  1.00  0.00    -0.200 F 
ENDBRANCH  25  39
BRANCH  26  50
ATOM     50  C   UNL A   1      39.678  34.016  36.919  1.00  0.00     0.064 A 
ATOM     51  C   UNL A   1      38.894  33.593  37.999  1.00  0.00     0.173 A 
ATOM     52  C   UNL A   1      40.272  35.286  37.002  1.00  0.00     0.173 A 
ATOM     53  F   UNL A   1      38.292  32.394  37.960  1.00  0.00    -0.203 F 
ATOM     54  C   UNL A   1      38.678  34.420  39.099  1.00  0.00     0.198 A 
ATOM     55  C   UNL A   1      40.089  36.095  38.120  1.00  0.00     0.198 A 
ATOM     56  F   UNL A   1      41.039  35.737  35.999  1.00  0.00    -0.203 F 
ATOM     57  F   UNL A   1      37.868  34.018  40.087  1.00  0.00    -0.200 F 
ATOM     58  C   UNL A   1      39.280  35.668  39.160  1.00  0.00     0.200 A 
ATOM     59  F   UNL A   1      40.689  37.291  38.183  1.00  0.00    -0.200 F 
ATOM     60  F   UNL A   1      39.069  36.464  40.217  1.00  0.00    -0.200 F 
ENDBRANCH  26  50
BRANCH  38  61
ATOM     61  C   UNL A   1      43.791  28.607  35.404  1.00  0.00     0.064 A 
ATOM     62  C   UNL A   1      45.145  28.951  35.278  1.00  0.00     0.173 A 
ATOM     63  C   UNL A   1      43.450  27.595  36.314  1.00  0.00     0.173 A 
ATOM     64  F   UNL A   1      45.524  29.898  34.407  1.00  0.00    -0.203 F 
ATOM     65  C   UNL A   1      46.122  28.290  36.017  1.00  0.00     0.198 A 
ATOM     66  C   UNL A   1      44.425  26.961  37.076  1.00  0.00     0.198 A 
ATOM     67  F   UNL A   1      42.168  27.233  36.473  1.00  0.00    -0.203 F 
ATOM     68  F   UNL A   1      47.414  28.599  35.842  1.00  0.00    -0.200 F 
ATOM     69  C   UNL A   1      45.760  27.302  36.922  1.00  0.00     0.200 A 
ATOM     70  F   UNL A   1      44.073  26.018  37.960  1.00  0.00    -0.200 F 
ATOM     71  F   UNL A   1      46.701  26.674  37.639  1.00  0.00    -0.200 F 
ENDBRANCH  38  61
ENDBRANCH  12  13
ENDBRANCH   5   7
ENDBRANCH   2   3
ENDBRANCH   1   2
BRANCH   1  72
ATOM     72  C   UNL A   1      31.820  30.655  26.378  1.00  0.00     0.117 C 
BRANCH  72  73
ATOM     73  N   UNL A   1      33.160  30.257  26.761  1.00  0.00    -0.356 N 
ATOM     74  C   UNL A   1      33.801  29.078  26.492  1.00  0.00     0.226 C 
ATOM     75  H   UNL A   1      33.672  30.918  27.282  1.00  0.00     0.163 HD
ATOM     76  O   UNL A   1      34.903  28.902  27.023  1.00  0.00    -0.275 OA
BRANCH  74  77
ATOM     77  C   UNL A   1      33.111  28.071  25.544  1.00  0.00     0.117 C 
ATOM     78  C   UNL A   1      33.730  27.964  24.139  1.00  0.00     0.134 C 
ATOM     79  C   UNL A   1      33.446  26.589  25.737  1.00  0.00     0.134 C 
ATOM     80  N   UNL A   1      33.675  26.529  24.314  1.00  0.00    -0.341 N 
ATOM     81  C   UNL A   1      33.784  25.550  23.375  1.00  0.00     0.222 C 
ATOM     82  O   UNL A   1      34.019  25.810  22.195  1.00  0.00    -0.275 OA
BRANCH  81  83
ATOM     83  C   UNL A   1      33.544  24.122  23.824  1.00  0.00     0.104 C 
BRANCH  83  84
ATOM     84  C   UNL A   1      34.755  23.183  23.660  1.00  0.00     0.009 C 
ATOM     85  C   UNL A   1      34.464  21.807  24.286  1.00  0.00     0.065 C 
ATOM     86  C   UNL A   1      36.048  23.688  24.316  1.00  0.00     0.065 C 
ATOM     87  C   UNL A   1      34.392  21.877  25.815  1.00  0.00     0.260 C 
ATOM     88  C   UNL A   1      35.922  23.776  25.837  1.00  0.00     0.260 C 
ATOM     89  N   UNL A   1      35.592  22.471  26.407  1.00  0.00    -0.346 N 
ATOM     90  H   UNL A   1      36.378  21.840  26.251  1.00  0.00     0.346 HD
ATOM     91  H   UNL A   1      35.406  22.610  27.400  1.00  0.00     0.346 HD
ENDBRANCH  83  84
ENDBRANCH  81  83
ENDBRANCH  74  77
ENDBRANCH  72  73
ENDBRANCH   1  72
TORSDOF 12
ENDMDL
