MODEL 1
REMARK VINA RESULT:     -14.1      0.000      0.000
REMARK SMILES Cc1ccc(S(=O)(=O)n2cc(C(=O)C(=O)NCC(=O)N[C@@H](Cc3c[nH]c4ccccc34)C(=O)NCCCNC(=O)c3ccc(-c4c5nc(c(-c6c(F)c(F)c(F)c(F)c6F)c6ccc([nH]6)c(-c6c(F)c(F)c(F)c(F)c6F)c6nc(c(-c7c(F)c(F)c(F)c(F)c7F)c7ccc4[nH]7)C=C6)C=C5)cc3)c3ccccc32)cc1
REMARK SMILES IDX 32 1 33 2 34 3 21 5 20 6 18 7 19 8 17 10 16 11 14 12 15 13
REMARK SMILES IDX 12 15 13 16 11 17 9 18 10 19 109 20 104 21 108 22 105 23
REMARK SMILES IDX 107 24 106 25 6 26 7 27 8 28 5 29 1 30 2 31 3 32 111 33 4 34
REMARK SMILES IDX 110 35 22 36 23 37 24 38 31 39 25 40 26 41 30 42 27 44 29 45
REMARK SMILES IDX 28 46 35 47 36 48 37 49 38 50 39 51 40 53 41 54 42 55 103 56
REMARK SMILES IDX 43 57 102 58 44 59 45 60 46 61 96 62 47 63 101 64 95 65
REMARK SMILES IDX 97 66 48 67 100 68 94 69 93 70 49 72 81 73 61 74 80 75 62 76
REMARK SMILES IDX 65 77 79 78 98 79 63 80 64 81 78 83 99 84 66 85 50 86 51 87
REMARK SMILES IDX 59 88 52 89 53 90 57 91 60 92 54 93 55 94 58 95 56 96 82 97
REMARK SMILES IDX 83 98 91 99 84 100 85 101 89 102 92 103 86 104 87 105 90 106
REMARK SMILES IDX 88 107 67 108 68 109 76 110 69 111 70 112 74 113 77 114
REMARK SMILES IDX 71 115 72 116 75 117 73 118
REMARK H PARENT 34 4 20 9 16 14 25 43 38 52 97 71 65 82
REMARK Flexibility Score: inf
ROOT
ATOM      1  C   UNL A   1      34.292  19.991  24.830  1.00  0.00     0.242 C 
ATOM      2  O   UNL A   1      34.160  18.788  24.580  1.00  0.00    -0.273 OA
ATOM      3  N   UNL A   1      35.527  20.411  25.238  1.00  0.00    -0.354 N 
ATOM      4  H   UNL A   1      36.087  19.732  25.679  1.00  0.00     0.163 HD
ENDROOT
BRANCH   1   5
ATOM      5  C   UNL A   1      33.103  20.955  24.622  1.00  0.00     0.175 C 
BRANCH   5   6
ATOM      6  N   UNL A   1      32.502  20.803  23.291  1.00  0.00    -0.342 N 
ATOM      7  C   UNL A   1      32.150  21.809  22.429  1.00  0.00     0.240 C 
ATOM      8  O   UNL A   1      32.108  21.553  21.224  1.00  0.00    -0.273 OA
ATOM      9  H   UNL A   1      32.333  19.882  22.986  1.00  0.00     0.164 HD
BRANCH   7  10
ATOM     10  C   UNL A   1      31.908  23.232  22.969  1.00  0.00     0.216 C 
BRANCH  10  11
ATOM     11  N   UNL A   1      33.088  24.072  22.742  1.00  0.00    -0.340 N 
ATOM     12  C   UNL A   1      33.142  25.393  22.335  1.00  0.00     0.292 C 
ATOM     13  O   UNL A   1      34.209  25.924  22.053  1.00  0.00    -0.265 OA
ATOM     14  H   UNL A   1      33.958  23.639  22.902  1.00  0.00     0.164 HD
BRANCH  12  15
ATOM     15  C   UNL A   1      31.837  26.188  22.225  1.00  0.00     0.252 C 
ATOM     16  O   UNL A   1      31.019  25.774  21.402  1.00  0.00    -0.283 OA
BRANCH  15  17
ATOM     17  C   UNL A   1      31.656  27.462  22.933  1.00  0.00     0.054 A 
ATOM     18  N   UNL A   1      31.903  29.390  24.088  1.00  0.00    -0.240 N 
ATOM     19  C   UNL A   1      32.576  28.263  23.620  1.00  0.00     0.117 A 
ATOM     20  C   UNL A   1      30.620  29.391  23.516  1.00  0.00     0.065 A 
ATOM     21  C   UNL A   1      30.381  28.082  23.107  1.00  0.00     0.012 A 
ATOM     22  C   UNL A   1      29.586  30.345  23.578  1.00  0.00     0.028 A 
ATOM     23  C   UNL A   1      29.043  27.668  22.930  1.00  0.00     0.011 A 
ATOM     24  C   UNL A   1      28.272  29.897  23.463  1.00  0.00     0.002 A 
ATOM     25  C   UNL A   1      28.001  28.566  23.183  1.00  0.00     0.001 A 
BRANCH  18  26
ATOM     26  S   UNL A   1      31.869  29.962  25.732  1.00  0.00     0.268 S 
ATOM     27  O   UNL A   1      31.225  28.869  26.444  1.00  0.00    -0.201 OA
ATOM     28  O   UNL A   1      31.223  31.261  25.603  1.00  0.00    -0.201 OA
BRANCH  26  29
ATOM     29  C   UNL A   1      33.277  30.363  26.698  1.00  0.00     0.088 A 
ATOM     30  C   UNL A   1      36.433  32.350  28.873  1.00  0.00     0.044 C 
ATOM     31  C   UNL A   1      35.339  31.610  28.158  1.00  0.00    -0.051 A 
ATOM     32  C   UNL A   1      34.141  32.282  27.957  1.00  0.00     0.005 A 
ATOM     33  C   UNL A   1      35.487  30.305  27.638  1.00  0.00     0.005 A 
ATOM     34  C   UNL A   1      33.130  31.659  27.249  1.00  0.00     0.022 A 
ATOM     35  C   UNL A   1      34.457  29.669  26.898  1.00  0.00     0.022 A 
ENDBRANCH  26  29
ENDBRANCH  18  26
ENDBRANCH  15  17
ENDBRANCH  12  15
ENDBRANCH  10  11
ENDBRANCH   7  10
ENDBRANCH   5   6
BRANCH   5  36
ATOM     36  C   UNL A   1      32.094  21.062  25.782  1.00  0.00     0.072 C 
BRANCH  36  37
ATOM     37  C   UNL A   1      31.599  22.428  26.146  1.00  0.00    -0.020 A 
ATOM     38  C   UNL A   1      30.308  22.740  26.537  1.00  0.00     0.087 A 
ATOM     39  C   UNL A   1      32.343  23.655  26.184  1.00  0.00     0.003 A 
ATOM     40  N   UNL A   1      30.213  24.098  26.681  1.00  0.00    -0.361 N 
ATOM     41  C   UNL A   1      31.437  24.683  26.456  1.00  0.00     0.046 A 
ATOM     42  C   UNL A   1      33.698  23.998  25.991  1.00  0.00     0.010 A 
ATOM     43  H   UNL A   1      29.389  24.585  26.911  1.00  0.00     0.166 HD
ATOM     44  C   UNL A   1      31.802  26.034  26.487  1.00  0.00     0.026 A 
ATOM     45  C   UNL A   1      34.090  25.341  26.068  1.00  0.00     0.001 A 
ATOM     46  C   UNL A   1      33.150  26.344  26.296  1.00  0.00     0.002 A 
ENDBRANCH  36  37
ENDBRANCH   5  36
ENDBRANCH   1   5
BRANCH   3  47
ATOM     47  C   UNL A   1      36.118  21.729  25.107  1.00  0.00     0.117 C 
BRANCH  47  48
ATOM     48  C   UNL A   1      37.626  21.733  24.959  1.00  0.00     0.042 C 
BRANCH  48  49
ATOM     49  C   UNL A   1      38.273  22.710  25.923  1.00  0.00     0.118 C 
BRANCH  49  50
ATOM     50  N   UNL A   1      39.729  22.592  26.046  1.00  0.00    -0.352 N 
ATOM     51  C   UNL A   1      40.664  23.535  26.464  1.00  0.00     0.251 C 
ATOM     52  H   UNL A   1      40.101  21.715  25.794  1.00  0.00     0.163 HD
ATOM     53  O   UNL A   1      41.847  23.256  26.502  1.00  0.00    -0.269 OA
BRANCH  51  54
ATOM     54  C   UNL A   1      40.183  24.837  27.001  1.00  0.00     0.039 A 
ATOM     55  C   UNL A   1      40.455  26.004  26.277  1.00  0.00     0.014 A 
ATOM     56  C   UNL A   1      39.729  24.920  28.308  1.00  0.00     0.014 A 
ATOM     57  C   UNL A   1      40.554  27.216  26.958  1.00  0.00     0.010 A 
ATOM     58  C   UNL A   1      39.997  26.070  29.013  1.00  0.00     0.010 A 
ATOM     59  C   UNL A   1      40.460  27.209  28.348  1.00  0.00    -0.014 A 
BRANCH  59  60
ATOM     60  C   UNL A   1      40.921  28.294  29.205  1.00  0.00     0.031 A 
ATOM     61  C   UNL A   1      39.958  29.283  29.738  1.00  0.00     0.074 A 
ATOM     62  C   UNL A   1      42.201  28.305  29.642  1.00  0.00     0.049 A 
ATOM     63  N   UNL A   1      40.285  30.471  30.120  1.00  0.00    -0.248 NA
ATOM     64  C   UNL A   1      38.531  29.011  29.879  1.00  0.00     0.031 C 
ATOM     65  C   UNL A   1      42.753  29.110  30.730  1.00  0.00     0.029 A 
ATOM     66  N   UNL A   1      43.327  27.688  29.065  1.00  0.00    -0.354 N 
ATOM     67  C   UNL A   1      39.215  30.995  30.805  1.00  0.00     0.074 A 
ATOM     68  C   UNL A   1      38.129  30.070  30.584  1.00  0.00     0.031 C 
ATOM     69  C   UNL A   1      44.081  29.204  30.570  1.00  0.00     0.029 A 
ATOM     70  C   UNL A   1      44.405  28.575  29.304  1.00  0.00     0.049 A 
ATOM     71  H   UNL A   1      43.358  26.823  28.595  1.00  0.00     0.167 HD
ATOM     72  C   UNL A   1      39.391  32.084  31.606  1.00  0.00     0.037 A 
ATOM     73  C   UNL A   1      45.072  29.180  28.280  1.00  0.00     0.037 A 
ATOM     74  C   UNL A   1      40.772  32.549  31.577  1.00  0.00     0.049 A 
ATOM     75  C   UNL A   1      45.002  30.689  28.308  1.00  0.00     0.074 A 
ATOM     76  C   UNL A   1      41.845  32.348  32.431  1.00  0.00     0.029 A 
ATOM     77  N   UNL A   1      41.305  33.048  30.393  1.00  0.00    -0.354 N 
ATOM     78  N   UNL A   1      44.126  31.361  29.004  1.00  0.00    -0.248 NA
ATOM     79  C   UNL A   1      45.889  31.559  27.542  1.00  0.00     0.031 C 
ATOM     80  C   UNL A   1      43.031  32.698  31.743  1.00  0.00     0.029 A 
ATOM     81  C   UNL A   1      42.682  33.124  30.474  1.00  0.00     0.049 A 
ATOM     82  H   UNL A   1      40.774  33.312  29.605  1.00  0.00     0.167 HD
ATOM     83  C   UNL A   1      44.295  32.704  28.783  1.00  0.00     0.074 A 
ATOM     84  C   UNL A   1      45.424  32.776  27.876  1.00  0.00     0.031 C 
ATOM     85  C   UNL A   1      43.475  33.632  29.365  1.00  0.00     0.037 A 
BRANCH  72  86
ATOM     86  C   UNL A   1      38.367  32.501  32.631  1.00  0.00     0.064 A 
ATOM     87  C   UNL A   1      37.534  33.620  32.426  1.00  0.00     0.173 A 
ATOM     88  C   UNL A   1      38.206  31.860  33.874  1.00  0.00     0.173 A 
ATOM     89  F   UNL A   1      37.501  34.266  31.255  1.00  0.00    -0.203 F 
ATOM     90  C   UNL A   1      36.706  34.129  33.429  1.00  0.00     0.198 A 
ATOM     91  C   UNL A   1      37.424  32.401  34.897  1.00  0.00     0.198 A 
ATOM     92  F   UNL A   1      38.787  30.676  34.118  1.00  0.00    -0.203 F 
ATOM     93  F   UNL A   1      35.946  35.206  33.181  1.00  0.00    -0.200 F 
ATOM     94  C   UNL A   1      36.683  33.546  34.679  1.00  0.00     0.200 A 
ATOM     95  F   UNL A   1      37.402  31.813  36.102  1.00  0.00    -0.200 F 
ATOM     96  F   UNL A   1      35.936  34.071  35.660  1.00  0.00    -0.200 F 
ENDBRANCH  72  86
BRANCH  73  97
ATOM     97  C   UNL A   1      45.147  28.332  27.063  1.00  0.00     0.064 A 
ATOM     98  C   UNL A   1      46.094  27.289  27.048  1.00  0.00     0.173 A 
ATOM     99  C   UNL A   1      44.078  28.248  26.162  1.00  0.00     0.173 A 
ATOM    100  F   UNL A   1      47.138  27.321  27.892  1.00  0.00    -0.203 F 
ATOM    101  C   UNL A   1      45.906  26.150  26.270  1.00  0.00     0.198 A 
ATOM    102  C   UNL A   1      43.904  27.111  25.369  1.00  0.00     0.198 A 
ATOM    103  F   UNL A   1      43.131  29.197  26.144  1.00  0.00    -0.203 F 
ATOM    104  F   UNL A   1      46.750  25.112  26.381  1.00  0.00    -0.200 F 
ATOM    105  C   UNL A   1      44.794  26.049  25.454  1.00  0.00     0.200 A 
ATOM    106  F   UNL A   1      42.813  26.997  24.599  1.00  0.00    -0.200 F 
ATOM    107  F   UNL A   1      44.554  24.909  24.789  1.00  0.00    -0.200 F 
ENDBRANCH  73  97
BRANCH  85 108
ATOM    108  C   UNL A   1      43.394  35.109  29.044  1.00  0.00     0.064 A 
ATOM    109  C   UNL A   1      42.792  35.637  27.891  1.00  0.00     0.173 A 
ATOM    110  C   UNL A   1      43.813  36.072  30.000  1.00  0.00     0.173 A 
ATOM    111  F   UNL A   1      42.243  34.844  26.962  1.00  0.00    -0.203 F 
ATOM    112  C   UNL A   1      42.671  37.016  27.683  1.00  0.00     0.198 A 
ATOM    113  C   UNL A   1      43.633  37.442  29.817  1.00  0.00     0.198 A 
ATOM    114  F   UNL A   1      44.384  35.714  31.158  1.00  0.00    -0.203 F 
ATOM    115  F   UNL A   1      42.125  37.466  26.544  1.00  0.00    -0.200 F 
ATOM    116  C   UNL A   1      43.077  37.916  28.649  1.00  0.00     0.200 A 
ATOM    117  F   UNL A   1      43.982  38.296  30.790  1.00  0.00    -0.200 F 
ATOM    118  F   UNL A   1      42.911  39.233  28.465  1.00  0.00    -0.200 F 
ENDBRANCH  85 108
ENDBRANCH  59  60
ENDBRANCH  51  54
ENDBRANCH  49  50
ENDBRANCH  48  49
ENDBRANCH  47  48
ENDBRANCH   3  47
TORSDOF 19
ENDMDL
MODEL 2
REMARK VINA RESULT:     -13.6      3.734     10.095
REMARK SMILES Cc1ccc(S(=O)(=O)n2cc(C(=O)C(=O)NCC(=O)N[C@@H](Cc3c[nH]c4ccccc34)C(=O)NCCCNC(=O)c3ccc(-c4c5nc(c(-c6c(F)c(F)c(F)c(F)c6F)c6ccc([nH]6)c(-c6c(F)c(F)c(F)c(F)c6F)c6nc(c(-c7c(F)c(F)c(F)c(F)c7F)c7ccc4[nH]7)C=C6)C=C5)cc3)c3ccccc32)cc1
REMARK SMILES IDX 32 1 33 2 34 3 21 5 20 6 18 7 19 8 17 10 16 11 14 12 15 13
REMARK SMILES IDX 12 15 13 16 11 17 9 18 10 19 109 20 104 21 108 22 105 23
REMARK SMILES IDX 107 24 106 25 6 26 7 27 8 28 5 29 1 30 2 31 3 32 111 33 4 34
REMARK SMILES IDX 110 35 22 36 23 37 24 38 31 39 25 40 26 41 30 42 27 44 29 45
REMARK SMILES IDX 28 46 35 47 36 48 37 49 38 50 39 51 40 53 41 54 42 55 103 56
REMARK SMILES IDX 43 57 102 58 44 59 45 60 46 61 96 62 47 63 101 64 95 65
REMARK SMILES IDX 97 66 48 67 100 68 94 69 93 70 49 72 81 73 61 74 80 75 62 76
REMARK SMILES IDX 65 77 79 78 98 79 63 80 64 81 78 83 99 84 66 85 50 86 51 87
REMARK SMILES IDX 59 88 52 89 53 90 57 91 60 92 54 93 55 94 58 95 56 96 82 97
REMARK SMILES IDX 83 98 91 99 84 100 85 101 89 102 92 103 86 104 87 105 90 106
REMARK SMILES IDX 88 107 67 108 68 109 76 110 69 111 70 112 74 113 77 114
REMARK SMILES IDX 71 115 72 116 75 117 73 118
REMARK H PARENT 34 4 20 9 16 14 25 43 38 52 97 71 65 82
REMARK Flexibility Score: inf
ROOT
ATOM      1  C   UNL A   1      32.408  29.374  25.742  1.00  0.00     0.242 C 
ATOM      2  O   UNL A   1      31.521  30.232  25.811  1.00  0.00    -0.273 OA
ATOM      3  N   UNL A   1      33.677  29.762  26.065  1.00  0.00    -0.354 N 
ATOM      4  H   UNL A   1      33.879  30.718  25.941  1.00  0.00     0.163 HD
ENDROOT
BRANCH   1   5
ATOM      5  C   UNL A   1      32.045  27.922  25.357  1.00  0.00     0.175 C 
BRANCH   5   6
ATOM      6  N   UNL A   1      30.879  27.433  26.106  1.00  0.00    -0.342 N 
ATOM      7  C   UNL A   1      30.649  26.145  26.517  1.00  0.00     0.240 C 
ATOM      8  O   UNL A   1      29.918  25.970  27.493  1.00  0.00    -0.273 OA
ATOM      9  H   UNL A   1      30.192  28.099  26.335  1.00  0.00     0.164 HD
BRANCH   7  10
ATOM     10  C   UNL A   1      31.369  24.976  25.816  1.00  0.00     0.216 C 
BRANCH  10  11
ATOM     11  N   UNL A   1      30.494  24.370  24.807  1.00  0.00    -0.340 N 
ATOM     12  C   UNL A   1      30.813  23.954  23.527  1.00  0.00     0.292 C 
ATOM     13  O   UNL A   1      29.942  23.591  22.746  1.00  0.00    -0.265 OA
ATOM     14  H   UNL A   1      29.556  24.241  25.077  1.00  0.00     0.164 HD
BRANCH  12  15
ATOM     15  C   UNL A   1      32.281  23.965  23.088  1.00  0.00     0.252 C 
ATOM     16  O   UNL A   1      32.526  24.555  22.035  1.00  0.00    -0.283 OA
BRANCH  15  17
ATOM     17  C   UNL A   1      33.296  23.170  23.792  1.00  0.00     0.054 A 
ATOM     18  N   UNL A   1      35.076  22.421  24.966  1.00  0.00    -0.240 N 
ATOM     19  C   UNL A   1      34.486  23.558  24.419  1.00  0.00     0.117 A 
ATOM     20  C   UNL A   1      34.155  21.367  24.861  1.00  0.00     0.065 A 
ATOM     21  C   UNL A   1      33.251  21.745  23.873  1.00  0.00     0.012 A 
ATOM     22  C   UNL A   1      34.210  20.045  25.344  1.00  0.00     0.028 A 
ATOM     23  C   UNL A   1      32.507  20.737  23.223  1.00  0.00     0.011 A 
ATOM     24  C   UNL A   1      33.516  19.062  24.643  1.00  0.00     0.002 A 
ATOM     25  C   UNL A   1      32.706  19.397  23.569  1.00  0.00     0.001 A 
BRANCH  18  26
ATOM     26  S   UNL A   1      36.707  21.873  24.693  1.00  0.00     0.268 S 
ATOM     27  O   UNL A   1      36.989  22.346  23.347  1.00  0.00    -0.201 OA
ATOM     28  O   UNL A   1      36.617  20.450  24.990  1.00  0.00    -0.201 OA
BRANCH  26  29
ATOM     29  C   UNL A   1      38.108  22.341  25.640  1.00  0.00     0.088 A 
ATOM     30  C   UNL A   1      41.620  22.444  28.148  1.00  0.00     0.044 C 
ATOM     31  C   UNL A   1      40.420  22.461  27.245  1.00  0.00    -0.051 A 
ATOM     32  C   UNL A   1      40.125  21.291  26.558  1.00  0.00     0.005 A 
ATOM     33  C   UNL A   1      39.559  23.572  27.106  1.00  0.00     0.005 A 
ATOM     34  C   UNL A   1      38.994  21.244  25.764  1.00  0.00     0.022 A 
ATOM     35  C   UNL A   1      38.390  23.522  26.304  1.00  0.00     0.022 A 
ENDBRANCH  26  29
ENDBRANCH  18  26
ENDBRANCH  15  17
ENDBRANCH  12  15
ENDBRANCH  10  11
ENDBRANCH   7  10
ENDBRANCH   5   6
BRANCH   5  36
ATOM     36  C   UNL A   1      32.035  27.592  23.851  1.00  0.00     0.072 C 
BRANCH  36  37
ATOM     37  C   UNL A   1      31.287  28.521  22.944  1.00  0.00    -0.020 A 
ATOM     38  C   UNL A   1      31.857  29.365  22.007  1.00  0.00     0.087 A 
ATOM     39  C   UNL A   1      29.867  28.705  22.847  1.00  0.00     0.003 A 
ATOM     40  N   UNL A   1      30.868  30.130  21.451  1.00  0.00    -0.361 N 
ATOM     41  C   UNL A   1      29.644  29.759  21.957  1.00  0.00     0.046 A 
ATOM     42  C   UNL A   1      28.746  28.095  23.447  1.00  0.00     0.010 A 
ATOM     43  H   UNL A   1      31.012  30.842  20.786  1.00  0.00     0.166 HD
ATOM     44  C   UNL A   1      28.371  30.270  21.681  1.00  0.00     0.026 A 
ATOM     45  C   UNL A   1      27.459  28.561  23.143  1.00  0.00     0.001 A 
ATOM     46  C   UNL A   1      27.279  29.644  22.286  1.00  0.00     0.002 A 
ENDBRANCH  36  37
ENDBRANCH   5  36
ENDBRANCH   1   5
BRANCH   3  47
ATOM     47  C   UNL A   1      34.767  28.946  26.567  1.00  0.00     0.117 C 
BRANCH  47  48
ATOM     48  C   UNL A   1      35.257  29.328  27.949  1.00  0.00     0.042 C 
BRANCH  48  49
ATOM     49  C   UNL A   1      35.264  30.834  28.135  1.00  0.00     0.118 C 
BRANCH  49  50
ATOM     50  N   UNL A   1      35.629  31.294  29.479  1.00  0.00    -0.352 N 
ATOM     51  C   UNL A   1      36.676  30.886  30.302  1.00  0.00     0.251 C 
ATOM     52  H   UNL A   1      35.047  31.994  29.855  1.00  0.00     0.163 HD
ATOM     53  O   UNL A   1      36.826  31.385  31.401  1.00  0.00    -0.269 OA
BRANCH  51  54
ATOM     54  C   UNL A   1      37.689  29.940  29.763  1.00  0.00     0.039 A 
ATOM     55  C   UNL A   1      37.780  28.661  30.325  1.00  0.00     0.014 A 
ATOM     56  C   UNL A   1      38.693  30.405  28.928  1.00  0.00     0.014 A 
ATOM     57  C   UNL A   1      39.001  27.988  30.283  1.00  0.00     0.010 A 
ATOM     58  C   UNL A   1      39.939  29.834  29.035  1.00  0.00     0.010 A 
ATOM     59  C   UNL A   1      40.108  28.649  29.757  1.00  0.00    -0.014 A 
BRANCH  59  60
ATOM     60  C   UNL A   1      41.490  28.249  29.995  1.00  0.00     0.031 A 
ATOM     61  C   UNL A   1      42.079  27.120  29.242  1.00  0.00     0.074 A 
ATOM     62  C   UNL A   1      42.280  29.009  30.787  1.00  0.00     0.049 A 
ATOM     63  N   UNL A   1      43.087  26.428  29.655  1.00  0.00    -0.248 NA
ATOM     64  C   UNL A   1      41.568  26.670  27.950  1.00  0.00     0.031 C 
ATOM     65  C   UNL A   1      43.737  28.950  30.893  1.00  0.00     0.029 A 
ATOM     66  N   UNL A   1      41.897  29.904  31.804  1.00  0.00    -0.354 N 
ATOM     67  C   UNL A   1      43.529  25.669  28.597  1.00  0.00     0.074 A 
ATOM     68  C   UNL A   1      42.521  25.814  27.574  1.00  0.00     0.031 C 
ATOM     69  C   UNL A   1      44.109  29.490  32.063  1.00  0.00     0.029 A 
ATOM     70  C   UNL A   1      42.897  29.790  32.801  1.00  0.00     0.049 A 
ATOM     71  H   UNL A   1      41.102  30.485  31.819  1.00  0.00     0.167 HD
ATOM     72  C   UNL A   1      44.770  25.107  28.639  1.00  0.00     0.037 A 
ATOM     73  C   UNL A   1      42.610  29.329  34.051  1.00  0.00     0.037 A 
ATOM     74  C   UNL A   1      45.450  25.411  29.893  1.00  0.00     0.049 A 
ATOM     75  C   UNL A   1      43.361  28.074  34.430  1.00  0.00     0.074 A 
ATOM     76  C   UNL A   1      46.397  26.362  30.236  1.00  0.00     0.029 A 
ATOM     77  N   UNL A   1      44.936  24.920  31.089  1.00  0.00    -0.354 N 
ATOM     78  N   UNL A   1      43.951  27.294  33.566  1.00  0.00    -0.248 NA
ATOM     79  C   UNL A   1      43.487  27.581  35.798  1.00  0.00     0.031 C 
ATOM     80  C   UNL A   1      46.427  26.467  31.648  1.00  0.00     0.029 A 
ATOM     81  C   UNL A   1      45.509  25.571  32.166  1.00  0.00     0.049 A 
ATOM     82  H   UNL A   1      44.259  24.208  31.160  1.00  0.00     0.167 HD
ATOM     83  C   UNL A   1      44.503  26.219  34.215  1.00  0.00     0.074 A 
ATOM     84  C   UNL A   1      44.201  26.457  35.614  1.00  0.00     0.031 C 
ATOM     85  C   UNL A   1      45.149  25.226  33.532  1.00  0.00     0.037 A 
BRANCH  72  86
ATOM     86  C   UNL A   1      45.446  24.559  27.409  1.00  0.00     0.064 A 
ATOM     87  C   UNL A   1      46.247  25.374  26.583  1.00  0.00     0.173 A 
ATOM     88  C   UNL A   1      45.286  23.234  26.960  1.00  0.00     0.173 A 
ATOM     89  F   UNL A   1      46.572  26.624  26.934  1.00  0.00    -0.203 F 
ATOM     90  C   UNL A   1      46.737  24.938  25.350  1.00  0.00     0.198 A 
ATOM     91  C   UNL A   1      45.726  22.814  25.701  1.00  0.00     0.198 A 
ATOM     92  F   UNL A   1      44.720  22.305  27.744  1.00  0.00    -0.203 F 
ATOM     93  F   UNL A   1      47.482  25.764  24.600  1.00  0.00    -0.200 F 
ATOM     94  C   UNL A   1      46.440  23.672  24.889  1.00  0.00     0.200 A 
ATOM     95  F   UNL A   1      45.441  21.575  25.275  1.00  0.00    -0.200 F 
ATOM     96  F   UNL A   1      46.858  23.274  23.680  1.00  0.00    -0.200 F 
ENDBRANCH  72  86
BRANCH  73  97
ATOM     97  C   UNL A   1      41.243  29.697  34.500  1.00  0.00     0.064 A 
ATOM     98  C   UNL A   1      41.071  30.954  35.112  1.00  0.00     0.173 A 
ATOM     99  C   UNL A   1      40.106  29.074  33.971  1.00  0.00     0.173 A 
ATOM    100  F   UNL A   1      42.130  31.594  35.636  1.00  0.00    -0.203 F 
ATOM    101  C   UNL A   1      39.849  31.619  35.073  1.00  0.00     0.198 A 
ATOM    102  C   UNL A   1      38.877  29.738  33.950  1.00  0.00     0.198 A 
ATOM    103  F   UNL A   1      40.208  27.889  33.354  1.00  0.00    -0.203 F 
ATOM    104  F   UNL A   1      39.748  32.873  35.540  1.00  0.00    -0.200 F 
ATOM    105  C   UNL A   1      38.759  31.022  34.464  1.00  0.00     0.200 A 
ATOM    106  F   UNL A   1      37.826  29.175  33.336  1.00  0.00    -0.200 F 
ATOM    107  F   UNL A   1      37.613  31.704  34.328  1.00  0.00    -0.200 F 
ENDBRANCH  73  97
BRANCH  85 108
ATOM    108  C   UNL A   1      45.602  23.888  34.077  1.00  0.00     0.064 A 
ATOM    109  C   UNL A   1      44.777  22.758  34.189  1.00  0.00     0.173 A 
ATOM    110  C   UNL A   1      46.972  23.665  34.376  1.00  0.00     0.173 A 
ATOM    111  F   UNL A   1      43.489  22.794  33.824  1.00  0.00    -0.203 F 
ATOM    112  C   UNL A   1      45.267  21.521  34.622  1.00  0.00     0.198 A 
ATOM    113  C   UNL A   1      47.468  22.415  34.745  1.00  0.00     0.198 A 
ATOM    114  F   UNL A   1      47.882  24.645  34.290  1.00  0.00    -0.203 F 
ATOM    115  F   UNL A   1      44.425  20.486  34.752  1.00  0.00    -0.200 F 
ATOM    116  C   UNL A   1      46.612  21.346  34.886  1.00  0.00     0.200 A 
ATOM    117  F   UNL A   1      48.784  22.254  34.942  1.00  0.00    -0.200 F 
ATOM    118  F   UNL A   1      47.083  20.146  35.250  1.00  0.00    -0.200 F 
ENDBRANCH  85 108
ENDBRANCH  59  60
ENDBRANCH  51  54
ENDBRANCH  49  50
ENDBRANCH  48  49
ENDBRANCH  47  48
ENDBRANCH   3  47
TORSDOF 19
ENDMDL
MODEL 3
REMARK VINA RESULT:     -13.5      3.168      9.746
REMARK SMILES Cc1ccc(S(=O)(=O)n2cc(C(=O)C(=O)NCC(=O)N[C@@H](Cc3c[nH]c4ccccc34)C(=O)NCCCNC(=O)c3ccc(-c4c5nc(c(-c6c(F)c(F)c(F)c(F)c6F)c6ccc([nH]6)c(-c6c(F)c(F)c(F)c(F)c6F)c6nc(c(-c7c(F)c(F)c(F)c(F)c7F)c7ccc4[nH]7)C=C6)C=C5)cc3)c3ccccc32)cc1
REMARK SMILES IDX 32 1 33 2 34 3 21 5 20 6 18 7 19 8 17 10 16 11 14 12 15 13
REMARK SMILES IDX 12 15 13 16 11 17 9 18 10 19 109 20 104 21 108 22 105 23
REMARK SMILES IDX 107 24 106 25 6 26 7 27 8 28 5 29 1 30 2 31 3 32 111 33 4 34
REMARK SMILES IDX 110 35 22 36 23 37 24 38 31 39 25 40 26 41 30 42 27 44 29 45
REMARK SMILES IDX 28 46 35 47 36 48 37 49 38 50 39 51 40 53 41 54 42 55 103 56
REMARK SMILES IDX 43 57 102 58 44 59 45 60 46 61 96 62 47 63 101 64 95 65
REMARK SMILES IDX 97 66 48 67 100 68 94 69 93 70 49 72 81 73 61 74 80 75 62 76
REMARK SMILES IDX 65 77 79 78 98 79 63 80 64 81 78 83 99 84 66 85 50 86 51 87
REMARK SMILES IDX 59 88 52 89 53 90 57 91 60 92 54 93 55 94 58 95 56 96 82 97
REMARK SMILES IDX 83 98 91 99 84 100 85 101 89 102 92 103 86 104 87 105 90 106
REMARK SMILES IDX 88 107 67 108 68 109 76 110 69 111 70 112 74 113 77 114
REMARK SMILES IDX 71 115 72 116 75 117 73 118
REMARK H PARENT 34 4 20 9 16 14 25 43 38 52 97 71 65 82
REMARK Flexibility Score: inf
ROOT
ATOM      1  C   UNL A   1      32.880  29.610  25.670  1.00  0.00     0.242 C 
ATOM      2  O   UNL A   1      32.152  30.567  25.387  1.00  0.00    -0.273 OA
ATOM      3  N   UNL A   1      34.052  29.887  26.315  1.00  0.00    -0.354 N 
ATOM      4  H   UNL A   1      34.425  30.786  26.162  1.00  0.00     0.163 HD
ENDROOT
BRANCH   1   5
ATOM      5  C   UNL A   1      32.423  28.171  25.341  1.00  0.00     0.175 C 
BRANCH   5   6
ATOM      6  N   UNL A   1      31.255  27.773  26.140  1.00  0.00    -0.342 N 
ATOM      7  C   UNL A   1      30.961  26.512  26.591  1.00  0.00     0.240 C 
ATOM      8  O   UNL A   1      30.255  26.405  27.595  1.00  0.00    -0.273 OA
ATOM      9  H   UNL A   1      30.618  28.485  26.375  1.00  0.00     0.164 HD
BRANCH   7  10
ATOM     10  C   UNL A   1      31.583  25.284  25.897  1.00  0.00     0.216 C 
BRANCH  10  11
ATOM     11  N   UNL A   1      30.633  24.699  24.947  1.00  0.00    -0.340 N 
ATOM     12  C   UNL A   1      30.870  24.228  23.668  1.00  0.00     0.292 C 
ATOM     13  O   UNL A   1      29.947  23.892  22.937  1.00  0.00    -0.265 OA
ATOM     14  H   UNL A   1      29.702  24.630  25.261  1.00  0.00     0.164 HD
BRANCH  12  15
ATOM     15  C   UNL A   1      32.315  24.145  23.165  1.00  0.00     0.252 C 
ATOM     16  O   UNL A   1      32.544  24.690  22.085  1.00  0.00    -0.283 OA
BRANCH  15  17
ATOM     17  C   UNL A   1      33.316  23.315  23.848  1.00  0.00     0.054 A 
ATOM     18  N   UNL A   1      35.086  22.505  24.997  1.00  0.00    -0.240 N 
ATOM     19  C   UNL A   1      34.520  23.664  24.472  1.00  0.00     0.117 A 
ATOM     20  C   UNL A   1      34.139  21.475  24.882  1.00  0.00     0.065 A 
ATOM     21  C   UNL A   1      33.237  21.890  23.907  1.00  0.00     0.012 A 
ATOM     22  C   UNL A   1      34.167  20.144  25.343  1.00  0.00     0.028 A 
ATOM     23  C   UNL A   1      32.465  20.911  23.246  1.00  0.00     0.011 A 
ATOM     24  C   UNL A   1      33.444  19.189  24.632  1.00  0.00     0.002 A 
ATOM     25  C   UNL A   1      32.634  19.561  23.569  1.00  0.00     0.001 A 
BRANCH  18  26
ATOM     26  S   UNL A   1      36.701  21.923  24.703  1.00  0.00     0.268 S 
ATOM     27  O   UNL A   1      37.004  22.452  23.383  1.00  0.00    -0.201 OA
ATOM     28  O   UNL A   1      36.568  20.489  24.929  1.00  0.00    -0.201 OA
BRANCH  26  29
ATOM     29  C   UNL A   1      38.110  22.301  25.676  1.00  0.00     0.088 A 
ATOM     30  C   UNL A   1      41.607  22.177  28.206  1.00  0.00     0.044 C 
ATOM     31  C   UNL A   1      40.415  22.273  27.297  1.00  0.00    -0.051 A 
ATOM     32  C   UNL A   1      40.085  21.145  26.560  1.00  0.00     0.005 A 
ATOM     33  C   UNL A   1      39.593  23.418  27.202  1.00  0.00     0.005 A 
ATOM     34  C   UNL A   1      38.958  21.170  25.758  1.00  0.00     0.022 A 
ATOM     35  C   UNL A   1      38.428  23.442  26.392  1.00  0.00     0.022 A 
ENDBRANCH  26  29
ENDBRANCH  18  26
ENDBRANCH  15  17
ENDBRANCH  12  15
ENDBRANCH  10  11
ENDBRANCH   7  10
ENDBRANCH   5   6
BRANCH   5  36
ATOM     36  C   UNL A   1      32.344  27.799  23.847  1.00  0.00     0.072 C 
BRANCH  36  37
ATOM     37  C   UNL A   1      31.425  28.604  22.981  1.00  0.00    -0.020 A 
ATOM     38  C   UNL A   1      31.819  29.513  22.013  1.00  0.00     0.087 A 
ATOM     39  C   UNL A   1      29.990  28.584  22.959  1.00  0.00     0.003 A 
ATOM     40  N   UNL A   1      30.703  30.125  21.511  1.00  0.00    -0.361 N 
ATOM     41  C   UNL A   1      29.573  29.588  22.081  1.00  0.00     0.046 A 
ATOM     42  C   UNL A   1      29.000  27.825  23.619  1.00  0.00     0.010 A 
ATOM     43  H   UNL A   1      30.708  30.844  20.838  1.00  0.00     0.166 HD
ATOM     44  C   UNL A   1      28.227  29.910  21.874  1.00  0.00     0.026 A 
ATOM     45  C   UNL A   1      27.646  28.101  23.384  1.00  0.00     0.001 A 
ATOM     46  C   UNL A   1      27.268  29.140  22.537  1.00  0.00     0.002 A 
ENDBRANCH  36  37
ENDBRANCH   5  36
ENDBRANCH   1   5
BRANCH   3  47
ATOM     47  C   UNL A   1      34.820  29.027  27.197  1.00  0.00     0.117 C 
BRANCH  47  48
ATOM     48  C   UNL A   1      35.724  29.761  28.165  1.00  0.00     0.042 C 
BRANCH  48  49
ATOM     49  C   UNL A   1      35.857  31.227  27.793  1.00  0.00     0.118 C 
BRANCH  49  50
ATOM     50  N   UNL A   1      34.838  32.110  28.368  1.00  0.00    -0.352 N 
ATOM     51  C   UNL A   1      34.909  32.938  29.485  1.00  0.00     0.251 C 
ATOM     52  H   UNL A   1      33.975  32.119  27.893  1.00  0.00     0.163 HD
ATOM     53  O   UNL A   1      33.951  33.608  29.818  1.00  0.00    -0.269 OA
BRANCH  51  54
ATOM     54  C   UNL A   1      36.216  33.100  30.179  1.00  0.00     0.039 A 
ATOM     55  C   UNL A   1      37.241  33.794  29.525  1.00  0.00     0.014 A 
ATOM     56  C   UNL A   1      36.496  32.350  31.310  1.00  0.00     0.014 A 
ATOM     57  C   UNL A   1      38.567  33.491  29.833  1.00  0.00     0.010 A 
ATOM     58  C   UNL A   1      37.788  31.918  31.495  1.00  0.00     0.010 A 
ATOM     59  C   UNL A   1      38.823  32.449  30.721  1.00  0.00    -0.014 A 
BRANCH  59  60
ATOM     60  C   UNL A   1      40.109  31.771  30.839  1.00  0.00     0.031 A 
ATOM     61  C   UNL A   1      40.390  30.562  30.035  1.00  0.00     0.074 A 
ATOM     62  C   UNL A   1      41.100  32.338  31.564  1.00  0.00     0.049 A 
ATOM     63  N   UNL A   1      41.266  29.671  30.359  1.00  0.00    -0.248 NA
ATOM     64  C   UNL A   1      39.694  30.252  28.790  1.00  0.00     0.031 C 
ATOM     65  C   UNL A   1      42.518  31.982  31.546  1.00  0.00     0.029 A 
ATOM     66  N   UNL A   1      40.993  33.270  32.613  1.00  0.00    -0.354 N 
ATOM     67  C   UNL A   1      41.455  28.860  29.264  1.00  0.00     0.074 A 
ATOM     68  C   UNL A   1      40.418  29.228  28.331  1.00  0.00     0.031 C 
ATOM     69  C   UNL A   1      43.088  32.410  32.682  1.00  0.00     0.029 A 
ATOM     70  C   UNL A   1      42.028  32.935  33.521  1.00  0.00     0.049 A 
ATOM     71  H   UNL A   1      40.338  34.000  32.698  1.00  0.00     0.167 HD
ATOM     72  C   UNL A   1      42.554  28.057  29.199  1.00  0.00     0.037 A 
ATOM     73  C   UNL A   1      41.757  32.516  34.790  1.00  0.00     0.037 A 
ATOM     74  C   UNL A   1      43.383  28.189  30.391  1.00  0.00     0.049 A 
ATOM     75  C   UNL A   1      42.264  31.126  35.098  1.00  0.00     0.074 A 
ATOM     76  C   UNL A   1      44.529  28.921  30.657  1.00  0.00     0.029 A 
ATOM     77  N   UNL A   1      42.880  27.789  31.625  1.00  0.00    -0.354 N 
ATOM     78  N   UNL A   1      42.609  30.261  34.185  1.00  0.00    -0.248 NA
ATOM     79  C   UNL A   1      42.398  30.591  36.449  1.00  0.00     0.031 C 
ATOM     80  C   UNL A   1      44.697  28.988  32.061  1.00  0.00     0.029 A 
ATOM     81  C   UNL A   1      43.660  28.287  32.651  1.00  0.00     0.049 A 
ATOM     82  H   UNL A   1      42.080  27.228  31.751  1.00  0.00     0.167 HD
ATOM     83  C   UNL A   1      42.980  29.084  34.781  1.00  0.00     0.074 A 
ATOM     84  C   UNL A   1      42.849  29.349  36.201  1.00  0.00     0.031 C 
ATOM     85  C   UNL A   1      43.352  27.994  34.043  1.00  0.00     0.037 A 
BRANCH  72  86
ATOM     86  C   UNL A   1      43.000  27.408  27.913  1.00  0.00     0.064 A 
ATOM     87  C   UNL A   1      42.655  26.076  27.603  1.00  0.00     0.173 A 
ATOM     88  C   UNL A   1      43.827  28.043  26.968  1.00  0.00     0.173 A 
ATOM     89  F   UNL A   1      41.793  25.381  28.353  1.00  0.00    -0.203 F 
ATOM     90  C   UNL A   1      43.199  25.399  26.509  1.00  0.00     0.198 A 
ATOM     91  C   UNL A   1      44.418  27.351  25.908  1.00  0.00     0.198 A 
ATOM     92  F   UNL A   1      44.066  29.361  27.038  1.00  0.00    -0.203 F 
ATOM     93  F   UNL A   1      42.845  24.127  26.271  1.00  0.00    -0.200 F 
ATOM     94  C   UNL A   1      44.114  26.022  25.685  1.00  0.00     0.200 A 
ATOM     95  F   UNL A   1      45.294  27.977  25.109  1.00  0.00    -0.200 F 
ATOM     96  F   UNL A   1      44.682  25.354  24.672  1.00  0.00    -0.200 F 
ENDBRANCH  72  86
BRANCH  73  97
ATOM     97  C   UNL A   1      40.535  33.145  35.354  1.00  0.00     0.064 A 
ATOM     98  C   UNL A   1      39.361  32.370  35.403  1.00  0.00     0.173 A 
ATOM     99  C   UNL A   1      40.610  34.261  36.197  1.00  0.00     0.173 A 
ATOM    100  F   UNL A   1      39.239  31.289  34.613  1.00  0.00    -0.203 F 
ATOM    101  C   UNL A   1      38.369  32.614  36.349  1.00  0.00     0.198 A 
ATOM    102  C   UNL A   1      39.603  34.513  37.133  1.00  0.00     0.198 A 
ATOM    103  F   UNL A   1      41.711  35.025  36.215  1.00  0.00    -0.203 F 
ATOM    104  F   UNL A   1      37.328  31.776  36.465  1.00  0.00    -0.200 F 
ATOM    105  C   UNL A   1      38.506  33.669  37.233  1.00  0.00     0.200 A 
ATOM    106  F   UNL A   1      39.746  35.517  38.010  1.00  0.00    -0.200 F 
ATOM    107  F   UNL A   1      37.608  33.839  38.214  1.00  0.00    -0.200 F 
ENDBRANCH  73  97
BRANCH  85 108
ATOM    108  C   UNL A   1      43.564  26.581  34.542  1.00  0.00     0.064 A 
ATOM    109  C   UNL A   1      42.530  25.709  34.916  1.00  0.00     0.173 A 
ATOM    110  C   UNL A   1      44.861  26.001  34.516  1.00  0.00     0.173 A 
ATOM    111  F   UNL A   1      41.246  26.085  34.870  1.00  0.00    -0.203 F 
ATOM    112  C   UNL A   1      42.776  24.384  35.293  1.00  0.00     0.198 A 
ATOM    113  C   UNL A   1      45.093  24.663  34.830  1.00  0.00     0.198 A 
ATOM    114  F   UNL A   1      45.942  26.707  34.156  1.00  0.00    -0.203 F 
ATOM    115  F   UNL A   1      41.756  23.607  35.683  1.00  0.00    -0.200 F 
ATOM    116  C   UNL A   1      44.053  23.858  35.236  1.00  0.00     0.200 A 
ATOM    117  F   UNL A   1      46.330  24.158  34.715  1.00  0.00    -0.200 F 
ATOM    118  F   UNL A   1      44.274  22.574  35.548  1.00  0.00    -0.200 F 
ENDBRANCH  85 108
ENDBRANCH  59  60
ENDBRANCH  51  54
ENDBRANCH  49  50
ENDBRANCH  48  49
ENDBRANCH  47  48
ENDBRANCH   3  47
TORSDOF 19
ENDMDL
