MODEL 1
REMARK VINA RESULT:     -11.7      0.000      0.000
REMARK SMILES Cc1nsc(N(C)C(=O)[C@@H](C)CCC[C@H](C)[NH3+])c1C(=O)NCCCNC(=O)c1ccc(-c2c3nc(c(-c4c(F)c(F)c(F)c(F)c4F)c4ccc([nH]4)c(-c4c(F)c(F)c(F)c(F)c4F)c4nc(c(-c5c(F)c(F)c(F)c(F)c5F)c5ccc2[nH]5)C=C4)C=C3)cc1
REMARK SMILES IDX 1 1 2 2 3 3 4 4 5 5 18 6 19 7 20 8 21 9 22 11 23 12 24 13
REMARK SMILES IDX 25 14 26 15 27 17 28 18 29 19 90 20 30 21 89 22 31 23 32 24
REMARK SMILES IDX 33 25 83 26 34 27 88 28 82 29 84 30 35 31 87 32 81 33 80 34
REMARK SMILES IDX 36 36 68 37 48 38 67 39 49 40 52 41 66 42 85 43 50 44 51 45
REMARK SMILES IDX 65 47 86 48 53 49 37 50 38 51 46 52 39 53 40 54 44 55 47 56
REMARK SMILES IDX 41 57 42 58 45 59 43 60 69 61 70 62 78 63 71 64 72 65 76 66
REMARK SMILES IDX 79 67 73 68 74 69 77 70 75 71 54 72 55 73 63 74 56 75 57 76
REMARK SMILES IDX 61 77 64 78 58 79 59 80 62 81 60 82 6 83 7 84 8 85 9 86
REMARK SMILES IDX 10 87 11 88 12 89 13 90 14 91 15 92 16 93 17 94
REMARK H PARENT 21 10 25 16 84 35 52 46 17 95 17 96 17 97
REMARK Flexibility Score: inf
ROOT
ATOM      1  C   UNL A   1      33.904  28.173  25.165  1.00  0.00     0.069 C 
ATOM      2  C   UNL A   1      33.058  26.948  25.292  1.00  0.00     0.066 A 
ATOM      3  N   UNL A   1      32.047  27.138  26.134  1.00  0.00    -0.195 NA
ATOM      4  S   UNL A   1      31.034  25.876  26.067  1.00  0.00    -0.017 S 
ATOM      5  C   UNL A   1      31.950  24.912  24.982  1.00  0.00     0.131 A 
ATOM      6  C   UNL A   1      33.117  25.629  24.627  1.00  0.00     0.097 A 
ENDROOT
BRANCH   6   7
ATOM      7  C   UNL A   1      34.053  25.110  23.613  1.00  0.00     0.256 C 
ATOM      8  O   UNL A   1      33.988  25.486  22.439  1.00  0.00    -0.269 OA
ATOM      9  N   UNL A   1      34.995  24.128  23.877  1.00  0.00    -0.352 N 
ATOM     10  H   UNL A   1      35.069  23.414  23.204  1.00  0.00     0.163 HD
BRANCH   9  11
ATOM     11  C   UNL A   1      35.880  24.016  25.008  1.00  0.00     0.118 C 
BRANCH  11  12
ATOM     12  C   UNL A   1      37.025  23.022  24.933  1.00  0.00     0.042 C 
BRANCH  12  13
ATOM     13  C   UNL A   1      37.811  22.964  26.220  1.00  0.00     0.118 C 
BRANCH  13  14
ATOM     14  N   UNL A   1      39.139  22.340  26.086  1.00  0.00    -0.352 N 
ATOM     15  C   UNL A   1      40.369  22.880  26.447  1.00  0.00     0.251 C 
ATOM     16  H   UNL A   1      39.157  21.437  25.696  1.00  0.00     0.163 HD
ATOM     17  O   UNL A   1      41.421  22.416  26.056  1.00  0.00    -0.269 OA
BRANCH  15  18
ATOM     18  C   UNL A   1      40.337  24.057  27.333  1.00  0.00     0.039 A 
ATOM     19  C   UNL A   1      41.368  24.340  28.225  1.00  0.00     0.014 A 
ATOM     20  C   UNL A   1      39.329  24.975  27.074  1.00  0.00     0.014 A 
ATOM     21  C   UNL A   1      41.432  25.625  28.758  1.00  0.00     0.010 A 
ATOM     22  C   UNL A   1      39.557  26.287  27.372  1.00  0.00     0.010 A 
ATOM     23  C   UNL A   1      40.548  26.613  28.280  1.00  0.00    -0.014 A 
BRANCH  23  24
ATOM     24  C   UNL A   1      40.684  28.009  28.665  1.00  0.00     0.031 A 
ATOM     25  C   UNL A   1      41.848  28.702  28.064  1.00  0.00     0.074 A 
ATOM     26  C   UNL A   1      39.777  28.675  29.415  1.00  0.00     0.049 A 
ATOM     27  N   UNL A   1      42.985  28.920  28.633  1.00  0.00    -0.248 NA
ATOM     28  C   UNL A   1      41.822  29.040  26.634  1.00  0.00     0.031 C 
ATOM     29  C   UNL A   1      38.432  28.262  29.842  1.00  0.00     0.029 A 
ATOM     30  N   UNL A   1      39.876  29.929  29.932  1.00  0.00    -0.354 N 
ATOM     31  C   UNL A   1      43.753  29.617  27.709  1.00  0.00     0.074 A 
ATOM     32  C   UNL A   1      43.065  29.498  26.450  1.00  0.00     0.031 C 
ATOM     33  C   UNL A   1      37.768  29.317  30.363  1.00  0.00     0.029 A 
ATOM     34  C   UNL A   1      38.705  30.411  30.501  1.00  0.00     0.049 A 
ATOM     35  H   UNL A   1      40.709  30.452  29.905  1.00  0.00     0.167 HD
ATOM     36  C   UNL A   1      44.749  30.442  28.138  1.00  0.00     0.037 A 
ATOM     37  C   UNL A   1      38.527  31.619  31.086  1.00  0.00     0.037 A 
ATOM     38  C   UNL A   1      45.041  30.199  29.532  1.00  0.00     0.049 A 
ATOM     39  C   UNL A   1      39.869  32.094  31.493  1.00  0.00     0.074 A 
ATOM     40  C   UNL A   1      45.542  29.145  30.268  1.00  0.00     0.029 A 
ATOM     41  N   UNL A   1      44.407  31.024  30.426  1.00  0.00    -0.354 N 
ATOM     42  N   UNL A   1      40.589  31.526  32.419  1.00  0.00    -0.248 NA
ATOM     43  C   UNL A   1      40.597  32.949  30.571  1.00  0.00     0.031 C 
ATOM     44  C   UNL A   1      44.826  29.177  31.505  1.00  0.00     0.029 A 
ATOM     45  C   UNL A   1      43.975  30.285  31.493  1.00  0.00     0.049 A 
ATOM     46  H   UNL A   1      44.283  31.995  30.318  1.00  0.00     0.167 HD
ATOM     47  C   UNL A   1      41.889  31.589  31.941  1.00  0.00     0.074 A 
ATOM     48  C   UNL A   1      41.846  32.585  30.874  1.00  0.00     0.031 C 
ATOM     49  C   UNL A   1      42.799  30.623  32.269  1.00  0.00     0.037 A 
BRANCH  36  50
ATOM     50  C   UNL A   1      45.141  31.743  27.473  1.00  0.00     0.064 A 
ATOM     51  C   UNL A   1      46.438  31.862  26.929  1.00  0.00     0.173 A 
ATOM     52  C   UNL A   1      44.440  32.957  27.635  1.00  0.00     0.173 A 
ATOM     53  F   UNL A   1      47.203  30.776  26.743  1.00  0.00    -0.203 F 
ATOM     54  C   UNL A   1      47.016  33.105  26.657  1.00  0.00     0.198 A 
ATOM     55  C   UNL A   1      45.002  34.192  27.316  1.00  0.00     0.198 A 
ATOM     56  F   UNL A   1      43.237  33.017  28.216  1.00  0.00    -0.203 F 
ATOM     57  F   UNL A   1      48.297  33.173  26.270  1.00  0.00    -0.200 F 
ATOM     58  C   UNL A   1      46.300  34.270  26.860  1.00  0.00     0.200 A 
ATOM     59  F   UNL A   1      44.299  35.311  27.540  1.00  0.00    -0.200 F 
ATOM     60  F   UNL A   1      46.873  35.465  26.665  1.00  0.00    -0.200 F 
ENDBRANCH  36  50
BRANCH  37  61
ATOM     61  C   UNL A   1      37.355  32.517  30.987  1.00  0.00     0.064 A 
ATOM     62  C   UNL A   1      37.072  33.201  29.795  1.00  0.00     0.173 A 
ATOM     63  C   UNL A   1      36.327  32.474  31.949  1.00  0.00     0.173 A 
ATOM     64  F   UNL A   1      37.987  33.251  28.815  1.00  0.00    -0.203 F 
ATOM     65  C   UNL A   1      35.817  33.771  29.558  1.00  0.00     0.198 A 
ATOM     66  C   UNL A   1      35.075  33.045  31.711  1.00  0.00     0.198 A 
ATOM     67  F   UNL A   1      36.483  31.788  33.090  1.00  0.00    -0.203 F 
ATOM     68  F   UNL A   1      35.559  34.350  28.378  1.00  0.00    -0.200 F 
ATOM     69  C   UNL A   1      34.816  33.678  30.509  1.00  0.00     0.200 A 
ATOM     70  F   UNL A   1      34.101  32.913  32.623  1.00  0.00    -0.200 F 
ATOM     71  F   UNL A   1      33.590  34.157  30.253  1.00  0.00    -0.200 F 
ENDBRANCH  37  61
BRANCH  49  72
ATOM     72  C   UNL A   1      42.463  29.723  33.428  1.00  0.00     0.064 A 
ATOM     73  C   UNL A   1      41.820  28.477  33.320  1.00  0.00     0.173 A 
ATOM     74  C   UNL A   1      42.914  30.102  34.701  1.00  0.00     0.173 A 
ATOM     75  F   UNL A   1      41.432  28.001  32.131  1.00  0.00    -0.203 F 
ATOM     76  C   UNL A   1      41.605  27.674  34.440  1.00  0.00     0.198 A 
ATOM     77  C   UNL A   1      42.732  29.281  35.810  1.00  0.00     0.198 A 
ATOM     78  F   UNL A   1      43.575  31.260  34.860  1.00  0.00    -0.203 F 
ATOM     79  F   UNL A   1      40.973  26.497  34.313  1.00  0.00    -0.200 F 
ATOM     80  C   UNL A   1      42.067  28.074  35.683  1.00  0.00     0.200 A 
ATOM     81  F   UNL A   1      43.222  29.655  37.000  1.00  0.00    -0.200 F 
ATOM     82  F   UNL A   1      41.893  27.286  36.753  1.00  0.00    -0.200 F 
ENDBRANCH  49  72
ENDBRANCH  23  24
ENDBRANCH  15  18
ENDBRANCH  13  14
ENDBRANCH  12  13
ENDBRANCH  11  12
ENDBRANCH   9  11
ENDBRANCH   6   7
BRANCH   5  83
ATOM     83  N   UNL A   1      31.380  23.643  24.651  1.00  0.00    -0.305 N 
ATOM     84  C   UNL A   1      30.657  23.449  23.388  1.00  0.00     0.154 C 
BRANCH  83  85
ATOM     85  C   UNL A   1      31.454  22.622  25.603  1.00  0.00     0.230 C 
ATOM     86  O   UNL A   1      30.436  22.055  26.028  1.00  0.00    -0.274 OA
BRANCH  85  87
ATOM     87  C   UNL A   1      32.823  22.062  26.076  1.00  0.00     0.076 C 
ATOM     88  C   UNL A   1      33.053  22.359  27.565  1.00  0.00     0.018 C 
BRANCH  87  89
ATOM     89  C   UNL A   1      33.196  20.605  25.751  1.00  0.00     0.013 C 
BRANCH  89  90
ATOM     90  C   UNL A   1      32.621  20.045  24.449  1.00  0.00     0.007 C 
BRANCH  90  91
ATOM     91  C   UNL A   1      32.535  18.518  24.355  1.00  0.00     0.064 C 
BRANCH  91  92
ATOM     92  C   UNL A   1      33.834  17.676  24.419  1.00  0.00     0.177 C 
ATOM     93  C   UNL A   1      34.145  16.730  23.261  1.00  0.00     0.075 C 
BRANCH  92  94
ATOM     94  N   UNL A   1      33.881  16.904  25.667  1.00  0.00    -0.355 N 
ATOM     95  H   UNL A   1      33.264  17.334  26.356  1.00  0.00     0.344 HD
ATOM     96  H   UNL A   1      34.837  16.897  26.026  1.00  0.00     0.344 HD
ATOM     97  H   UNL A   1      33.579  15.947  25.487  1.00  0.00     0.344 HD
ENDBRANCH  92  94
ENDBRANCH  91  92
ENDBRANCH  90  91
ENDBRANCH  89  90
ENDBRANCH  87  89
ENDBRANCH  85  87
ENDBRANCH  83  85
ENDBRANCH   5  83
TORSDOF 18
ENDMDL
MODEL 2
REMARK VINA RESULT:     -11.6      3.209      8.481
REMARK SMILES Cc1nsc(N(C)C(=O)[C@@H](C)CCC[C@H](C)[NH3+])c1C(=O)NCCCNC(=O)c1ccc(-c2c3nc(c(-c4c(F)c(F)c(F)c(F)c4F)c4ccc([nH]4)c(-c4c(F)c(F)c(F)c(F)c4F)c4nc(c(-c5c(F)c(F)c(F)c(F)c5F)c5ccc2[nH]5)C=C4)C=C3)cc1
REMARK SMILES IDX 1 1 2 2 3 3 4 4 5 5 18 6 19 7 20 8 21 9 22 11 23 12 24 13
REMARK SMILES IDX 25 14 26 15 27 17 28 18 29 19 90 20 30 21 89 22 31 23 32 24
REMARK SMILES IDX 33 25 83 26 34 27 88 28 82 29 84 30 35 31 87 32 81 33 80 34
REMARK SMILES IDX 36 36 68 37 48 38 67 39 49 40 52 41 66 42 85 43 50 44 51 45
REMARK SMILES IDX 65 47 86 48 53 49 37 50 38 51 46 52 39 53 40 54 44 55 47 56
REMARK SMILES IDX 41 57 42 58 45 59 43 60 69 61 70 62 78 63 71 64 72 65 76 66
REMARK SMILES IDX 79 67 73 68 74 69 77 70 75 71 54 72 55 73 63 74 56 75 57 76
REMARK SMILES IDX 61 77 64 78 58 79 59 80 62 81 60 82 6 83 7 84 8 85 9 86
REMARK SMILES IDX 10 87 11 88 12 89 13 90 14 91 15 92 16 93 17 94
REMARK H PARENT 21 10 25 16 84 35 52 46 17 95 17 96 17 97
REMARK Flexibility Score: inf
ROOT
ATOM      1  C   UNL A   1      30.129  29.819  22.794  1.00  0.00     0.069 C 
ATOM      2  C   UNL A   1      30.683  28.536  23.322  1.00  0.00     0.066 A 
ATOM      3  N   UNL A   1      29.787  27.556  23.264  1.00  0.00    -0.195 NA
ATOM      4  S   UNL A   1      30.494  26.145  23.626  1.00  0.00    -0.017 S 
ATOM      5  C   UNL A   1      32.046  26.765  24.015  1.00  0.00     0.131 A 
ATOM      6  C   UNL A   1      32.023  28.168  23.829  1.00  0.00     0.097 A 
ENDROOT
BRANCH   6   7
ATOM      7  C   UNL A   1      33.247  28.978  23.971  1.00  0.00     0.256 C 
ATOM      8  O   UNL A   1      34.035  29.106  23.029  1.00  0.00    -0.269 OA
ATOM      9  N   UNL A   1      33.634  29.570  25.162  1.00  0.00    -0.352 N 
ATOM     10  H   UNL A   1      34.586  29.477  25.397  1.00  0.00     0.163 HD
BRANCH   9  11
ATOM     11  C   UNL A   1      32.827  30.305  26.103  1.00  0.00     0.118 C 
BRANCH  11  12
ATOM     12  C   UNL A   1      33.365  30.513  27.507  1.00  0.00     0.042 C 
BRANCH  12  13
ATOM     13  C   UNL A   1      34.427  31.585  27.553  1.00  0.00     0.118 C 
BRANCH  13  14
ATOM     14  N   UNL A   1      34.555  32.248  28.862  1.00  0.00    -0.352 N 
ATOM     15  C   UNL A   1      35.491  31.985  29.858  1.00  0.00     0.251 C 
ATOM     16  H   UNL A   1      33.902  32.959  29.055  1.00  0.00     0.163 HD
ATOM     17  O   UNL A   1      35.355  32.384  30.997  1.00  0.00    -0.269 OA
BRANCH  15  18
ATOM     18  C   UNL A   1      36.664  31.188  29.463  1.00  0.00     0.039 A 
ATOM     19  C   UNL A   1      37.919  31.762  29.269  1.00  0.00     0.014 A 
ATOM     20  C   UNL A   1      36.496  29.811  29.506  1.00  0.00     0.014 A 
ATOM     21  C   UNL A   1      39.024  30.917  29.247  1.00  0.00     0.010 A 
ATOM     22  C   UNL A   1      37.588  29.034  29.764  1.00  0.00     0.010 A 
ATOM     23  C   UNL A   1      38.853  29.552  29.550  1.00  0.00    -0.014 A 
BRANCH  23  24
ATOM     24  C   UNL A   1      39.990  28.659  29.719  1.00  0.00     0.031 A 
ATOM     25  C   UNL A   1      40.416  28.465  31.124  1.00  0.00     0.074 A 
ATOM     26  C   UNL A   1      40.555  27.962  28.708  1.00  0.00     0.049 A 
ATOM     27  N   UNL A   1      41.395  29.063  31.715  1.00  0.00    -0.248 NA
ATOM     28  C   UNL A   1      39.579  27.661  32.025  1.00  0.00     0.031 C 
ATOM     29  C   UNL A   1      40.094  27.781  27.323  1.00  0.00     0.029 A 
ATOM     30  N   UNL A   1      41.689  27.212  28.739  1.00  0.00    -0.354 N 
ATOM     31  C   UNL A   1      41.438  28.553  33.006  1.00  0.00     0.074 A 
ATOM     32  C   UNL A   1      40.199  27.845  33.195  1.00  0.00     0.031 C 
ATOM     33  C   UNL A   1      40.817  26.813  26.718  1.00  0.00     0.029 A 
ATOM     34  C   UNL A   1      41.916  26.463  27.592  1.00  0.00     0.049 A 
ATOM     35  H   UNL A   1      42.298  27.200  29.512  1.00  0.00     0.167 HD
ATOM     36  C   UNL A   1      42.613  28.551  33.697  1.00  0.00     0.037 A 
ATOM     37  C   UNL A   1      42.963  25.637  27.358  1.00  0.00     0.037 A 
ATOM     38  C   UNL A   1      43.584  29.398  33.044  1.00  0.00     0.049 A 
ATOM     39  C   UNL A   1      44.055  26.074  28.258  1.00  0.00     0.074 A 
ATOM     40  C   UNL A   1      43.698  30.747  32.775  1.00  0.00     0.029 A 
ATOM     41  N   UNL A   1      44.453  28.763  32.192  1.00  0.00    -0.354 N 
ATOM     42  N   UNL A   1      44.671  27.217  28.148  1.00  0.00    -0.248 NA
ATOM     43  C   UNL A   1      44.175  25.420  29.549  1.00  0.00     0.031 C 
ATOM     44  C   UNL A   1      44.320  30.823  31.491  1.00  0.00     0.029 A 
ATOM     45  C   UNL A   1      44.619  29.525  31.068  1.00  0.00     0.049 A 
ATOM     46  H   UNL A   1      44.888  27.897  32.363  1.00  0.00     0.167 HD
ATOM     47  C   UNL A   1      44.875  27.633  29.455  1.00  0.00     0.074 A 
ATOM     48  C   UNL A   1      44.672  26.434  30.264  1.00  0.00     0.031 C 
ATOM     49  C   UNL A   1      44.908  28.964  29.765  1.00  0.00     0.037 A 
BRANCH  36  50
ATOM     50  C   UNL A   1      43.043  27.474  34.668  1.00  0.00     0.064 A 
ATOM     51  C   UNL A   1      43.294  27.832  36.010  1.00  0.00     0.173 A 
ATOM     52  C   UNL A   1      43.530  26.208  34.280  1.00  0.00     0.173 A 
ATOM     53  F   UNL A   1      42.890  29.019  36.487  1.00  0.00    -0.203 F 
ATOM     54  C   UNL A   1      44.050  27.025  36.864  1.00  0.00     0.198 A 
ATOM     55  C   UNL A   1      44.241  25.382  35.150  1.00  0.00     0.198 A 
ATOM     56  F   UNL A   1      43.446  25.763  33.021  1.00  0.00    -0.203 F 
ATOM     57  F   UNL A   1      44.376  27.469  38.086  1.00  0.00    -0.200 F 
ATOM     58  C   UNL A   1      44.531  25.804  36.430  1.00  0.00     0.200 A 
ATOM     59  F   UNL A   1      44.717  24.211  34.703  1.00  0.00    -0.200 F 
ATOM     60  F   UNL A   1      45.312  25.058  37.221  1.00  0.00    -0.200 F 
ENDBRANCH  36  50
BRANCH  37  61
ATOM     61  C   UNL A   1      42.952  24.315  26.694  1.00  0.00     0.064 A 
ATOM     62  C   UNL A   1      43.661  24.105  25.501  1.00  0.00     0.173 A 
ATOM     63  C   UNL A   1      42.512  23.165  27.377  1.00  0.00     0.173 A 
ATOM     64  F   UNL A   1      44.148  25.149  24.815  1.00  0.00    -0.203 F 
ATOM     65  C   UNL A   1      43.954  22.817  25.041  1.00  0.00     0.198 A 
ATOM     66  C   UNL A   1      42.803  21.880  26.915  1.00  0.00     0.198 A 
ATOM     67  F   UNL A   1      41.884  23.266  28.557  1.00  0.00    -0.203 F 
ATOM     68  F   UNL A   1      44.697  22.655  23.938  1.00  0.00    -0.200 F 
ATOM     69  C   UNL A   1      43.538  21.707  25.756  1.00  0.00     0.200 A 
ATOM     70  F   UNL A   1      42.431  20.814  27.638  1.00  0.00    -0.200 F 
ATOM     71  F   UNL A   1      43.882  20.475  25.356  1.00  0.00    -0.200 F 
ENDBRANCH  37  61
BRANCH  49  72
ATOM     72  C   UNL A   1      45.086  29.934  28.627  1.00  0.00     0.064 A 
ATOM     73  C   UNL A   1      44.038  30.478  27.863  1.00  0.00     0.173 A 
ATOM     74  C   UNL A   1      46.379  30.412  28.373  1.00  0.00     0.173 A 
ATOM     75  F   UNL A   1      42.764  30.139  28.096  1.00  0.00    -0.203 F 
ATOM     76  C   UNL A   1      44.284  31.423  26.867  1.00  0.00     0.198 A 
ATOM     77  C   UNL A   1      46.617  31.383  27.404  1.00  0.00     0.198 A 
ATOM     78  F   UNL A   1      47.414  29.964  29.101  1.00  0.00    -0.203 F 
ATOM     79  F   UNL A   1      43.269  31.914  26.139  1.00  0.00    -0.200 F 
ATOM     80  C   UNL A   1      45.572  31.880  26.644  1.00  0.00     0.200 A 
ATOM     81  F   UNL A   1      47.859  31.853  27.226  1.00  0.00    -0.200 F 
ATOM     82  F   UNL A   1      45.805  32.815  25.712  1.00  0.00    -0.200 F 
ENDBRANCH  49  72
ENDBRANCH  23  24
ENDBRANCH  15  18
ENDBRANCH  13  14
ENDBRANCH  12  13
ENDBRANCH  11  12
ENDBRANCH   9  11
ENDBRANCH   6   7
BRANCH   5  83
ATOM     83  N   UNL A   1      33.017  25.797  24.416  1.00  0.00    -0.305 N 
ATOM     84  C   UNL A   1      33.589  25.818  25.769  1.00  0.00     0.154 C 
BRANCH  83  85
ATOM     85  C   UNL A   1      33.472  24.887  23.457  1.00  0.00     0.230 C 
ATOM     86  O   UNL A   1      34.101  25.260  22.455  1.00  0.00    -0.274 OA
BRANCH  85  87
ATOM     87  C   UNL A   1      33.324  23.356  23.668  1.00  0.00     0.076 C 
ATOM     88  C   UNL A   1      32.870  22.664  22.375  1.00  0.00     0.018 C 
BRANCH  87  89
ATOM     89  C   UNL A   1      34.471  22.570  24.328  1.00  0.00     0.013 C 
BRANCH  89  90
ATOM     90  C   UNL A   1      35.842  22.714  23.668  1.00  0.00     0.007 C 
BRANCH  90  91
ATOM     91  C   UNL A   1      36.851  23.603  24.403  1.00  0.00     0.064 C 
BRANCH  91  92
ATOM     92  C   UNL A   1      37.280  23.236  25.847  1.00  0.00     0.177 C 
ATOM     93  C   UNL A   1      38.270  24.151  26.565  1.00  0.00     0.075 C 
BRANCH  92  94
ATOM     94  N   UNL A   1      37.806  21.866  25.890  1.00  0.00    -0.355 N 
ATOM     95  H   UNL A   1      37.624  21.460  26.808  1.00  0.00     0.344 HD
ATOM     96  H   UNL A   1      38.812  21.884  25.721  1.00  0.00     0.344 HD
ATOM     97  H   UNL A   1      37.350  21.303  25.172  1.00  0.00     0.344 HD
ENDBRANCH  92  94
ENDBRANCH  91  92
ENDBRANCH  90  91
ENDBRANCH  89  90
ENDBRANCH  87  89
ENDBRANCH  85  87
ENDBRANCH  83  85
ENDBRANCH   5  83
TORSDOF 18
ENDMDL
MODEL 3
REMARK VINA RESULT:     -11.5      3.725      7.609
REMARK SMILES Cc1nsc(N(C)C(=O)[C@@H](C)CCC[C@H](C)[NH3+])c1C(=O)NCCCNC(=O)c1ccc(-c2c3nc(c(-c4c(F)c(F)c(F)c(F)c4F)c4ccc([nH]4)c(-c4c(F)c(F)c(F)c(F)c4F)c4nc(c(-c5c(F)c(F)c(F)c(F)c5F)c5ccc2[nH]5)C=C4)C=C3)cc1
REMARK SMILES IDX 1 1 2 2 3 3 4 4 5 5 18 6 19 7 20 8 21 9 22 11 23 12 24 13
REMARK SMILES IDX 25 14 26 15 27 17 28 18 29 19 90 20 30 21 89 22 31 23 32 24
REMARK SMILES IDX 33 25 83 26 34 27 88 28 82 29 84 30 35 31 87 32 81 33 80 34
REMARK SMILES IDX 36 36 68 37 48 38 67 39 49 40 52 41 66 42 85 43 50 44 51 45
REMARK SMILES IDX 65 47 86 48 53 49 37 50 38 51 46 52 39 53 40 54 44 55 47 56
REMARK SMILES IDX 41 57 42 58 45 59 43 60 69 61 70 62 78 63 71 64 72 65 76 66
REMARK SMILES IDX 79 67 73 68 74 69 77 70 75 71 54 72 55 73 63 74 56 75 57 76
REMARK SMILES IDX 61 77 64 78 58 79 59 80 62 81 60 82 6 83 7 84 8 85 9 86
REMARK SMILES IDX 10 87 11 88 12 89 13 90 14 91 15 92 16 93 17 94
REMARK H PARENT 21 10 25 16 84 35 52 46 17 95 17 96 17 97
REMARK Flexibility Score: inf
ROOT
ATOM      1  C   UNL A   1      30.797  30.108  24.623  1.00  0.00     0.069 C 
ATOM      2  C   UNL A   1      31.029  28.726  24.104  1.00  0.00     0.066 A 
ATOM      3  N   UNL A   1      31.071  28.704  22.775  1.00  0.00    -0.195 NA
ATOM      4  S   UNL A   1      31.549  27.243  22.266  1.00  0.00    -0.017 S 
ATOM      5  C   UNL A   1      31.617  26.483  23.802  1.00  0.00     0.131 A 
ATOM      6  C   UNL A   1      31.265  27.437  24.786  1.00  0.00     0.097 A 
ENDROOT
BRANCH   6   7
ATOM      7  C   UNL A   1      31.344  27.116  26.223  1.00  0.00     0.256 C 
ATOM      8  O   UNL A   1      30.591  26.277  26.727  1.00  0.00    -0.269 OA
ATOM      9  N   UNL A   1      32.187  27.771  27.106  1.00  0.00    -0.352 N 
ATOM     10  H   UNL A   1      31.788  28.032  27.967  1.00  0.00     0.163 HD
BRANCH   9  11
ATOM     11  C   UNL A   1      33.573  28.123  26.927  1.00  0.00     0.118 C 
BRANCH  11  12
ATOM     12  C   UNL A   1      34.004  29.544  27.246  1.00  0.00     0.042 C 
BRANCH  12  13
ATOM     13  C   UNL A   1      35.451  29.615  27.669  1.00  0.00     0.118 C 
BRANCH  13  14
ATOM     14  N   UNL A   1      35.646  29.868  29.107  1.00  0.00    -0.352 N 
ATOM     15  C   UNL A   1      36.665  29.386  29.922  1.00  0.00     0.251 C 
ATOM     16  H   UNL A   1      34.977  30.445  29.541  1.00  0.00     0.163 HD
ATOM     17  O   UNL A   1      36.597  29.420  31.134  1.00  0.00    -0.269 OA
BRANCH  15  18
ATOM     18  C   UNL A   1      37.841  28.822  29.240  1.00  0.00     0.039 A 
ATOM     19  C   UNL A   1      38.430  29.444  28.141  1.00  0.00     0.014 A 
ATOM     20  C   UNL A   1      38.455  27.756  29.883  1.00  0.00     0.014 A 
ATOM     21  C   UNL A   1      39.715  29.050  27.782  1.00  0.00     0.010 A 
ATOM     22  C   UNL A   1      39.796  27.579  29.706  1.00  0.00     0.010 A 
ATOM     23  C   UNL A   1      40.416  28.149  28.609  1.00  0.00    -0.014 A 
BRANCH  23  24
ATOM     24  C   UNL A   1      41.820  27.840  28.385  1.00  0.00     0.031 A 
ATOM     25  C   UNL A   1      42.060  26.609  27.597  1.00  0.00     0.074 A 
ATOM     26  C   UNL A   1      42.837  28.651  28.755  1.00  0.00     0.049 A 
ATOM     27  N   UNL A   1      42.363  25.447  28.069  1.00  0.00    -0.248 NA
ATOM     28  C   UNL A   1      41.773  26.610  26.156  1.00  0.00     0.031 C 
ATOM     29  C   UNL A   1      42.797  30.031  29.261  1.00  0.00     0.029 A 
ATOM     30  N   UNL A   1      44.171  28.395  28.709  1.00  0.00    -0.354 N 
ATOM     31  C   UNL A   1      42.518  24.611  26.971  1.00  0.00     0.074 A 
ATOM     32  C   UNL A   1      41.966  25.324  25.848  1.00  0.00     0.031 C 
ATOM     33  C   UNL A   1      44.042  30.556  29.271  1.00  0.00     0.029 A 
ATOM     34  C   UNL A   1      44.978  29.491  28.979  1.00  0.00     0.049 A 
ATOM     35  H   UNL A   1      44.535  27.504  28.500  1.00  0.00     0.167 HD
ATOM     36  C   UNL A   1      43.325  23.517  27.058  1.00  0.00     0.037 A 
ATOM     37  C   UNL A   1      46.332  29.515  29.003  1.00  0.00     0.037 A 
ATOM     38  C   UNL A   1      43.654  23.240  28.437  1.00  0.00     0.049 A 
ATOM     39  C   UNL A   1      46.774  28.120  29.230  1.00  0.00     0.074 A 
ATOM     40  C   UNL A   1      42.952  22.862  29.564  1.00  0.00     0.029 A 
ATOM     41  N   UNL A   1      44.843  23.759  28.884  1.00  0.00    -0.354 N 
ATOM     42  N   UNL A   1      46.565  27.463  30.336  1.00  0.00    -0.248 NA
ATOM     43  C   UNL A   1      47.078  27.305  28.066  1.00  0.00     0.031 C 
ATOM     44  C   UNL A   1      43.578  23.554  30.647  1.00  0.00     0.029 A 
ATOM     45  C   UNL A   1      44.670  24.264  30.143  1.00  0.00     0.049 A 
ATOM     46  H   UNL A   1      45.688  23.765  28.378  1.00  0.00     0.167 HD
ATOM     47  C   UNL A   1      46.273  26.171  29.926  1.00  0.00     0.074 A 
ATOM     48  C   UNL A   1      46.732  26.105  28.542  1.00  0.00     0.031 C 
ATOM     49  C   UNL A   1      45.433  25.381  30.661  1.00  0.00     0.037 A 
BRANCH  36  50
ATOM     50  C   UNL A   1      44.177  22.978  25.930  1.00  0.00     0.064 A 
ATOM     51  C   UNL A   1      44.165  21.590  25.675  1.00  0.00     0.173 A 
ATOM     52  C   UNL A   1      45.229  23.695  25.321  1.00  0.00     0.173 A 
ATOM     53  F   UNL A   1      43.220  20.805  26.213  1.00  0.00    -0.203 F 
ATOM     54  C   UNL A   1      45.178  20.962  24.945  1.00  0.00     0.198 A 
ATOM     55  C   UNL A   1      46.209  23.071  24.551  1.00  0.00     0.198 A 
ATOM     56  F   UNL A   1      45.425  25.000  25.536  1.00  0.00    -0.203 F 
ATOM     57  F   UNL A   1      45.195  19.626  24.845  1.00  0.00    -0.200 F 
ATOM     58  C   UNL A   1      46.204  21.702  24.391  1.00  0.00     0.200 A 
ATOM     59  F   UNL A   1      47.209  23.805  24.040  1.00  0.00    -0.200 F 
ATOM     60  F   UNL A   1      47.212  21.098  23.749  1.00  0.00    -0.200 F 
ENDBRANCH  36  50
BRANCH  37  61
ATOM     61  C   UNL A   1      47.236  30.570  28.495  1.00  0.00     0.064 A 
ATOM     62  C   UNL A   1      46.892  31.328  27.365  1.00  0.00     0.173 A 
ATOM     63  C   UNL A   1      48.292  31.061  29.286  1.00  0.00     0.173 A 
ATOM     64  F   UNL A   1      45.870  30.946  26.585  1.00  0.00    -0.203 F 
ATOM     65  C   UNL A   1      47.536  32.533  27.068  1.00  0.00     0.198 A 
ATOM     66  C   UNL A   1      48.936  32.263  28.987  1.00  0.00     0.198 A 
ATOM     67  F   UNL A   1      48.647  30.439  30.420  1.00  0.00    -0.203 F 
ATOM     68  F   UNL A   1      47.130  33.267  26.023  1.00  0.00    -0.200 F 
ATOM     69  C   UNL A   1      48.546  33.007  27.888  1.00  0.00     0.200 A 
ATOM     70  F   UNL A   1      49.884  32.732  29.811  1.00  0.00    -0.200 F 
ATOM     71  F   UNL A   1      49.113  34.198  27.647  1.00  0.00    -0.200 F 
ENDBRANCH  37  61
BRANCH  49  72
ATOM     72  C   UNL A   1      45.143  25.810  32.075  1.00  0.00     0.064 A 
ATOM     73  C   UNL A   1      45.990  25.582  33.175  1.00  0.00     0.173 A 
ATOM     74  C   UNL A   1      43.996  26.584  32.300  1.00  0.00     0.173 A 
ATOM     75  F   UNL A   1      47.147  24.924  33.031  1.00  0.00    -0.203 F 
ATOM     76  C   UNL A   1      45.677  26.071  34.443  1.00  0.00     0.198 A 
ATOM     77  C   UNL A   1      43.706  27.104  33.559  1.00  0.00     0.198 A 
ATOM     78  F   UNL A   1      43.173  26.874  31.280  1.00  0.00    -0.203 F 
ATOM     79  F   UNL A   1      46.492  25.825  35.480  1.00  0.00    -0.200 F 
ATOM     80  C   UNL A   1      44.539  26.838  34.632  1.00  0.00     0.200 A 
ATOM     81  F   UNL A   1      42.627  27.881  33.723  1.00  0.00    -0.200 F 
ATOM     82  F   UNL A   1      44.256  27.339  35.842  1.00  0.00    -0.200 F 
ENDBRANCH  49  72
ENDBRANCH  23  24
ENDBRANCH  15  18
ENDBRANCH  13  14
ENDBRANCH  12  13
ENDBRANCH  11  12
ENDBRANCH   9  11
ENDBRANCH   6   7
BRANCH   5  83
ATOM     83  N   UNL A   1      32.010  25.108  23.795  1.00  0.00    -0.305 N 
ATOM     84  C   UNL A   1      31.007  24.037  23.840  1.00  0.00     0.154 C 
BRANCH  83  85
ATOM     85  C   UNL A   1      33.377  24.817  23.836  1.00  0.00     0.230 C 
ATOM     86  O   UNL A   1      34.056  24.734  22.801  1.00  0.00    -0.274 OA
BRANCH  85  87
ATOM     87  C   UNL A   1      34.135  24.710  25.187  1.00  0.00     0.076 C 
ATOM     88  C   UNL A   1      33.225  24.138  26.283  1.00  0.00     0.018 C 
BRANCH  87  89
ATOM     89  C   UNL A   1      35.518  24.036  25.226  1.00  0.00     0.013 C 
BRANCH  89  90
ATOM     90  C   UNL A   1      35.541  22.591  25.725  1.00  0.00     0.007 C 
BRANCH  90  91
ATOM     91  C   UNL A   1      35.690  21.512  24.648  1.00  0.00     0.064 C 
BRANCH  91  92
ATOM     92  C   UNL A   1      34.784  20.256  24.696  1.00  0.00     0.177 C 
ATOM     93  C   UNL A   1      33.575  20.267  25.630  1.00  0.00     0.075 C 
BRANCH  92  94
ATOM     94  N   UNL A   1      35.583  19.060  24.995  1.00  0.00    -0.355 N 
ATOM     95  H   UNL A   1      34.982  18.237  24.982  1.00  0.00     0.344 HD
ATOM     96  H   UNL A   1      36.005  19.157  25.919  1.00  0.00     0.344 HD
ATOM     97  H   UNL A   1      36.318  18.958  24.294  1.00  0.00     0.344 HD
ENDBRANCH  92  94
ENDBRANCH  91  92
ENDBRANCH  90  91
ENDBRANCH  89  90
ENDBRANCH  87  89
ENDBRANCH  85  87
ENDBRANCH  83  85
ENDBRANCH   5  83
TORSDOF 18
ENDMDL
