MODEL 1
REMARK VINA RESULT:     -13.4      0.000      0.000
REMARK SMILES CCC(=O)N1CCc2cc(C(=O)NC3(C(=O)NCCCNC(=O)c4ccc(-c5c6nc(c(-c7c(F)c(F)c(F)c(F)c7F)c7ccc([nH]7)c(-c7c(F)c(F)c(F)c(F)c7F)c7nc(c(-c8c(F)c(F)c(F)c(F)c8F)c8ccc5[nH]8)C=C7)C=C6)cc4)CCCC3)ccc21
REMARK SMILES IDX 18 1 17 2 15 3 16 4 14 6 87 7 90 8 88 9 89 10 13 11 11 12
REMARK SMILES IDX 12 13 10 15 5 16 6 17 93 18 7 19 8 20 92 21 9 22 91 23 3 24
REMARK SMILES IDX 4 25 2 26 1 27 19 28 20 29 21 30 22 31 23 33 24 34 25 35
REMARK SMILES IDX 86 36 26 37 85 38 27 39 28 40 29 41 79 42 30 43 84 44 78 45
REMARK SMILES IDX 80 46 31 47 83 48 77 49 76 50 32 52 64 53 44 54 63 55 45 56
REMARK SMILES IDX 48 57 62 58 81 59 46 60 47 61 61 63 82 64 49 65 33 66 34 67
REMARK SMILES IDX 42 68 35 69 36 70 40 71 43 72 37 73 38 74 41 75 39 76 65 77
REMARK SMILES IDX 66 78 74 79 67 80 68 81 72 82 75 83 69 84 70 85 73 86 71 87
REMARK SMILES IDX 50 88 51 89 59 90 52 91 53 92 57 93 60 94 54 95 55 96 58 97
REMARK SMILES IDX 56 98
REMARK H PARENT 17 5 13 14 21 32 80 51 48 62
REMARK Flexibility Score: inf
ROOT
ATOM      1  C   UNL A   1      31.384  30.563  25.760  1.00  0.00     0.117 C 
ENDROOT
BRANCH   1   2
ATOM      2  N   UNL A   1      30.696  30.368  24.499  1.00  0.00    -0.354 N 
ATOM      3  C   UNL A   1      30.391  29.268  23.758  1.00  0.00     0.245 C 
ATOM      4  O   UNL A   1      29.481  29.448  22.936  1.00  0.00    -0.272 OA
ATOM      5  H   UNL A   1      30.384  31.208  24.093  1.00  0.00     0.163 HD
BRANCH   3   6
ATOM      6  C   UNL A   1      31.066  27.854  23.892  1.00  0.00     0.119 C 
ATOM      7  C   UNL A   1      30.085  26.795  23.327  1.00  0.00     0.038 C 
ATOM      8  C   UNL A   1      31.425  27.290  25.279  1.00  0.00     0.038 C 
ATOM      9  C   UNL A   1      29.397  26.151  24.517  1.00  0.00     0.003 C 
ATOM     10  C   UNL A   1      30.412  26.206  25.643  1.00  0.00     0.003 C 
BRANCH   6  11
ATOM     11  N   UNL A   1      32.292  27.846  23.023  1.00  0.00    -0.338 N 
ATOM     12  C   UNL A   1      33.195  26.907  22.577  1.00  0.00     0.252 C 
ATOM     13  O   UNL A   1      34.006  27.276  21.723  1.00  0.00    -0.269 OA
ATOM     14  H   UNL A   1      32.505  28.744  22.684  1.00  0.00     0.164 HD
BRANCH  12  15
ATOM     15  C   UNL A   1      33.312  25.516  23.096  1.00  0.00     0.040 A 
ATOM     16  N   UNL A   1      33.571  21.782  24.989  1.00  0.00    -0.312 N 
ATOM     17  C   UNL A   1      34.319  22.119  26.206  1.00  0.00     0.130 C 
ATOM     18  C   UNL A   1      33.447  22.938  24.211  1.00  0.00     0.047 A 
ATOM     19  C   UNL A   1      34.751  23.589  26.097  1.00  0.00     0.059 C 
ATOM     20  C   UNL A   1      34.104  24.010  24.815  1.00  0.00    -0.022 A 
ATOM     21  C   UNL A   1      32.716  23.152  23.069  1.00  0.00     0.027 A 
ATOM     22  C   UNL A   1      34.051  25.295  24.272  1.00  0.00     0.019 A 
ATOM     23  C   UNL A   1      32.704  24.420  22.488  1.00  0.00     0.016 A 
BRANCH  16  24
ATOM     24  C   UNL A   1      33.055  20.515  24.819  1.00  0.00     0.226 C 
ATOM     25  O   UNL A   1      31.856  20.283  24.999  1.00  0.00    -0.275 OA
BRANCH  24  26
ATOM     26  C   UNL A   1      34.011  19.344  24.625  1.00  0.00     0.097 C 
ATOM     27  C   UNL A   1      33.473  18.096  23.961  1.00  0.00     0.014 C 
ENDBRANCH  24  26
ENDBRANCH  16  24
ENDBRANCH  12  15
ENDBRANCH   6  11
ENDBRANCH   3   6
ENDBRANCH   1   2
BRANCH   1  28
ATOM     28  C   UNL A   1      31.242  31.956  26.362  1.00  0.00     0.042 C 
BRANCH  28  29
ATOM     29  C   UNL A   1      32.524  32.558  26.926  1.00  0.00     0.118 C 
BRANCH  29  30
ATOM     30  N   UNL A   1      32.363  33.903  27.456  1.00  0.00    -0.352 N 
ATOM     31  C   UNL A   1      33.047  34.594  28.425  1.00  0.00     0.251 C 
ATOM     32  H   UNL A   1      31.627  34.411  27.044  1.00  0.00     0.163 HD
ATOM     33  O   UNL A   1      32.642  35.709  28.754  1.00  0.00    -0.269 OA
BRANCH  31  34
ATOM     34  C   UNL A   1      34.230  34.026  29.114  1.00  0.00     0.039 A 
ATOM     35  C   UNL A   1      34.025  33.058  30.104  1.00  0.00     0.014 A 
ATOM     36  C   UNL A   1      35.529  34.456  28.842  1.00  0.00     0.014 A 
ATOM     37  C   UNL A   1      35.115  32.470  30.750  1.00  0.00     0.010 A 
ATOM     38  C   UNL A   1      36.621  33.805  29.420  1.00  0.00     0.010 A 
ATOM     39  C   UNL A   1      36.427  32.804  30.381  1.00  0.00    -0.014 A 
BRANCH  39  40
ATOM     40  C   UNL A   1      37.592  32.108  30.993  1.00  0.00     0.031 A 
ATOM     41  C   UNL A   1      38.068  32.472  32.374  1.00  0.00     0.074 A 
ATOM     42  C   UNL A   1      38.254  31.171  30.284  1.00  0.00     0.049 A 
ATOM     43  N   UNL A   1      39.072  31.982  33.059  1.00  0.00    -0.248 NA
ATOM     44  C   UNL A   1      37.335  33.541  33.068  1.00  0.00     0.031 C 
ATOM     45  C   UNL A   1      37.932  30.764  28.915  1.00  0.00     0.029 A 
ATOM     46  N   UNL A   1      39.333  30.389  30.615  1.00  0.00    -0.354 N 
ATOM     47  C   UNL A   1      39.097  32.689  34.253  1.00  0.00     0.074 A 
ATOM     48  C   UNL A   1      38.045  33.680  34.178  1.00  0.00     0.031 C 
ATOM     49  C   UNL A   1      38.770  29.788  28.536  1.00  0.00     0.029 A 
ATOM     50  C   UNL A   1      39.712  29.522  29.619  1.00  0.00     0.049 A 
ATOM     51  H   UNL A   1      39.792  30.446  31.484  1.00  0.00     0.167 HD
ATOM     52  C   UNL A   1      39.903  32.513  35.328  1.00  0.00     0.037 A 
ATOM     53  C   UNL A   1      40.704  28.612  29.582  1.00  0.00     0.037 A 
ATOM     54  C   UNL A   1      40.932  31.509  35.415  1.00  0.00     0.049 A 
ATOM     55  C   UNL A   1      41.584  28.432  30.789  1.00  0.00     0.074 A 
ATOM     56  C   UNL A   1      41.758  31.209  36.485  1.00  0.00     0.029 A 
ATOM     57  N   UNL A   1      41.278  30.642  34.389  1.00  0.00    -0.354 N 
ATOM     58  N   UNL A   1      41.545  29.055  31.941  1.00  0.00    -0.248 NA
ATOM     59  C   UNL A   1      42.642  27.417  30.692  1.00  0.00     0.031 C 
ATOM     60  C   UNL A   1      42.632  30.190  36.092  1.00  0.00     0.029 A 
ATOM     61  C   UNL A   1      42.319  29.822  34.793  1.00  0.00     0.049 A 
ATOM     62  H   UNL A   1      40.846  30.612  33.505  1.00  0.00     0.167 HD
ATOM     63  C   UNL A   1      42.552  28.492  32.714  1.00  0.00     0.074 A 
ATOM     64  C   UNL A   1      43.175  27.465  31.905  1.00  0.00     0.031 C 
ATOM     65  C   UNL A   1      42.927  28.799  33.980  1.00  0.00     0.037 A 
BRANCH  52  66
ATOM     66  C   UNL A   1      39.700  33.424  36.504  1.00  0.00     0.064 A 
ATOM     67  C   UNL A   1      40.337  34.671  36.586  1.00  0.00     0.173 A 
ATOM     68  C   UNL A   1      38.833  33.062  37.545  1.00  0.00     0.173 A 
ATOM     69  F   UNL A   1      41.184  35.061  35.621  1.00  0.00    -0.203 F 
ATOM     70  C   UNL A   1      40.139  35.508  37.681  1.00  0.00     0.198 A 
ATOM     71  C   UNL A   1      38.612  33.914  38.625  1.00  0.00     0.198 A 
ATOM     72  F   UNL A   1      38.191  31.884  37.513  1.00  0.00    -0.203 F 
ATOM     73  F   UNL A   1      40.798  36.673  37.760  1.00  0.00    -0.200 F 
ATOM     74  C   UNL A   1      39.272  35.132  38.696  1.00  0.00     0.200 A 
ATOM     75  F   UNL A   1      37.763  33.556  39.598  1.00  0.00    -0.200 F 
ATOM     76  F   UNL A   1      39.077  35.942  39.747  1.00  0.00    -0.200 F 
ENDBRANCH  52  66
BRANCH  53  77
ATOM     77  C   UNL A   1      40.901  27.776  28.368  1.00  0.00     0.064 A 
ATOM     78  C   UNL A   1      40.262  26.535  28.237  1.00  0.00     0.173 A 
ATOM     79  C   UNL A   1      41.731  28.197  27.319  1.00  0.00     0.173 A 
ATOM     80  F   UNL A   1      39.474  26.082  29.223  1.00  0.00    -0.203 F 
ATOM     81  C   UNL A   1      40.461  25.738  27.111  1.00  0.00     0.198 A 
ATOM     82  C   UNL A   1      41.907  27.411  26.182  1.00  0.00     0.198 A 
ATOM     83  F   UNL A   1      42.361  29.378  27.393  1.00  0.00    -0.203 F 
ATOM     84  F   UNL A   1      39.872  24.537  27.032  1.00  0.00    -0.200 F 
ATOM     85  C   UNL A   1      41.279  26.179  26.083  1.00  0.00     0.200 A 
ATOM     86  F   UNL A   1      42.687  27.847  25.183  1.00  0.00    -0.200 F 
ATOM     87  F   UNL A   1      41.466  25.414  24.999  1.00  0.00    -0.200 F 
ENDBRANCH  53  77
BRANCH  65  88
ATOM     88  C   UNL A   1      44.043  27.998  34.581  1.00  0.00     0.064 A 
ATOM     89  C   UNL A   1      45.377  28.427  34.511  1.00  0.00     0.173 A 
ATOM     90  C   UNL A   1      43.771  26.805  35.270  1.00  0.00     0.173 A 
ATOM     91  F   UNL A   1      45.691  29.552  33.851  1.00  0.00    -0.203 F 
ATOM     92  C   UNL A   1      46.400  27.679  35.089  1.00  0.00     0.198 A 
ATOM     93  C   UNL A   1      44.793  26.076  35.871  1.00  0.00     0.198 A 
ATOM     94  F   UNL A   1      42.512  26.355  35.369  1.00  0.00    -0.203 F 
ATOM     95  F   UNL A   1      47.672  28.085  34.973  1.00  0.00    -0.200 F 
ATOM     96  C   UNL A   1      46.106  26.510  35.775  1.00  0.00     0.200 A 
ATOM     97  F   UNL A   1      44.506  24.953  36.544  1.00  0.00    -0.200 F 
ATOM     98  F   UNL A   1      47.092  25.796  36.337  1.00  0.00    -0.200 F 
ENDBRANCH  65  88
ENDBRANCH  39  40
ENDBRANCH  31  34
ENDBRANCH  29  30
ENDBRANCH  28  29
ENDBRANCH   1  28
TORSDOF 14
ENDMDL
MODEL 2
REMARK VINA RESULT:     -13.2      0.639      1.871
REMARK SMILES CCC(=O)N1CCc2cc(C(=O)NC3(C(=O)NCCCNC(=O)c4ccc(-c5c6nc(c(-c7c(F)c(F)c(F)c(F)c7F)c7ccc([nH]7)c(-c7c(F)c(F)c(F)c(F)c7F)c7nc(c(-c8c(F)c(F)c(F)c(F)c8F)c8ccc5[nH]8)C=C7)C=C6)cc4)CCCC3)ccc21
REMARK SMILES IDX 18 1 17 2 15 3 16 4 14 6 87 7 90 8 88 9 89 10 13 11 11 12
REMARK SMILES IDX 12 13 10 15 5 16 6 17 93 18 7 19 8 20 92 21 9 22 91 23 3 24
REMARK SMILES IDX 4 25 2 26 1 27 19 28 20 29 21 30 22 31 23 33 24 34 25 35
REMARK SMILES IDX 86 36 26 37 85 38 27 39 28 40 29 41 79 42 30 43 84 44 78 45
REMARK SMILES IDX 80 46 31 47 83 48 77 49 76 50 32 52 64 53 44 54 63 55 45 56
REMARK SMILES IDX 48 57 62 58 81 59 46 60 47 61 61 63 82 64 49 65 33 66 34 67
REMARK SMILES IDX 42 68 35 69 36 70 40 71 43 72 37 73 38 74 41 75 39 76 65 77
REMARK SMILES IDX 66 78 74 79 67 80 68 81 72 82 75 83 69 84 70 85 73 86 71 87
REMARK SMILES IDX 50 88 51 89 59 90 52 91 53 92 57 93 60 94 54 95 55 96 58 97
REMARK SMILES IDX 56 98
REMARK H PARENT 17 5 13 14 21 32 80 51 48 62
REMARK Flexibility Score: inf
ROOT
ATOM      1  C   UNL A   1      31.399  30.676  25.766  1.00  0.00     0.117 C 
ENDROOT
BRANCH   1   2
ATOM      2  N   UNL A   1      30.669  30.508  24.525  1.00  0.00    -0.354 N 
ATOM      3  C   UNL A   1      30.322  29.421  23.781  1.00  0.00     0.245 C 
ATOM      4  O   UNL A   1      29.390  29.627  22.991  1.00  0.00    -0.272 OA
ATOM      5  H   UNL A   1      30.359  31.358  24.138  1.00  0.00     0.163 HD
BRANCH   3   6
ATOM      6  C   UNL A   1      30.975  27.995  23.879  1.00  0.00     0.119 C 
ATOM      7  C   UNL A   1      29.976  26.964  23.295  1.00  0.00     0.038 C 
ATOM      8  C   UNL A   1      31.333  27.393  25.250  1.00  0.00     0.038 C 
ATOM      9  C   UNL A   1      29.284  26.304  24.474  1.00  0.00     0.003 C 
ATOM     10  C   UNL A   1      30.305  26.316  25.594  1.00  0.00     0.003 C 
BRANCH   6  11
ATOM     11  N   UNL A   1      32.197  27.988  23.003  1.00  0.00    -0.338 N 
ATOM     12  C   UNL A   1      33.165  27.077  22.644  1.00  0.00     0.252 C 
ATOM     13  O   UNL A   1      33.945  27.417  21.751  1.00  0.00    -0.269 OA
ATOM     14  H   UNL A   1      32.343  28.862  22.575  1.00  0.00     0.164 HD
BRANCH  12  15
ATOM     15  C   UNL A   1      33.384  25.757  23.298  1.00  0.00     0.040 A 
ATOM     16  N   UNL A   1      33.997  21.854  24.707  1.00  0.00    -0.312 N 
ATOM     17  C   UNL A   1      33.108  21.081  23.830  1.00  0.00     0.130 C 
ATOM     18  C   UNL A   1      33.862  23.209  24.389  1.00  0.00     0.047 A 
ATOM     19  C   UNL A   1      32.312  22.078  22.975  1.00  0.00     0.059 C 
ATOM     20  C   UNL A   1      32.908  23.388  23.388  1.00  0.00    -0.022 A 
ATOM     21  C   UNL A   1      34.583  24.290  24.833  1.00  0.00     0.027 A 
ATOM     22  C   UNL A   1      32.655  24.646  22.839  1.00  0.00     0.019 A 
ATOM     23  C   UNL A   1      34.299  25.560  24.331  1.00  0.00     0.016 A 
BRANCH  16  24
ATOM     24  C   UNL A   1      34.837  21.208  25.587  1.00  0.00     0.226 C 
ATOM     25  O   UNL A   1      34.768  21.409  26.804  1.00  0.00    -0.275 OA
BRANCH  24  26
ATOM     26  C   UNL A   1      36.013  20.408  25.040  1.00  0.00     0.097 C 
ATOM     27  C   UNL A   1      37.365  21.085  24.988  1.00  0.00     0.014 C 
ENDBRANCH  24  26
ENDBRANCH  16  24
ENDBRANCH  12  15
ENDBRANCH   6  11
ENDBRANCH   3   6
ENDBRANCH   1   2
BRANCH   1  28
ATOM     28  C   UNL A   1      31.255  32.047  26.416  1.00  0.00     0.042 C 
BRANCH  28  29
ATOM     29  C   UNL A   1      32.510  32.584  27.094  1.00  0.00     0.118 C 
BRANCH  29  30
ATOM     30  N   UNL A   1      32.382  33.949  27.581  1.00  0.00    -0.352 N 
ATOM     31  C   UNL A   1      33.102  34.663  28.506  1.00  0.00     0.251 C 
ATOM     32  H   UNL A   1      31.641  34.453  27.172  1.00  0.00     0.163 HD
ATOM     33  O   UNL A   1      32.721  35.795  28.807  1.00  0.00    -0.269 OA
BRANCH  31  34
ATOM     34  C   UNL A   1      34.297  34.103  29.181  1.00  0.00     0.039 A 
ATOM     35  C   UNL A   1      34.106  33.227  30.255  1.00  0.00     0.014 A 
ATOM     36  C   UNL A   1      35.595  34.454  28.812  1.00  0.00     0.014 A 
ATOM     37  C   UNL A   1      35.205  32.646  30.894  1.00  0.00     0.010 A 
ATOM     38  C   UNL A   1      36.690  33.807  29.388  1.00  0.00     0.010 A 
ATOM     39  C   UNL A   1      36.508  32.894  30.436  1.00  0.00    -0.014 A 
BRANCH  39  40
ATOM     40  C   UNL A   1      37.676  32.201  31.046  1.00  0.00     0.031 A 
ATOM     41  C   UNL A   1      38.160  32.574  32.421  1.00  0.00     0.074 A 
ATOM     42  C   UNL A   1      38.332  31.258  30.339  1.00  0.00     0.049 A 
ATOM     43  N   UNL A   1      39.168  32.087  33.104  1.00  0.00    -0.248 NA
ATOM     44  C   UNL A   1      37.433  33.649  33.113  1.00  0.00     0.031 C 
ATOM     45  C   UNL A   1      38.001  30.843  28.975  1.00  0.00     0.029 A 
ATOM     46  N   UNL A   1      39.412  30.477  30.669  1.00  0.00    -0.354 N 
ATOM     47  C   UNL A   1      39.200  32.803  34.293  1.00  0.00     0.074 A 
ATOM     48  C   UNL A   1      38.150  33.795  34.217  1.00  0.00     0.031 C 
ATOM     49  C   UNL A   1      38.836  29.862  28.598  1.00  0.00     0.029 A 
ATOM     50  C   UNL A   1      39.784  29.602  29.678  1.00  0.00     0.049 A 
ATOM     51  H   UNL A   1      39.876  30.539  31.535  1.00  0.00     0.167 HD
ATOM     52  C   UNL A   1      40.013  32.633  35.364  1.00  0.00     0.037 A 
ATOM     53  C   UNL A   1      40.774  28.691  29.641  1.00  0.00     0.037 A 
ATOM     54  C   UNL A   1      41.041  31.628  35.452  1.00  0.00     0.049 A 
ATOM     55  C   UNL A   1      41.661  28.518  30.844  1.00  0.00     0.074 A 
ATOM     56  C   UNL A   1      41.873  31.335  36.519  1.00  0.00     0.029 A 
ATOM     57  N   UNL A   1      41.379  30.753  34.430  1.00  0.00    -0.354 N 
ATOM     58  N   UNL A   1      41.630  29.149  31.992  1.00  0.00    -0.248 NA
ATOM     59  C   UNL A   1      42.717  27.501  30.748  1.00  0.00     0.031 C 
ATOM     60  C   UNL A   1      42.742  30.311  36.128  1.00  0.00     0.029 A 
ATOM     61  C   UNL A   1      42.422  29.935  34.834  1.00  0.00     0.049 A 
ATOM     62  H   UNL A   1      40.942  30.718  33.549  1.00  0.00     0.167 HD
ATOM     63  C   UNL A   1      42.640  28.590  32.763  1.00  0.00     0.074 A 
ATOM     64  C   UNL A   1      43.257  27.557  31.957  1.00  0.00     0.031 C 
ATOM     65  C   UNL A   1      43.023  28.906  34.024  1.00  0.00     0.037 A 
BRANCH  52  66
ATOM     66  C   UNL A   1      39.818  33.552  36.535  1.00  0.00     0.064 A 
ATOM     67  C   UNL A   1      38.934  33.237  37.578  1.00  0.00     0.173 A 
ATOM     68  C   UNL A   1      40.549  34.746  36.635  1.00  0.00     0.173 A 
ATOM     69  F   UNL A   1      38.206  32.111  37.527  1.00  0.00    -0.203 F 
ATOM     70  C   UNL A   1      38.765  34.095  38.660  1.00  0.00     0.198 A 
ATOM     71  C   UNL A   1      40.400  35.589  37.733  1.00  0.00     0.198 A 
ATOM     72  F   UNL A   1      41.415  35.092  35.670  1.00  0.00    -0.203 F 
ATOM     73  F   UNL A   1      37.877  33.796  39.619  1.00  0.00    -0.200 F 
ATOM     74  C   UNL A   1      39.502  35.268  38.740  1.00  0.00     0.200 A 
ATOM     75  F   UNL A   1      41.123  36.714  37.817  1.00  0.00    -0.200 F 
ATOM     76  F   UNL A   1      39.342  36.091  39.786  1.00  0.00    -0.200 F 
ENDBRANCH  52  66
BRANCH  53  77
ATOM     77  C   UNL A   1      40.963  27.846  28.432  1.00  0.00     0.064 A 
ATOM     78  C   UNL A   1      41.818  28.250  27.397  1.00  0.00     0.173 A 
ATOM     79  C   UNL A   1      40.292  26.623  28.285  1.00  0.00     0.173 A 
ATOM     80  F   UNL A   1      42.466  29.421  27.485  1.00  0.00    -0.203 F 
ATOM     81  C   UNL A   1      41.980  27.472  26.252  1.00  0.00     0.198 A 
ATOM     82  C   UNL A   1      40.477  25.833  27.151  1.00  0.00     0.198 A 
ATOM     83  F   UNL A   1      39.466  26.188  29.248  1.00  0.00    -0.203 F 
ATOM     84  F   UNL A   1      42.770  27.904  25.260  1.00  0.00    -0.200 F 
ATOM     85  C   UNL A   1      41.314  26.262  26.133  1.00  0.00     0.200 A 
ATOM     86  F   UNL A   1      39.843  24.658  27.046  1.00  0.00    -0.200 F 
ATOM     87  F   UNL A   1      41.474  25.514  25.033  1.00  0.00    -0.200 F 
ENDBRANCH  53  77
BRANCH  65  88
ATOM     88  C   UNL A   1      44.142  28.107  34.624  1.00  0.00     0.064 A 
ATOM     89  C   UNL A   1      45.476  28.532  34.541  1.00  0.00     0.173 A 
ATOM     90  C   UNL A   1      43.872  26.921  35.326  1.00  0.00     0.173 A 
ATOM     91  F   UNL A   1      45.788  29.649  33.868  1.00  0.00    -0.203 F 
ATOM     92  C   UNL A   1      46.502  27.787  35.118  1.00  0.00     0.198 A 
ATOM     93  C   UNL A   1      44.896  26.194  35.926  1.00  0.00     0.198 A 
ATOM     94  F   UNL A   1      42.612  26.475  35.438  1.00  0.00    -0.203 F 
ATOM     95  F   UNL A   1      47.773  28.188  34.988  1.00  0.00    -0.200 F 
ATOM     96  C   UNL A   1      46.210  26.625  35.816  1.00  0.00     0.200 A 
ATOM     97  F   UNL A   1      44.612  25.078  36.611  1.00  0.00    -0.200 F 
ATOM     98  F   UNL A   1      47.198  25.913  36.378  1.00  0.00    -0.200 F 
ENDBRANCH  65  88
ENDBRANCH  39  40
ENDBRANCH  31  34
ENDBRANCH  29  30
ENDBRANCH  28  29
ENDBRANCH   1  28
TORSDOF 14
ENDMDL
MODEL 3
REMARK VINA RESULT:     -13.2      4.934     10.875
REMARK SMILES CCC(=O)N1CCc2cc(C(=O)NC3(C(=O)NCCCNC(=O)c4ccc(-c5c6nc(c(-c7c(F)c(F)c(F)c(F)c7F)c7ccc([nH]7)c(-c7c(F)c(F)c(F)c(F)c7F)c7nc(c(-c8c(F)c(F)c(F)c(F)c8F)c8ccc5[nH]8)C=C7)C=C6)cc4)CCCC3)ccc21
REMARK SMILES IDX 18 1 17 2 15 3 16 4 14 6 87 7 90 8 88 9 89 10 13 11 11 12
REMARK SMILES IDX 12 13 10 15 5 16 6 17 93 18 7 19 8 20 92 21 9 22 91 23 3 24
REMARK SMILES IDX 4 25 2 26 1 27 19 28 20 29 21 30 22 31 23 33 24 34 25 35
REMARK SMILES IDX 86 36 26 37 85 38 27 39 28 40 29 41 79 42 30 43 84 44 78 45
REMARK SMILES IDX 80 46 31 47 83 48 77 49 76 50 32 52 64 53 44 54 63 55 45 56
REMARK SMILES IDX 48 57 62 58 81 59 46 60 47 61 61 63 82 64 49 65 33 66 34 67
REMARK SMILES IDX 42 68 35 69 36 70 40 71 43 72 37 73 38 74 41 75 39 76 65 77
REMARK SMILES IDX 66 78 74 79 67 80 68 81 72 82 75 83 69 84 70 85 73 86 71 87
REMARK SMILES IDX 50 88 51 89 59 90 52 91 53 92 57 93 60 94 54 95 55 96 58 97
REMARK SMILES IDX 56 98
REMARK H PARENT 17 5 13 14 21 32 80 51 48 62
REMARK Flexibility Score: inf
ROOT
ATOM      1  C   UNL A   1      36.546  20.401  24.999  1.00  0.00     0.117 C 
ENDROOT
BRANCH   1   2
ATOM      2  N   UNL A   1      35.286  19.685  25.001  1.00  0.00    -0.354 N 
ATOM      3  C   UNL A   1      34.002  20.044  24.723  1.00  0.00     0.245 C 
ATOM      4  O   UNL A   1      33.253  19.090  24.470  1.00  0.00    -0.272 OA
ATOM      5  H   UNL A   1      35.376  18.739  25.259  1.00  0.00     0.163 HD
BRANCH   3   6
ATOM      6  C   UNL A   1      33.450  21.515  24.677  1.00  0.00     0.119 C 
ATOM      7  C   UNL A   1      32.151  21.518  23.830  1.00  0.00     0.038 C 
ATOM      8  C   UNL A   1      34.283  22.642  24.038  1.00  0.00     0.038 C 
ATOM      9  C   UNL A   1      32.525  22.027  22.450  1.00  0.00     0.003 C 
ATOM     10  C   UNL A   1      33.680  22.983  22.676  1.00  0.00     0.003 C 
BRANCH   6  11
ATOM     11  N   UNL A   1      33.078  21.911  26.079  1.00  0.00    -0.338 N 
ATOM     12  C   UNL A   1      32.424  22.962  26.681  1.00  0.00     0.252 C 
ATOM     13  O   UNL A   1      32.175  22.846  27.884  1.00  0.00    -0.269 OA
ATOM     14  H   UNL A   1      33.381  21.246  26.737  1.00  0.00     0.164 HD
BRANCH  12  15
ATOM     15  C   UNL A   1      32.067  24.244  26.014  1.00  0.00     0.040 A 
ATOM     16  N   UNL A   1      31.488  27.843  23.937  1.00  0.00    -0.312 N 
ATOM     17  C   UNL A   1      32.806  28.477  24.073  1.00  0.00     0.130 C 
ATOM     18  C   UNL A   1      31.507  26.632  24.637  1.00  0.00     0.047 A 
ATOM     19  C   UNL A   1      33.652  27.601  25.009  1.00  0.00     0.059 C 
ATOM     20  C   UNL A   1      32.737  26.444  25.264  1.00  0.00    -0.022 A 
ATOM     21  C   UNL A   1      30.568  25.631  24.682  1.00  0.00     0.027 A 
ATOM     22  C   UNL A   1      33.030  25.267  25.956  1.00  0.00     0.019 A 
ATOM     23  C   UNL A   1      30.829  24.476  25.418  1.00  0.00     0.016 A 
BRANCH  16  24
ATOM     24  C   UNL A   1      30.521  28.417  23.142  1.00  0.00     0.226 C 
ATOM     25  O   UNL A   1      30.299  28.000  22.001  1.00  0.00    -0.275 OA
BRANCH  24  26
ATOM     26  C   UNL A   1      29.870  29.720  23.588  1.00  0.00     0.097 C 
ATOM     27  C   UNL A   1      28.499  30.049  23.040  1.00  0.00     0.014 C 
ENDBRANCH  24  26
ENDBRANCH  16  24
ENDBRANCH  12  15
ENDBRANCH   6  11
ENDBRANCH   3   6
ENDBRANCH   1   2
BRANCH   1  28
ATOM     28  C   UNL A   1      37.788  19.518  25.012  1.00  0.00     0.042 C 
BRANCH  28  29
ATOM     29  C   UNL A   1      38.991  20.093  25.750  1.00  0.00     0.118 C 
BRANCH  29  30
ATOM     30  N   UNL A   1      40.129  19.189  25.821  1.00  0.00    -0.352 N 
ATOM     31  C   UNL A   1      41.460  19.410  26.076  1.00  0.00     0.251 C 
ATOM     32  H   UNL A   1      39.903  18.246  25.655  1.00  0.00     0.163 HD
ATOM     33  O   UNL A   1      42.244  18.465  25.986  1.00  0.00    -0.269 OA
BRANCH  31  34
ATOM     34  C   UNL A   1      41.987  20.753  26.417  1.00  0.00     0.039 A 
ATOM     35  C   UNL A   1      42.228  21.658  25.378  1.00  0.00     0.014 A 
ATOM     36  C   UNL A   1      42.290  21.124  27.727  1.00  0.00     0.014 A 
ATOM     37  C   UNL A   1      42.689  22.947  25.660  1.00  0.00     0.010 A 
ATOM     38  C   UNL A   1      42.663  22.438  28.018  1.00  0.00     0.010 A 
ATOM     39  C   UNL A   1      42.866  23.366  26.987  1.00  0.00    -0.014 A 
BRANCH  39  40
ATOM     40  C   UNL A   1      43.258  24.768  27.299  1.00  0.00     0.031 A 
ATOM     41  C   UNL A   1      44.655  25.255  27.026  1.00  0.00     0.074 A 
ATOM     42  C   UNL A   1      42.361  25.597  27.871  1.00  0.00     0.049 A 
ATOM     43  N   UNL A   1      45.178  26.437  27.246  1.00  0.00    -0.248 NA
ATOM     44  C   UNL A   1      45.598  24.282  26.453  1.00  0.00     0.031 C 
ATOM     45  C   UNL A   1      40.991  25.234  28.239  1.00  0.00     0.029 A 
ATOM     46  N   UNL A   1      42.465  26.914  28.242  1.00  0.00    -0.354 N 
ATOM     47  C   UNL A   1      46.505  26.344  26.850  1.00  0.00     0.074 A 
ATOM     48  C   UNL A   1      46.726  24.977  26.431  1.00  0.00     0.031 C 
ATOM     49  C   UNL A   1      40.374  26.309  28.751  1.00  0.00     0.029 A 
ATOM     50  C   UNL A   1      41.310  27.429  28.780  1.00  0.00     0.049 A 
ATOM     51  H   UNL A   1      43.290  27.441  28.133  1.00  0.00     0.167 HD
ATOM     52  C   UNL A   1      47.450  27.315  26.813  1.00  0.00     0.037 A 
ATOM     53  C   UNL A   1      41.035  28.663  29.244  1.00  0.00     0.037 A 
ATOM     54  C   UNL A   1      47.224  28.683  27.203  1.00  0.00     0.049 A 
ATOM     55  C   UNL A   1      42.098  29.725  29.189  1.00  0.00     0.074 A 
ATOM     56  C   UNL A   1      48.098  29.755  27.141  1.00  0.00     0.029 A 
ATOM     57  N   UNL A   1      46.037  29.167  27.733  1.00  0.00    -0.354 N 
ATOM     58  N   UNL A   1      43.327  29.643  28.738  1.00  0.00    -0.248 NA
ATOM     59  C   UNL A   1      41.735  31.054  29.699  1.00  0.00     0.031 C 
ATOM     60  C   UNL A   1      47.455  30.877  27.672  1.00  0.00     0.029 A 
ATOM     61  C   UNL A   1      46.163  30.516  28.022  1.00  0.00     0.049 A 
ATOM     62  H   UNL A   1      45.225  28.632  27.880  1.00  0.00     0.167 HD
ATOM     63  C   UNL A   1      43.873  30.911  28.886  1.00  0.00     0.074 A 
ATOM     64  C   UNL A   1      42.837  31.749  29.454  1.00  0.00     0.031 C 
ATOM     65  C   UNL A   1      45.122  31.341  28.581  1.00  0.00     0.037 A 
BRANCH  52  66
ATOM     66  C   UNL A   1      48.817  26.935  26.324  1.00  0.00     0.064 A 
ATOM     67  C   UNL A   1      49.798  26.438  27.196  1.00  0.00     0.173 A 
ATOM     68  C   UNL A   1      49.141  27.033  24.962  1.00  0.00     0.173 A 
ATOM     69  F   UNL A   1      49.541  26.332  28.509  1.00  0.00    -0.203 F 
ATOM     70  C   UNL A   1      51.061  26.085  26.730  1.00  0.00     0.198 A 
ATOM     71  C   UNL A   1      50.396  26.651  24.494  1.00  0.00     0.198 A 
ATOM     72  F   UNL A   1      48.238  27.493  24.083  1.00  0.00    -0.203 F 
ATOM     73  F   UNL A   1      51.997  25.662  27.591  1.00  0.00    -0.200 F 
ATOM     74  C   UNL A   1      51.357  26.186  25.378  1.00  0.00     0.200 A 
ATOM     75  F   UNL A   1      50.676  26.735  23.186  1.00  0.00    -0.200 F 
ATOM     76  F   UNL A   1      52.573  25.841  24.930  1.00  0.00    -0.200 F 
ENDBRANCH  52  66
BRANCH  53  77
ATOM     77  C   UNL A   1      39.681  28.972  29.774  1.00  0.00     0.064 A 
ATOM     78  C   UNL A   1      38.682  29.491  28.940  1.00  0.00     0.173 A 
ATOM     79  C   UNL A   1      39.359  28.759  31.123  1.00  0.00     0.173 A 
ATOM     80  F   UNL A   1      38.948  29.730  27.647  1.00  0.00    -0.203 F 
ATOM     81  C   UNL A   1      37.418  29.804  29.437  1.00  0.00     0.198 A 
ATOM     82  C   UNL A   1      38.086  29.046  31.613  1.00  0.00     0.198 A 
ATOM     83  F   UNL A   1      40.278  28.259  31.962  1.00  0.00    -0.203 F 
ATOM     84  F   UNL A   1      36.496  30.340  28.627  1.00  0.00    -0.200 F 
ATOM     85  C   UNL A   1      37.120  29.576  30.772  1.00  0.00     0.200 A 
ATOM     86  F   UNL A   1      37.797  28.810  32.899  1.00  0.00    -0.200 F 
ATOM     87  F   UNL A   1      35.903  29.872  31.248  1.00  0.00    -0.200 F 
ENDBRANCH  53  77
BRANCH  65  88
ATOM     88  C   UNL A   1      45.430  32.788  28.826  1.00  0.00     0.064 A 
ATOM     89  C   UNL A   1      45.165  33.770  27.859  1.00  0.00     0.173 A 
ATOM     90  C   UNL A   1      45.958  33.204  30.058  1.00  0.00     0.173 A 
ATOM     91  F   UNL A   1      44.674  33.423  26.660  1.00  0.00    -0.203 F 
ATOM     92  C   UNL A   1      45.440  35.112  28.109  1.00  0.00     0.198 A 
ATOM     93  C   UNL A   1      46.205  34.550  30.315  1.00  0.00     0.198 A 
ATOM     94  F   UNL A   1      46.224  32.305  31.017  1.00  0.00    -0.203 F 
ATOM     95  F   UNL A   1      45.222  36.028  27.156  1.00  0.00    -0.200 F 
ATOM     96  C   UNL A   1      45.952  35.501  29.338  1.00  0.00     0.200 A 
ATOM     97  F   UNL A   1      46.688  34.925  31.507  1.00  0.00    -0.200 F 
ATOM     98  F   UNL A   1      46.209  36.795  29.580  1.00  0.00    -0.200 F 
ENDBRANCH  65  88
ENDBRANCH  39  40
ENDBRANCH  31  34
ENDBRANCH  29  30
ENDBRANCH  28  29
ENDBRANCH   1  28
TORSDOF 14
ENDMDL
