MODEL 1
REMARK VINA RESULT:     -14.2      0.000      0.000
REMARK SMILES [NH3+][C@@H](Cc1cn(-c2nc(Cl)nc(N3CCOCC3)n2)c2ccccc12)C(=O)NCCCNC(=O)c1ccc(-c2c3nc(c(-c4c(F)c(F)c(F)c(F)c4F)c4ccc([nH]4)c(-c4c(F)c(F)c(F)c(F)c4F)c4nc(c(-c5c(F)c(F)c(F)c(F)c5F)c5ccc2[nH]5)C=C4)C=C3)cc1
REMARK SMILES IDX 29 1 28 2 26 3 27 4 2 6 1 7 3 11 4 12 5 13 25 14 6 15 20 16
REMARK SMILES IDX 24 17 21 18 23 19 22 20 7 21 8 22 19 23 9 24 12 25 10 26
REMARK SMILES IDX 11 27 13 28 14 29 18 30 15 31 17 32 16 33 30 34 31 35 32 36
REMARK SMILES IDX 33 37 34 39 35 40 36 41 97 42 37 43 96 44 38 45 39 46 40 47
REMARK SMILES IDX 90 48 41 49 95 50 89 51 91 52 42 53 94 54 88 55 87 56 43 58
REMARK SMILES IDX 75 59 55 60 74 61 56 62 59 63 73 64 92 65 57 66 58 67 72 69
REMARK SMILES IDX 93 70 60 71 44 72 45 73 53 74 46 75 47 76 51 77 54 78 48 79
REMARK SMILES IDX 49 80 52 81 50 82 76 83 77 84 85 85 78 86 79 87 83 88 86 89
REMARK SMILES IDX 80 90 81 91 84 92 82 93 61 94 62 95 70 96 63 97 64 98 68 99
REMARK SMILES IDX 71 100 65 101 66 102 69 103 67 104
REMARK H PARENT 28 5 1 8 1 9 1 10 32 38 91 57 59 68
REMARK Flexibility Score: inf
ROOT
ATOM      1  C   UNL A   1      33.201  27.764  26.029  1.00  0.00     0.118 C 
ENDROOT
BRANCH   1   2
ATOM      2  N   UNL A   1      33.905  28.130  24.831  1.00  0.00    -0.351 N 
ATOM      3  C   UNL A   1      33.379  28.281  23.573  1.00  0.00     0.278 C 
ATOM      4  O   UNL A   1      34.048  28.943  22.771  1.00  0.00    -0.268 OA
ATOM      5  H   UNL A   1      34.873  28.290  24.924  1.00  0.00     0.163 HD
BRANCH   3   6
ATOM      6  C   UNL A   1      32.038  27.621  23.119  1.00  0.00     0.275 C 
BRANCH   6   7
ATOM      7  N   UNL A   1      31.225  28.570  22.325  1.00  0.00    -0.347 N 
ATOM      8  H   UNL A   1      31.722  29.457  22.242  1.00  0.00     0.345 HD
ATOM      9  H   UNL A   1      30.331  28.725  22.791  1.00  0.00     0.345 HD
ATOM     10  H   UNL A   1      31.062  28.184  21.395  1.00  0.00     0.345 HD
ENDBRANCH   6   7
BRANCH   6  11
ATOM     11  C   UNL A   1      32.051  26.140  22.645  1.00  0.00     0.113 C 
BRANCH  11  12
ATOM     12  C   UNL A   1      32.383  25.035  23.615  1.00  0.00    -0.015 A 
ATOM     13  C   UNL A   1      33.483  24.200  23.523  1.00  0.00     0.099 A 
ATOM     14  C   UNL A   1      31.685  24.618  24.800  1.00  0.00     0.004 A 
ATOM     15  N   UNL A   1      33.337  23.153  24.415  1.00  0.00    -0.285 N 
ATOM     16  C   UNL A   1      32.193  23.361  25.165  1.00  0.00     0.056 A 
ATOM     17  C   UNL A   1      30.577  25.124  25.516  1.00  0.00     0.010 A 
ATOM     18  C   UNL A   1      31.591  22.578  26.165  1.00  0.00     0.027 A 
ATOM     19  C   UNL A   1      29.965  24.343  26.501  1.00  0.00     0.001 A 
ATOM     20  C   UNL A   1      30.459  23.082  26.809  1.00  0.00     0.002 A 
BRANCH  15  21
ATOM     21  C   UNL A   1      34.236  22.055  24.511  1.00  0.00     0.240 A 
ATOM     22  N   UNL A   1      35.535  22.299  24.663  1.00  0.00    -0.181 NA
ATOM     23  N   UNL A   1      33.680  20.843  24.520  1.00  0.00    -0.176 NA
ATOM     24  C   UNL A   1      36.214  21.195  24.953  1.00  0.00     0.228 A 
ATOM     25  C   UNL A   1      34.501  19.817  24.704  1.00  0.00     0.231 A 
ATOM     26  Cl  UNL A   1      37.862  21.350  25.353  1.00  0.00    -0.041 Cl
ATOM     27  N   UNL A   1      35.775  19.949  25.001  1.00  0.00    -0.182 NA
BRANCH  25  28
ATOM     28  N   UNL A   1      33.988  18.568  24.592  1.00  0.00    -0.336 N 
ATOM     29  C   UNL A   1      32.561  18.338  24.752  1.00  0.00     0.148 C 
ATOM     30  C   UNL A   1      34.778  17.454  24.103  1.00  0.00     0.148 C 
ATOM     31  C   UNL A   1      32.360  17.094  25.623  1.00  0.00     0.181 C 
ATOM     32  C   UNL A   1      34.502  16.259  25.032  1.00  0.00     0.181 C 
ATOM     33  O   UNL A   1      33.093  15.964  25.109  1.00  0.00    -0.378 OA
ENDBRANCH  25  28
ENDBRANCH  15  21
ENDBRANCH  11  12
ENDBRANCH   6  11
ENDBRANCH   3   6
ENDBRANCH   1   2
BRANCH   1  34
ATOM     34  C   UNL A   1      32.844  28.864  27.010  1.00  0.00     0.042 C 
BRANCH  34  35
ATOM     35  C   UNL A   1      33.379  30.254  26.698  1.00  0.00     0.118 C 
BRANCH  35  36
ATOM     36  N   UNL A   1      33.669  31.088  27.843  1.00  0.00    -0.352 N 
ATOM     37  C   UNL A   1      34.832  31.593  28.371  1.00  0.00     0.251 C 
ATOM     38  H   UNL A   1      32.866  31.348  28.350  1.00  0.00     0.163 HD
ATOM     39  O   UNL A   1      34.739  32.669  28.944  1.00  0.00    -0.269 OA
BRANCH  37  40
ATOM     40  C   UNL A   1      36.139  30.870  28.396  1.00  0.00     0.039 A 
ATOM     41  C   UNL A   1      36.340  29.520  28.126  1.00  0.00     0.014 A 
ATOM     42  C   UNL A   1      37.233  31.625  28.858  1.00  0.00     0.014 A 
ATOM     43  C   UNL A   1      37.567  28.919  28.417  1.00  0.00     0.010 A 
ATOM     44  C   UNL A   1      38.446  31.029  29.188  1.00  0.00     0.010 A 
ATOM     45  C   UNL A   1      38.603  29.664  28.995  1.00  0.00    -0.014 A 
BRANCH  45  46
ATOM     46  C   UNL A   1      39.911  29.031  29.181  1.00  0.00     0.031 A 
ATOM     47  C   UNL A   1      40.297  28.856  30.611  1.00  0.00     0.074 A 
ATOM     48  C   UNL A   1      40.634  28.466  28.189  1.00  0.00     0.049 A 
ATOM     49  N   UNL A   1      41.380  29.237  31.206  1.00  0.00    -0.248 NA
ATOM     50  C   UNL A   1      39.307  28.236  31.512  1.00  0.00     0.031 C 
ATOM     51  C   UNL A   1      40.215  28.267  26.799  1.00  0.00     0.029 A 
ATOM     52  N   UNL A   1      41.855  27.843  28.237  1.00  0.00    -0.354 N 
ATOM     53  C   UNL A   1      41.279  28.769  32.515  1.00  0.00     0.074 A 
ATOM     54  C   UNL A   1      39.942  28.269  32.683  1.00  0.00     0.031 C 
ATOM     55  C   UNL A   1      41.058  27.396  26.199  1.00  0.00     0.029 A 
ATOM     56  C   UNL A   1      42.144  27.079  27.113  1.00  0.00     0.049 A 
ATOM     57  H   UNL A   1      42.471  27.929  29.001  1.00  0.00     0.167 HD
ATOM     58  C   UNL A   1      42.374  28.611  33.305  1.00  0.00     0.037 A 
ATOM     59  C   UNL A   1      43.172  26.208  26.952  1.00  0.00     0.037 A 
ATOM     60  C   UNL A   1      43.515  29.308  32.790  1.00  0.00     0.049 A 
ATOM     61  C   UNL A   1      44.226  26.538  27.938  1.00  0.00     0.074 A 
ATOM     62  C   UNL A   1      44.006  30.593  32.835  1.00  0.00     0.029 A 
ATOM     63  N   UNL A   1      44.176  28.649  31.793  1.00  0.00    -0.354 N 
ATOM     64  N   UNL A   1      44.943  27.624  27.902  1.00  0.00    -0.248 NA
ATOM     65  C   UNL A   1      44.333  25.755  29.166  1.00  0.00     0.031 C 
ATOM     66  C   UNL A   1      44.882  30.727  31.716  1.00  0.00     0.029 A 
ATOM     67  C   UNL A   1      44.913  29.516  31.032  1.00  0.00     0.049 A 
ATOM     68  H   UNL A   1      44.127  27.677  31.641  1.00  0.00     0.167 HD
ATOM     69  C   UNL A   1      45.244  27.871  29.224  1.00  0.00     0.074 A 
ATOM     70  C   UNL A   1      45.021  26.614  29.921  1.00  0.00     0.031 C 
ATOM     71  C   UNL A   1      45.309  29.146  29.694  1.00  0.00     0.037 A 
BRANCH  58  72
ATOM     72  C   UNL A   1      42.532  27.493  34.304  1.00  0.00     0.064 A 
ATOM     73  C   UNL A   1      43.055  26.251  33.900  1.00  0.00     0.173 A 
ATOM     74  C   UNL A   1      41.903  27.511  35.568  1.00  0.00     0.173 A 
ATOM     75  F   UNL A   1      43.625  26.110  32.693  1.00  0.00    -0.203 F 
ATOM     76  C   UNL A   1      42.941  25.108  34.700  1.00  0.00     0.198 A 
ATOM     77  C   UNL A   1      41.836  26.384  36.385  1.00  0.00     0.198 A 
ATOM     78  F   UNL A   1      41.235  28.589  36.004  1.00  0.00    -0.203 F 
ATOM     79  F   UNL A   1      43.370  23.925  34.239  1.00  0.00    -0.200 F 
ATOM     80  C   UNL A   1      42.337  25.177  35.943  1.00  0.00     0.200 A 
ATOM     81  F   UNL A   1      41.216  26.464  37.571  1.00  0.00    -0.200 F 
ATOM     82  F   UNL A   1      42.192  24.078  36.693  1.00  0.00    -0.200 F 
ENDBRANCH  58  72
BRANCH  59  83
ATOM     83  C   UNL A   1      43.249  24.970  26.140  1.00  0.00     0.064 A 
ATOM     84  C   UNL A   1      44.291  24.774  25.216  1.00  0.00     0.173 A 
ATOM     85  C   UNL A   1      42.483  23.837  26.468  1.00  0.00     0.173 A 
ATOM     86  F   UNL A   1      45.088  25.795  24.869  1.00  0.00    -0.203 F 
ATOM     87  C   UNL A   1      44.581  23.510  24.693  1.00  0.00     0.198 A 
ATOM     88  C   UNL A   1      42.767  22.577  25.938  1.00  0.00     0.198 A 
ATOM     89  F   UNL A   1      41.509  23.909  27.386  1.00  0.00    -0.203 F 
ATOM     90  F   UNL A   1      45.632  23.350  23.877  1.00  0.00    -0.200 F 
ATOM     91  C   UNL A   1      43.830  22.410  25.067  1.00  0.00     0.200 A 
ATOM     92  F   UNL A   1      42.052  21.514  26.330  1.00  0.00    -0.200 F 
ATOM     93  F   UNL A   1      44.152  21.186  24.625  1.00  0.00    -0.200 F 
ENDBRANCH  59  83
BRANCH  71  94
ATOM     94  C   UNL A   1      45.611  30.226  28.708  1.00  0.00     0.064 A 
ATOM     95  C   UNL A   1      44.637  30.928  27.981  1.00  0.00     0.173 A 
ATOM     96  C   UNL A   1      46.949  30.607  28.541  1.00  0.00     0.173 A 
ATOM     97  F   UNL A   1      43.334  30.671  28.147  1.00  0.00    -0.203 F 
ATOM     98  C   UNL A   1      44.997  31.942  27.095  1.00  0.00     0.198 A 
ATOM     99  C   UNL A   1      47.302  31.644  27.685  1.00  0.00     0.198 A 
ATOM    100  F   UNL A   1      47.915  29.992  29.242  1.00  0.00    -0.203 F 
ATOM    101  F   UNL A   1      44.054  32.588  26.394  1.00  0.00    -0.200 F 
ATOM    102  C   UNL A   1      46.328  32.303  26.954  1.00  0.00     0.200 A 
ATOM    103  F   UNL A   1      48.585  32.016  27.584  1.00  0.00    -0.200 F 
ATOM    104  F   UNL A   1      46.670  33.304  26.130  1.00  0.00    -0.200 F 
ENDBRANCH  71  94
ENDBRANCH  45  46
ENDBRANCH  37  40
ENDBRANCH  35  36
ENDBRANCH  34  35
ENDBRANCH   1  34
TORSDOF 15
ENDMDL
MODEL 2
REMARK VINA RESULT:     -14.1      1.217      2.003
REMARK SMILES [NH3+][C@@H](Cc1cn(-c2nc(Cl)nc(N3CCOCC3)n2)c2ccccc12)C(=O)NCCCNC(=O)c1ccc(-c2c3nc(c(-c4c(F)c(F)c(F)c(F)c4F)c4ccc([nH]4)c(-c4c(F)c(F)c(F)c(F)c4F)c4nc(c(-c5c(F)c(F)c(F)c(F)c5F)c5ccc2[nH]5)C=C4)C=C3)cc1
REMARK SMILES IDX 29 1 28 2 26 3 27 4 2 6 1 7 3 11 4 12 5 13 25 14 6 15 20 16
REMARK SMILES IDX 24 17 21 18 23 19 22 20 7 21 8 22 19 23 9 24 12 25 10 26
REMARK SMILES IDX 11 27 13 28 14 29 18 30 15 31 17 32 16 33 30 34 31 35 32 36
REMARK SMILES IDX 33 37 34 39 35 40 36 41 97 42 37 43 96 44 38 45 39 46 40 47
REMARK SMILES IDX 90 48 41 49 95 50 89 51 91 52 42 53 94 54 88 55 87 56 43 58
REMARK SMILES IDX 75 59 55 60 74 61 56 62 59 63 73 64 92 65 57 66 58 67 72 69
REMARK SMILES IDX 93 70 60 71 44 72 45 73 53 74 46 75 47 76 51 77 54 78 48 79
REMARK SMILES IDX 49 80 52 81 50 82 76 83 77 84 85 85 78 86 79 87 83 88 86 89
REMARK SMILES IDX 80 90 81 91 84 92 82 93 61 94 62 95 70 96 63 97 64 98 68 99
REMARK SMILES IDX 71 100 65 101 66 102 69 103 67 104
REMARK H PARENT 28 5 1 8 1 9 1 10 32 38 91 57 59 68
REMARK Flexibility Score: inf
ROOT
ATOM      1  C   UNL A   1      32.227  29.947  25.635  1.00  0.00     0.118 C 
ENDROOT
BRANCH   1   2
ATOM      2  N   UNL A   1      33.333  29.451  24.864  1.00  0.00    -0.351 N 
ATOM      3  C   UNL A   1      33.295  28.950  23.587  1.00  0.00     0.278 C 
ATOM      4  O   UNL A   1      34.369  28.922  22.973  1.00  0.00    -0.268 OA
ATOM      5  H   UNL A   1      34.217  29.473  25.301  1.00  0.00     0.163 HD
BRANCH   3   6
ATOM      6  C   UNL A   1      31.999  28.382  22.926  1.00  0.00     0.275 C 
BRANCH   6   7
ATOM      7  N   UNL A   1      31.401  29.372  22.001  1.00  0.00    -0.347 N 
ATOM      8  H   UNL A   1      30.407  29.173  21.887  1.00  0.00     0.345 HD
ATOM      9  H   UNL A   1      31.865  29.313  21.094  1.00  0.00     0.345 HD
ATOM     10  H   UNL A   1      31.519  30.310  22.384  1.00  0.00     0.345 HD
ENDBRANCH   6   7
BRANCH   6  11
ATOM     11  C   UNL A   1      31.975  26.894  22.475  1.00  0.00     0.113 C 
BRANCH  11  12
ATOM     12  C   UNL A   1      32.248  25.794  23.469  1.00  0.00    -0.015 A 
ATOM     13  C   UNL A   1      33.329  24.931  23.423  1.00  0.00     0.099 A 
ATOM     14  C   UNL A   1      31.503  25.411  24.638  1.00  0.00     0.004 A 
ATOM     15  N   UNL A   1      33.128  23.901  24.323  1.00  0.00    -0.285 N 
ATOM     16  C   UNL A   1      31.967  24.147  25.035  1.00  0.00     0.056 A 
ATOM     17  C   UNL A   1      30.387  25.955  25.312  1.00  0.00     0.010 A 
ATOM     18  C   UNL A   1      31.315  23.394  26.026  1.00  0.00     0.027 A 
ATOM     19  C   UNL A   1      29.725  25.204  26.287  1.00  0.00     0.001 A 
ATOM     20  C   UNL A   1      30.177  23.935  26.627  1.00  0.00     0.002 A 
BRANCH  15  21
ATOM     21  C   UNL A   1      33.995  22.782  24.461  1.00  0.00     0.240 A 
ATOM     22  N   UNL A   1      35.262  22.988  24.811  1.00  0.00    -0.181 NA
ATOM     23  N   UNL A   1      33.433  21.582  24.302  1.00  0.00    -0.176 NA
ATOM     24  C   UNL A   1      35.884  21.854  25.110  1.00  0.00     0.228 A 
ATOM     25  C   UNL A   1      34.211  20.531  24.523  1.00  0.00     0.231 A 
ATOM     26  Cl  UNL A   1      37.461  21.949  25.745  1.00  0.00    -0.041 Cl
ATOM     27  N   UNL A   1      35.432  20.616  25.003  1.00  0.00    -0.182 NA
BRANCH  25  28
ATOM     28  N   UNL A   1      33.708  19.303  24.248  1.00  0.00    -0.336 N 
ATOM     29  C   UNL A   1      34.418  18.104  24.661  1.00  0.00     0.148 C 
ATOM     30  C   UNL A   1      32.363  19.120  23.735  1.00  0.00     0.148 C 
ATOM     31  C   UNL A   1      34.401  17.100  23.503  1.00  0.00     0.181 C 
ATOM     32  C   UNL A   1      32.448  18.096  22.590  1.00  0.00     0.181 C 
ATOM     33  O   UNL A   1      33.060  16.866  23.028  1.00  0.00    -0.378 OA
ENDBRANCH  25  28
ENDBRANCH  15  21
ENDBRANCH  11  12
ENDBRANCH   6  11
ENDBRANCH   3   6
ENDBRANCH   1   2
BRANCH   1  34
ATOM     34  C   UNL A   1      32.533  30.765  26.876  1.00  0.00     0.042 C 
BRANCH  34  35
ATOM     35  C   UNL A   1      33.992  30.834  27.302  1.00  0.00     0.118 C 
BRANCH  35  36
ATOM     36  N   UNL A   1      34.237  31.378  28.620  1.00  0.00    -0.352 N 
ATOM     37  C   UNL A   1      35.379  31.602  29.348  1.00  0.00     0.251 C 
ATOM     38  H   UNL A   1      33.414  31.641  29.093  1.00  0.00     0.163 HD
ATOM     39  O   UNL A   1      35.343  32.546  30.125  1.00  0.00    -0.269 OA
BRANCH  37  40
ATOM     40  C   UNL A   1      36.580  30.715  29.343  1.00  0.00     0.039 A 
ATOM     41  C   UNL A   1      36.582  29.328  29.452  1.00  0.00     0.014 A 
ATOM     42  C   UNL A   1      37.819  31.383  29.348  1.00  0.00     0.014 A 
ATOM     43  C   UNL A   1      37.778  28.641  29.674  1.00  0.00     0.010 A 
ATOM     44  C   UNL A   1      39.010  30.713  29.607  1.00  0.00     0.010 A 
ATOM     45  C   UNL A   1      38.985  29.339  29.801  1.00  0.00    -0.014 A 
BRANCH  45  46
ATOM     46  C   UNL A   1      40.232  28.581  29.919  1.00  0.00     0.031 A 
ATOM     47  C   UNL A   1      40.723  28.442  31.321  1.00  0.00     0.074 A 
ATOM     48  C   UNL A   1      40.803  27.888  28.909  1.00  0.00     0.049 A 
ATOM     49  N   UNL A   1      41.888  28.737  31.799  1.00  0.00    -0.248 NA
ATOM     50  C   UNL A   1      39.758  27.982  32.337  1.00  0.00     0.031 C 
ATOM     51  C   UNL A   1      40.245  27.660  27.573  1.00  0.00     0.029 A 
ATOM     52  N   UNL A   1      41.953  27.141  28.896  1.00  0.00    -0.354 N 
ATOM     53  C   UNL A   1      41.855  28.353  33.139  1.00  0.00     0.074 A 
ATOM     54  C   UNL A   1      40.494  28.010  33.448  1.00  0.00     0.031 C 
ATOM     55  C   UNL A   1      40.938  26.673  26.962  1.00  0.00     0.029 A 
ATOM     56  C   UNL A   1      42.062  26.291  27.802  1.00  0.00     0.049 A 
ATOM     57  H   UNL A   1      42.640  27.202  29.599  1.00  0.00     0.167 HD
ATOM     58  C   UNL A   1      42.994  28.122  33.845  1.00  0.00     0.037 A 
ATOM     59  C   UNL A   1      42.977  25.307  27.612  1.00  0.00     0.037 A 
ATOM     60  C   UNL A   1      44.150  28.663  33.195  1.00  0.00     0.049 A 
ATOM     61  C   UNL A   1      44.142  25.574  28.486  1.00  0.00     0.074 A 
ATOM     62  C   UNL A   1      44.772  29.888  33.119  1.00  0.00     0.029 A 
ATOM     63  N   UNL A   1      44.649  27.884  32.191  1.00  0.00    -0.354 N 
ATOM     64  N   UNL A   1      44.961  26.574  28.323  1.00  0.00    -0.248 NA
ATOM     65  C   UNL A   1      44.277  24.852  29.748  1.00  0.00     0.031 C 
ATOM     66  C   UNL A   1      45.555  29.867  31.926  1.00  0.00     0.029 A 
ATOM     67  C   UNL A   1      45.401  28.624  31.319  1.00  0.00     0.049 A 
ATOM     68  H   UNL A   1      44.488  26.916  32.105  1.00  0.00     0.167 HD
ATOM     69  C   UNL A   1      45.401  26.858  29.597  1.00  0.00     0.074 A 
ATOM     70  C   UNL A   1      45.113  25.672  30.388  1.00  0.00     0.031 C 
ATOM     71  C   UNL A   1      45.638  28.142  29.979  1.00  0.00     0.037 A 
BRANCH  58  72
ATOM     72  C   UNL A   1      43.123  27.049  34.896  1.00  0.00     0.064 A 
ATOM     73  C   UNL A   1      43.295  27.399  36.248  1.00  0.00     0.173 A 
ATOM     74  C   UNL A   1      43.386  25.699  34.574  1.00  0.00     0.173 A 
ATOM     75  F   UNL A   1      43.126  28.666  36.651  1.00  0.00    -0.203 F 
ATOM     76  C   UNL A   1      43.716  26.465  37.202  1.00  0.00     0.198 A 
ATOM     77  C   UNL A   1      43.754  24.760  35.535  1.00  0.00     0.198 A 
ATOM     78  F   UNL A   1      43.403  25.272  33.304  1.00  0.00    -0.203 F 
ATOM     79  F   UNL A   1      43.958  26.859  38.460  1.00  0.00    -0.200 F 
ATOM     80  C   UNL A   1      43.939  25.147  36.847  1.00  0.00     0.200 A 
ATOM     81  F   UNL A   1      43.999  23.495  35.163  1.00  0.00    -0.200 F 
ATOM     82  F   UNL A   1      44.379  24.261  37.750  1.00  0.00    -0.200 F 
ENDBRANCH  58  72
BRANCH  59  83
ATOM     83  C   UNL A   1      42.855  24.025  26.876  1.00  0.00     0.064 A 
ATOM     84  C   UNL A   1      43.476  23.846  25.627  1.00  0.00     0.173 A 
ATOM     85  C   UNL A   1      42.387  22.863  27.514  1.00  0.00     0.173 A 
ATOM     86  F   UNL A   1      43.977  24.899  24.963  1.00  0.00    -0.203 F 
ATOM     87  C   UNL A   1      43.663  22.576  25.075  1.00  0.00     0.198 A 
ATOM     88  C   UNL A   1      42.565  21.595  26.958  1.00  0.00     0.198 A 
ATOM     89  F   UNL A   1      41.837  22.924  28.736  1.00  0.00    -0.203 F 
ATOM     90  F   UNL A   1      44.331  22.439  23.921  1.00  0.00    -0.200 F 
ATOM     91  C   UNL A   1      43.222  21.450  25.749  1.00  0.00     0.200 A 
ATOM     92  F   UNL A   1      42.161  20.510  27.633  1.00  0.00    -0.200 F 
ATOM     93  F   UNL A   1      43.466  20.227  25.258  1.00  0.00    -0.200 F 
ENDBRANCH  59  83
BRANCH  71  94
ATOM     94  C   UNL A   1      45.961  29.129  28.905  1.00  0.00     0.064 A 
ATOM     95  C   UNL A   1      47.245  29.330  28.376  1.00  0.00     0.173 A 
ATOM     96  C   UNL A   1      44.904  29.860  28.347  1.00  0.00     0.173 A 
ATOM     97  F   UNL A   1      48.289  28.611  28.808  1.00  0.00    -0.203 F 
ATOM     98  C   UNL A   1      47.463  30.254  27.356  1.00  0.00     0.198 A 
ATOM     99  C   UNL A   1      45.118  30.754  27.304  1.00  0.00     0.198 A 
ATOM    100  F   UNL A   1      43.651  29.677  28.792  1.00  0.00    -0.203 F 
ATOM    101  F   UNL A   1      48.701  30.447  26.877  1.00  0.00    -0.200 F 
ATOM    102  C   UNL A   1      46.398  30.960  26.817  1.00  0.00     0.200 A 
ATOM    103  F   UNL A   1      44.080  31.402  26.759  1.00  0.00    -0.200 F 
ATOM    104  F   UNL A   1      46.603  31.821  25.811  1.00  0.00    -0.200 F 
ENDBRANCH  71  94
ENDBRANCH  45  46
ENDBRANCH  37  40
ENDBRANCH  35  36
ENDBRANCH  34  35
ENDBRANCH   1  34
TORSDOF 15
ENDMDL
MODEL 3
REMARK VINA RESULT:     -14.0      3.492      9.325
REMARK SMILES [NH3+][C@@H](Cc1cn(-c2nc(Cl)nc(N3CCOCC3)n2)c2ccccc12)C(=O)NCCCNC(=O)c1ccc(-c2c3nc(c(-c4c(F)c(F)c(F)c(F)c4F)c4ccc([nH]4)c(-c4c(F)c(F)c(F)c(F)c4F)c4nc(c(-c5c(F)c(F)c(F)c(F)c5F)c5ccc2[nH]5)C=C4)C=C3)cc1
REMARK SMILES IDX 29 1 28 2 26 3 27 4 2 6 1 7 3 11 4 12 5 13 25 14 6 15 20 16
REMARK SMILES IDX 24 17 21 18 23 19 22 20 7 21 8 22 19 23 9 24 12 25 10 26
REMARK SMILES IDX 11 27 13 28 14 29 18 30 15 31 17 32 16 33 30 34 31 35 32 36
REMARK SMILES IDX 33 37 34 39 35 40 36 41 97 42 37 43 96 44 38 45 39 46 40 47
REMARK SMILES IDX 90 48 41 49 95 50 89 51 91 52 42 53 94 54 88 55 87 56 43 58
REMARK SMILES IDX 75 59 55 60 74 61 56 62 59 63 73 64 92 65 57 66 58 67 72 69
REMARK SMILES IDX 93 70 60 71 44 72 45 73 53 74 46 75 47 76 51 77 54 78 48 79
REMARK SMILES IDX 49 80 52 81 50 82 76 83 77 84 85 85 78 86 79 87 83 88 86 89
REMARK SMILES IDX 80 90 81 91 84 92 82 93 61 94 62 95 70 96 63 97 64 98 68 99
REMARK SMILES IDX 71 100 65 101 66 102 69 103 67 104
REMARK H PARENT 28 5 1 8 1 9 1 10 32 38 91 57 59 68
REMARK Flexibility Score: inf
ROOT
ATOM      1  C   UNL A   1      37.411  23.237  25.763  1.00  0.00     0.118 C 
ENDROOT
BRANCH   1   2
ATOM      2  N   UNL A   1      36.191  23.058  26.501  1.00  0.00    -0.351 N 
ATOM      3  C   UNL A   1      35.075  22.367  26.102  1.00  0.00     0.278 C 
ATOM      4  O   UNL A   1      34.293  22.019  26.995  1.00  0.00    -0.268 OA
ATOM      5  H   UNL A   1      36.152  23.478  27.392  1.00  0.00     0.163 HD
BRANCH   3   6
ATOM      6  C   UNL A   1      34.742  22.065  24.606  1.00  0.00     0.275 C 
BRANCH   6   7
ATOM      7  N   UNL A   1      34.113  20.732  24.464  1.00  0.00    -0.347 N 
ATOM      8  H   UNL A   1      33.645  20.671  23.560  1.00  0.00     0.345 HD
ATOM      9  H   UNL A   1      33.430  20.596  25.209  1.00  0.00     0.345 HD
ATOM     10  H   UNL A   1      34.830  20.009  24.525  1.00  0.00     0.345 HD
ENDBRANCH   6   7
BRANCH   6  11
ATOM     11  C   UNL A   1      34.175  23.208  23.716  1.00  0.00     0.113 C 
BRANCH  11  12
ATOM     12  C   UNL A   1      33.091  24.114  24.242  1.00  0.00    -0.015 A 
ATOM     13  C   UNL A   1      33.051  25.487  24.073  1.00  0.00     0.099 A 
ATOM     14  C   UNL A   1      31.907  23.785  24.989  1.00  0.00     0.004 A 
ATOM     15  N   UNL A   1      32.073  26.019  24.894  1.00  0.00    -0.285 N 
ATOM     16  C   UNL A   1      31.402  24.983  25.520  1.00  0.00     0.056 A 
ATOM     17  C   UNL A   1      31.296  22.572  25.377  1.00  0.00     0.010 A 
ATOM     18  C   UNL A   1      30.363  24.996  26.467  1.00  0.00     0.027 A 
ATOM     19  C   UNL A   1      30.273  22.578  26.330  1.00  0.00     0.001 A 
ATOM     20  C   UNL A   1      29.825  23.774  26.876  1.00  0.00     0.002 A 
BRANCH  15  21
ATOM     21  C   UNL A   1      31.832  27.412  25.048  1.00  0.00     0.240 A 
ATOM     22  N   UNL A   1      32.558  28.097  25.927  1.00  0.00    -0.181 NA
ATOM     23  N   UNL A   1      30.930  27.944  24.221  1.00  0.00    -0.176 NA
ATOM     24  C   UNL A   1      32.374  29.407  25.805  1.00  0.00     0.228 A 
ATOM     25  C   UNL A   1      30.767  29.259  24.292  1.00  0.00     0.231 A 
ATOM     26  Cl  UNL A   1      33.357  30.442  26.734  1.00  0.00    -0.041 Cl
ATOM     27  N   UNL A   1      31.524  30.048  25.022  1.00  0.00    -0.182 NA
BRANCH  25  28
ATOM     28  N   UNL A   1      29.772  29.814  23.559  1.00  0.00    -0.336 N 
ATOM     29  C   UNL A   1      29.349  31.183  23.804  1.00  0.00     0.148 C 
ATOM     30  C   UNL A   1      29.236  29.167  22.376  1.00  0.00     0.148 C 
ATOM     31  C   UNL A   1      27.818  31.232  23.793  1.00  0.00     0.181 C 
ATOM     32  C   UNL A   1      27.703  29.276  22.453  1.00  0.00     0.181 C 
ATOM     33  O   UNL A   1      27.278  30.646  22.591  1.00  0.00    -0.378 OA
ENDBRANCH  25  28
ENDBRANCH  15  21
ENDBRANCH  11  12
ENDBRANCH   6  11
ENDBRANCH   3   6
ENDBRANCH   1   2
BRANCH   1  34
ATOM     34  C   UNL A   1      38.204  22.000  25.387  1.00  0.00     0.042 C 
BRANCH  34  35
ATOM     35  C   UNL A   1      39.395  21.660  26.271  1.00  0.00     0.118 C 
BRANCH  35  36
ATOM     36  N   UNL A   1      40.692  22.035  25.751  1.00  0.00    -0.352 N 
ATOM     37  C   UNL A   1      41.646  22.934  26.159  1.00  0.00     0.251 C 
ATOM     38  H   UNL A   1      40.941  21.544  24.936  1.00  0.00     0.163 HD
ATOM     39  O   UNL A   1      42.804  22.642  25.900  1.00  0.00    -0.269 OA
BRANCH  37  40
ATOM     40  C   UNL A   1      41.355  24.266  26.768  1.00  0.00     0.039 A 
ATOM     41  C   UNL A   1      40.482  25.229  26.269  1.00  0.00     0.014 A 
ATOM     42  C   UNL A   1      42.142  24.600  27.887  1.00  0.00     0.014 A 
ATOM     43  C   UNL A   1      40.481  26.521  26.800  1.00  0.00     0.010 A 
ATOM     44  C   UNL A   1      42.176  25.892  28.398  1.00  0.00     0.010 A 
ATOM     45  C   UNL A   1      41.364  26.866  27.831  1.00  0.00    -0.014 A 
BRANCH  45  46
ATOM     46  C   UNL A   1      41.257  28.193  28.441  1.00  0.00     0.031 A 
ATOM     47  C   UNL A   1      42.347  29.129  28.040  1.00  0.00     0.074 A 
ATOM     48  C   UNL A   1      40.186  28.628  29.139  1.00  0.00     0.049 A 
ATOM     49  N   UNL A   1      43.140  29.814  28.798  1.00  0.00    -0.248 NA
ATOM     50  C   UNL A   1      42.636  29.260  26.600  1.00  0.00     0.031 C 
ATOM     51  C   UNL A   1      38.909  27.932  29.315  1.00  0.00     0.029 A 
ATOM     52  N   UNL A   1      39.965  29.838  29.746  1.00  0.00    -0.354 N 
ATOM     53  C   UNL A   1      43.922  30.581  27.934  1.00  0.00     0.074 A 
ATOM     54  C   UNL A   1      43.657  30.116  26.600  1.00  0.00     0.031 C 
ATOM     55  C   UNL A   1      37.987  28.801  29.790  1.00  0.00     0.029 A 
ATOM     56  C   UNL A   1      38.635  30.071  30.074  1.00  0.00     0.049 A 
ATOM     57  H   UNL A   1      40.685  30.484  29.932  1.00  0.00     0.167 HD
ATOM     58  C   UNL A   1      44.561  31.704  28.356  1.00  0.00     0.037 A 
ATOM     59  C   UNL A   1      38.085  31.236  30.502  1.00  0.00     0.037 A 
ATOM     60  C   UNL A   1      44.643  31.774  29.785  1.00  0.00     0.049 A 
ATOM     61  C   UNL A   1      39.163  32.093  31.045  1.00  0.00     0.074 A 
ATOM     62  C   UNL A   1      45.464  31.268  30.765  1.00  0.00     0.029 A 
ATOM     63  N   UNL A   1      43.507  32.229  30.392  1.00  0.00    -0.354 N 
ATOM     64  N   UNL A   1      39.823  31.829  32.136  1.00  0.00    -0.248 NA
ATOM     65  C   UNL A   1      39.713  33.166  30.222  1.00  0.00     0.031 C 
ATOM     66  C   UNL A   1      44.708  31.294  31.975  1.00  0.00     0.029 A 
ATOM     67  C   UNL A   1      43.454  31.830  31.701  1.00  0.00     0.049 A 
ATOM     68  H   UNL A   1      42.817  32.771  29.947  1.00  0.00     0.167 HD
ATOM     69  C   UNL A   1      41.062  32.392  31.922  1.00  0.00     0.074 A 
ATOM     70  C   UNL A   1      40.881  33.349  30.843  1.00  0.00     0.031 C 
ATOM     71  C   UNL A   1      42.188  31.789  32.393  1.00  0.00     0.037 A 
BRANCH  58  72
ATOM     72  C   UNL A   1      44.736  32.936  27.506  1.00  0.00     0.064 A 
ATOM     73  C   UNL A   1      45.934  33.143  26.797  1.00  0.00     0.173 A 
ATOM     74  C   UNL A   1      43.884  34.058  27.611  1.00  0.00     0.173 A 
ATOM     75  F   UNL A   1      46.839  32.160  26.684  1.00  0.00    -0.203 F 
ATOM     76  C   UNL A   1      46.258  34.389  26.247  1.00  0.00     0.198 A 
ATOM     77  C   UNL A   1      44.186  35.282  27.019  1.00  0.00     0.198 A 
ATOM     78  F   UNL A   1      42.788  34.036  28.382  1.00  0.00    -0.203 F 
ATOM     79  F   UNL A   1      47.449  34.570  25.660  1.00  0.00    -0.200 F 
ATOM     80  C   UNL A   1      45.383  35.455  26.354  1.00  0.00     0.200 A 
ATOM     81  F   UNL A   1      43.339  36.312  27.164  1.00  0.00    -0.200 F 
ATOM     82  F   UNL A   1      45.708  36.658  25.864  1.00  0.00    -0.200 F 
ENDBRANCH  58  72
BRANCH  59  83
ATOM     83  C   UNL A   1      36.715  31.769  30.304  1.00  0.00     0.064 A 
ATOM     84  C   UNL A   1      35.907  32.113  31.401  1.00  0.00     0.173 A 
ATOM     85  C   UNL A   1      36.290  32.231  29.045  1.00  0.00     0.173 A 
ATOM     86  F   UNL A   1      36.254  31.738  32.642  1.00  0.00    -0.203 F 
ATOM     87  C   UNL A   1      34.771  32.915  31.255  1.00  0.00     0.198 A 
ATOM     88  C   UNL A   1      35.150  33.023  28.898  1.00  0.00     0.198 A 
ATOM     89  F   UNL A   1      37.027  32.007  27.947  1.00  0.00    -0.203 F 
ATOM     90  F   UNL A   1      34.071  33.288  32.335  1.00  0.00    -0.200 F 
ATOM     91  C   UNL A   1      34.403  33.382  30.005  1.00  0.00     0.200 A 
ATOM     92  F   UNL A   1      34.820  33.495  27.687  1.00  0.00    -0.200 F 
ATOM     93  F   UNL A   1      33.358  34.211  29.872  1.00  0.00    -0.200 F 
ENDBRANCH  59  83
BRANCH  71  94
ATOM     94  C   UNL A   1      42.040  30.881  33.570  1.00  0.00     0.064 A 
ATOM     95  C   UNL A   1      42.053  31.310  34.906  1.00  0.00     0.173 A 
ATOM     96  C   UNL A   1      41.812  29.521  33.324  1.00  0.00     0.173 A 
ATOM     97  F   UNL A   1      42.189  32.606  35.213  1.00  0.00    -0.203 F 
ATOM     98  C   UNL A   1      41.884  30.404  35.951  1.00  0.00     0.198 A 
ATOM     99  C   UNL A   1      41.606  28.625  34.367  1.00  0.00     0.198 A 
ATOM    100  F   UNL A   1      41.753  29.066  32.062  1.00  0.00    -0.203 F 
ATOM    101  F   UNL A   1      41.920  30.829  37.222  1.00  0.00    -0.200 F 
ATOM    102  C   UNL A   1      41.654  29.064  35.680  1.00  0.00     0.200 A 
ATOM    103  F   UNL A   1      41.343  27.339  34.098  1.00  0.00    -0.200 F 
ATOM    104  F   UNL A   1      41.454  28.199  36.684  1.00  0.00    -0.200 F 
ENDBRANCH  71  94
ENDBRANCH  45  46
ENDBRANCH  37  40
ENDBRANCH  35  36
ENDBRANCH  34  35
ENDBRANCH   1  34
TORSDOF 15
ENDMDL
