MODEL 1
REMARK VINA RESULT:     -11.4      0.000      0.000
REMARK SMILES [NH3+][C@]1(C(=O)NCCCNC(=O)c2ccc(-c3c4nc(c(-c5c(F)c(F)c(F)c(F)c5F)c5ccc([nH]5)c(-c5c(F)c(F)c(F)c(F)c5F)c5nc(c(-c6c(F)c(F)c(F)c(F)c6F)c6ccc3[nH]6)C=C5)C=C4)cc2)CCC[C@@H](OC2CCC2)C1
REMARK SMILES IDX 7 1 6 2 5 3 3 4 4 5 2 7 75 8 84 9 76 10 78 11 77 12 1 13
REMARK SMILES IDX 79 17 80 18 81 19 83 20 82 21 8 22 9 23 10 24 11 26 12 27
REMARK SMILES IDX 13 28 74 29 14 30 73 31 15 32 16 33 17 34 67 35 18 36 72 37
REMARK SMILES IDX 66 38 68 39 19 40 71 41 65 42 64 43 20 45 52 46 32 47 51 48
REMARK SMILES IDX 33 49 36 50 50 51 69 52 34 53 35 54 49 56 70 57 37 58 21 59
REMARK SMILES IDX 22 60 30 61 23 62 24 63 28 64 31 65 25 66 26 67 29 68 27 69
REMARK SMILES IDX 53 70 54 71 62 72 55 73 56 74 60 75 63 76 57 77 58 78 61 79
REMARK SMILES IDX 59 80 38 81 39 82 47 83 40 84 41 85 45 86 48 87 42 88 43 89
REMARK SMILES IDX 46 90 44 91
REMARK H PARENT 5 6 1 14 1 15 1 16 9 25 68 44 36 55
REMARK Flexibility Score: inf
ROOT
ATOM      1  C   UNL A   1      31.200  31.962  26.126  1.00  0.00     0.042 C 
ENDROOT
BRANCH   1   2
ATOM      2  C   UNL A   1      31.160  30.487  25.725  1.00  0.00     0.118 C 
BRANCH   2   3
ATOM      3  N   UNL A   1      32.349  30.016  25.048  1.00  0.00    -0.351 N 
ATOM      4  C   UNL A   1      32.576  29.271  23.931  1.00  0.00     0.281 C 
ATOM      5  O   UNL A   1      33.750  29.328  23.536  1.00  0.00    -0.268 OA
ATOM      6  H   UNL A   1      33.179  30.298  25.494  1.00  0.00     0.163 HD
BRANCH   4   7
ATOM      7  C   UNL A   1      31.462  28.508  23.102  1.00  0.00     0.176 C 
ATOM      8  C   UNL A   1      32.129  27.299  22.376  1.00  0.00     0.079 C 
ATOM      9  C   UNL A   1      30.204  28.070  23.875  1.00  0.00     0.111 C 
ATOM     10  C   UNL A   1      31.403  25.954  22.382  1.00  0.00     0.010 C 
ATOM     11  C   UNL A   1      30.317  26.726  24.597  1.00  0.00     0.125 C 
ATOM     12  C   UNL A   1      30.584  25.591  23.621  1.00  0.00     0.032 C 
BRANCH   7  13
ATOM     13  N   UNL A   1      31.028  29.471  22.049  1.00  0.00    -0.345 N 
ATOM     14  H   UNL A   1      30.062  29.748  22.220  1.00  0.00     0.345 HD
ATOM     15  H   UNL A   1      31.098  29.028  21.133  1.00  0.00     0.345 HD
ATOM     16  H   UNL A   1      31.628  30.296  22.075  1.00  0.00     0.345 HD
ENDBRANCH   7  13
BRANCH  11  17
ATOM     17  O   UNL A   1      31.134  26.953  25.727  1.00  0.00    -0.375 OA
BRANCH  17  18
ATOM     18  C   UNL A   1      32.125  26.112  26.336  1.00  0.00     0.118 C 
ATOM     19  C   UNL A   1      32.667  24.808  25.731  1.00  0.00     0.032 C 
ATOM     20  C   UNL A   1      33.526  26.741  26.126  1.00  0.00     0.032 C 
ATOM     21  C   UNL A   1      33.990  25.491  25.388  1.00  0.00     0.005 C 
ENDBRANCH  17  18
ENDBRANCH  11  17
ENDBRANCH   4   7
ENDBRANCH   2   3
ENDBRANCH   1   2
BRANCH   1  22
ATOM     22  C   UNL A   1      32.410  32.410  26.941  1.00  0.00     0.118 C 
BRANCH  22  23
ATOM     23  N   UNL A   1      32.332  33.787  27.402  1.00  0.00    -0.352 N 
ATOM     24  C   UNL A   1      33.046  34.480  28.340  1.00  0.00     0.251 C 
ATOM     25  H   UNL A   1      31.633  34.320  26.957  1.00  0.00     0.163 HD
ATOM     26  O   UNL A   1      32.670  35.622  28.645  1.00  0.00    -0.269 OA
BRANCH  24  27
ATOM     27  C   UNL A   1      34.231  33.915  29.026  1.00  0.00     0.039 A 
ATOM     28  C   UNL A   1      34.028  32.897  29.966  1.00  0.00     0.014 A 
ATOM     29  C   UNL A   1      35.521  34.412  28.830  1.00  0.00     0.014 A 
ATOM     30  C   UNL A   1      35.112  32.341  30.654  1.00  0.00     0.010 A 
ATOM     31  C   UNL A   1      36.612  33.806  29.459  1.00  0.00     0.010 A 
ATOM     32  C   UNL A   1      36.421  32.764  30.380  1.00  0.00    -0.014 A 
BRANCH  32  33
ATOM     33  C   UNL A   1      37.592  32.128  31.046  1.00  0.00     0.031 A 
ATOM     34  C   UNL A   1      38.385  31.058  30.344  1.00  0.00     0.074 A 
ATOM     35  C   UNL A   1      37.913  32.475  32.309  1.00  0.00     0.049 A 
ATOM     36  N   UNL A   1      39.379  30.332  30.793  1.00  0.00    -0.248 NA
ATOM     37  C   UNL A   1      37.996  30.748  28.960  1.00  0.00     0.031 C 
ATOM     38  C   UNL A   1      37.211  33.475  33.114  1.00  0.00     0.029 A 
ATOM     39  N   UNL A   1      38.905  32.015  33.142  1.00  0.00    -0.354 N 
ATOM     40  C   UNL A   1      39.725  29.475  29.755  1.00  0.00     0.074 A 
ATOM     41  C   UNL A   1      38.801  29.736  28.670  1.00  0.00     0.031 C 
ATOM     42  C   UNL A   1      37.797  33.562  34.318  1.00  0.00     0.029 A 
ATOM     43  C   UNL A   1      38.888  32.595  34.389  1.00  0.00     0.049 A 
ATOM     44  H   UNL A   1      39.563  31.337  32.873  1.00  0.00     0.167 HD
ATOM     45  C   UNL A   1      40.732  28.571  29.702  1.00  0.00     0.037 A 
ATOM     46  C   UNL A   1      39.652  32.361  35.473  1.00  0.00     0.037 A 
ATOM     47  C   UNL A   1      41.661  28.322  30.775  1.00  0.00     0.049 A 
ATOM     48  C   UNL A   1      40.747  31.329  35.396  1.00  0.00     0.074 A 
ATOM     49  C   UNL A   1      42.738  27.453  30.799  1.00  0.00     0.029 A 
ATOM     50  N   UNL A   1      41.620  28.940  32.015  1.00  0.00    -0.354 N 
ATOM     51  N   UNL A   1      41.097  30.566  34.391  1.00  0.00    -0.248 NA
ATOM     52  C   UNL A   1      41.559  31.132  36.607  1.00  0.00     0.031 C 
ATOM     53  C   UNL A   1      43.318  27.508  32.070  1.00  0.00     0.029 A 
ATOM     54  C   UNL A   1      42.641  28.456  32.819  1.00  0.00     0.049 A 
ATOM     55  H   UNL A   1      40.964  29.622  32.286  1.00  0.00     0.167 HD
ATOM     56  C   UNL A   1      42.186  29.827  34.832  1.00  0.00     0.074 A 
ATOM     57  C   UNL A   1      42.449  30.242  36.194  1.00  0.00     0.031 C 
ATOM     58  C   UNL A   1      42.904  28.888  34.168  1.00  0.00     0.037 A 
BRANCH  45  59
ATOM     59  C   UNL A   1      40.891  27.778  28.435  1.00  0.00     0.064 A 
ATOM     60  C   UNL A   1      41.713  28.219  27.388  1.00  0.00     0.173 A 
ATOM     61  C   UNL A   1      40.256  26.534  28.287  1.00  0.00     0.173 A 
ATOM     62  F   UNL A   1      42.339  29.403  27.474  1.00  0.00    -0.203 F 
ATOM     63  C   UNL A   1      41.871  27.462  26.230  1.00  0.00     0.198 A 
ATOM     64  C   UNL A   1      40.442  25.764  27.142  1.00  0.00     0.198 A 
ATOM     65  F   UNL A   1      39.466  26.058  29.261  1.00  0.00    -0.203 F 
ATOM     66  F   UNL A   1      42.624  27.928  25.224  1.00  0.00    -0.200 F 
ATOM     67  C   UNL A   1      41.243  26.233  26.111  1.00  0.00     0.200 A 
ATOM     68  F   UNL A   1      39.847  24.568  27.036  1.00  0.00    -0.200 F 
ATOM     69  F   UNL A   1      41.405  25.499  25.001  1.00  0.00    -0.200 F 
ENDBRANCH  45  59
BRANCH  46  70
ATOM     70  C   UNL A   1      39.414  33.119  36.731  1.00  0.00     0.064 A 
ATOM     71  C   UNL A   1      38.476  32.678  37.676  1.00  0.00     0.173 A 
ATOM     72  C   UNL A   1      40.100  34.312  37.004  1.00  0.00     0.173 A 
ATOM     73  F   UNL A   1      37.778  31.555  37.452  1.00  0.00    -0.203 F 
ATOM     74  C   UNL A   1      38.212  33.415  38.829  1.00  0.00     0.198 A 
ATOM     75  C   UNL A   1      39.861  35.030  38.173  1.00  0.00     0.198 A 
ATOM     76  F   UNL A   1      41.011  34.778  36.136  1.00  0.00    -0.203 F 
ATOM     77  F   UNL A   1      37.269  33.000  39.685  1.00  0.00    -0.200 F 
ATOM     78  C   UNL A   1      38.909  34.588  39.080  1.00  0.00     0.200 A 
ATOM     79  F   UNL A   1      40.547  36.154  38.419  1.00  0.00    -0.200 F 
ATOM     80  F   UNL A   1      38.657  35.296  40.189  1.00  0.00    -0.200 F 
ENDBRANCH  46  70
BRANCH  58  81
ATOM     81  C   UNL A   1      44.078  28.280  34.882  1.00  0.00     0.064 A 
ATOM     82  C   UNL A   1      43.964  27.091  35.618  1.00  0.00     0.173 A 
ATOM     83  C   UNL A   1      45.347  28.875  34.792  1.00  0.00     0.173 A 
ATOM     84  F   UNL A   1      42.771  26.490  35.748  1.00  0.00    -0.203 F 
ATOM     85  C   UNL A   1      45.068  26.536  36.259  1.00  0.00     0.198 A 
ATOM     86  C   UNL A   1      46.455  28.299  35.405  1.00  0.00     0.198 A 
ATOM     87  F   UNL A   1      45.513  30.008  34.095  1.00  0.00    -0.203 F 
ATOM     88  F   UNL A   1      44.924  25.427  36.998  1.00  0.00    -0.200 F 
ATOM     89  C   UNL A   1      46.314  27.135  36.144  1.00  0.00     0.200 A 
ATOM     90  F   UNL A   1      47.661  28.870  35.280  1.00  0.00    -0.200 F 
ATOM     91  F   UNL A   1      47.378  26.593  36.753  1.00  0.00    -0.200 F 
ENDBRANCH  58  81
ENDBRANCH  32  33
ENDBRANCH  24  27
ENDBRANCH  22  23
ENDBRANCH   1  22
TORSDOF 13
ENDMDL
MODEL 2
REMARK VINA RESULT:     -11.4      3.714      8.791
REMARK SMILES [NH3+][C@]1(C(=O)NCCCNC(=O)c2ccc(-c3c4nc(c(-c5c(F)c(F)c(F)c(F)c5F)c5ccc([nH]5)c(-c5c(F)c(F)c(F)c(F)c5F)c5nc(c(-c6c(F)c(F)c(F)c(F)c6F)c6ccc3[nH]6)C=C5)C=C4)cc2)CCC[C@@H](OC2CCC2)C1
REMARK SMILES IDX 7 1 6 2 5 3 3 4 4 5 2 7 75 8 84 9 76 10 78 11 77 12 1 13
REMARK SMILES IDX 79 17 80 18 81 19 83 20 82 21 8 22 9 23 10 24 11 26 12 27
REMARK SMILES IDX 13 28 74 29 14 30 73 31 15 32 16 33 17 34 67 35 18 36 72 37
REMARK SMILES IDX 66 38 68 39 19 40 71 41 65 42 64 43 20 45 52 46 32 47 51 48
REMARK SMILES IDX 33 49 36 50 50 51 69 52 34 53 35 54 49 56 70 57 37 58 21 59
REMARK SMILES IDX 22 60 30 61 23 62 24 63 28 64 31 65 25 66 26 67 29 68 27 69
REMARK SMILES IDX 53 70 54 71 62 72 55 73 56 74 60 75 63 76 57 77 58 78 61 79
REMARK SMILES IDX 59 80 38 81 39 82 47 83 40 84 41 85 45 86 48 87 42 88 43 89
REMARK SMILES IDX 46 90 44 91
REMARK H PARENT 5 6 1 14 1 15 1 16 9 25 68 44 36 55
REMARK Flexibility Score: inf
ROOT
ATOM      1  C   UNL A   1      33.770  27.920  25.636  1.00  0.00     0.042 C 
ENDROOT
BRANCH   1   2
ATOM      2  C   UNL A   1      33.098  26.637  25.142  1.00  0.00     0.118 C 
BRANCH   2   3
ATOM      3  N   UNL A   1      33.765  26.002  24.026  1.00  0.00    -0.351 N 
ATOM      4  C   UNL A   1      33.479  24.938  23.226  1.00  0.00     0.281 C 
ATOM      5  O   UNL A   1      34.178  24.894  22.203  1.00  0.00    -0.268 OA
ATOM      6  H   UNL A   1      34.616  26.437  23.792  1.00  0.00     0.163 HD
BRANCH   4   7
ATOM      7  C   UNL A   1      32.291  23.916  23.460  1.00  0.00     0.176 C 
ATOM      8  C   UNL A   1      32.639  22.581  22.732  1.00  0.00     0.079 C 
ATOM      9  C   UNL A   1      31.875  23.662  24.921  1.00  0.00     0.111 C 
ATOM     10  C   UNL A   1      32.376  21.262  23.460  1.00  0.00     0.010 C 
ATOM     11  C   UNL A   1      32.686  22.593  25.655  1.00  0.00     0.125 C 
ATOM     12  C   UNL A   1      32.560  21.238  24.978  1.00  0.00     0.032 C 
BRANCH   7  13
ATOM     13  N   UNL A   1      31.118  24.510  22.757  1.00  0.00    -0.345 N 
ATOM     14  H   UNL A   1      30.265  24.043  23.064  1.00  0.00     0.345 HD
ATOM     15  H   UNL A   1      31.228  24.390  21.749  1.00  0.00     0.345 HD
ATOM     16  H   UNL A   1      31.058  25.505  22.976  1.00  0.00     0.345 HD
ENDBRANCH   7  13
BRANCH  11  17
ATOM     17  O   UNL A   1      33.941  23.177  25.939  1.00  0.00    -0.375 OA
BRANCH  17  18
ATOM     18  C   UNL A   1      35.266  22.656  25.757  1.00  0.00     0.118 C 
ATOM     19  C   UNL A   1      35.846  22.171  24.420  1.00  0.00     0.032 C 
ATOM     20  C   UNL A   1      36.274  23.832  25.718  1.00  0.00     0.032 C 
ATOM     21  C   UNL A   1      36.721  23.419  24.321  1.00  0.00     0.005 C 
ENDBRANCH  17  18
ENDBRANCH  11  17
ENDBRANCH   4   7
ENDBRANCH   2   3
ENDBRANCH   1   2
BRANCH   1  22
ATOM     22  C   UNL A   1      33.585  28.255  27.114  1.00  0.00     0.118 C 
BRANCH  22  23
ATOM     23  N   UNL A   1      33.564  29.682  27.395  1.00  0.00    -0.352 N 
ATOM     24  C   UNL A   1      34.479  30.512  27.980  1.00  0.00     0.251 C 
ATOM     25  H   UNL A   1      32.735  30.133  27.113  1.00  0.00     0.163 HD
ATOM     26  O   UNL A   1      34.142  31.679  28.232  1.00  0.00    -0.269 OA
BRANCH  24  27
ATOM     27  C   UNL A   1      35.843  30.072  28.349  1.00  0.00     0.039 A 
ATOM     28  C   UNL A   1      36.854  30.168  27.384  1.00  0.00     0.014 A 
ATOM     29  C   UNL A   1      36.138  29.496  29.587  1.00  0.00     0.014 A 
ATOM     30  C   UNL A   1      38.157  29.751  27.678  1.00  0.00     0.010 A 
ATOM     31  C   UNL A   1      37.454  29.149  29.907  1.00  0.00     0.010 A 
ATOM     32  C   UNL A   1      38.479  29.271  28.956  1.00  0.00    -0.014 A 
BRANCH  32  33
ATOM     33  C   UNL A   1      39.877  28.897  29.309  1.00  0.00     0.031 A 
ATOM     34  C   UNL A   1      40.742  29.832  30.112  1.00  0.00     0.074 A 
ATOM     35  C   UNL A   1      40.391  27.734  28.861  1.00  0.00     0.049 A 
ATOM     36  N   UNL A   1      42.005  29.718  30.442  1.00  0.00    -0.248 NA
ATOM     37  C   UNL A   1      40.109  31.071  30.589  1.00  0.00     0.031 C 
ATOM     38  C   UNL A   1      39.673  26.750  28.050  1.00  0.00     0.029 A 
ATOM     39  N   UNL A   1      41.643  27.187  29.013  1.00  0.00    -0.354 N 
ATOM     40  C   UNL A   1      42.319  30.870  31.153  1.00  0.00     0.074 A 
ATOM     41  C   UNL A   1      41.128  31.694  31.164  1.00  0.00     0.031 C 
ATOM     42  C   UNL A   1      40.489  25.718  27.784  1.00  0.00     0.029 A 
ATOM     43  C   UNL A   1      41.800  25.984  28.367  1.00  0.00     0.049 A 
ATOM     44  H   UNL A   1      42.359  27.616  29.534  1.00  0.00     0.167 HD
ATOM     45  C   UNL A   1      43.484  31.200  31.761  1.00  0.00     0.037 A 
ATOM     46  C   UNL A   1      42.883  25.192  28.240  1.00  0.00     0.037 A 
ATOM     47  C   UNL A   1      44.664  30.373  31.764  1.00  0.00     0.049 A 
ATOM     48  C   UNL A   1      44.175  25.597  28.902  1.00  0.00     0.074 A 
ATOM     49  C   UNL A   1      45.879  30.606  32.385  1.00  0.00     0.029 A 
ATOM     50  N   UNL A   1      44.778  29.155  31.112  1.00  0.00    -0.354 N 
ATOM     51  N   UNL A   1      44.440  26.662  29.617  1.00  0.00    -0.248 NA
ATOM     52  C   UNL A   1      45.316  24.683  28.744  1.00  0.00     0.031 C 
ATOM     53  C   UNL A   1      46.744  29.554  32.068  1.00  0.00     0.029 A 
ATOM     54  C   UNL A   1      46.049  28.635  31.299  1.00  0.00     0.049 A 
ATOM     55  H   UNL A   1      44.061  28.723  30.593  1.00  0.00     0.167 HD
ATOM     56  C   UNL A   1      45.763  26.531  30.022  1.00  0.00     0.074 A 
ATOM     57  C   UNL A   1      46.242  25.276  29.484  1.00  0.00     0.031 C 
ATOM     58  C   UNL A   1      46.511  27.376  30.772  1.00  0.00     0.037 A 
BRANCH  45  59
ATOM     59  C   UNL A   1      43.545  32.517  32.482  1.00  0.00     0.064 A 
ATOM     60  C   UNL A   1      43.232  32.626  33.845  1.00  0.00     0.173 A 
ATOM     61  C   UNL A   1      43.975  33.676  31.815  1.00  0.00     0.173 A 
ATOM     62  F   UNL A   1      42.810  31.551  34.528  1.00  0.00    -0.203 F 
ATOM     63  C   UNL A   1      43.316  33.848  34.507  1.00  0.00     0.198 A 
ATOM     64  C   UNL A   1      44.091  34.890  32.488  1.00  0.00     0.198 A 
ATOM     65  F   UNL A   1      44.297  33.628  30.514  1.00  0.00    -0.203 F 
ATOM     66  F   UNL A   1      42.966  33.935  35.797  1.00  0.00    -0.200 F 
ATOM     67  C   UNL A   1      43.754  34.976  33.831  1.00  0.00     0.200 A 
ATOM     68  F   UNL A   1      44.530  35.976  31.838  1.00  0.00    -0.200 F 
ATOM     69  F   UNL A   1      43.847  36.150  34.472  1.00  0.00    -0.200 F 
ENDBRANCH  45  59
BRANCH  46  70
ATOM     70  C   UNL A   1      42.798  23.931  27.457  1.00  0.00     0.064 A 
ATOM     71  C   UNL A   1      42.434  22.722  28.068  1.00  0.00     0.173 A 
ATOM     72  C   UNL A   1      43.101  23.901  26.087  1.00  0.00     0.173 A 
ATOM     73  F   UNL A   1      42.155  22.693  29.380  1.00  0.00    -0.203 F 
ATOM     74  C   UNL A   1      42.405  21.529  27.348  1.00  0.00     0.198 A 
ATOM     75  C   UNL A   1      43.038  22.714  25.361  1.00  0.00     0.198 A 
ATOM     76  F   UNL A   1      43.451  25.029  25.451  1.00  0.00    -0.203 F 
ATOM     77  F   UNL A   1      42.110  20.380  27.971  1.00  0.00    -0.200 F 
ATOM     78  C   UNL A   1      42.702  21.527  25.993  1.00  0.00     0.200 A 
ATOM     79  F   UNL A   1      43.311  22.719  24.049  1.00  0.00    -0.200 F 
ATOM     80  F   UNL A   1      42.674  20.381  25.300  1.00  0.00    -0.200 F 
ENDBRANCH  46  70
BRANCH  58  81
ATOM     81  C   UNL A   1      47.914  26.950  31.104  1.00  0.00     0.064 A 
ATOM     82  C   UNL A   1      49.016  27.374  30.347  1.00  0.00     0.173 A 
ATOM     83  C   UNL A   1      48.161  26.139  32.224  1.00  0.00     0.173 A 
ATOM     84  F   UNL A   1      48.834  28.138  29.258  1.00  0.00    -0.203 F 
ATOM     85  C   UNL A   1      50.309  26.980  30.682  1.00  0.00     0.198 A 
ATOM     86  C   UNL A   1      49.457  25.776  32.575  1.00  0.00     0.198 A 
ATOM     87  F   UNL A   1      47.143  25.712  32.986  1.00  0.00    -0.203 F 
ATOM     88  F   UNL A   1      51.341  27.356  29.915  1.00  0.00    -0.200 F 
ATOM     89  C   UNL A   1      50.529  26.190  31.801  1.00  0.00     0.200 A 
ATOM     90  F   UNL A   1      49.669  25.025  33.665  1.00  0.00    -0.200 F 
ATOM     91  F   UNL A   1      51.776  25.821  32.127  1.00  0.00    -0.200 F 
ENDBRANCH  58  81
ENDBRANCH  32  33
ENDBRANCH  24  27
ENDBRANCH  22  23
ENDBRANCH   1  22
TORSDOF 13
ENDMDL
MODEL 3
REMARK VINA RESULT:     -11.4      5.936     11.240
REMARK SMILES [NH3+][C@]1(C(=O)NCCCNC(=O)c2ccc(-c3c4nc(c(-c5c(F)c(F)c(F)c(F)c5F)c5ccc([nH]5)c(-c5c(F)c(F)c(F)c(F)c5F)c5nc(c(-c6c(F)c(F)c(F)c(F)c6F)c6ccc3[nH]6)C=C5)C=C4)cc2)CCC[C@@H](OC2CCC2)C1
REMARK SMILES IDX 7 1 6 2 5 3 3 4 4 5 2 7 75 8 84 9 76 10 78 11 77 12 1 13
REMARK SMILES IDX 79 17 80 18 81 19 83 20 82 21 8 22 9 23 10 24 11 26 12 27
REMARK SMILES IDX 13 28 74 29 14 30 73 31 15 32 16 33 17 34 67 35 18 36 72 37
REMARK SMILES IDX 66 38 68 39 19 40 71 41 65 42 64 43 20 45 52 46 32 47 51 48
REMARK SMILES IDX 33 49 36 50 50 51 69 52 34 53 35 54 49 56 70 57 37 58 21 59
REMARK SMILES IDX 22 60 30 61 23 62 24 63 28 64 31 65 25 66 26 67 29 68 27 69
REMARK SMILES IDX 53 70 54 71 62 72 55 73 56 74 60 75 63 76 57 77 58 78 61 79
REMARK SMILES IDX 59 80 38 81 39 82 47 83 40 84 41 85 45 86 48 87 42 88 43 89
REMARK SMILES IDX 46 90 44 91
REMARK H PARENT 5 6 1 14 1 15 1 16 9 25 68 44 36 55
REMARK Flexibility Score: inf
ROOT
ATOM      1  C   UNL A   1      37.802  19.300  25.000  1.00  0.00     0.042 C 
ENDROOT
BRANCH   1   2
ATOM      2  C   UNL A   1      36.513  20.122  25.003  1.00  0.00     0.118 C 
BRANCH   2   3
ATOM      3  N   UNL A   1      36.545  21.293  24.154  1.00  0.00    -0.351 N 
ATOM      4  C   UNL A   1      36.322  22.621  24.355  1.00  0.00     0.281 C 
ATOM      5  O   UNL A   1      36.727  23.331  23.423  1.00  0.00    -0.268 OA
ATOM      6  H   UNL A   1      36.783  21.083  23.222  1.00  0.00     0.163 HD
BRANCH   4   7
ATOM      7  C   UNL A   1      35.738  23.256  25.684  1.00  0.00     0.176 C 
ATOM      8  C   UNL A   1      35.005  24.583  25.316  1.00  0.00     0.079 C 
ATOM      9  C   UNL A   1      34.845  22.348  26.550  1.00  0.00     0.111 C 
ATOM     10  C   UNL A   1      33.649  24.871  25.960  1.00  0.00     0.010 C 
ATOM     11  C   UNL A   1      33.370  22.308  26.148  1.00  0.00     0.125 C 
ATOM     12  C   UNL A   1      32.729  23.683  26.246  1.00  0.00     0.032 C 
BRANCH   7  13
ATOM     13  N   UNL A   1      36.931  23.621  26.501  1.00  0.00    -0.345 N 
ATOM     14  H   UNL A   1      37.520  22.799  26.628  1.00  0.00     0.345 HD
ATOM     15  H   UNL A   1      36.627  23.966  27.412  1.00  0.00     0.345 HD
ATOM     16  H   UNL A   1      37.461  24.349  26.022  1.00  0.00     0.345 HD
ENDBRANCH   7  13
BRANCH  11  17
ATOM     17  O   UNL A   1      33.304  21.531  24.970  1.00  0.00    -0.375 OA
BRANCH  17  18
ATOM     18  C   UNL A   1      32.444  20.431  24.635  1.00  0.00     0.118 C 
ATOM     19  C   UNL A   1      32.527  19.610  23.340  1.00  0.00     0.032 C 
ATOM     20  C   UNL A   1      32.903  19.171  25.412  1.00  0.00     0.032 C 
ATOM     21  C   UNL A   1      33.128  18.429  24.100  1.00  0.00     0.005 C 
ENDBRANCH  17  18
ENDBRANCH  11  17
ENDBRANCH   4   7
ENDBRANCH   2   3
ENDBRANCH   1   2
BRANCH   1  22
ATOM     22  C   UNL A   1      39.039  19.976  25.587  1.00  0.00     0.118 C 
BRANCH  22  23
ATOM     23  N   UNL A   1      40.163  19.075  25.788  1.00  0.00    -0.352 N 
ATOM     24  C   UNL A   1      41.475  19.305  26.092  1.00  0.00     0.251 C 
ATOM     25  H   UNL A   1      39.936  18.122  25.684  1.00  0.00     0.163 HD
ATOM     26  O   UNL A   1      42.265  18.349  26.062  1.00  0.00    -0.269 OA
BRANCH  24  27
ATOM     27  C   UNL A   1      41.999  20.648  26.428  1.00  0.00     0.039 A 
ATOM     28  C   UNL A   1      42.293  21.526  25.376  1.00  0.00     0.014 A 
ATOM     29  C   UNL A   1      42.284  21.038  27.738  1.00  0.00     0.014 A 
ATOM     30  C   UNL A   1      42.806  22.801  25.639  1.00  0.00     0.010 A 
ATOM     31  C   UNL A   1      42.724  22.338  28.007  1.00  0.00     0.010 A 
ATOM     32  C   UNL A   1      42.991  23.235  26.960  1.00  0.00    -0.014 A 
BRANCH  32  33
ATOM     33  C   UNL A   1      43.461  24.616  27.259  1.00  0.00     0.031 A 
ATOM     34  C   UNL A   1      42.510  25.649  27.804  1.00  0.00     0.074 A 
ATOM     35  C   UNL A   1      44.737  24.961  26.989  1.00  0.00     0.049 A 
ATOM     36  N   UNL A   1      42.714  26.920  28.044  1.00  0.00    -0.248 NA
ATOM     37  C   UNL A   1      41.142  25.196  28.099  1.00  0.00     0.031 C 
ATOM     38  C   UNL A   1      45.753  24.069  26.433  1.00  0.00     0.029 A 
ATOM     39  N   UNL A   1      45.393  26.161  27.134  1.00  0.00    -0.354 N 
ATOM     40  C   UNL A   1      41.503  27.420  28.506  1.00  0.00     0.074 A 
ATOM     41  C   UNL A   1      40.554  26.327  28.464  1.00  0.00     0.031 C 
ATOM     42  C   UNL A   1      46.905  24.744  26.293  1.00  0.00     0.029 A 
ATOM     43  C   UNL A   1      46.699  26.129  26.708  1.00  0.00     0.049 A 
ATOM     44  H   UNL A   1      44.968  26.965  27.508  1.00  0.00     0.167 HD
ATOM     45  C   UNL A   1      41.212  28.669  28.945  1.00  0.00     0.037 A 
ATOM     46  C   UNL A   1      47.622  27.107  26.638  1.00  0.00     0.037 A 
ATOM     47  C   UNL A   1      42.159  29.753  29.002  1.00  0.00     0.049 A 
ATOM     48  C   UNL A   1      47.264  28.494  27.107  1.00  0.00     0.074 A 
ATOM     49  C   UNL A   1      41.968  31.042  29.468  1.00  0.00     0.029 A 
ATOM     50  N   UNL A   1      43.476  29.676  28.574  1.00  0.00    -0.354 N 
ATOM     51  N   UNL A   1      46.131  28.937  27.591  1.00  0.00    -0.248 NA
ATOM     52  C   UNL A   1      48.320  29.515  27.024  1.00  0.00     0.031 C 
ATOM     53  C   UNL A   1      43.153  31.759  29.276  1.00  0.00     0.029 A 
ATOM     54  C   UNL A   1      44.102  30.901  28.748  1.00  0.00     0.049 A 
ATOM     55  H   UNL A   1      43.904  28.870  28.204  1.00  0.00     0.167 HD
ATOM     56  C   UNL A   1      46.345  30.274  27.903  1.00  0.00     0.074 A 
ATOM     57  C   UNL A   1      47.722  30.566  27.565  1.00  0.00     0.031 C 
ATOM     58  C   UNL A   1      45.479  31.177  28.423  1.00  0.00     0.037 A 
BRANCH  45  59
ATOM     59  C   UNL A   1      39.807  28.936  29.407  1.00  0.00     0.064 A 
ATOM     60  C   UNL A   1      38.822  29.410  28.528  1.00  0.00     0.173 A 
ATOM     61  C   UNL A   1      39.426  28.663  30.730  1.00  0.00     0.173 A 
ATOM     62  F   UNL A   1      39.132  29.692  27.254  1.00  0.00    -0.203 F 
ATOM     63  C   UNL A   1      37.517  29.629  28.962  1.00  0.00     0.198 A 
ATOM     64  C   UNL A   1      38.113  28.852  31.153  1.00  0.00     0.198 A 
ATOM     65  F   UNL A   1      40.325  28.199  31.611  1.00  0.00    -0.203 F 
ATOM     66  F   UNL A   1      36.605  30.127  28.116  1.00  0.00    -0.200 F 
ATOM     67  C   UNL A   1      37.162  29.342  30.271  1.00  0.00     0.200 A 
ATOM     68  F   UNL A   1      37.767  28.558  32.414  1.00  0.00    -0.200 F 
ATOM     69  F   UNL A   1      35.903  29.542  30.685  1.00  0.00    -0.200 F 
ENDBRANCH  45  59
BRANCH  46  70
ATOM     70  C   UNL A   1      48.980  26.815  26.107  1.00  0.00     0.064 A 
ATOM     71  C   UNL A   1      49.291  27.027  24.756  1.00  0.00     0.173 A 
ATOM     72  C   UNL A   1      49.990  26.295  26.932  1.00  0.00     0.173 A 
ATOM     73  F   UNL A   1      48.355  27.502  23.921  1.00  0.00    -0.203 F 
ATOM     74  C   UNL A   1      50.546  26.703  24.245  1.00  0.00     0.198 A 
ATOM     75  C   UNL A   1      51.255  26.005  26.428  1.00  0.00     0.198 A 
ATOM     76  F   UNL A   1      49.748  26.077  28.234  1.00  0.00    -0.203 F 
ATOM     77  F   UNL A   1      50.796  26.862  22.938  1.00  0.00    -0.200 F 
ATOM     78  C   UNL A   1      51.529  26.198  25.082  1.00  0.00     0.200 A 
ATOM     79  F   UNL A   1      52.206  25.531  27.243  1.00  0.00    -0.200 F 
ATOM     80  F   UNL A   1      52.736  25.887  24.591  1.00  0.00    -0.200 F 
ENDBRANCH  46  70
BRANCH  58  81
ATOM     81  C   UNL A   1      46.003  32.555  28.710  1.00  0.00     0.064 A 
ATOM     82  C   UNL A   1      46.610  32.878  29.933  1.00  0.00     0.173 A 
ATOM     83  C   UNL A   1      45.936  33.556  27.728  1.00  0.00     0.173 A 
ATOM     84  F   UNL A   1      46.686  31.963  30.911  1.00  0.00    -0.203 F 
ATOM     85  C   UNL A   1      47.103  34.158  30.172  1.00  0.00     0.198 A 
ATOM     86  C   UNL A   1      46.461  34.825  27.958  1.00  0.00     0.198 A 
ATOM     87  F   UNL A   1      45.373  33.299  26.538  1.00  0.00    -0.203 F 
ATOM     88  F   UNL A   1      47.633  34.458  31.366  1.00  0.00    -0.200 F 
ATOM     89  C   UNL A   1      47.037  35.127  29.181  1.00  0.00     0.200 A 
ATOM     90  F   UNL A   1      46.410  35.754  26.994  1.00  0.00    -0.200 F 
ATOM     91  F   UNL A   1      47.523  36.355  29.410  1.00  0.00    -0.200 F 
ENDBRANCH  58  81
ENDBRANCH  32  33
ENDBRANCH  24  27
ENDBRANCH  22  23
ENDBRANCH   1  22
TORSDOF 13
ENDMDL
