MODEL 1
REMARK VINA RESULT:     -12.5      0.000      0.000
REMARK SMILES O=C(C[C@H]1C(=O)NCC[N@@H+]1Cc1ccc(Cl)c(F)c1)NCCCNC(=O)c1ccc(-c2c3nc(c(-c4c(F)c(F)c(F)c(F)c4F)c4ccc([nH]4)c(-c4c(F)c(F)c(F)c(F)c4F)c4nc(c(-c5c(F)c(F)c(F)c(F)c5F)c5ccc2[nH]5)C=C4)C=C3)cc1
REMARK SMILES IDX 21 1 20 2 1 3 2 4 3 6 4 7 5 8 10 9 6 10 7 11 9 12 8 14 11 16
REMARK SMILES IDX 12 17 13 18 19 19 14 20 17 21 15 22 18 23 16 24 22 25 23 26
REMARK SMILES IDX 24 27 25 28 26 30 27 31 28 32 89 33 29 34 88 35 30 36 31 37
REMARK SMILES IDX 32 38 82 39 33 40 87 41 81 42 83 43 34 44 86 45 80 46 79 47
REMARK SMILES IDX 35 49 67 50 47 51 66 52 48 53 51 54 65 55 84 56 49 57 50 58
REMARK SMILES IDX 64 60 85 61 52 62 36 63 37 64 45 65 38 66 39 67 43 68 46 69
REMARK SMILES IDX 40 70 41 71 44 72 42 73 68 74 69 75 77 76 70 77 71 78 75 79
REMARK SMILES IDX 78 80 72 81 73 82 76 83 74 84 53 85 54 86 62 87 55 88 56 89
REMARK SMILES IDX 60 90 63 91 57 92 58 93 61 94 59 95
REMARK H PARENT 20 5 10 13 7 15 24 29 83 48 51 59
REMARK Flexibility Score: inf
ROOT
ATOM      1  C   UNL A   1      32.092  29.934  27.070  1.00  0.00     0.117 C 
ENDROOT
BRANCH   1   2
ATOM      2  N   UNL A   1      31.965  29.089  25.900  1.00  0.00    -0.356 N 
ATOM      3  O   UNL A   1      34.189  28.575  25.827  1.00  0.00    -0.275 OA
ATOM      4  C   UNL A   1      33.045  28.370  25.439  1.00  0.00     0.226 C 
ATOM      5  H   UNL A   1      31.100  29.029  25.434  1.00  0.00     0.163 HD
BRANCH   4   6
ATOM      6  C   UNL A   1      32.690  27.270  24.457  1.00  0.00     0.175 C 
BRANCH   6   7
ATOM      7  C   UNL A   1      32.380  25.906  25.112  1.00  0.00     0.283 C 
ATOM      8  C   UNL A   1      30.891  25.786  25.466  1.00  0.00     0.279 C 
ATOM      9  N   UNL A   1      32.887  24.739  24.331  1.00  0.00    -0.319 N 
ATOM     10  O   UNL A   1      30.432  26.239  26.511  1.00  0.00    -0.268 OA
ATOM     11  N   UNL A   1      30.072  25.190  24.548  1.00  0.00    -0.345 N 
ATOM     12  C   UNL A   1      32.049  24.427  23.168  1.00  0.00     0.284 C 
ATOM     13  H   UNL A   1      33.785  25.039  23.952  1.00  0.00     0.349 HD
ATOM     14  C   UNL A   1      30.521  24.491  23.366  1.00  0.00     0.177 C 
ATOM     15  H   UNL A   1      29.101  25.242  24.705  1.00  0.00     0.163 HD
BRANCH   9  16
ATOM     16  C   UNL A   1      33.225  23.560  25.157  1.00  0.00     0.299 C 
BRANCH  16  17
ATOM     17  C   UNL A   1      34.678  23.138  25.198  1.00  0.00     0.009 A 
ATOM     18  C   UNL A   1      35.688  24.068  25.492  1.00  0.00     0.011 A 
ATOM     19  C   UNL A   1      35.038  21.796  25.008  1.00  0.00     0.050 A 
ATOM     20  C   UNL A   1      37.011  23.653  25.678  1.00  0.00     0.024 A 
ATOM     21  C   UNL A   1      36.354  21.384  25.212  1.00  0.00     0.142 A 
ATOM     22  C   UNL A   1      37.338  22.303  25.559  1.00  0.00     0.076 A 
ATOM     23  F   UNL A   1      36.638  20.078  25.106  1.00  0.00    -0.205 F 
ATOM     24  Cl  UNL A   1      38.951  21.789  25.864  1.00  0.00    -0.081 Cl
ENDBRANCH  16  17
ENDBRANCH   9  16
ENDBRANCH   6   7
ENDBRANCH   4   6
ENDBRANCH   1   2
BRANCH   1  25
ATOM     25  C   UNL A   1      31.875  31.414  26.794  1.00  0.00     0.042 C 
BRANCH  25  26
ATOM     26  C   UNL A   1      32.923  32.363  27.371  1.00  0.00     0.118 C 
BRANCH  26  27
ATOM     27  N   UNL A   1      32.459  33.722  27.603  1.00  0.00    -0.352 N 
ATOM     28  C   UNL A   1      32.999  34.699  28.411  1.00  0.00     0.251 C 
ATOM     29  H   UNL A   1      31.645  33.980  27.113  1.00  0.00     0.163 HD
ATOM     30  O   UNL A   1      32.457  35.797  28.494  1.00  0.00    -0.269 OA
BRANCH  28  31
ATOM     31  C   UNL A   1      34.197  34.404  29.232  1.00  0.00     0.039 A 
ATOM     32  C   UNL A   1      34.014  33.859  30.506  1.00  0.00     0.014 A 
ATOM     33  C   UNL A   1      35.487  34.594  28.731  1.00  0.00     0.014 A 
ATOM     34  C   UNL A   1      35.117  33.395  31.228  1.00  0.00     0.010 A 
ATOM     35  C   UNL A   1      36.579  34.067  29.420  1.00  0.00     0.010 A 
ATOM     36  C   UNL A   1      36.402  33.437  30.662  1.00  0.00    -0.014 A 
BRANCH  36  37
ATOM     37  C   UNL A   1      37.557  32.767  31.316  1.00  0.00     0.031 A 
ATOM     38  C   UNL A   1      38.216  31.578  30.677  1.00  0.00     0.074 A 
ATOM     39  C   UNL A   1      37.956  33.175  32.538  1.00  0.00     0.049 A 
ATOM     40  N   UNL A   1      39.155  30.799  31.150  1.00  0.00    -0.248 NA
ATOM     41  C   UNL A   1      37.736  31.200  29.340  1.00  0.00     0.031 C 
ATOM     42  C   UNL A   1      37.373  34.287  33.291  1.00  0.00     0.029 A 
ATOM     43  N   UNL A   1      38.935  32.690  33.370  1.00  0.00    -0.354 N 
ATOM     44  C   UNL A   1      39.369  29.831  30.178  1.00  0.00     0.074 A 
ATOM     45  C   UNL A   1      38.433  30.097  29.105  1.00  0.00     0.031 C 
ATOM     46  C   UNL A   1      38.012  34.406  34.466  1.00  0.00     0.029 A 
ATOM     47  C   UNL A   1      39.021  33.357  34.568  1.00  0.00     0.049 A 
ATOM     48  H   UNL A   1      39.519  31.933  33.132  1.00  0.00     0.167 HD
ATOM     49  C   UNL A   1      40.276  28.825  30.173  1.00  0.00     0.037 A 
ATOM     50  C   UNL A   1      39.812  33.141  35.637  1.00  0.00     0.037 A 
ATOM     51  C   UNL A   1      41.227  28.575  31.225  1.00  0.00     0.049 A 
ATOM     52  C   UNL A   1      40.801  32.008  35.609  1.00  0.00     0.074 A 
ATOM     53  C   UNL A   1      42.231  27.623  31.271  1.00  0.00     0.029 A 
ATOM     54  N   UNL A   1      41.291  29.281  32.416  1.00  0.00    -0.354 N 
ATOM     55  N   UNL A   1      41.033  31.138  34.658  1.00  0.00    -0.248 NA
ATOM     56  C   UNL A   1      41.636  31.828  36.805  1.00  0.00     0.031 C 
ATOM     57  C   UNL A   1      42.876  27.726  32.508  1.00  0.00     0.029 A 
ATOM     58  C   UNL A   1      42.301  28.769  33.216  1.00  0.00     0.049 A 
ATOM     59  H   UNL A   1      40.705  30.035  32.658  1.00  0.00     0.167 HD
ATOM     60  C   UNL A   1      42.051  30.321  35.130  1.00  0.00     0.074 A 
ATOM     61  C   UNL A   1      42.404  30.808  36.448  1.00  0.00     0.031 C 
ATOM     62  C   UNL A   1      42.640  29.261  34.526  1.00  0.00     0.037 A 
BRANCH  49  63
ATOM     63  C   UNL A   1      40.287  27.911  28.983  1.00  0.00     0.064 A 
ATOM     64  C   UNL A   1      41.014  28.224  27.826  1.00  0.00     0.173 A 
ATOM     65  C   UNL A   1      39.598  26.689  29.017  1.00  0.00     0.173 A 
ATOM     66  F   UNL A   1      41.679  29.386  27.740  1.00  0.00    -0.203 F 
ATOM     67  C   UNL A   1      41.031  27.359  26.735  1.00  0.00     0.198 A 
ATOM     68  C   UNL A   1      39.638  25.815  27.935  1.00  0.00     0.198 A 
ATOM     69  F   UNL A   1      38.891  26.341  30.103  1.00  0.00    -0.203 F 
ATOM     70  F   UNL A   1      41.697  27.697  25.622  1.00  0.00    -0.200 F 
ATOM     71  C   UNL A   1      40.348  26.153  26.793  1.00  0.00     0.200 A 
ATOM     72  F   UNL A   1      38.987  24.645  27.996  1.00  0.00    -0.200 F 
ATOM     73  F   UNL A   1      40.370  25.317  25.744  1.00  0.00    -0.200 F 
ENDBRANCH  49  63
BRANCH  50  74
ATOM     74  C   UNL A   1      39.708  34.024  36.826  1.00  0.00     0.064 A 
ATOM     75  C   UNL A   1      40.402  35.241  36.879  1.00  0.00     0.173 A 
ATOM     76  C   UNL A   1      38.922  33.670  37.932  1.00  0.00     0.173 A 
ATOM     77  F   UNL A   1      41.184  35.608  35.854  1.00  0.00    -0.203 F 
ATOM     78  C   UNL A   1      40.326  36.063  38.000  1.00  0.00     0.198 A 
ATOM     79  C   UNL A   1      38.828  34.506  39.043  1.00  0.00     0.198 A 
ATOM     80  F   UNL A   1      38.238  32.517  37.929  1.00  0.00    -0.203 F 
ATOM     81  F   UNL A   1      41.031  37.202  38.041  1.00  0.00    -0.200 F 
ATOM     82  C   UNL A   1      39.535  35.699  39.079  1.00  0.00     0.200 A 
ATOM     83  F   UNL A   1      38.053  34.155  40.079  1.00  0.00    -0.200 F 
ATOM     84  F   UNL A   1      39.459  36.492  40.156  1.00  0.00    -0.200 F 
ENDBRANCH  50  74
BRANCH  62  85
ATOM     85  C   UNL A   1      43.738  28.566  35.275  1.00  0.00     0.064 A 
ATOM     86  C   UNL A   1      43.464  27.533  36.184  1.00  0.00     0.173 A 
ATOM     87  C   UNL A   1      45.079  28.912  35.055  1.00  0.00     0.173 A 
ATOM     88  F   UNL A   1      42.196  27.179  36.439  1.00  0.00    -0.203 F 
ATOM     89  C   UNL A   1      44.494  26.886  36.860  1.00  0.00     0.198 A 
ATOM     90  C   UNL A   1      46.108  28.245  35.716  1.00  0.00     0.198 A 
ATOM     91  F   UNL A   1      45.393  29.891  34.193  1.00  0.00    -0.203 F 
ATOM     92  F   UNL A   1      44.207  25.929  37.754  1.00  0.00    -0.200 F 
ATOM     93  C   UNL A   1      45.814  27.237  36.621  1.00  0.00     0.200 A 
ATOM     94  F   UNL A   1      47.383  28.579  35.477  1.00  0.00    -0.200 F 
ATOM     95  F   UNL A   1      46.804  26.608  37.271  1.00  0.00    -0.200 F 
ENDBRANCH  62  85
ENDBRANCH  36  37
ENDBRANCH  28  31
ENDBRANCH  26  27
ENDBRANCH  25  26
ENDBRANCH   1  25
TORSDOF 13
ENDMDL
MODEL 2
REMARK VINA RESULT:     -12.5      2.762      8.427
REMARK SMILES O=C(C[C@H]1C(=O)NCC[N@@H+]1Cc1ccc(Cl)c(F)c1)NCCCNC(=O)c1ccc(-c2c3nc(c(-c4c(F)c(F)c(F)c(F)c4F)c4ccc([nH]4)c(-c4c(F)c(F)c(F)c(F)c4F)c4nc(c(-c5c(F)c(F)c(F)c(F)c5F)c5ccc2[nH]5)C=C4)C=C3)cc1
REMARK SMILES IDX 21 1 20 2 1 3 2 4 3 6 4 7 5 8 10 9 6 10 7 11 9 12 8 14 11 16
REMARK SMILES IDX 12 17 13 18 19 19 14 20 17 21 15 22 18 23 16 24 22 25 23 26
REMARK SMILES IDX 24 27 25 28 26 30 27 31 28 32 89 33 29 34 88 35 30 36 31 37
REMARK SMILES IDX 32 38 82 39 33 40 87 41 81 42 83 43 34 44 86 45 80 46 79 47
REMARK SMILES IDX 35 49 67 50 47 51 66 52 48 53 51 54 65 55 84 56 49 57 50 58
REMARK SMILES IDX 64 60 85 61 52 62 36 63 37 64 45 65 38 66 39 67 43 68 46 69
REMARK SMILES IDX 40 70 41 71 44 72 42 73 68 74 69 75 77 76 70 77 71 78 75 79
REMARK SMILES IDX 78 80 72 81 73 82 76 83 74 84 53 85 54 86 62 87 55 88 56 89
REMARK SMILES IDX 60 90 63 91 57 92 58 93 61 94 59 95
REMARK H PARENT 20 5 10 13 7 15 24 29 83 48 51 59
REMARK Flexibility Score: inf
ROOT
ATOM      1  C   UNL A   1      31.791  30.494  26.939  1.00  0.00     0.117 C 
ENDROOT
BRANCH   1   2
ATOM      2  N   UNL A   1      32.724  29.778  26.094  1.00  0.00    -0.356 N 
ATOM      3  O   UNL A   1      31.648  27.776  26.320  1.00  0.00    -0.275 OA
ATOM      4  C   UNL A   1      32.493  28.462  25.758  1.00  0.00     0.226 C 
ATOM      5  H   UNL A   1      33.529  30.236  25.758  1.00  0.00     0.163 HD
BRANCH   4   6
ATOM      6  C   UNL A   1      33.331  27.957  24.600  1.00  0.00     0.175 C 
BRANCH   6   7
ATOM      7  C   UNL A   1      32.591  27.922  23.245  1.00  0.00     0.283 C 
ATOM      8  C   UNL A   1      33.432  27.218  22.171  1.00  0.00     0.279 C 
ATOM      9  N   UNL A   1      31.200  27.386  23.337  1.00  0.00    -0.319 N 
ATOM     10  O   UNL A   1      34.296  27.810  21.530  1.00  0.00    -0.268 OA
ATOM     11  N   UNL A   1      33.218  25.881  21.980  1.00  0.00    -0.345 N 
ATOM     12  C   UNL A   1      31.162  25.924  23.452  1.00  0.00     0.284 C 
ATOM     13  H   UNL A   1      30.833  27.742  24.220  1.00  0.00     0.349 HD
ATOM     14  C   UNL A   1      32.134  25.124  22.561  1.00  0.00     0.177 C 
ATOM     15  H   UNL A   1      33.851  25.399  21.401  1.00  0.00     0.163 HD
BRANCH   9  16
ATOM     16  C   UNL A   1      30.275  27.929  22.321  1.00  0.00     0.299 C 
BRANCH  16  17
ATOM     17  C   UNL A   1      29.737  29.325  22.550  1.00  0.00     0.009 A 
ATOM     18  C   UNL A   1      29.811  29.923  23.818  1.00  0.00     0.011 A 
ATOM     19  C   UNL A   1      29.213  30.073  21.486  1.00  0.00     0.050 A 
ATOM     20  C   UNL A   1      29.453  31.264  23.999  1.00  0.00     0.024 A 
ATOM     21  C   UNL A   1      28.875  31.413  21.667  1.00  0.00     0.142 A 
ATOM     22  C   UNL A   1      29.005  32.015  22.913  1.00  0.00     0.076 A 
ATOM     23  F   UNL A   1      28.461  32.116  20.602  1.00  0.00    -0.205 F 
ATOM     24  Cl  UNL A   1      28.639  33.683  23.126  1.00  0.00    -0.081 Cl
ENDBRANCH  16  17
ENDBRANCH   9  16
ENDBRANCH   6   7
ENDBRANCH   4   6
ENDBRANCH   1   2
BRANCH   1  25
ATOM     25  C   UNL A   1      31.741  31.992  26.681  1.00  0.00     0.042 C 
BRANCH  25  26
ATOM     26  C   UNL A   1      32.825  32.825  27.359  1.00  0.00     0.118 C 
BRANCH  26  27
ATOM     27  N   UNL A   1      32.421  34.171  27.735  1.00  0.00    -0.352 N 
ATOM     28  C   UNL A   1      32.997  35.030  28.646  1.00  0.00     0.251 C 
ATOM     29  H   UNL A   1      31.623  34.516  27.273  1.00  0.00     0.163 HD
ATOM     30  O   UNL A   1      32.504  36.136  28.845  1.00  0.00    -0.269 OA
BRANCH  28  31
ATOM     31  C   UNL A   1      34.174  34.594  29.434  1.00  0.00     0.039 A 
ATOM     32  C   UNL A   1      33.964  34.085  30.718  1.00  0.00     0.014 A 
ATOM     33  C   UNL A   1      35.462  34.620  28.893  1.00  0.00     0.014 A 
ATOM     34  C   UNL A   1      35.023  33.492  31.412  1.00  0.00     0.010 A 
ATOM     35  C   UNL A   1      36.501  33.966  29.555  1.00  0.00     0.010 A 
ATOM     36  C   UNL A   1      36.285  33.371  30.808  1.00  0.00    -0.014 A 
BRANCH  36  37
ATOM     37  C   UNL A   1      37.369  32.568  31.435  1.00  0.00     0.031 A 
ATOM     38  C   UNL A   1      37.892  32.921  32.798  1.00  0.00     0.074 A 
ATOM     39  C   UNL A   1      37.949  31.573  30.733  1.00  0.00     0.049 A 
ATOM     40  N   UNL A   1      38.905  32.410  33.453  1.00  0.00    -0.248 NA
ATOM     41  C   UNL A   1      37.202  34.007  33.508  1.00  0.00     0.031 C 
ATOM     42  C   UNL A   1      37.569  31.158  29.381  1.00  0.00     0.029 A 
ATOM     43  N   UNL A   1      38.995  30.743  31.051  1.00  0.00    -0.354 N 
ATOM     44  C   UNL A   1      38.983  33.121  34.642  1.00  0.00     0.074 A 
ATOM     45  C   UNL A   1      37.941  34.126  34.602  1.00  0.00     0.031 C 
ATOM     46  C   UNL A   1      38.359  30.145  28.993  1.00  0.00     0.029 A 
ATOM     47  C   UNL A   1      39.328  29.865  30.047  1.00  0.00     0.049 A 
ATOM     48  H   UNL A   1      39.463  30.774  31.917  1.00  0.00     0.167 HD
ATOM     49  C   UNL A   1      39.834  32.941  35.680  1.00  0.00     0.037 A 
ATOM     50  C   UNL A   1      40.312  28.948  29.977  1.00  0.00     0.037 A 
ATOM     51  C   UNL A   1      40.853  31.925  35.735  1.00  0.00     0.049 A 
ATOM     52  C   UNL A   1      41.251  28.777  31.139  1.00  0.00     0.074 A 
ATOM     53  C   UNL A   1      41.713  31.621  36.777  1.00  0.00     0.029 A 
ATOM     54  N   UNL A   1      41.150  31.047  34.704  1.00  0.00    -0.354 N 
ATOM     55  N   UNL A   1      41.275  29.417  32.282  1.00  0.00    -0.248 NA
ATOM     56  C   UNL A   1      42.300  27.758  30.999  1.00  0.00     0.031 C 
ATOM     57  C   UNL A   1      42.558  30.587  36.361  1.00  0.00     0.029 A 
ATOM     58  C   UNL A   1      42.198  30.219  35.075  1.00  0.00     0.049 A 
ATOM     59  H   UNL A   1      40.686  31.017  33.836  1.00  0.00     0.167 HD
ATOM     60  C   UNL A   1      42.325  28.866  33.004  1.00  0.00     0.074 A 
ATOM     61  C   UNL A   1      42.906  27.829  32.176  1.00  0.00     0.031 C 
ATOM     62  C   UNL A   1      42.768  29.192  34.242  1.00  0.00     0.037 A 
BRANCH  49  63
ATOM     63  C   UNL A   1      39.699  33.866  36.853  1.00  0.00     0.064 A 
ATOM     64  C   UNL A   1      38.898  33.537  37.956  1.00  0.00     0.173 A 
ATOM     65  C   UNL A   1      40.412  35.073  36.894  1.00  0.00     0.173 A 
ATOM     66  F   UNL A   1      38.188  32.400  37.960  1.00  0.00    -0.203 F 
ATOM     67  C   UNL A   1      38.795  34.397  39.047  1.00  0.00     0.198 A 
ATOM     68  C   UNL A   1      40.327  35.918  37.997  1.00  0.00     0.198 A 
ATOM     69  F   UNL A   1      41.195  35.431  35.865  1.00  0.00    -0.203 F 
ATOM     70  F   UNL A   1      37.991  34.083  40.073  1.00  0.00    -0.200 F 
ATOM     71  C   UNL A   1      39.515  35.582  39.069  1.00  0.00     0.200 A 
ATOM     72  F   UNL A   1      41.031  37.058  38.022  1.00  0.00    -0.200 F 
ATOM     73  F   UNL A   1      39.420  36.406  40.123  1.00  0.00    -0.200 F 
ENDBRANCH  49  63
BRANCH  50  74
ATOM     74  C   UNL A   1      40.456  28.110  28.759  1.00  0.00     0.064 A 
ATOM     75  C   UNL A   1      39.808  26.871  28.660  1.00  0.00     0.173 A 
ATOM     76  C   UNL A   1      41.246  28.524  27.677  1.00  0.00     0.173 A 
ATOM     77  F   UNL A   1      39.063  26.424  29.681  1.00  0.00    -0.203 F 
ATOM     78  C   UNL A   1      39.957  26.071  27.531  1.00  0.00     0.198 A 
ATOM     79  C   UNL A   1      41.374  27.733  26.537  1.00  0.00     0.198 A 
ATOM     80  F   UNL A   1      41.885  29.702  27.723  1.00  0.00    -0.203 F 
ATOM     81  F   UNL A   1      39.359  24.872  27.478  1.00  0.00    -0.200 F 
ATOM     82  C   UNL A   1      40.735  26.504  26.467  1.00  0.00     0.200 A 
ATOM     83  F   UNL A   1      42.117  28.161  25.508  1.00  0.00    -0.200 F 
ATOM     84  F   UNL A   1      40.875  25.735  25.379  1.00  0.00    -0.200 F 
ENDBRANCH  50  74
BRANCH  62  85
ATOM     85  C   UNL A   1      43.927  28.409  34.784  1.00  0.00     0.064 A 
ATOM     86  C   UNL A   1      45.248  28.853  34.628  1.00  0.00     0.173 A 
ATOM     87  C   UNL A   1      43.711  27.221  35.498  1.00  0.00     0.173 A 
ATOM     88  F   UNL A   1      45.505  29.975  33.938  1.00  0.00    -0.203 F 
ATOM     89  C   UNL A   1      46.313  28.125  35.151  1.00  0.00     0.198 A 
ATOM     90  C   UNL A   1      44.778  26.509  36.041  1.00  0.00     0.198 A 
ATOM     91  F   UNL A   1      42.466  26.757  35.678  1.00  0.00    -0.203 F 
ATOM     92  F   UNL A   1      47.570  28.547  34.955  1.00  0.00    -0.200 F 
ATOM     93  C   UNL A   1      46.077  26.958  35.862  1.00  0.00     0.200 A 
ATOM     94  F   UNL A   1      44.547  25.387  36.736  1.00  0.00    -0.200 F 
ATOM     95  F   UNL A   1      47.104  26.262  36.368  1.00  0.00    -0.200 F 
ENDBRANCH  62  85
ENDBRANCH  36  37
ENDBRANCH  28  31
ENDBRANCH  26  27
ENDBRANCH  25  26
ENDBRANCH   1  25
TORSDOF 13
ENDMDL
MODEL 3
REMARK VINA RESULT:     -12.4      5.893     10.986
REMARK SMILES O=C(C[C@H]1C(=O)NCC[N@@H+]1Cc1ccc(Cl)c(F)c1)NCCCNC(=O)c1ccc(-c2c3nc(c(-c4c(F)c(F)c(F)c(F)c4F)c4ccc([nH]4)c(-c4c(F)c(F)c(F)c(F)c4F)c4nc(c(-c5c(F)c(F)c(F)c(F)c5F)c5ccc2[nH]5)C=C4)C=C3)cc1
REMARK SMILES IDX 21 1 20 2 1 3 2 4 3 6 4 7 5 8 10 9 6 10 7 11 9 12 8 14 11 16
REMARK SMILES IDX 12 17 13 18 19 19 14 20 17 21 15 22 18 23 16 24 22 25 23 26
REMARK SMILES IDX 24 27 25 28 26 30 27 31 28 32 89 33 29 34 88 35 30 36 31 37
REMARK SMILES IDX 32 38 82 39 33 40 87 41 81 42 83 43 34 44 86 45 80 46 79 47
REMARK SMILES IDX 35 49 67 50 47 51 66 52 48 53 51 54 65 55 84 56 49 57 50 58
REMARK SMILES IDX 64 60 85 61 52 62 36 63 37 64 45 65 38 66 39 67 43 68 46 69
REMARK SMILES IDX 40 70 41 71 44 72 42 73 68 74 69 75 77 76 70 77 71 78 75 79
REMARK SMILES IDX 78 80 72 81 73 82 76 83 74 84 53 85 54 86 62 87 55 88 56 89
REMARK SMILES IDX 60 90 63 91 57 92 58 93 61 94 59 95
REMARK H PARENT 20 5 10 13 7 15 24 29 83 48 51 59
REMARK Flexibility Score: inf
ROOT
ATOM      1  C   UNL A   1      37.299  21.455  24.553  1.00  0.00     0.117 C 
ENDROOT
BRANCH   1   2
ATOM      2  N   UNL A   1      36.415  22.320  25.307  1.00  0.00    -0.356 N 
ATOM      3  O   UNL A   1      35.289  23.053  23.461  1.00  0.00    -0.275 OA
ATOM      4  C   UNL A   1      35.378  22.975  24.680  1.00  0.00     0.226 C 
ATOM      5  H   UNL A   1      36.556  22.438  26.274  1.00  0.00     0.163 HD
BRANCH   4   6
ATOM      6  C   UNL A   1      34.334  23.539  25.624  1.00  0.00     0.175 C 
BRANCH   6   7
ATOM      7  C   UNL A   1      33.093  22.640  25.812  1.00  0.00     0.283 C 
ATOM      8  C   UNL A   1      31.888  23.454  26.305  1.00  0.00     0.279 C 
ATOM      9  N   UNL A   1      32.776  21.800  24.618  1.00  0.00    -0.319 N 
ATOM     10  O   UNL A   1      31.717  23.706  27.495  1.00  0.00    -0.268 OA
ATOM     11  N   UNL A   1      31.023  23.934  25.361  1.00  0.00    -0.345 N 
ATOM     12  C   UNL A   1      32.125  22.561  23.546  1.00  0.00     0.284 C 
ATOM     13  H   UNL A   1      33.681  21.514  24.243  1.00  0.00     0.349 HD
ATOM     14  C   UNL A   1      31.039  23.574  23.962  1.00  0.00     0.177 C 
ATOM     15  H   UNL A   1      30.337  24.574  25.659  1.00  0.00     0.163 HD
BRANCH   9  16
ATOM     16  C   UNL A   1      32.103  20.524  24.938  1.00  0.00     0.299 C 
BRANCH  16  17
ATOM     17  C   UNL A   1      32.941  19.266  24.875  1.00  0.00     0.009 A 
ATOM     18  C   UNL A   1      34.299  19.323  24.520  1.00  0.00     0.011 A 
ATOM     19  C   UNL A   1      32.395  18.025  25.235  1.00  0.00     0.050 A 
ATOM     20  C   UNL A   1      35.110  18.187  24.607  1.00  0.00     0.024 A 
ATOM     21  C   UNL A   1      33.211  16.899  25.337  1.00  0.00     0.142 A 
ATOM     22  C   UNL A   1      34.567  16.977  25.038  1.00  0.00     0.076 A 
ATOM     23  F   UNL A   1      32.666  15.753  25.769  1.00  0.00    -0.205 F 
ATOM     24  Cl  UNL A   1      35.586  15.603  25.216  1.00  0.00    -0.081 Cl
ENDBRANCH  16  17
ENDBRANCH   9  16
ENDBRANCH   6   7
ENDBRANCH   4   6
ENDBRANCH   1   2
BRANCH   1  25
ATOM     25  C   UNL A   1      37.882  20.305  25.360  1.00  0.00     0.042 C 
BRANCH  25  26
ATOM     26  C   UNL A   1      39.289  20.519  25.910  1.00  0.00     0.118 C 
BRANCH  26  27
ATOM     27  N   UNL A   1      40.160  19.355  25.839  1.00  0.00    -0.352 N 
ATOM     28  C   UNL A   1      41.508  19.260  26.107  1.00  0.00     0.251 C 
ATOM     29  H   UNL A   1      39.724  18.518  25.559  1.00  0.00     0.163 HD
ATOM     30  O   UNL A   1      42.086  18.185  25.977  1.00  0.00    -0.269 OA
BRANCH  28  31
ATOM     31  C   UNL A   1      42.275  20.469  26.488  1.00  0.00     0.039 A 
ATOM     32  C   UNL A   1      42.912  21.199  25.480  1.00  0.00     0.014 A 
ATOM     33  C   UNL A   1      42.312  20.921  27.809  1.00  0.00     0.014 A 
ATOM     34  C   UNL A   1      43.481  22.441  25.776  1.00  0.00     0.010 A 
ATOM     35  C   UNL A   1      42.817  22.190  28.090  1.00  0.00     0.010 A 
ATOM     36  C   UNL A   1      43.381  22.975  27.071  1.00  0.00    -0.014 A 
BRANCH  36  37
ATOM     37  C   UNL A   1      43.793  24.373  27.366  1.00  0.00     0.031 A 
ATOM     38  C   UNL A   1      42.784  25.388  27.824  1.00  0.00     0.074 A 
ATOM     39  C   UNL A   1      45.065  24.754  27.130  1.00  0.00     0.049 A 
ATOM     40  N   UNL A   1      42.934  26.674  28.017  1.00  0.00    -0.248 NA
ATOM     41  C   UNL A   1      41.422  24.896  28.072  1.00  0.00     0.031 C 
ATOM     42  C   UNL A   1      46.133  23.881  26.641  1.00  0.00     0.029 A 
ATOM     43  N   UNL A   1      45.671  25.981  27.252  1.00  0.00    -0.354 N 
ATOM     44  C   UNL A   1      41.685  27.148  28.395  1.00  0.00     0.074 A 
ATOM     45  C   UNL A   1      40.779  26.018  28.364  1.00  0.00     0.031 C 
ATOM     46  C   UNL A   1      47.263  24.595  26.517  1.00  0.00     0.029 A 
ATOM     47  C   UNL A   1      46.993  25.982  26.877  1.00  0.00     0.049 A 
ATOM     48  H   UNL A   1      45.202  26.784  27.576  1.00  0.00     0.167 HD
ATOM     49  C   UNL A   1      41.331  28.406  28.751  1.00  0.00     0.037 A 
ATOM     50  C   UNL A   1      47.884  26.990  26.816  1.00  0.00     0.037 A 
ATOM     51  C   UNL A   1      42.235  29.524  28.810  1.00  0.00     0.049 A 
ATOM     52  C   UNL A   1      47.461  28.379  27.207  1.00  0.00     0.074 A 
ATOM     53  C   UNL A   1      41.980  30.819  29.230  1.00  0.00     0.029 A 
ATOM     54  N   UNL A   1      43.570  29.483  28.435  1.00  0.00    -0.354 N 
ATOM     55  N   UNL A   1      46.291  28.800  27.619  1.00  0.00    -0.248 NA
ATOM     56  C   UNL A   1      48.482  29.432  27.120  1.00  0.00     0.031 C 
ATOM     57  C   UNL A   1      43.149  31.571  29.071  1.00  0.00     0.029 A 
ATOM     58  C   UNL A   1      44.144  30.735  28.590  1.00  0.00     0.049 A 
ATOM     59  H   UNL A   1      44.039  28.682  28.107  1.00  0.00     0.167 HD
ATOM     60  C   UNL A   1      46.440  30.159  27.860  1.00  0.00     0.074 A 
ATOM     61  C   UNL A   1      47.817  30.491  27.561  1.00  0.00     0.031 C 
ATOM     62  C   UNL A   1      45.515  31.052  28.288  1.00  0.00     0.037 A 
BRANCH  49  63
ATOM     63  C   UNL A   1      39.894  28.642  29.113  1.00  0.00     0.064 A 
ATOM     64  C   UNL A   1      39.420  28.420  30.414  1.00  0.00     0.173 A 
ATOM     65  C   UNL A   1      38.992  29.138  28.159  1.00  0.00     0.173 A 
ATOM     66  F   UNL A   1      40.240  27.936  31.358  1.00  0.00    -0.203 F 
ATOM     67  C   UNL A   1      38.088  28.661  30.741  1.00  0.00     0.198 A 
ATOM     68  C   UNL A   1      37.668  29.402  28.496  1.00  0.00     0.198 A 
ATOM     69  F   UNL A   1      39.398  29.371  26.902  1.00  0.00    -0.203 F 
ATOM     70  F   UNL A   1      37.646  28.401  31.979  1.00  0.00    -0.200 F 
ATOM     71  C   UNL A   1      37.216  29.158  29.784  1.00  0.00     0.200 A 
ATOM     72  F   UNL A   1      36.828  29.892  27.574  1.00  0.00    -0.200 F 
ATOM     73  F   UNL A   1      35.935  29.395  30.102  1.00  0.00    -0.200 F 
ENDBRANCH  49  63
BRANCH  50  74
ATOM     74  C   UNL A   1      49.277  26.720  26.373  1.00  0.00     0.064 A 
ATOM     75  C   UNL A   1      49.646  26.886  25.031  1.00  0.00     0.173 A 
ATOM     76  C   UNL A   1      50.259  26.287  27.275  1.00  0.00     0.173 A 
ATOM     77  F   UNL A   1      48.733  27.275  24.130  1.00  0.00    -0.203 F 
ATOM     78  C   UNL A   1      50.943  26.614  24.605  1.00  0.00     0.198 A 
ATOM     79  C   UNL A   1      51.563  26.039  26.851  1.00  0.00     0.198 A 
ATOM     80  F   UNL A   1      49.955  26.116  28.569  1.00  0.00    -0.203 F 
ATOM     81  F   UNL A   1      51.261  26.742  23.309  1.00  0.00    -0.200 F 
ATOM     82  C   UNL A   1      51.903  26.196  25.515  1.00  0.00     0.200 A 
ATOM     83  F   UNL A   1      52.489  25.647  27.736  1.00  0.00    -0.200 F 
ATOM     84  F   UNL A   1      53.152  25.938  25.106  1.00  0.00    -0.200 F 
ENDBRANCH  50  74
BRANCH  62  85
ATOM     85  C   UNL A   1      45.966  32.470  28.477  1.00  0.00     0.064 A 
ATOM     86  C   UNL A   1      46.521  32.906  29.690  1.00  0.00     0.173 A 
ATOM     87  C   UNL A   1      45.876  33.393  27.425  1.00  0.00     0.173 A 
ATOM     88  F   UNL A   1      46.612  32.064  30.730  1.00  0.00    -0.203 F 
ATOM     89  C   UNL A   1      46.951  34.220  29.847  1.00  0.00     0.198 A 
ATOM     90  C   UNL A   1      46.330  34.701  27.578  1.00  0.00     0.198 A 
ATOM     91  F   UNL A   1      45.356  33.024  26.244  1.00  0.00    -0.203 F 
ATOM     92  F   UNL A   1      47.441  34.626  31.027  1.00  0.00    -0.200 F 
ATOM     93  C   UNL A   1      46.862  35.114  28.790  1.00  0.00     0.200 A 
ATOM     94  F   UNL A   1      46.251  35.560  26.554  1.00  0.00    -0.200 F 
ATOM     95  F   UNL A   1      47.281  36.378  28.944  1.00  0.00    -0.200 F 
ENDBRANCH  62  85
ENDBRANCH  36  37
ENDBRANCH  28  31
ENDBRANCH  26  27
ENDBRANCH  25  26
ENDBRANCH   1  25
TORSDOF 13
ENDMDL
