MODEL 1
REMARK VINA RESULT:     -14.1      0.000      0.000
REMARK SMILES Cc1ccc(NC(=O)C[C@H]2SC[C@H](C(=O)NCCCNC(=O)c3ccc(-c4c5nc(c(-c6c(F)c(F)c(F)c(F)c6F)c6ccc([nH]6)c(-c6c(F)c(F)c(F)c(F)c6F)c6nc(c(-c7c(F)c(F)c(F)c(F)c7F)c7ccc4[nH]7)C=C6)C=C5)cc3)NC2=O)cc1
REMARK SMILES IDX 17 1 16 2 14 3 15 4 13 6 10 7 11 8 87 9 12 10 86 11 88 12
REMARK SMILES IDX 9 14 7 15 6 16 8 18 5 19 1 20 2 21 3 22 90 23 4 24 89 25
REMARK SMILES IDX 18 26 19 27 20 28 21 29 22 31 23 32 24 33 85 34 25 35 84 36
REMARK SMILES IDX 26 37 27 38 28 39 78 40 29 41 83 42 77 43 79 44 30 45 82 46
REMARK SMILES IDX 76 47 75 48 31 50 63 51 43 52 62 53 44 54 47 55 61 56 80 57
REMARK SMILES IDX 45 58 46 59 60 61 81 62 48 63 32 64 33 65 41 66 34 67 35 68
REMARK SMILES IDX 39 69 42 70 36 71 37 72 40 73 38 74 64 75 65 76 73 77 66 78
REMARK SMILES IDX 67 79 71 80 74 81 68 82 69 83 72 84 70 85 49 86 50 87 58 88
REMARK SMILES IDX 51 89 52 90 56 91 59 92 53 93 54 94 57 95 55 96
REMARK H PARENT 16 5 86 13 6 17 20 30 79 49 47 60
REMARK Flexibility Score: inf
ROOT
ATOM      1  C   UNL A   1      32.135  30.226  25.756  1.00  0.00     0.117 C 
ENDROOT
BRANCH   1   2
ATOM      2  N   UNL A   1      33.114  29.741  24.790  1.00  0.00    -0.354 N 
ATOM      3  C   UNL A   1      33.151  28.608  24.030  1.00  0.00     0.243 C 
ATOM      4  O   UNL A   1      34.182  28.406  23.381  1.00  0.00    -0.273 OA
ATOM      5  H   UNL A   1      33.887  30.338  24.665  1.00  0.00     0.163 HD
BRANCH   3   6
ATOM      6  C   UNL A   1      32.020  27.561  24.039  1.00  0.00     0.181 C 
ATOM      7  C   UNL A   1      31.322  24.774  25.008  1.00  0.00     0.145 C 
ATOM      8  S   UNL A   1      31.156  25.048  23.193  1.00  0.00    -0.145 SA
ATOM      9  C   UNL A   1      30.935  26.065  25.740  1.00  0.00     0.234 C 
ATOM     10  C   UNL A   1      32.340  26.418  23.078  1.00  0.00     0.105 C 
ATOM     11  N   UNL A   1      31.645  27.195  25.405  1.00  0.00    -0.343 N 
ATOM     12  O   UNL A   1      30.128  26.146  26.661  1.00  0.00    -0.274 OA
ATOM     13  H   UNL A   1      31.920  27.797  26.135  1.00  0.00     0.164 HD
BRANCH   7  14
ATOM     14  C   UNL A   1      30.653  23.455  25.400  1.00  0.00     0.124 C 
BRANCH  14  15
ATOM     15  C   UNL A   1      30.858  22.928  26.802  1.00  0.00     0.226 C 
ATOM     16  N   UNL A   1      32.041  22.434  27.254  1.00  0.00    -0.326 N 
ATOM     17  H   UNL A   1      32.034  22.236  28.218  1.00  0.00     0.169 HD
ATOM     18  O   UNL A   1      29.909  22.940  27.595  1.00  0.00    -0.275 OA
BRANCH  16  19
ATOM     19  C   UNL A   1      33.266  22.148  26.642  1.00  0.00     0.041 A 
ATOM     20  C   UNL A   1      36.912  20.971  24.657  1.00  0.00     0.044 C 
ATOM     21  C   UNL A   1      35.639  21.385  25.332  1.00  0.00    -0.051 A 
ATOM     22  C   UNL A   1      35.597  22.540  26.124  1.00  0.00     0.005 A 
ATOM     23  C   UNL A   1      34.478  20.624  25.186  1.00  0.00     0.005 A 
ATOM     24  C   UNL A   1      34.415  22.922  26.773  1.00  0.00     0.026 A 
ATOM     25  C   UNL A   1      33.298  21.015  25.822  1.00  0.00     0.026 A 
ENDBRANCH  16  19
ENDBRANCH  14  15
ENDBRANCH   7  14
ENDBRANCH   3   6
ENDBRANCH   1   2
BRANCH   1  26
ATOM     26  C   UNL A   1      32.661  30.182  27.191  1.00  0.00     0.042 C 
BRANCH  26  27
ATOM     27  C   UNL A   1      34.179  30.234  27.306  1.00  0.00     0.118 C 
BRANCH  27  28
ATOM     28  N   UNL A   1      34.667  31.120  28.359  1.00  0.00    -0.352 N 
ATOM     29  C   UNL A   1      35.820  31.000  29.121  1.00  0.00     0.251 C 
ATOM     30  H   UNL A   1      34.104  31.904  28.553  1.00  0.00     0.163 HD
ATOM     31  O   UNL A   1      36.123  31.854  29.934  1.00  0.00    -0.269 OA
BRANCH  29  32
ATOM     32  C   UNL A   1      36.736  29.873  28.833  1.00  0.00     0.039 A 
ATOM     33  C   UNL A   1      37.007  28.963  29.859  1.00  0.00     0.014 A 
ATOM     34  C   UNL A   1      37.484  29.863  27.658  1.00  0.00     0.014 A 
ATOM     35  C   UNL A   1      38.181  28.218  29.808  1.00  0.00     0.010 A 
ATOM     36  C   UNL A   1      38.698  29.202  27.652  1.00  0.00     0.010 A 
ATOM     37  C   UNL A   1      39.077  28.435  28.758  1.00  0.00    -0.014 A 
BRANCH  37  38
ATOM     38  C   UNL A   1      40.478  28.028  28.823  1.00  0.00     0.031 A 
ATOM     39  C   UNL A   1      40.923  26.725  28.287  1.00  0.00     0.074 A 
ATOM     40  C   UNL A   1      41.393  28.886  29.329  1.00  0.00     0.049 A 
ATOM     41  N   UNL A   1      41.957  26.085  28.723  1.00  0.00    -0.248 NA
ATOM     42  C   UNL A   1      40.215  26.021  27.224  1.00  0.00     0.031 C 
ATOM     43  C   UNL A   1      42.849  28.771  29.256  1.00  0.00     0.029 A 
ATOM     44  N   UNL A   1      41.174  29.971  30.198  1.00  0.00    -0.354 N 
ATOM     45  C   UNL A   1      42.200  25.047  27.857  1.00  0.00     0.074 A 
ATOM     46  C   UNL A   1      41.058  25.014  26.970  1.00  0.00     0.031 C 
ATOM     47  C   UNL A   1      43.390  29.503  30.241  1.00  0.00     0.029 A 
ATOM     48  C   UNL A   1      42.298  30.001  31.056  1.00  0.00     0.049 A 
ATOM     49  H   UNL A   1      40.402  30.581  30.207  1.00  0.00     0.167 HD
ATOM     50  C   UNL A   1      43.399  24.398  27.888  1.00  0.00     0.037 A 
ATOM     51  C   UNL A   1      42.183  29.826  32.404  1.00  0.00     0.037 A 
ATOM     52  C   UNL A   1      44.280  24.933  28.918  1.00  0.00     0.049 A 
ATOM     53  C   UNL A   1      42.987  28.671  32.944  1.00  0.00     0.074 A 
ATOM     54  C   UNL A   1      45.293  25.876  28.875  1.00  0.00     0.029 A 
ATOM     55  N   UNL A   1      43.966  24.750  30.259  1.00  0.00    -0.354 N 
ATOM     56  N   UNL A   1      43.430  27.691  32.206  1.00  0.00    -0.248 NA
ATOM     57  C   UNL A   1      43.314  28.499  34.357  1.00  0.00     0.031 C 
ATOM     58  C   UNL A   1      45.561  26.296  30.198  1.00  0.00     0.029 A 
ATOM     59  C   UNL A   1      44.722  25.597  31.047  1.00  0.00     0.049 A 
ATOM     60  H   UNL A   1      43.301  24.110  30.600  1.00  0.00     0.167 HD
ATOM     61  C   UNL A   1      44.055  26.769  33.003  1.00  0.00     0.074 A 
ATOM     62  C   UNL A   1      43.973  27.328  34.339  1.00  0.00     0.031 C 
ATOM     63  C   UNL A   1      44.576  25.616  32.493  1.00  0.00     0.037 A 
BRANCH  50  64
ATOM     64  C   UNL A   1      43.852  23.490  26.774  1.00  0.00     0.064 A 
ATOM     65  C   UNL A   1      43.392  22.160  26.676  1.00  0.00     0.173 A 
ATOM     66  C   UNL A   1      44.790  23.873  25.799  1.00  0.00     0.173 A 
ATOM     67  F   UNL A   1      42.436  21.686  27.483  1.00  0.00    -0.203 F 
ATOM     68  C   UNL A   1      43.918  21.255  25.750  1.00  0.00     0.198 A 
ATOM     69  C   UNL A   1      45.355  22.955  24.909  1.00  0.00     0.198 A 
ATOM     70  F   UNL A   1      45.171  25.154  25.681  1.00  0.00    -0.203 F 
ATOM     71  F   UNL A   1      43.454  19.997  25.713  1.00  0.00    -0.200 F 
ATOM     72  C   UNL A   1      44.927  21.642  24.894  1.00  0.00     0.200 A 
ATOM     73  F   UNL A   1      46.328  23.348  24.074  1.00  0.00    -0.200 F 
ATOM     74  F   UNL A   1      45.475  20.758  24.049  1.00  0.00    -0.200 F 
ENDBRANCH  50  64
BRANCH  51  75
ATOM     75  C   UNL A   1      40.883  30.287  32.954  1.00  0.00     0.064 A 
ATOM     76  C   UNL A   1      40.640  31.672  33.028  1.00  0.00     0.173 A 
ATOM     77  C   UNL A   1      39.781  29.429  33.048  1.00  0.00     0.173 A 
ATOM     78  F   UNL A   1      41.663  32.536  32.937  1.00  0.00    -0.203 F 
ATOM     79  C   UNL A   1      39.345  32.178  33.073  1.00  0.00     0.198 A 
ATOM     80  C   UNL A   1      38.483  29.941  33.109  1.00  0.00     0.198 A 
ATOM     81  F   UNL A   1      39.945  28.102  32.962  1.00  0.00    -0.203 F 
ATOM     82  F   UNL A   1      39.142  33.503  33.023  1.00  0.00    -0.200 F 
ATOM     83  C   UNL A   1      38.266  31.312  33.087  1.00  0.00     0.200 A 
ATOM     84  F   UNL A   1      37.435  29.105  33.088  1.00  0.00    -0.200 F 
ATOM     85  F   UNL A   1      37.017  31.796  33.031  1.00  0.00    -0.200 F 
ENDBRANCH  51  75
BRANCH  63  86
ATOM     86  C   UNL A   1      45.091  24.449  33.294  1.00  0.00     0.064 A 
ATOM     87  C   UNL A   1      44.360  23.270  33.509  1.00  0.00     0.173 A 
ATOM     88  C   UNL A   1      46.429  24.435  33.757  1.00  0.00     0.173 A 
ATOM     89  F   UNL A   1      43.123  23.119  33.017  1.00  0.00    -0.203 F 
ATOM     90  C   UNL A   1      44.906  22.179  34.191  1.00  0.00     0.198 A 
ATOM     91  C   UNL A   1      46.986  23.325  34.389  1.00  0.00     0.198 A 
ATOM     92  F   UNL A   1      47.239  25.489  33.586  1.00  0.00    -0.203 F 
ATOM     93  F   UNL A   1      44.156  21.089  34.406  1.00  0.00    -0.200 F 
ATOM     94  C   UNL A   1      46.220  22.202  34.622  1.00  0.00     0.200 A 
ATOM     95  F   UNL A   1      48.277  23.345  34.754  1.00  0.00    -0.200 F 
ATOM     96  F   UNL A   1      46.751  21.138  35.236  1.00  0.00    -0.200 F 
ENDBRANCH  63  86
ENDBRANCH  37  38
ENDBRANCH  29  32
ENDBRANCH  27  28
ENDBRANCH  26  27
ENDBRANCH   1  26
TORSDOF 13
ENDMDL
MODEL 2
REMARK VINA RESULT:     -13.8      3.828     10.211
REMARK SMILES Cc1ccc(NC(=O)C[C@H]2SC[C@H](C(=O)NCCCNC(=O)c3ccc(-c4c5nc(c(-c6c(F)c(F)c(F)c(F)c6F)c6ccc([nH]6)c(-c6c(F)c(F)c(F)c(F)c6F)c6nc(c(-c7c(F)c(F)c(F)c(F)c7F)c7ccc4[nH]7)C=C6)C=C5)cc3)NC2=O)cc1
REMARK SMILES IDX 17 1 16 2 14 3 15 4 13 6 10 7 11 8 87 9 12 10 86 11 88 12
REMARK SMILES IDX 9 14 7 15 6 16 8 18 5 19 1 20 2 21 3 22 90 23 4 24 89 25
REMARK SMILES IDX 18 26 19 27 20 28 21 29 22 31 23 32 24 33 85 34 25 35 84 36
REMARK SMILES IDX 26 37 27 38 28 39 78 40 29 41 83 42 77 43 79 44 30 45 82 46
REMARK SMILES IDX 76 47 75 48 31 50 63 51 43 52 62 53 44 54 47 55 61 56 80 57
REMARK SMILES IDX 45 58 46 59 60 61 81 62 48 63 32 64 33 65 41 66 34 67 35 68
REMARK SMILES IDX 39 69 42 70 36 71 37 72 40 73 38 74 64 75 65 76 73 77 66 78
REMARK SMILES IDX 67 79 71 80 74 81 68 82 69 83 72 84 70 85 49 86 50 87 58 88
REMARK SMILES IDX 51 89 52 90 56 91 59 92 53 93 54 94 57 95 55 96
REMARK H PARENT 16 5 86 13 6 17 20 30 79 49 47 60
REMARK Flexibility Score: inf
ROOT
ATOM      1  C   UNL A   1      37.011  21.344  25.010  1.00  0.00     0.117 C 
ENDROOT
BRANCH   1   2
ATOM      2  N   UNL A   1      35.862  21.054  25.859  1.00  0.00    -0.354 N 
ATOM      3  C   UNL A   1      34.680  21.715  26.040  1.00  0.00     0.243 C 
ATOM      4  O   UNL A   1      33.935  21.289  26.928  1.00  0.00    -0.273 OA
ATOM      5  H   UNL A   1      35.955  20.237  26.400  1.00  0.00     0.163 HD
BRANCH   3   6
ATOM      6  C   UNL A   1      34.312  22.992  25.260  1.00  0.00     0.181 C 
ATOM      7  C   UNL A   1      32.012  24.379  23.854  1.00  0.00     0.145 C 
ATOM      8  S   UNL A   1      33.513  24.093  22.825  1.00  0.00    -0.145 SA
ATOM      9  C   UNL A   1      32.449  24.675  25.295  1.00  0.00     0.234 C 
ATOM     10  C   UNL A   1      34.152  22.683  23.772  1.00  0.00     0.105 C 
ATOM     11  N   UNL A   1      33.219  23.715  25.910  1.00  0.00    -0.343 N 
ATOM     12  O   UNL A   1      32.083  25.635  25.966  1.00  0.00    -0.274 OA
ATOM     13  H   UNL A   1      33.021  23.501  26.850  1.00  0.00     0.164 HD
BRANCH   7  14
ATOM     14  C   UNL A   1      31.066  25.346  23.140  1.00  0.00     0.124 C 
BRANCH  14  15
ATOM     15  C   UNL A   1      31.636  26.281  22.097  1.00  0.00     0.226 C 
ATOM     16  N   UNL A   1      32.254  27.454  22.396  1.00  0.00    -0.326 N 
ATOM     17  H   UNL A   1      32.663  27.886  21.612  1.00  0.00     0.169 HD
ATOM     18  O   UNL A   1      31.546  25.976  20.901  1.00  0.00    -0.275 OA
BRANCH  16  19
ATOM     19  C   UNL A   1      32.432  28.178  23.579  1.00  0.00     0.041 A 
ATOM     20  C   UNL A   1      33.277  30.260  27.264  1.00  0.00     0.044 C 
ATOM     21  C   UNL A   1      32.993  29.547  25.975  1.00  0.00    -0.051 A 
ATOM     22  C   UNL A   1      31.734  29.650  25.369  1.00  0.00     0.005 A 
ATOM     23  C   UNL A   1      33.975  28.768  25.362  1.00  0.00     0.005 A 
ATOM     24  C   UNL A   1      31.456  28.971  24.175  1.00  0.00     0.026 A 
ATOM     25  C   UNL A   1      33.700  28.105  24.165  1.00  0.00     0.026 A 
ENDBRANCH  16  19
ENDBRANCH  14  15
ENDBRANCH   7  14
ENDBRANCH   3   6
ENDBRANCH   1   2
BRANCH   1  26
ATOM     26  C   UNL A   1      38.313  21.443  25.805  1.00  0.00     0.042 C 
BRANCH  26  27
ATOM     27  C   UNL A   1      38.841  22.863  25.973  1.00  0.00     0.118 C 
BRANCH  27  28
ATOM     28  N   UNL A   1      40.265  22.936  26.286  1.00  0.00    -0.352 N 
ATOM     29  C   UNL A   1      40.991  24.022  26.753  1.00  0.00     0.251 C 
ATOM     30  H   UNL A   1      40.777  22.106  26.147  1.00  0.00     0.163 HD
ATOM     31  O   UNL A   1      42.174  23.915  27.020  1.00  0.00    -0.269 OA
BRANCH  29  32
ATOM     32  C   UNL A   1      40.263  25.280  27.037  1.00  0.00     0.039 A 
ATOM     33  C   UNL A   1      40.664  26.439  26.367  1.00  0.00     0.014 A 
ATOM     34  C   UNL A   1      39.377  25.348  28.109  1.00  0.00     0.014 A 
ATOM     35  C   UNL A   1      40.373  27.679  26.931  1.00  0.00     0.010 A 
ATOM     36  C   UNL A   1      39.175  26.569  28.724  1.00  0.00     0.010 A 
ATOM     37  C   UNL A   1      39.733  27.727  28.171  1.00  0.00    -0.014 A 
BRANCH  37  38
ATOM     38  C   UNL A   1      39.750  28.915  29.021  1.00  0.00     0.031 A 
ATOM     39  C   UNL A   1      38.706  29.954  28.906  1.00  0.00     0.074 A 
ATOM     40  C   UNL A   1      40.706  29.035  29.969  1.00  0.00     0.049 A 
ATOM     41  N   UNL A   1      38.893  31.195  29.212  1.00  0.00    -0.248 NA
ATOM     42  C   UNL A   1      37.364  29.678  28.408  1.00  0.00     0.031 C 
ATOM     43  C   UNL A   1      40.751  30.006  31.062  1.00  0.00     0.029 A 
ATOM     44  N   UNL A   1      41.960  28.397  30.021  1.00  0.00    -0.354 N 
ATOM     45  C   UNL A   1      37.667  31.816  29.202  1.00  0.00     0.074 A 
ATOM     46  C   UNL A   1      36.753  30.845  28.642  1.00  0.00     0.031 C 
ATOM     47  C   UNL A   1      42.021  30.132  31.476  1.00  0.00     0.029 A 
ATOM     48  C   UNL A   1      42.846  29.350  30.575  1.00  0.00     0.049 A 
ATOM     49  H   UNL A   1      42.175  27.481  29.732  1.00  0.00     0.167 HD
ATOM     50  C   UNL A   1      37.516  33.039  29.784  1.00  0.00     0.037 A 
ATOM     51  C   UNL A   1      43.920  29.827  29.882  1.00  0.00     0.037 A 
ATOM     52  C   UNL A   1      38.767  33.532  30.343  1.00  0.00     0.049 A 
ATOM     53  C   UNL A   1      43.923  31.325  29.709  1.00  0.00     0.074 A 
ATOM     54  C   UNL A   1      39.298  33.481  31.621  1.00  0.00     0.029 A 
ATOM     55  N   UNL A   1      39.810  33.889  29.496  1.00  0.00    -0.354 N 
ATOM     56  N   UNL A   1      42.859  32.068  29.834  1.00  0.00    -0.248 NA
ATOM     57  C   UNL A   1      45.105  32.096  29.334  1.00  0.00     0.031 C 
ATOM     58  C   UNL A   1      40.681  33.766  31.535  1.00  0.00     0.029 A 
ATOM     59  C   UNL A   1      40.988  34.007  30.208  1.00  0.00     0.049 A 
ATOM     60  H   UNL A   1      39.722  34.036  28.526  1.00  0.00     0.167 HD
ATOM     61  C   UNL A   1      43.177  33.368  29.543  1.00  0.00     0.074 A 
ATOM     62  C   UNL A   1      44.598  33.339  29.253  1.00  0.00     0.031 C 
ATOM     63  C   UNL A   1      42.236  34.357  29.554  1.00  0.00     0.037 A 
BRANCH  50  64
ATOM     64  C   UNL A   1      36.161  33.619  30.098  1.00  0.00     0.064 A 
ATOM     65  C   UNL A   1      35.316  34.106  29.079  1.00  0.00     0.173 A 
ATOM     66  C   UNL A   1      35.669  33.767  31.406  1.00  0.00     0.173 A 
ATOM     67  F   UNL A   1      35.618  33.955  27.784  1.00  0.00    -0.203 F 
ATOM     68  C   UNL A   1      34.131  34.791  29.356  1.00  0.00     0.198 A 
ATOM     69  C   UNL A   1      34.511  34.499  31.688  1.00  0.00     0.198 A 
ATOM     70  F   UNL A   1      36.295  33.192  32.444  1.00  0.00    -0.203 F 
ATOM     71  F   UNL A   1      33.374  35.248  28.347  1.00  0.00    -0.200 F 
ATOM     72  C   UNL A   1      33.748  35.022  30.662  1.00  0.00     0.200 A 
ATOM     73  F   UNL A   1      34.146  34.706  32.961  1.00  0.00    -0.200 F 
ATOM     74  F   UNL A   1      32.644  35.733  30.929  1.00  0.00    -0.200 F 
ENDBRANCH  50  64
BRANCH  51  75
ATOM     75  C   UNL A   1      44.474  28.858  28.904  1.00  0.00     0.064 A 
ATOM     76  C   UNL A   1      45.268  27.799  29.386  1.00  0.00     0.173 A 
ATOM     77  C   UNL A   1      43.949  28.738  27.612  1.00  0.00     0.173 A 
ATOM     78  F   UNL A   1      45.790  27.863  30.621  1.00  0.00    -0.203 F 
ATOM     79  C   UNL A   1      45.431  26.625  28.655  1.00  0.00     0.198 A 
ATOM     80  C   UNL A   1      44.127  27.565  26.876  1.00  0.00     0.198 A 
ATOM     81  F   UNL A   1      43.168  29.702  27.105  1.00  0.00    -0.203 F 
ATOM     82  F   UNL A   1      46.094  25.591  29.192  1.00  0.00    -0.200 F 
ATOM     83  C   UNL A   1      44.837  26.499  27.412  1.00  0.00     0.200 A 
ATOM     84  F   UNL A   1      43.525  27.427  25.685  1.00  0.00    -0.200 F 
ATOM     85  F   UNL A   1      44.909  25.336  26.750  1.00  0.00    -0.200 F 
ENDBRANCH  51  75
BRANCH  63  86
ATOM     86  C   UNL A   1      42.428  35.763  29.051  1.00  0.00     0.064 A 
ATOM     87  C   UNL A   1      41.880  36.242  27.850  1.00  0.00     0.173 A 
ATOM     88  C   UNL A   1      43.067  36.731  29.862  1.00  0.00     0.173 A 
ATOM     89  F   UNL A   1      41.153  35.448  27.052  1.00  0.00    -0.203 F 
ATOM     90  C   UNL A   1      42.015  37.578  27.460  1.00  0.00     0.198 A 
ATOM     91  C   UNL A   1      43.153  38.073  29.494  1.00  0.00     0.198 A 
ATOM     92  F   UNL A   1      43.605  36.406  31.047  1.00  0.00    -0.203 F 
ATOM     93  F   UNL A   1      41.508  37.979  26.285  1.00  0.00    -0.200 F 
ATOM     94  C   UNL A   1      42.641  38.494  28.285  1.00  0.00     0.200 A 
ATOM     95  F   UNL A   1      43.717  38.957  30.329  1.00  0.00    -0.200 F 
ATOM     96  F   UNL A   1      42.730  39.780  27.926  1.00  0.00    -0.200 F 
ENDBRANCH  63  86
ENDBRANCH  37  38
ENDBRANCH  29  32
ENDBRANCH  27  28
ENDBRANCH  26  27
ENDBRANCH   1  26
TORSDOF 13
ENDMDL
MODEL 3
REMARK VINA RESULT:     -13.7      4.066     10.256
REMARK SMILES Cc1ccc(NC(=O)C[C@H]2SC[C@H](C(=O)NCCCNC(=O)c3ccc(-c4c5nc(c(-c6c(F)c(F)c(F)c(F)c6F)c6ccc([nH]6)c(-c6c(F)c(F)c(F)c(F)c6F)c6nc(c(-c7c(F)c(F)c(F)c(F)c7F)c7ccc4[nH]7)C=C6)C=C5)cc3)NC2=O)cc1
REMARK SMILES IDX 17 1 16 2 14 3 15 4 13 6 10 7 11 8 87 9 12 10 86 11 88 12
REMARK SMILES IDX 9 14 7 15 6 16 8 18 5 19 1 20 2 21 3 22 90 23 4 24 89 25
REMARK SMILES IDX 18 26 19 27 20 28 21 29 22 31 23 32 24 33 85 34 25 35 84 36
REMARK SMILES IDX 26 37 27 38 28 39 78 40 29 41 83 42 77 43 79 44 30 45 82 46
REMARK SMILES IDX 76 47 75 48 31 50 63 51 43 52 62 53 44 54 47 55 61 56 80 57
REMARK SMILES IDX 45 58 46 59 60 61 81 62 48 63 32 64 33 65 41 66 34 67 35 68
REMARK SMILES IDX 39 69 42 70 36 71 37 72 40 73 38 74 64 75 65 76 73 77 66 78
REMARK SMILES IDX 67 79 71 80 74 81 68 82 69 83 72 84 70 85 49 86 50 87 58 88
REMARK SMILES IDX 51 89 52 90 56 91 59 92 53 93 54 94 57 95 55 96
REMARK H PARENT 16 5 86 13 6 17 20 30 79 49 47 60
REMARK Flexibility Score: inf
ROOT
ATOM      1  C   UNL A   1      37.825  21.168  25.384  1.00  0.00     0.117 C 
ENDROOT
BRANCH   1   2
ATOM      2  N   UNL A   1      37.519  22.157  24.359  1.00  0.00    -0.354 N 
ATOM      3  C   UNL A   1      36.332  22.564  23.821  1.00  0.00     0.243 C 
ATOM      4  O   UNL A   1      36.392  23.347  22.867  1.00  0.00    -0.273 OA
ATOM      5  H   UNL A   1      38.308  22.612  23.986  1.00  0.00     0.163 HD
BRANCH   3   6
ATOM      6  C   UNL A   1      34.971  22.013  24.290  1.00  0.00     0.181 C 
ATOM      7  C   UNL A   1      32.140  22.849  24.982  1.00  0.00     0.145 C 
ATOM      8  S   UNL A   1      33.048  21.948  26.309  1.00  0.00    -0.145 SA
ATOM      9  C   UNL A   1      32.566  22.284  23.621  1.00  0.00     0.234 C 
ATOM     10  C   UNL A   1      34.720  22.381  25.751  1.00  0.00     0.105 C 
ATOM     11  N   UNL A   1      33.911  22.329  23.333  1.00  0.00    -0.343 N 
ATOM     12  O   UNL A   1      31.803  21.899  22.740  1.00  0.00    -0.274 OA
ATOM     13  H   UNL A   1      34.176  22.591  22.422  1.00  0.00     0.164 HD
BRANCH   7  14
ATOM     14  C   UNL A   1      30.653  22.933  25.332  1.00  0.00     0.124 C 
BRANCH  14  15
ATOM     15  C   UNL A   1      30.236  23.748  26.535  1.00  0.00     0.226 C 
ATOM     16  N   UNL A   1      30.041  25.093  26.501  1.00  0.00    -0.326 N 
ATOM     17  H   UNL A   1      29.666  25.450  27.339  1.00  0.00     0.169 HD
ATOM     18  O   UNL A   1      30.057  23.176  27.617  1.00  0.00    -0.275 OA
BRANCH  16  19
ATOM     19  C   UNL A   1      30.258  26.076  25.531  1.00  0.00     0.041 A 
ATOM     20  C   UNL A   1      30.661  28.992  22.375  1.00  0.00     0.044 C 
ATOM     21  C   UNL A   1      30.509  27.989  23.479  1.00  0.00    -0.051 A 
ATOM     22  C   UNL A   1      31.493  27.866  24.469  1.00  0.00     0.005 A 
ATOM     23  C   UNL A   1      29.389  27.158  23.535  1.00  0.00     0.005 A 
ATOM     24  C   UNL A   1      31.366  26.917  25.492  1.00  0.00     0.026 A 
ATOM     25  C   UNL A   1      29.258  26.224  24.564  1.00  0.00     0.026 A 
ENDBRANCH  16  19
ENDBRANCH  14  15
ENDBRANCH   7  14
ENDBRANCH   3   6
ENDBRANCH   1   2
BRANCH   1  26
ATOM     26  C   UNL A   1      39.151  21.453  26.092  1.00  0.00     0.042 C 
BRANCH  26  27
ATOM     27  C   UNL A   1      39.474  22.935  26.248  1.00  0.00     0.118 C 
BRANCH  27  28
ATOM     28  N   UNL A   1      40.902  23.232  26.292  1.00  0.00    -0.352 N 
ATOM     29  C   UNL A   1      41.524  24.431  26.607  1.00  0.00     0.251 C 
ATOM     30  H   UNL A   1      41.502  22.483  26.070  1.00  0.00     0.163 HD
ATOM     31  O   UNL A   1      42.738  24.513  26.652  1.00  0.00    -0.269 OA
BRANCH  29  32
ATOM     32  C   UNL A   1      40.675  25.576  27.007  1.00  0.00     0.039 A 
ATOM     33  C   UNL A   1      40.778  26.762  26.275  1.00  0.00     0.014 A 
ATOM     34  C   UNL A   1      39.983  25.544  28.215  1.00  0.00     0.014 A 
ATOM     35  C   UNL A   1      40.404  27.961  26.876  1.00  0.00     0.010 A 
ATOM     36  C   UNL A   1      39.707  26.740  28.852  1.00  0.00     0.010 A 
ATOM     37  C   UNL A   1      39.984  27.950  28.208  1.00  0.00    -0.014 A 
BRANCH  37  38
ATOM     38  C   UNL A   1      39.966  29.151  29.038  1.00  0.00     0.031 A 
ATOM     39  C   UNL A   1      38.885  30.151  28.916  1.00  0.00     0.074 A 
ATOM     40  C   UNL A   1      40.926  29.322  29.975  1.00  0.00     0.049 A 
ATOM     41  N   UNL A   1      39.029  31.403  29.200  1.00  0.00    -0.248 NA
ATOM     42  C   UNL A   1      37.548  29.819  28.436  1.00  0.00     0.031 C 
ATOM     43  C   UNL A   1      40.945  30.311  31.051  1.00  0.00     0.029 A 
ATOM     44  N   UNL A   1      42.202  28.730  30.024  1.00  0.00    -0.354 N 
ATOM     45  C   UNL A   1      37.782  31.979  29.192  1.00  0.00     0.074 A 
ATOM     46  C   UNL A   1      36.898  30.967  28.658  1.00  0.00     0.031 C 
ATOM     47  C   UNL A   1      42.214  30.490  31.450  1.00  0.00     0.029 A 
ATOM     48  C   UNL A   1      43.059  29.723  30.555  1.00  0.00     0.049 A 
ATOM     49  H   UNL A   1      42.447  27.817  29.748  1.00  0.00     0.167 HD
ATOM     50  C   UNL A   1      37.592  33.205  29.757  1.00  0.00     0.037 A 
ATOM     51  C   UNL A   1      44.108  30.226  29.844  1.00  0.00     0.037 A 
ATOM     52  C   UNL A   1      38.830  33.752  30.295  1.00  0.00     0.049 A 
ATOM     53  C   UNL A   1      44.055  31.720  29.646  1.00  0.00     0.074 A 
ATOM     54  C   UNL A   1      39.374  33.741  31.568  1.00  0.00     0.029 A 
ATOM     55  N   UNL A   1      39.851  34.132  29.432  1.00  0.00    -0.354 N 
ATOM     56  N   UNL A   1      42.967  32.427  29.770  1.00  0.00    -0.248 NA
ATOM     57  C   UNL A   1      45.205  32.527  29.247  1.00  0.00     0.031 C 
ATOM     58  C   UNL A   1      40.745  34.073  31.465  1.00  0.00     0.029 A 
ATOM     59  C   UNL A   1      41.031  34.303  30.131  1.00  0.00     0.049 A 
ATOM     60  H   UNL A   1      39.749  34.260  28.461  1.00  0.00     0.167 HD
ATOM     61  C   UNL A   1      43.235  33.733  29.455  1.00  0.00     0.074 A 
ATOM     62  C   UNL A   1      44.654  33.750  29.152  1.00  0.00     0.031 C 
ATOM     63  C   UNL A   1      42.260  34.687  29.459  1.00  0.00     0.037 A 
BRANCH  50  64
ATOM     64  C   UNL A   1      36.220  33.742  30.074  1.00  0.00     0.064 A 
ATOM     65  C   UNL A   1      35.357  34.202  29.057  1.00  0.00     0.173 A 
ATOM     66  C   UNL A   1      35.727  33.873  31.384  1.00  0.00     0.173 A 
ATOM     67  F   UNL A   1      35.661  34.061  27.762  1.00  0.00    -0.203 F 
ATOM     68  C   UNL A   1      34.151  34.849  29.339  1.00  0.00     0.198 A 
ATOM     69  C   UNL A   1      34.547  34.567  31.669  1.00  0.00     0.198 A 
ATOM     70  F   UNL A   1      36.374  33.318  32.420  1.00  0.00    -0.203 F 
ATOM     71  F   UNL A   1      33.378  35.282  28.332  1.00  0.00    -0.200 F 
ATOM     72  C   UNL A   1      33.765  35.067  30.645  1.00  0.00     0.200 A 
ATOM     73  F   UNL A   1      34.179  34.762  32.943  1.00  0.00    -0.200 F 
ATOM     74  F   UNL A   1      32.640  35.742  30.916  1.00  0.00    -0.200 F 
ENDBRANCH  50  64
BRANCH  51  75
ATOM     75  C   UNL A   1      44.687  29.262  28.876  1.00  0.00     0.064 A 
ATOM     76  C   UNL A   1      45.597  28.298  29.353  1.00  0.00     0.173 A 
ATOM     77  C   UNL A   1      44.102  29.037  27.624  1.00  0.00     0.173 A 
ATOM     78  F   UNL A   1      46.181  28.465  30.550  1.00  0.00    -0.203 F 
ATOM     79  C   UNL A   1      45.819  27.109  28.665  1.00  0.00     0.198 A 
ATOM     80  C   UNL A   1      44.339  27.849  26.930  1.00  0.00     0.198 A 
ATOM     81  F   UNL A   1      43.212  29.906  27.126  1.00  0.00    -0.203 F 
ATOM     82  F   UNL A   1      46.599  26.161  29.203  1.00  0.00    -0.200 F 
ATOM     83  C   UNL A   1      45.169  26.874  27.466  1.00  0.00     0.200 A 
ATOM     84  F   UNL A   1      43.684  27.604  25.785  1.00  0.00    -0.200 F 
ATOM     85  F   UNL A   1      45.304  25.690  26.851  1.00  0.00    -0.200 F 
ENDBRANCH  51  75
BRANCH  63  86
ATOM     86  C   UNL A   1      42.396  36.091  28.932  1.00  0.00     0.064 A 
ATOM     87  C   UNL A   1      41.820  36.531  27.729  1.00  0.00     0.173 A 
ATOM     88  C   UNL A   1      43.009  37.094  29.721  1.00  0.00     0.173 A 
ATOM     89  F   UNL A   1      41.113  35.698  26.952  1.00  0.00    -0.203 F 
ATOM     90  C   UNL A   1      41.903  37.864  27.316  1.00  0.00     0.198 A 
ATOM     91  C   UNL A   1      43.043  38.432  29.331  1.00  0.00     0.198 A 
ATOM     92  F   UNL A   1      43.570  36.807  30.905  1.00  0.00    -0.203 F 
ATOM     93  F   UNL A   1      41.371  38.228  26.141  1.00  0.00    -0.200 F 
ATOM     94  C   UNL A   1      42.504  38.815  28.120  1.00  0.00     0.200 A 
ATOM     95  F   UNL A   1      43.584  39.349  30.145  1.00  0.00    -0.200 F 
ATOM     96  F   UNL A   1      42.543  40.098  27.740  1.00  0.00    -0.200 F 
ENDBRANCH  63  86
ENDBRANCH  37  38
ENDBRANCH  29  32
ENDBRANCH  27  28
ENDBRANCH  26  27
ENDBRANCH   1  26
TORSDOF 13
ENDMDL
