MODEL 1
REMARK VINA RESULT:     -13.8      0.000      0.000
REMARK SMILES COc1ccc(S(=O)(=O)N2CCC[C@H](C(=O)N3CCC[C@H](C(=O)NCCCNC(=O)c4ccc(-c5c6nc(c(-c7c(F)c(F)c(F)c(F)c7F)c7ccc([nH]7)c(-c7c(F)c(F)c(F)c(F)c7F)c7nc(c(-c8c(F)c(F)c(F)c(F)c8F)c8ccc5[nH]8)C=C7)C=C6)cc4)C3)C2)cc1
REMARK SMILES IDX 22 1 23 2 24 3 21 5 17 6 18 7 94 8 19 9 20 10 15 11 16 12
REMARK SMILES IDX 14 13 10 14 11 15 95 16 12 17 13 18 7 19 8 20 9 21 6 22 3 23
REMARK SMILES IDX 4 24 97 25 5 26 96 27 2 28 1 29 25 30 26 31 27 32 28 33
REMARK SMILES IDX 29 34 30 36 31 37 32 38 93 39 33 40 92 41 34 42 35 43 36 44
REMARK SMILES IDX 86 45 37 46 91 47 85 48 87 49 38 50 90 51 84 52 83 53 39 55
REMARK SMILES IDX 71 56 51 57 70 58 52 59 55 60 69 61 88 62 53 63 54 64 68 66
REMARK SMILES IDX 89 67 56 68 40 69 41 70 49 71 42 72 43 73 47 74 50 75 44 76
REMARK SMILES IDX 45 77 48 78 46 79 72 80 73 81 81 82 74 83 75 84 79 85 82 86
REMARK SMILES IDX 76 87 77 88 80 89 78 90 57 91 58 92 66 93 59 94 60 95 64 96
REMARK SMILES IDX 67 97 61 98 62 99 65 100 63 101
REMARK H PARENT 24 4 28 35 87 54 55 65
REMARK Flexibility Score: inf
ROOT
ATOM      1  C   UNL A   1      33.238  28.732  25.878  1.00  0.00     0.224 C 
ATOM      2  O   UNL A   1      34.254  28.231  26.373  1.00  0.00    -0.275 OA
ATOM      3  N   UNL A   1      32.798  29.888  26.441  1.00  0.00    -0.356 N 
ATOM      4  H   UNL A   1      33.235  30.139  27.286  1.00  0.00     0.163 HD
ENDROOT
BRANCH   1   5
ATOM      5  C   UNL A   1      32.545  28.029  24.701  1.00  0.00     0.098 C 
ATOM      6  N   UNL A   1      33.491  25.829  23.894  1.00  0.00    -0.342 N 
ATOM      7  C   UNL A   1      33.639  26.337  22.535  1.00  0.00     0.119 C 
ATOM      8  C   UNL A   1      32.520  26.496  24.756  1.00  0.00     0.133 C 
ATOM      9  C   UNL A   1      33.861  27.840  22.482  1.00  0.00     0.022 C 
ATOM     10  C   UNL A   1      32.859  28.622  23.323  1.00  0.00     0.017 C 
BRANCH   6  11
ATOM     11  C   UNL A   1      34.397  24.888  24.346  1.00  0.00     0.227 C 
ATOM     12  O   UNL A   1      34.876  24.959  25.483  1.00  0.00    -0.275 OA
BRANCH  11  13
ATOM     13  C   UNL A   1      35.027  23.918  23.354  1.00  0.00     0.094 C 
ATOM     14  N   UNL A   1      33.666  21.995  24.062  1.00  0.00    -0.197 NA
ATOM     15  C   UNL A   1      34.776  21.372  24.802  1.00  0.00     0.102 C 
ATOM     16  C   UNL A   1      33.941  22.929  22.956  1.00  0.00     0.116 C 
ATOM     17  C   UNL A   1      36.172  21.918  24.513  1.00  0.00     0.018 C 
ATOM     18  C   UNL A   1      36.312  23.181  23.672  1.00  0.00     0.016 C 
BRANCH  14  19
ATOM     19  S   UNL A   1      32.172  21.194  24.084  1.00  0.00     0.243 S 
ATOM     20  O   UNL A   1      31.524  21.402  22.812  1.00  0.00    -0.207 OA
ATOM     21  O   UNL A   1      31.519  21.545  25.332  1.00  0.00    -0.207 OA
BRANCH  19  22
ATOM     22  C   UNL A   1      32.564  19.463  24.189  1.00  0.00     0.082 A 
ATOM     23  C   UNL A   1      33.274  16.775  24.461  1.00  0.00     0.118 A 
ATOM     24  C   UNL A   1      33.000  17.549  25.591  1.00  0.00     0.048 A 
ATOM     25  C   UNL A   1      33.154  17.340  23.193  1.00  0.00     0.048 A 
ATOM     26  C   UNL A   1      32.650  18.895  25.461  1.00  0.00     0.025 A 
ATOM     27  C   UNL A   1      32.809  18.683  23.057  1.00  0.00     0.025 A 
BRANCH  23  28
ATOM     28  O   UNL A   1      33.639  15.480  24.705  1.00  0.00    -0.497 OA
ATOM     29  C   UNL A   1      32.715  14.716  25.475  1.00  0.00     0.278 C 
ENDBRANCH  23  28
ENDBRANCH  19  22
ENDBRANCH  14  19
ENDBRANCH  11  13
ENDBRANCH   6  11
ENDBRANCH   1   5
BRANCH   3  30
ATOM     30  C   UNL A   1      31.782  30.795  25.975  1.00  0.00     0.117 C 
BRANCH  30  31
ATOM     31  C   UNL A   1      31.470  31.932  26.924  1.00  0.00     0.042 C 
BRANCH  31  32
ATOM     32  C   UNL A   1      32.694  32.736  27.300  1.00  0.00     0.118 C 
BRANCH  32  33
ATOM     33  N   UNL A   1      32.386  34.122  27.649  1.00  0.00    -0.352 N 
ATOM     34  C   UNL A   1      32.976  34.963  28.563  1.00  0.00     0.251 C 
ATOM     35  H   UNL A   1      31.637  34.517  27.148  1.00  0.00     0.163 HD
ATOM     36  O   UNL A   1      32.512  36.083  28.761  1.00  0.00    -0.269 OA
BRANCH  34  37
ATOM     37  C   UNL A   1      34.142  34.505  29.347  1.00  0.00     0.039 A 
ATOM     38  C   UNL A   1      33.936  33.977  30.625  1.00  0.00     0.014 A 
ATOM     39  C   UNL A   1      35.429  34.556  28.814  1.00  0.00     0.014 A 
ATOM     40  C   UNL A   1      35.010  33.424  31.325  1.00  0.00     0.010 A 
ATOM     41  C   UNL A   1      36.464  33.888  29.449  1.00  0.00     0.010 A 
ATOM     42  C   UNL A   1      36.273  33.331  30.722  1.00  0.00    -0.014 A 
BRANCH  42  43
ATOM     43  C   UNL A   1      37.429  32.700  31.407  1.00  0.00     0.031 A 
ATOM     44  C   UNL A   1      38.165  31.575  30.729  1.00  0.00     0.074 A 
ATOM     45  C   UNL A   1      37.757  33.071  32.658  1.00  0.00     0.049 A 
ATOM     46  N   UNL A   1      39.107  30.797  31.198  1.00  0.00    -0.248 NA
ATOM     47  C   UNL A   1      37.748  31.244  29.357  1.00  0.00     0.031 C 
ATOM     48  C   UNL A   1      37.077  34.100  33.447  1.00  0.00     0.029 A 
ATOM     49  N   UNL A   1      38.744  32.613  33.495  1.00  0.00    -0.354 N 
ATOM     50  C   UNL A   1      39.358  29.868  30.198  1.00  0.00     0.074 A 
ATOM     51  C   UNL A   1      38.429  30.134  29.123  1.00  0.00     0.031 C 
ATOM     52  C   UNL A   1      37.688  34.220  34.637  1.00  0.00     0.029 A 
ATOM     53  C   UNL A   1      38.777  33.251  34.711  1.00  0.00     0.049 A 
ATOM     54  H   UNL A   1      39.370  31.894  33.247  1.00  0.00     0.167 HD
ATOM     55  C   UNL A   1      40.303  28.899  30.161  1.00  0.00     0.037 A 
ATOM     56  C   UNL A   1      39.595  33.071  35.765  1.00  0.00     0.037 A 
ATOM     57  C   UNL A   1      41.271  28.686  31.202  1.00  0.00     0.049 A 
ATOM     58  C   UNL A   1      40.676  32.028  35.677  1.00  0.00     0.074 A 
ATOM     59  C   UNL A   1      42.325  27.791  31.233  1.00  0.00     0.029 A 
ATOM     60  N   UNL A   1      41.310  29.396  32.394  1.00  0.00    -0.354 N 
ATOM     61  N   UNL A   1      40.946  31.197  34.700  1.00  0.00    -0.248 NA
ATOM     62  C   UNL A   1      41.572  31.905  36.835  1.00  0.00     0.031 C 
ATOM     63  C   UNL A   1      42.986  27.939  32.456  1.00  0.00     0.029 A 
ATOM     64  C   UNL A   1      42.366  28.952  33.172  1.00  0.00     0.049 A 
ATOM     65  H   UNL A   1      40.679  30.107  32.650  1.00  0.00     0.167 HD
ATOM     66  C   UNL A   1      42.055  30.471  35.112  1.00  0.00     0.074 A 
ATOM     67  C   UNL A   1      42.418  30.971  36.422  1.00  0.00     0.031 C 
ATOM     68  C   UNL A   1      42.714  29.477  34.467  1.00  0.00     0.037 A 
BRANCH  55  69
ATOM     69  C   UNL A   1      40.345  28.017  28.948  1.00  0.00     0.064 A 
ATOM     70  C   UNL A   1      41.087  28.365  27.808  1.00  0.00     0.173 A 
ATOM     71  C   UNL A   1      39.643  26.802  28.927  1.00  0.00     0.173 A 
ATOM     72  F   UNL A   1      41.762  29.524  27.772  1.00  0.00    -0.203 F 
ATOM     73  C   UNL A   1      41.095  27.549  26.681  1.00  0.00     0.198 A 
ATOM     74  C   UNL A   1      39.680  25.973  27.809  1.00  0.00     0.198 A 
ATOM     75  F   UNL A   1      38.921  26.418  29.990  1.00  0.00    -0.203 F 
ATOM     76  F   UNL A   1      41.762  27.933  25.584  1.00  0.00    -0.200 F 
ATOM     77  C   UNL A   1      40.397  26.351  26.684  1.00  0.00     0.200 A 
ATOM     78  F   UNL A   1      39.015  24.809  27.817  1.00  0.00    -0.200 F 
ATOM     79  F   UNL A   1      40.409  25.566  25.598  1.00  0.00    -0.200 F 
ENDBRANCH  55  69
BRANCH  56  80
ATOM     80  C   UNL A   1      39.455  33.927  36.970  1.00  0.00     0.064 A 
ATOM     81  C   UNL A   1      40.040  35.200  37.016  1.00  0.00     0.173 A 
ATOM     82  C   UNL A   1      38.737  33.499  38.096  1.00  0.00     0.173 A 
ATOM     83  F   UNL A   1      40.753  35.646  35.971  1.00  0.00    -0.203 F 
ATOM     84  C   UNL A   1      39.929  36.005  38.148  1.00  0.00     0.198 A 
ATOM     85  C   UNL A   1      38.605  34.314  39.219  1.00  0.00     0.198 A 
ATOM     86  F   UNL A   1      38.154  32.291  38.101  1.00  0.00    -0.203 F 
ATOM     87  F   UNL A   1      40.535  37.199  38.180  1.00  0.00    -0.200 F 
ATOM     88  C   UNL A   1      39.208  35.562  39.247  1.00  0.00     0.200 A 
ATOM     89  F   UNL A   1      37.898  33.888  40.274  1.00  0.00    -0.200 F 
ATOM     90  F   UNL A   1      39.101  36.337  40.335  1.00  0.00    -0.200 F 
ENDBRANCH  56  80
BRANCH  68  91
ATOM     91  C   UNL A   1      43.912  28.891  35.151  1.00  0.00     0.064 A 
ATOM     92  C   UNL A   1      45.174  29.495  35.065  1.00  0.00     0.173 A 
ATOM     93  C   UNL A   1      43.783  27.739  35.940  1.00  0.00     0.173 A 
ATOM     94  F   UNL A   1      45.347  30.592  34.311  1.00  0.00    -0.203 F 
ATOM     95  C   UNL A   1      46.270  28.954  35.729  1.00  0.00     0.198 A 
ATOM     96  C   UNL A   1      44.875  27.215  36.624  1.00  0.00     0.198 A 
ATOM     97  F   UNL A   1      42.593  27.129  36.058  1.00  0.00    -0.203 F 
ATOM     98  F   UNL A   1      47.476  29.524  35.602  1.00  0.00    -0.200 F 
ATOM     99  C   UNL A   1      46.119  27.819  36.514  1.00  0.00     0.200 A 
ATOM    100  F   UNL A   1      44.725  26.127  37.391  1.00  0.00    -0.200 F 
ATOM    101  F   UNL A   1      47.174  27.305  37.159  1.00  0.00    -0.200 F 
ENDBRANCH  68  91
ENDBRANCH  42  43
ENDBRANCH  34  37
ENDBRANCH  32  33
ENDBRANCH  31  32
ENDBRANCH  30  31
ENDBRANCH   3  30
TORSDOF 15
ENDMDL
MODEL 2
REMARK VINA RESULT:     -13.6      5.385     10.339
REMARK SMILES COc1ccc(S(=O)(=O)N2CCC[C@H](C(=O)N3CCC[C@H](C(=O)NCCCNC(=O)c4ccc(-c5c6nc(c(-c7c(F)c(F)c(F)c(F)c7F)c7ccc([nH]7)c(-c7c(F)c(F)c(F)c(F)c7F)c7nc(c(-c8c(F)c(F)c(F)c(F)c8F)c8ccc5[nH]8)C=C7)C=C6)cc4)C3)C2)cc1
REMARK SMILES IDX 22 1 23 2 24 3 21 5 17 6 18 7 94 8 19 9 20 10 15 11 16 12
REMARK SMILES IDX 14 13 10 14 11 15 95 16 12 17 13 18 7 19 8 20 9 21 6 22 3 23
REMARK SMILES IDX 4 24 97 25 5 26 96 27 2 28 1 29 25 30 26 31 27 32 28 33
REMARK SMILES IDX 29 34 30 36 31 37 32 38 93 39 33 40 92 41 34 42 35 43 36 44
REMARK SMILES IDX 86 45 37 46 91 47 85 48 87 49 38 50 90 51 84 52 83 53 39 55
REMARK SMILES IDX 71 56 51 57 70 58 52 59 55 60 69 61 88 62 53 63 54 64 68 66
REMARK SMILES IDX 89 67 56 68 40 69 41 70 49 71 42 72 43 73 47 74 50 75 44 76
REMARK SMILES IDX 45 77 48 78 46 79 72 80 73 81 81 82 74 83 75 84 79 85 82 86
REMARK SMILES IDX 76 87 77 88 80 89 78 90 57 91 58 92 66 93 59 94 60 95 64 96
REMARK SMILES IDX 67 97 61 98 62 99 65 100 63 101
REMARK H PARENT 24 4 28 35 87 54 55 65
REMARK Flexibility Score: inf
ROOT
ATOM      1  C   UNL A   1      36.021  22.841  25.652  1.00  0.00     0.224 C 
ATOM      2  O   UNL A   1      36.413  23.950  26.034  1.00  0.00    -0.275 OA
ATOM      3  N   UNL A   1      36.983  21.933  25.344  1.00  0.00    -0.356 N 
ATOM      4  H   UNL A   1      37.900  22.286  25.305  1.00  0.00     0.163 HD
ENDROOT
BRANCH   1   5
ATOM      5  C   UNL A   1      34.513  22.572  25.536  1.00  0.00     0.098 C 
ATOM      6  N   UNL A   1      32.918  24.485  25.960  1.00  0.00    -0.342 N 
ATOM      7  C   UNL A   1      32.216  23.735  26.994  1.00  0.00     0.119 C 
ATOM      8  C   UNL A   1      33.669  23.720  24.969  1.00  0.00     0.133 C 
ATOM      9  C   UNL A   1      33.104  22.722  27.701  1.00  0.00     0.022 C 
ATOM     10  C   UNL A   1      33.896  21.846  26.737  1.00  0.00     0.017 C 
BRANCH   6  11
ATOM     11  C   UNL A   1      32.993  25.860  26.083  1.00  0.00     0.227 C 
ATOM     12  O   UNL A   1      34.055  26.461  25.883  1.00  0.00    -0.275 OA
BRANCH  11  13
ATOM     13  C   UNL A   1      31.845  26.618  26.739  1.00  0.00     0.094 C 
ATOM     14  N   UNL A   1      30.917  27.451  24.620  1.00  0.00    -0.197 NA
ATOM     15  C   UNL A   1      31.437  28.812  24.827  1.00  0.00     0.102 C 
ATOM     16  C   UNL A   1      30.673  26.565  25.771  1.00  0.00     0.116 C 
ATOM     17  C   UNL A   1      31.910  29.148  26.238  1.00  0.00     0.018 C 
ATOM     18  C   UNL A   1      32.023  28.028  27.265  1.00  0.00     0.016 C 
BRANCH  14  19
ATOM     19  S   UNL A   1      30.064  27.156  23.184  1.00  0.00     0.243 S 
ATOM     20  O   UNL A   1      29.046  26.170  23.453  1.00  0.00    -0.207 OA
ATOM     21  O   UNL A   1      31.049  26.961  22.135  1.00  0.00    -0.207 OA
BRANCH  19  22
ATOM     22  C   UNL A   1      29.224  28.678  22.810  1.00  0.00     0.082 A 
ATOM     23  C   UNL A   1      28.033  31.139  22.237  1.00  0.00     0.118 A 
ATOM     24  C   UNL A   1      29.231  30.775  21.617  1.00  0.00     0.048 A 
ATOM     25  C   UNL A   1      27.414  30.252  23.114  1.00  0.00     0.048 A 
ATOM     26  C   UNL A   1      29.834  29.548  21.905  1.00  0.00     0.025 A 
ATOM     27  C   UNL A   1      28.012  29.028  23.407  1.00  0.00     0.025 A 
BRANCH  23  28
ATOM     28  O   UNL A   1      27.549  32.375  21.908  1.00  0.00    -0.497 OA
ATOM     29  C   UNL A   1      27.882  32.838  20.602  1.00  0.00     0.278 C 
ENDBRANCH  23  28
ENDBRANCH  19  22
ENDBRANCH  14  19
ENDBRANCH  11  13
ENDBRANCH   6  11
ENDBRANCH   1   5
BRANCH   3  30
ATOM     30  C   UNL A   1      36.848  20.527  25.066  1.00  0.00     0.117 C 
BRANCH  30  31
ATOM     31  C   UNL A   1      38.157  19.799  24.846  1.00  0.00     0.042 C 
BRANCH  31  32
ATOM     32  C   UNL A   1      39.172  20.074  25.933  1.00  0.00     0.118 C 
BRANCH  32  33
ATOM     33  N   UNL A   1      40.273  19.113  25.947  1.00  0.00    -0.352 N 
ATOM     34  C   UNL A   1      41.623  19.308  26.124  1.00  0.00     0.251 C 
ATOM     35  H   UNL A   1      40.006  18.178  25.807  1.00  0.00     0.163 HD
ATOM     36  O   UNL A   1      42.401  18.364  26.024  1.00  0.00    -0.269 OA
BRANCH  34  37
ATOM     37  C   UNL A   1      42.148  20.664  26.390  1.00  0.00     0.039 A 
ATOM     38  C   UNL A   1      42.363  21.531  25.316  1.00  0.00     0.014 A 
ATOM     39  C   UNL A   1      42.389  21.096  27.694  1.00  0.00     0.014 A 
ATOM     40  C   UNL A   1      42.737  22.855  25.560  1.00  0.00     0.010 A 
ATOM     41  C   UNL A   1      42.627  22.440  27.940  1.00  0.00     0.010 A 
ATOM     42  C   UNL A   1      42.823  23.332  26.876  1.00  0.00    -0.014 A 
BRANCH  42  43
ATOM     43  C   UNL A   1      43.161  24.744  27.182  1.00  0.00     0.031 A 
ATOM     44  C   UNL A   1      44.557  25.243  26.919  1.00  0.00     0.074 A 
ATOM     45  C   UNL A   1      42.253  25.543  27.773  1.00  0.00     0.049 A 
ATOM     46  N   UNL A   1      45.102  26.390  27.235  1.00  0.00    -0.248 NA
ATOM     47  C   UNL A   1      45.481  24.306  26.258  1.00  0.00     0.031 C 
ATOM     48  C   UNL A   1      40.890  25.155  28.141  1.00  0.00     0.029 A 
ATOM     49  N   UNL A   1      42.345  26.851  28.179  1.00  0.00    -0.354 N 
ATOM     50  C   UNL A   1      46.433  26.291  26.852  1.00  0.00     0.074 A 
ATOM     51  C   UNL A   1      46.632  24.954  26.340  1.00  0.00     0.031 C 
ATOM     52  C   UNL A   1      40.263  26.211  28.686  1.00  0.00     0.029 A 
ATOM     53  C   UNL A   1      41.190  27.337  28.742  1.00  0.00     0.049 A 
ATOM     54  H   UNL A   1      43.163  27.390  28.078  1.00  0.00     0.167 HD
ATOM     55  C   UNL A   1      47.397  27.240  26.890  1.00  0.00     0.037 A 
ATOM     56  C   UNL A   1      40.914  28.555  29.244  1.00  0.00     0.037 A 
ATOM     57  C   UNL A   1      47.175  28.589  27.332  1.00  0.00     0.049 A 
ATOM     58  C   UNL A   1      41.984  29.612  29.220  1.00  0.00     0.074 A 
ATOM     59  C   UNL A   1      48.056  29.655  27.334  1.00  0.00     0.029 A 
ATOM     60  N   UNL A   1      45.972  29.060  27.838  1.00  0.00    -0.354 N 
ATOM     61  N   UNL A   1      43.222  29.526  28.797  1.00  0.00    -0.248 NA
ATOM     62  C   UNL A   1      41.617  30.938  29.736  1.00  0.00     0.031 C 
ATOM     63  C   UNL A   1      47.395  30.766  27.868  1.00  0.00     0.029 A 
ATOM     64  C   UNL A   1      46.090  30.401  28.163  1.00  0.00     0.049 A 
ATOM     65  H   UNL A   1      45.156  28.521  27.951  1.00  0.00     0.167 HD
ATOM     66  C   UNL A   1      43.774  30.788  28.970  1.00  0.00     0.074 A 
ATOM     67  C   UNL A   1      42.730  31.626  29.523  1.00  0.00     0.031 C 
ATOM     68  C   UNL A   1      45.031  31.216  28.699  1.00  0.00     0.037 A 
BRANCH  55  69
ATOM     69  C   UNL A   1      48.769  26.853  26.420  1.00  0.00     0.064 A 
ATOM     70  C   UNL A   1      49.728  26.323  27.297  1.00  0.00     0.173 A 
ATOM     71  C   UNL A   1      49.127  27.003  25.071  1.00  0.00     0.173 A 
ATOM     72  F   UNL A   1      49.441  26.175  28.600  1.00  0.00    -0.203 F 
ATOM     73  C   UNL A   1      51.004  25.993  26.852  1.00  0.00     0.198 A 
ATOM     74  C   UNL A   1      50.395  26.641  24.622  1.00  0.00     0.198 A 
ATOM     75  F   UNL A   1      48.249  27.500  24.188  1.00  0.00    -0.203 F 
ATOM     76  F   UNL A   1      51.920  25.546  27.721  1.00  0.00    -0.200 F 
ATOM     77  C   UNL A   1      51.335  26.146  25.514  1.00  0.00     0.200 A 
ATOM     78  F   UNL A   1      50.710  26.777  23.326  1.00  0.00    -0.200 F 
ATOM     79  F   UNL A   1      52.564  25.825  25.086  1.00  0.00    -0.200 F 
ENDBRANCH  55  69
BRANCH  56  80
ATOM     80  C   UNL A   1      39.556  28.854  29.766  1.00  0.00     0.064 A 
ATOM     81  C   UNL A   1      38.583  29.432  28.938  1.00  0.00     0.173 A 
ATOM     82  C   UNL A   1      39.200  28.570  31.092  1.00  0.00     0.173 A 
ATOM     83  F   UNL A   1      38.883  29.740  27.668  1.00  0.00    -0.203 F 
ATOM     84  C   UNL A   1      37.311  29.732  29.423  1.00  0.00     0.198 A 
ATOM     85  C   UNL A   1      37.920  28.848  31.569  1.00  0.00     0.198 A 
ATOM     86  F   UNL A   1      40.093  28.013  31.922  1.00  0.00    -0.203 F 
ATOM     87  F   UNL A   1      36.415  30.324  28.622  1.00  0.00    -0.200 F 
ATOM     88  C   UNL A   1      36.980  29.436  30.736  1.00  0.00     0.200 A 
ATOM     89  F   UNL A   1      37.599  28.550  32.835  1.00  0.00    -0.200 F 
ATOM     90  F   UNL A   1      35.756  29.725  31.200  1.00  0.00    -0.200 F 
ENDBRANCH  56  80
BRANCH  68  91
ATOM     91  C   UNL A   1      45.337  32.659  28.963  1.00  0.00     0.064 A 
ATOM     92  C   UNL A   1      45.886  33.081  30.182  1.00  0.00     0.173 A 
ATOM     93  C   UNL A   1      45.121  33.622  27.967  1.00  0.00     0.173 A 
ATOM     94  F   UNL A   1      46.097  32.196  31.169  1.00  0.00    -0.203 F 
ATOM     95  C   UNL A   1      46.190  34.420  30.401  1.00  0.00     0.198 A 
ATOM     96  C   UNL A   1      45.450  34.957  28.180  1.00  0.00     0.198 A 
ATOM     97  F   UNL A   1      44.603  33.265  26.782  1.00  0.00    -0.203 F 
ATOM     98  F   UNL A   1      46.678  34.808  31.588  1.00  0.00    -0.200 F 
ATOM     99  C   UNL A   1      45.980  35.356  29.399  1.00  0.00     0.200 A 
ATOM    100  F   UNL A   1      45.258  35.858  27.207  1.00  0.00    -0.200 F 
ATOM    101  F   UNL A   1      46.281  36.644  29.610  1.00  0.00    -0.200 F 
ENDBRANCH  68  91
ENDBRANCH  42  43
ENDBRANCH  34  37
ENDBRANCH  32  33
ENDBRANCH  31  32
ENDBRANCH  30  31
ENDBRANCH   3  30
TORSDOF 15
ENDMDL
MODEL 3
REMARK VINA RESULT:     -13.5      0.724      7.042
REMARK SMILES COc1ccc(S(=O)(=O)N2CCC[C@H](C(=O)N3CCC[C@H](C(=O)NCCCNC(=O)c4ccc(-c5c6nc(c(-c7c(F)c(F)c(F)c(F)c7F)c7ccc([nH]7)c(-c7c(F)c(F)c(F)c(F)c7F)c7nc(c(-c8c(F)c(F)c(F)c(F)c8F)c8ccc5[nH]8)C=C7)C=C6)cc4)C3)C2)cc1
REMARK SMILES IDX 22 1 23 2 24 3 21 5 17 6 18 7 94 8 19 9 20 10 15 11 16 12
REMARK SMILES IDX 14 13 10 14 11 15 95 16 12 17 13 18 7 19 8 20 9 21 6 22 3 23
REMARK SMILES IDX 4 24 97 25 5 26 96 27 2 28 1 29 25 30 26 31 27 32 28 33
REMARK SMILES IDX 29 34 30 36 31 37 32 38 93 39 33 40 92 41 34 42 35 43 36 44
REMARK SMILES IDX 86 45 37 46 91 47 85 48 87 49 38 50 90 51 84 52 83 53 39 55
REMARK SMILES IDX 71 56 51 57 70 58 52 59 55 60 69 61 88 62 53 63 54 64 68 66
REMARK SMILES IDX 89 67 56 68 40 69 41 70 49 71 42 72 43 73 47 74 50 75 44 76
REMARK SMILES IDX 45 77 48 78 46 79 72 80 73 81 81 82 74 83 75 84 79 85 82 86
REMARK SMILES IDX 76 87 77 88 80 89 78 90 57 91 58 92 66 93 59 94 60 95 64 96
REMARK SMILES IDX 67 97 61 98 62 99 65 100 63 101
REMARK H PARENT 24 4 28 35 87 54 55 65
REMARK Flexibility Score: inf
ROOT
ATOM      1  C   UNL A   1      33.297  28.830  25.734  1.00  0.00     0.224 C 
ATOM      2  O   UNL A   1      34.498  28.607  25.922  1.00  0.00    -0.275 OA
ATOM      3  N   UNL A   1      32.724  29.767  26.534  1.00  0.00    -0.356 N 
ATOM      4  H   UNL A   1      33.275  30.071  27.290  1.00  0.00     0.163 HD
ENDROOT
BRANCH   1   5
ATOM      5  C   UNL A   1      32.543  28.045  24.650  1.00  0.00     0.098 C 
ATOM      6  N   UNL A   1      33.458  25.799  23.942  1.00  0.00    -0.342 N 
ATOM      7  C   UNL A   1      33.524  26.212  22.546  1.00  0.00     0.119 C 
ATOM      8  C   UNL A   1      32.534  26.520  24.812  1.00  0.00     0.133 C 
ATOM      9  C   UNL A   1      33.731  27.709  22.377  1.00  0.00     0.022 C 
ATOM     10  C   UNL A   1      32.773  28.544  23.219  1.00  0.00     0.017 C 
BRANCH   6  11
ATOM     11  C   UNL A   1      34.396  24.894  24.404  1.00  0.00     0.227 C 
ATOM     12  O   UNL A   1      34.881  25.001  25.537  1.00  0.00    -0.275 OA
BRANCH  11  13
ATOM     13  C   UNL A   1      35.049  23.925  23.426  1.00  0.00     0.094 C 
ATOM     14  N   UNL A   1      33.686  21.997  24.114  1.00  0.00    -0.197 NA
ATOM     15  C   UNL A   1      34.786  21.382  24.875  1.00  0.00     0.102 C 
ATOM     16  C   UNL A   1      33.976  22.930  23.012  1.00  0.00     0.116 C 
ATOM     17  C   UNL A   1      36.184  21.934  24.609  1.00  0.00     0.018 C 
ATOM     18  C   UNL A   1      36.332  23.197  23.768  1.00  0.00     0.016 C 
BRANCH  14  19
ATOM     19  S   UNL A   1      32.197  21.188  24.112  1.00  0.00     0.243 S 
ATOM     20  O   UNL A   1      31.554  21.419  22.841  1.00  0.00    -0.207 OA
ATOM     21  O   UNL A   1      31.535  21.508  25.364  1.00  0.00    -0.207 OA
BRANCH  19  22
ATOM     22  C   UNL A   1      32.598  19.456  24.182  1.00  0.00     0.082 A 
ATOM     23  C   UNL A   1      33.318  16.766  24.403  1.00  0.00     0.118 A 
ATOM     24  C   UNL A   1      32.999  17.507  25.545  1.00  0.00     0.048 A 
ATOM     25  C   UNL A   1      33.237  17.367  23.149  1.00  0.00     0.048 A 
ATOM     26  C   UNL A   1      32.644  18.854  25.441  1.00  0.00     0.025 A 
ATOM     27  C   UNL A   1      32.886  18.711  23.039  1.00  0.00     0.025 A 
BRANCH  23  28
ATOM     28  O   UNL A   1      33.684  15.468  24.624  1.00  0.00    -0.497 OA
ATOM     29  C   UNL A   1      32.807  14.716  25.459  1.00  0.00     0.278 C 
ENDBRANCH  23  28
ENDBRANCH  19  22
ENDBRANCH  14  19
ENDBRANCH  11  13
ENDBRANCH   6  11
ENDBRANCH   1   5
BRANCH   3  30
ATOM     30  C   UNL A   1      31.423  30.376  26.431  1.00  0.00     0.117 C 
BRANCH  30  31
ATOM     31  C   UNL A   1      31.429  31.888  26.493  1.00  0.00     0.042 C 
BRANCH  31  32
ATOM     32  C   UNL A   1      32.619  32.441  27.243  1.00  0.00     0.118 C 
BRANCH  32  33
ATOM     33  N   UNL A   1      32.468  33.850  27.603  1.00  0.00    -0.352 N 
ATOM     34  C   UNL A   1      33.166  34.619  28.504  1.00  0.00     0.251 C 
ATOM     35  H   UNL A   1      31.751  34.323  27.124  1.00  0.00     0.163 HD
ATOM     36  O   UNL A   1      32.828  35.780  28.717  1.00  0.00    -0.269 OA
BRANCH  34  37
ATOM     37  C   UNL A   1      34.299  34.038  29.255  1.00  0.00     0.039 A 
ATOM     38  C   UNL A   1      34.038  33.103  30.261  1.00  0.00     0.014 A 
ATOM     39  C   UNL A   1      35.615  34.379  28.944  1.00  0.00     0.014 A 
ATOM     40  C   UNL A   1      35.101  32.451  30.890  1.00  0.00     0.010 A 
ATOM     41  C   UNL A   1      36.660  33.636  29.471  1.00  0.00     0.010 A 
ATOM     42  C   UNL A   1      36.418  32.677  30.466  1.00  0.00    -0.014 A 
BRANCH  42  43
ATOM     43  C   UNL A   1      37.573  31.965  31.067  1.00  0.00     0.031 A 
ATOM     44  C   UNL A   1      38.027  32.333  32.454  1.00  0.00     0.074 A 
ATOM     45  C   UNL A   1      38.262  31.064  30.343  1.00  0.00     0.049 A 
ATOM     46  N   UNL A   1      39.086  31.940  33.114  1.00  0.00    -0.248 NA
ATOM     47  C   UNL A   1      37.207  33.319  33.178  1.00  0.00     0.031 C 
ATOM     48  C   UNL A   1      37.963  30.672  28.964  1.00  0.00     0.029 A 
ATOM     49  N   UNL A   1      39.369  30.318  30.665  1.00  0.00    -0.354 N 
ATOM     50  C   UNL A   1      39.078  32.659  34.301  1.00  0.00     0.074 A 
ATOM     51  C   UNL A   1      37.949  33.559  34.248  1.00  0.00     0.031 C 
ATOM     52  C   UNL A   1      38.842  29.735  28.571  1.00  0.00     0.029 A 
ATOM     53  C   UNL A   1      39.788  29.487  29.654  1.00  0.00     0.049 A 
ATOM     54  H   UNL A   1      39.821  30.375  31.538  1.00  0.00     0.167 HD
ATOM     55  C   UNL A   1      39.917  32.556  35.359  1.00  0.00     0.037 A 
ATOM     56  C   UNL A   1      40.820  28.625  29.611  1.00  0.00     0.037 A 
ATOM     57  C   UNL A   1      40.994  31.608  35.436  1.00  0.00     0.049 A 
ATOM     58  C   UNL A   1      41.702  28.483  30.822  1.00  0.00     0.074 A 
ATOM     59  C   UNL A   1      41.852  31.357  36.491  1.00  0.00     0.029 A 
ATOM     60  N   UNL A   1      41.348  30.739  34.413  1.00  0.00    -0.354 N 
ATOM     61  N   UNL A   1      41.647  29.124  31.965  1.00  0.00    -0.248 NA
ATOM     62  C   UNL A   1      42.785  27.493  30.740  1.00  0.00     0.031 C 
ATOM     63  C   UNL A   1      42.745  30.356  36.098  1.00  0.00     0.029 A 
ATOM     64  C   UNL A   1      42.419  29.956  34.811  1.00  0.00     0.049 A 
ATOM     65  H   UNL A   1      40.906  30.687  33.536  1.00  0.00     0.167 HD
ATOM     66  C   UNL A   1      42.667  28.599  32.746  1.00  0.00     0.074 A 
ATOM     67  C   UNL A   1      43.316  27.576  31.952  1.00  0.00     0.031 C 
ATOM     68  C   UNL A   1      43.037  28.934  34.007  1.00  0.00     0.037 A 
BRANCH  55  69
ATOM     69  C   UNL A   1      39.682  33.476  36.521  1.00  0.00     0.064 A 
ATOM     70  C   UNL A   1      38.813  33.134  37.569  1.00  0.00     0.173 A 
ATOM     71  C   UNL A   1      40.344  34.711  36.595  1.00  0.00     0.173 A 
ATOM     72  F   UNL A   1      38.144  31.971  37.537  1.00  0.00    -0.203 F 
ATOM     73  C   UNL A   1      38.587  34.008  38.627  1.00  0.00     0.198 A 
ATOM     74  C   UNL A   1      40.139  35.569  37.673  1.00  0.00     0.198 A 
ATOM     75  F   UNL A   1      41.189  35.087  35.624  1.00  0.00    -0.203 F 
ATOM     76  F   UNL A   1      37.706  33.684  39.584  1.00  0.00    -0.200 F 
ATOM     77  C   UNL A   1      39.254  35.222  38.682  1.00  0.00     0.200 A 
ATOM     78  F   UNL A   1      40.794  36.737  37.731  1.00  0.00    -0.200 F 
ATOM     79  F   UNL A   1      39.036  36.062  39.704  1.00  0.00    -0.200 F 
ENDBRANCH  55  69
BRANCH  56  80
ATOM     80  C   UNL A   1      41.045  27.794  28.401  1.00  0.00     0.064 A 
ATOM     81  C   UNL A   1      41.891  28.239  27.374  1.00  0.00     0.173 A 
ATOM     82  C   UNL A   1      40.429  26.544  28.242  1.00  0.00     0.173 A 
ATOM     83  F   UNL A   1      42.487  29.436  27.472  1.00  0.00    -0.203 F 
ATOM     84  C   UNL A   1      42.096  27.475  26.227  1.00  0.00     0.198 A 
ATOM     85  C   UNL A   1      40.655  25.770  27.106  1.00  0.00     0.198 A 
ATOM     86  F   UNL A   1      39.616  26.071  29.197  1.00  0.00    -0.203 F 
ATOM     87  F   UNL A   1      42.875  27.945  25.243  1.00  0.00    -0.200 F 
ATOM     88  C   UNL A   1      41.481  26.239  26.096  1.00  0.00     0.200 A 
ATOM     89  F   UNL A   1      40.068  24.571  26.987  1.00  0.00    -0.200 F 
ATOM     90  F   UNL A   1      41.680  25.505  24.993  1.00  0.00    -0.200 F 
ENDBRANCH  56  80
BRANCH  68  91
ATOM     91  C   UNL A   1      44.170  28.166  34.616  1.00  0.00     0.064 A 
ATOM     92  C   UNL A   1      45.490  28.635  34.557  1.00  0.00     0.173 A 
ATOM     93  C   UNL A   1      43.924  26.971  35.308  1.00  0.00     0.173 A 
ATOM     94  F   UNL A   1      45.774  29.767  33.894  1.00  0.00    -0.203 F 
ATOM     95  C   UNL A   1      46.526  27.924  35.152  1.00  0.00     0.198 A 
ATOM     96  C   UNL A   1      44.959  26.276  35.925  1.00  0.00     0.198 A 
ATOM     97  F   UNL A   1      42.676  26.485  35.398  1.00  0.00    -0.203 F 
ATOM     98  F   UNL A   1      47.786  28.369  35.050  1.00  0.00    -0.200 F 
ATOM     99  C   UNL A   1      46.260  26.750  35.842  1.00  0.00     0.200 A 
ATOM    100  F   UNL A   1      44.699  25.149  36.602  1.00  0.00    -0.200 F 
ATOM    101  F   UNL A   1      47.259  26.072  36.422  1.00  0.00    -0.200 F 
ENDBRANCH  68  91
ENDBRANCH  42  43
ENDBRANCH  34  37
ENDBRANCH  32  33
ENDBRANCH  31  32
ENDBRANCH  30  31
ENDBRANCH   3  30
TORSDOF 15
ENDMDL
