MODEL 1
REMARK VINA RESULT:     -12.9      0.000      0.000
REMARK SMILES C[C@@](NC(=O)[C@H]1COc2ccccc21)(C(=O)NCCCNC(=O)c1ccc(-c2c3nc(c(-c4c(F)c(F)c(F)c(F)c4F)c4ccc([nH]4)c(-c4c(F)c(F)c(F)c(F)c4F)c4nc(c(-c5c(F)c(F)c(F)c(F)c5F)c5ccc2[nH]5)C=C4)C=C3)cc1)C(F)(F)F
REMARK SMILES IDX 19 1 18 2 17 3 15 4 16 5 2 7 1 8 3 9 4 10 5 12 6 13 7 14
REMARK SMILES IDX 14 15 8 16 9 17 13 18 10 19 12 20 11 21 87 22 88 23 89 24
REMARK SMILES IDX 90 25 20 26 21 27 22 28 23 30 24 31 25 32 86 33 26 34 85 35
REMARK SMILES IDX 27 36 28 37 29 38 79 39 30 40 84 41 78 42 80 43 31 44 83 45
REMARK SMILES IDX 77 46 76 47 32 49 64 50 44 51 63 52 45 53 48 54 62 55 81 56
REMARK SMILES IDX 46 57 47 58 61 60 82 61 49 62 33 63 34 64 42 65 35 66 36 67
REMARK SMILES IDX 40 68 43 69 37 70 38 71 41 72 39 73 65 74 66 75 74 76 67 77
REMARK SMILES IDX 68 78 72 79 75 80 69 81 70 82 73 83 71 84 50 85 51 86 59 87
REMARK SMILES IDX 52 88 53 89 57 90 60 91 54 92 55 93 58 94 56 95
REMARK H PARENT 17 6 3 11 21 29 80 48 48 59
REMARK Flexibility Score: inf
ROOT
ATOM      1  C   UNL A   1      36.855  20.950  24.705  1.00  0.00     0.042 C 
ENDROOT
BRANCH   1   2
ATOM      2  C   UNL A   1      35.542  21.133  25.446  1.00  0.00     0.117 C 
BRANCH   2   3
ATOM      3  N   UNL A   1      34.424  20.489  24.768  1.00  0.00    -0.354 N 
ATOM      4  C   UNL A   1      33.318  21.022  24.153  1.00  0.00     0.254 C 
ATOM      5  O   UNL A   1      32.488  20.213  23.731  1.00  0.00    -0.272 OA
ATOM      6  H   UNL A   1      34.470  19.506  24.747  1.00  0.00     0.163 HD
BRANCH   4   7
ATOM      7  C   UNL A   1      33.040  22.527  24.221  1.00  0.00     0.212 C 
ATOM      8  C   UNL A   1      31.771  22.720  23.335  1.00  0.00     0.056 C 
BRANCH   7   9
ATOM      9  N   UNL A   1      32.732  22.998  25.615  1.00  0.00    -0.334 N 
ATOM     10  C   UNL A   1      32.097  24.056  26.174  1.00  0.00     0.232 C 
ATOM     11  H   UNL A   1      33.082  22.379  26.296  1.00  0.00     0.164 HD
ATOM     12  O   UNL A   1      31.796  23.850  27.364  1.00  0.00    -0.274 OA
BRANCH  10  13
ATOM     13  C   UNL A   1      31.845  25.462  25.643  1.00  0.00     0.150 C 
ATOM     14  C   UNL A   1      30.409  25.906  25.974  1.00  0.00     0.248 C 
ATOM     15  C   UNL A   1      32.551  26.669  26.124  1.00  0.00     0.010 A 
ATOM     16  O   UNL A   1      30.452  26.878  27.053  1.00  0.00    -0.492 OA
ATOM     17  C   UNL A   1      31.706  27.418  26.928  1.00  0.00     0.123 A 
ATOM     18  C   UNL A   1      33.797  27.161  25.782  1.00  0.00     0.008 A 
ATOM     19  C   UNL A   1      32.113  28.593  27.529  1.00  0.00     0.047 A 
ATOM     20  C   UNL A   1      34.238  28.342  26.381  1.00  0.00     0.001 A 
ATOM     21  C   UNL A   1      33.407  29.047  27.265  1.00  0.00     0.004 A 
ENDBRANCH  10  13
ENDBRANCH   7   9
BRANCH   7  22
ATOM     22  C   UNL A   1      34.126  23.367  23.509  1.00  0.00     0.420 C 
ATOM     23  F   UNL A   1      34.873  22.668  22.631  1.00  0.00    -0.168 F 
ATOM     24  F   UNL A   1      33.520  24.352  22.780  1.00  0.00    -0.168 F 
ATOM     25  F   UNL A   1      34.951  24.014  24.347  1.00  0.00    -0.168 F 
ENDBRANCH   7  22
ENDBRANCH   4   7
ENDBRANCH   2   3
ENDBRANCH   1   2
BRANCH   1  26
ATOM     26  C   UNL A   1      38.042  21.578  25.419  1.00  0.00     0.118 C 
BRANCH  26  27
ATOM     27  N   UNL A   1      38.961  20.598  25.980  1.00  0.00    -0.352 N 
ATOM     28  C   UNL A   1      40.107  20.802  26.719  1.00  0.00     0.251 C 
ATOM     29  H   UNL A   1      38.732  19.656  25.807  1.00  0.00     0.163 HD
ATOM     30  O   UNL A   1      40.831  19.871  27.020  1.00  0.00    -0.269 OA
BRANCH  28  31
ATOM     31  C   UNL A   1      40.466  22.184  27.111  1.00  0.00     0.039 A 
ATOM     32  C   UNL A   1      41.418  22.377  28.114  1.00  0.00     0.014 A 
ATOM     33  C   UNL A   1      39.902  23.281  26.454  1.00  0.00     0.014 A 
ATOM     34  C   UNL A   1      41.865  23.668  28.398  1.00  0.00     0.010 A 
ATOM     35  C   UNL A   1      40.415  24.554  26.672  1.00  0.00     0.010 A 
ATOM     36  C   UNL A   1      41.399  24.762  27.649  1.00  0.00    -0.014 A 
BRANCH  36  37
ATOM     37  C   UNL A   1      41.928  26.129  27.882  1.00  0.00     0.031 A 
ATOM     38  C   UNL A   1      43.282  26.515  27.354  1.00  0.00     0.074 A 
ATOM     39  C   UNL A   1      41.214  27.006  28.615  1.00  0.00     0.049 A 
ATOM     40  N   UNL A   1      43.924  27.651  27.470  1.00  0.00    -0.248 NA
ATOM     41  C   UNL A   1      44.027  25.478  26.623  1.00  0.00     0.031 C 
ATOM     42  C   UNL A   1      39.920  26.729  29.242  1.00  0.00     0.029 A 
ATOM     43  N   UNL A   1      41.476  28.308  28.961  1.00  0.00    -0.354 N 
ATOM     44  C   UNL A   1      45.147  27.458  26.841  1.00  0.00     0.074 A 
ATOM     45  C   UNL A   1      45.185  26.081  26.402  1.00  0.00     0.031 C 
ATOM     46  C   UNL A   1      39.486  27.837  29.864  1.00  0.00     0.029 A 
ATOM     47  C   UNL A   1      40.481  28.892  29.706  1.00  0.00     0.049 A 
ATOM     48  H   UNL A   1      42.300  28.780  28.698  1.00  0.00     0.167 HD
ATOM     49  C   UNL A   1      46.135  28.357  26.621  1.00  0.00     0.037 A 
ATOM     50  C   UNL A   1      40.381  30.143  30.197  1.00  0.00     0.037 A 
ATOM     51  C   UNL A   1      46.083  29.734  27.034  1.00  0.00     0.049 A 
ATOM     52  C   UNL A   1      41.482  31.130  29.913  1.00  0.00     0.074 A 
ATOM     53  C   UNL A   1      47.006  30.739  26.812  1.00  0.00     0.029 A 
ATOM     54  N   UNL A   1      45.040  30.300  27.754  1.00  0.00    -0.354 N 
ATOM     55  N   UNL A   1      42.598  30.959  29.249  1.00  0.00    -0.248 NA
ATOM     56  C   UNL A   1      41.297  32.491  30.435  1.00  0.00     0.031 C 
ATOM     57  C   UNL A   1      46.542  31.904  27.432  1.00  0.00     0.029 A 
ATOM     58  C   UNL A   1      45.305  31.638  27.997  1.00  0.00     0.049 A 
ATOM     59  H   UNL A   1      44.233  29.821  28.050  1.00  0.00     0.167 HD
ATOM     60  C   UNL A   1      43.234  32.192  29.245  1.00  0.00     0.074 A 
ATOM     61  C   UNL A   1      42.369  33.108  29.959  1.00  0.00     0.031 C 
ATOM     62  C   UNL A   1      44.426  32.537  28.700  1.00  0.00     0.037 A 
BRANCH  49  63
ATOM     63  C   UNL A   1      47.355  27.875  25.889  1.00  0.00     0.064 A 
ATOM     64  C   UNL A   1      47.388  27.804  24.487  1.00  0.00     0.173 A 
ATOM     65  C   UNL A   1      48.509  27.502  26.592  1.00  0.00     0.173 A 
ATOM     66  F   UNL A   1      46.306  28.135  23.768  1.00  0.00    -0.203 F 
ATOM     67  C   UNL A   1      48.520  27.344  23.819  1.00  0.00     0.198 A 
ATOM     68  C   UNL A   1      49.651  27.072  25.919  1.00  0.00     0.198 A 
ATOM     69  F   UNL A   1      48.532  27.555  27.932  1.00  0.00    -0.203 F 
ATOM     70  F   UNL A   1      48.509  27.231  22.483  1.00  0.00    -0.200 F 
ATOM     71  C   UNL A   1      49.653  26.986  24.534  1.00  0.00     0.200 A 
ATOM     72  F   UNL A   1      50.749  26.737  26.611  1.00  0.00    -0.200 F 
ATOM     73  F   UNL A   1      50.743  26.547  23.891  1.00  0.00    -0.200 F 
ENDBRANCH  49  63
BRANCH  50  74
ATOM     74  C   UNL A   1      39.174  30.547  30.964  1.00  0.00     0.064 A 
ATOM     75  C   UNL A   1      38.058  31.090  30.313  1.00  0.00     0.173 A 
ATOM     76  C   UNL A   1      39.113  30.410  32.358  1.00  0.00     0.173 A 
ATOM     77  F   UNL A   1      38.075  31.258  28.982  1.00  0.00    -0.203 F 
ATOM     78  C   UNL A   1      36.936  31.503  31.028  1.00  0.00     0.198 A 
ATOM     79  C   UNL A   1      37.980  30.798  33.070  1.00  0.00     0.198 A 
ATOM     80  F   UNL A   1      40.152  29.890  33.027  1.00  0.00    -0.203 F 
ATOM     81  F   UNL A   1      35.903  32.064  30.384  1.00  0.00    -0.200 F 
ATOM     82  C   UNL A   1      36.896  31.354  32.406  1.00  0.00     0.200 A 
ATOM     83  F   UNL A   1      37.940  30.638  34.400  1.00  0.00    -0.200 F 
ATOM     84  F   UNL A   1      35.817  31.749  33.094  1.00  0.00    -0.200 F 
ENDBRANCH  50  74
BRANCH  62  85
ATOM     85  C   UNL A   1      44.842  33.974  28.818  1.00  0.00     0.064 A 
ATOM     86  C   UNL A   1      45.621  34.432  29.891  1.00  0.00     0.173 A 
ATOM     87  C   UNL A   1      44.474  34.901  27.830  1.00  0.00     0.173 A 
ATOM     88  F   UNL A   1      45.987  33.589  30.868  1.00  0.00    -0.203 F 
ATOM     89  C   UNL A   1      45.985  35.773  29.989  1.00  0.00     0.198 A 
ATOM     90  C   UNL A   1      44.867  36.233  27.915  1.00  0.00     0.198 A 
ATOM     91  F   UNL A   1      43.737  34.512  26.778  1.00  0.00    -0.203 F 
ATOM     92  F   UNL A   1      46.680  36.200  31.052  1.00  0.00    -0.200 F 
ATOM     93  C   UNL A   1      45.613  36.671  28.999  1.00  0.00     0.200 A 
ATOM     94  F   UNL A   1      44.517  37.096  26.951  1.00  0.00    -0.200 F 
ATOM     95  F   UNL A   1      45.966  37.959  29.095  1.00  0.00    -0.200 F 
ENDBRANCH  62  85
ENDBRANCH  36  37
ENDBRANCH  28  31
ENDBRANCH  26  27
ENDBRANCH   1  26
TORSDOF 13
ENDMDL
MODEL 2
REMARK VINA RESULT:     -12.9      1.888      7.341
REMARK SMILES C[C@@](NC(=O)[C@H]1COc2ccccc21)(C(=O)NCCCNC(=O)c1ccc(-c2c3nc(c(-c4c(F)c(F)c(F)c(F)c4F)c4ccc([nH]4)c(-c4c(F)c(F)c(F)c(F)c4F)c4nc(c(-c5c(F)c(F)c(F)c(F)c5F)c5ccc2[nH]5)C=C4)C=C3)cc1)C(F)(F)F
REMARK SMILES IDX 19 1 18 2 17 3 15 4 16 5 2 7 1 8 3 9 4 10 5 12 6 13 7 14
REMARK SMILES IDX 14 15 8 16 9 17 13 18 10 19 12 20 11 21 87 22 88 23 89 24
REMARK SMILES IDX 90 25 20 26 21 27 22 28 23 30 24 31 25 32 86 33 26 34 85 35
REMARK SMILES IDX 27 36 28 37 29 38 79 39 30 40 84 41 78 42 80 43 31 44 83 45
REMARK SMILES IDX 77 46 76 47 32 49 64 50 44 51 63 52 45 53 48 54 62 55 81 56
REMARK SMILES IDX 46 57 47 58 61 60 82 61 49 62 33 63 34 64 42 65 35 66 36 67
REMARK SMILES IDX 40 68 43 69 37 70 38 71 41 72 39 73 65 74 66 75 74 76 67 77
REMARK SMILES IDX 68 78 72 79 75 80 69 81 70 82 73 83 71 84 50 85 51 86 59 87
REMARK SMILES IDX 52 88 53 89 57 90 60 91 54 92 55 93 58 94 56 95
REMARK H PARENT 17 6 3 11 21 29 80 48 48 59
REMARK Flexibility Score: inf
ROOT
ATOM      1  C   UNL A   1      37.822  20.518  24.982  1.00  0.00     0.042 C 
ENDROOT
BRANCH   1   2
ATOM      2  C   UNL A   1      36.500  21.024  25.533  1.00  0.00     0.117 C 
BRANCH   2   3
ATOM      3  N   UNL A   1      35.359  20.273  25.022  1.00  0.00    -0.354 N 
ATOM      4  C   UNL A   1      34.169  20.700  24.486  1.00  0.00     0.254 C 
ATOM      5  O   UNL A   1      33.350  19.820  24.212  1.00  0.00    -0.272 OA
ATOM      6  H   UNL A   1      35.459  19.294  25.069  1.00  0.00     0.163 HD
BRANCH   4   7
ATOM      7  C   UNL A   1      33.813  22.190  24.471  1.00  0.00     0.212 C 
ATOM      8  C   UNL A   1      32.638  22.290  23.451  1.00  0.00     0.056 C 
BRANCH   7   9
ATOM      9  N   UNL A   1      33.337  22.686  25.807  1.00  0.00    -0.334 N 
ATOM     10  C   UNL A   1      32.532  23.681  26.253  1.00  0.00     0.232 C 
ATOM     11  H   UNL A   1      33.704  22.153  26.549  1.00  0.00     0.164 HD
ATOM     12  O   UNL A   1      32.163  23.498  27.428  1.00  0.00    -0.274 OA
BRANCH  10  13
ATOM     13  C   UNL A   1      32.151  25.015  25.622  1.00  0.00     0.150 C 
ATOM     14  C   UNL A   1      30.637  25.254  25.756  1.00  0.00     0.248 C 
ATOM     15  C   UNL A   1      32.613  26.328  26.118  1.00  0.00     0.010 A 
ATOM     16  O   UNL A   1      30.406  26.259  26.778  1.00  0.00    -0.492 OA
ATOM     17  C   UNL A   1      31.577  26.974  26.775  1.00  0.00     0.123 A 
ATOM     18  C   UNL A   1      33.810  26.987  25.900  1.00  0.00     0.008 A 
ATOM     19  C   UNL A   1      31.735  28.217  27.356  1.00  0.00     0.047 A 
ATOM     20  C   UNL A   1      34.001  28.241  26.484  1.00  0.00     0.001 A 
ATOM     21  C   UNL A   1      32.974  28.846  27.223  1.00  0.00     0.004 A 
ENDBRANCH  10  13
ENDBRANCH   7   9
BRANCH   7  22
ATOM     22  C   UNL A   1      34.926  23.063  23.847  1.00  0.00     0.420 C 
ATOM     23  F   UNL A   1      35.686  22.417  22.939  1.00  0.00    -0.168 F 
ATOM     24  F   UNL A   1      34.351  24.105  23.175  1.00  0.00    -0.168 F 
ATOM     25  F   UNL A   1      35.739  23.638  24.748  1.00  0.00    -0.168 F 
ENDBRANCH   7  22
ENDBRANCH   4   7
ENDBRANCH   2   3
ENDBRANCH   1   2
BRANCH   1  26
ATOM     26  C   UNL A   1      38.975  20.656  25.964  1.00  0.00     0.118 C 
BRANCH  26  27
ATOM     27  N   UNL A   1      39.922  19.552  25.900  1.00  0.00    -0.352 N 
ATOM     28  C   UNL A   1      41.289  19.566  26.081  1.00  0.00     0.251 C 
ATOM     29  H   UNL A   1      39.531  18.672  25.698  1.00  0.00     0.163 HD
ATOM     30  O   UNL A   1      41.956  18.568  25.880  1.00  0.00    -0.269 OA
BRANCH  28  31
ATOM     31  C   UNL A   1      41.942  20.831  26.489  1.00  0.00     0.039 A 
ATOM     32  C   UNL A   1      42.329  21.740  25.503  1.00  0.00     0.014 A 
ATOM     33  C   UNL A   1      42.122  21.136  27.840  1.00  0.00     0.014 A 
ATOM     34  C   UNL A   1      42.821  22.992  25.878  1.00  0.00     0.010 A 
ATOM     35  C   UNL A   1      42.522  22.415  28.211  1.00  0.00     0.010 A 
ATOM     36  C   UNL A   1      42.879  23.355  27.234  1.00  0.00    -0.014 A 
BRANCH  36  37
ATOM     37  C   UNL A   1      43.319  24.712  27.644  1.00  0.00     0.031 A 
ATOM     38  C   UNL A   1      42.301  25.765  27.984  1.00  0.00     0.074 A 
ATOM     39  C   UNL A   1      44.632  25.014  27.657  1.00  0.00     0.049 A 
ATOM     40  N   UNL A   1      42.485  27.010  28.344  1.00  0.00    -0.248 NA
ATOM     41  C   UNL A   1      40.886  25.376  27.877  1.00  0.00     0.031 C 
ATOM     42  C   UNL A   1      45.714  24.101  27.279  1.00  0.00     0.029 A 
ATOM     43  N   UNL A   1      45.282  26.173  27.999  1.00  0.00    -0.354 N 
ATOM     44  C   UNL A   1      41.215  27.552  28.492  1.00  0.00     0.074 A 
ATOM     45  C   UNL A   1      40.270  26.521  28.121  1.00  0.00     0.031 C 
ATOM     46  C   UNL A   1      46.892  24.724  27.444  1.00  0.00     0.029 A 
ATOM     47  C   UNL A   1      46.650  26.085  27.911  1.00  0.00     0.049 A 
ATOM     48  H   UNL A   1      44.812  26.991  28.281  1.00  0.00     0.167 HD
ATOM     49  C   UNL A   1      40.867  28.785  28.927  1.00  0.00     0.037 A 
ATOM     50  C   UNL A   1      47.600  27.000  28.185  1.00  0.00     0.037 A 
ATOM     51  C   UNL A   1      41.808  29.799  29.322  1.00  0.00     0.049 A 
ATOM     52  C   UNL A   1      47.187  28.354  28.695  1.00  0.00     0.074 A 
ATOM     53  C   UNL A   1      41.559  31.061  29.829  1.00  0.00     0.029 A 
ATOM     54  N   UNL A   1      43.187  29.660  29.255  1.00  0.00    -0.354 N 
ATOM     55  N   UNL A   1      45.984  28.828  28.906  1.00  0.00    -0.248 NA
ATOM     56  C   UNL A   1      48.268  29.295  29.020  1.00  0.00     0.031 C 
ATOM     57  C   UNL A   1      42.786  31.701  30.032  1.00  0.00     0.029 A 
ATOM     58  C   UNL A   1      43.801  30.820  29.700  1.00  0.00     0.049 A 
ATOM     59  H   UNL A   1      43.659  28.857  28.938  1.00  0.00     0.167 HD
ATOM     60  C   UNL A   1      46.161  30.107  29.418  1.00  0.00     0.074 A 
ATOM     61  C   UNL A   1      47.590  30.327  29.500  1.00  0.00     0.031 C 
ATOM     62  C   UNL A   1      45.226  31.016  29.786  1.00  0.00     0.037 A 
BRANCH  49  63
ATOM     63  C   UNL A   1      39.401  29.099  29.010  1.00  0.00     0.064 A 
ATOM     64  C   UNL A   1      38.660  29.453  27.871  1.00  0.00     0.173 A 
ATOM     65  C   UNL A   1      38.723  29.027  30.235  1.00  0.00     0.173 A 
ATOM     66  F   UNL A   1      39.264  29.551  26.677  1.00  0.00    -0.203 F 
ATOM     67  C   UNL A   1      37.303  29.754  27.961  1.00  0.00     0.198 A 
ATOM     68  C   UNL A   1      37.358  29.298  30.317  1.00  0.00     0.198 A 
ATOM     69  F   UNL A   1      39.381  28.690  31.354  1.00  0.00    -0.203 F 
ATOM     70  F   UNL A   1      36.631  30.144  26.869  1.00  0.00    -0.200 F 
ATOM     71  C   UNL A   1      36.652  29.669  29.183  1.00  0.00     0.200 A 
ATOM     72  F   UNL A   1      36.728  29.205  31.496  1.00  0.00    -0.200 F 
ATOM     73  F   UNL A   1      35.347  29.956  29.268  1.00  0.00    -0.200 F 
ENDBRANCH  49  63
BRANCH  50  74
ATOM     74  C   UNL A   1      49.037  26.650  28.031  1.00  0.00     0.064 A 
ATOM     75  C   UNL A   1      49.816  26.306  29.144  1.00  0.00     0.173 A 
ATOM     76  C   UNL A   1      49.662  26.662  26.776  1.00  0.00     0.173 A 
ATOM     77  F   UNL A   1      49.267  26.298  30.368  1.00  0.00    -0.203 F 
ATOM     78  C   UNL A   1      51.170  26.010  29.013  1.00  0.00     0.198 A 
ATOM     79  C   UNL A   1      51.011  26.339  26.641  1.00  0.00     0.198 A 
ATOM     80  F   UNL A   1      48.959  26.978  25.678  1.00  0.00    -0.203 F 
ATOM     81  F   UNL A   1      51.902  25.732  30.101  1.00  0.00    -0.200 F 
ATOM     82  C   UNL A   1      51.767  26.023  27.761  1.00  0.00     0.200 A 
ATOM     83  F   UNL A   1      51.580  26.338  25.428  1.00  0.00    -0.200 F 
ATOM     84  F   UNL A   1      53.069  25.736  27.634  1.00  0.00    -0.200 F 
ENDBRANCH  50  74
BRANCH  62  85
ATOM     85  C   UNL A   1      45.721  32.315  30.352  1.00  0.00     0.064 A 
ATOM     86  C   UNL A   1      45.967  32.477  31.724  1.00  0.00     0.173 A 
ATOM     87  C   UNL A   1      45.974  33.406  29.505  1.00  0.00     0.173 A 
ATOM     88  F   UNL A   1      45.728  31.469  32.576  1.00  0.00    -0.203 F 
ATOM     89  C   UNL A   1      46.414  33.695  32.231  1.00  0.00     0.198 A 
ATOM     90  C   UNL A   1      46.451  34.610  30.012  1.00  0.00     0.198 A 
ATOM     91  F   UNL A   1      45.764  33.299  28.185  1.00  0.00    -0.203 F 
ATOM     92  F   UNL A   1      46.587  33.845  33.551  1.00  0.00    -0.200 F 
ATOM     93  C   UNL A   1      46.661  34.758  31.375  1.00  0.00     0.200 A 
ATOM     94  F   UNL A   1      46.702  35.633  29.182  1.00  0.00    -0.200 F 
ATOM     95  F   UNL A   1      47.092  35.928  31.865  1.00  0.00    -0.200 F 
ENDBRANCH  62  85
ENDBRANCH  36  37
ENDBRANCH  28  31
ENDBRANCH  26  27
ENDBRANCH   1  26
TORSDOF 13
ENDMDL
MODEL 3
REMARK VINA RESULT:     -12.9      4.299      9.757
REMARK SMILES C[C@@](NC(=O)[C@H]1COc2ccccc21)(C(=O)NCCCNC(=O)c1ccc(-c2c3nc(c(-c4c(F)c(F)c(F)c(F)c4F)c4ccc([nH]4)c(-c4c(F)c(F)c(F)c(F)c4F)c4nc(c(-c5c(F)c(F)c(F)c(F)c5F)c5ccc2[nH]5)C=C4)C=C3)cc1)C(F)(F)F
REMARK SMILES IDX 19 1 18 2 17 3 15 4 16 5 2 7 1 8 3 9 4 10 5 12 6 13 7 14
REMARK SMILES IDX 14 15 8 16 9 17 13 18 10 19 12 20 11 21 87 22 88 23 89 24
REMARK SMILES IDX 90 25 20 26 21 27 22 28 23 30 24 31 25 32 86 33 26 34 85 35
REMARK SMILES IDX 27 36 28 37 29 38 79 39 30 40 84 41 78 42 80 43 31 44 83 45
REMARK SMILES IDX 77 46 76 47 32 49 64 50 44 51 63 52 45 53 48 54 62 55 81 56
REMARK SMILES IDX 46 57 47 58 61 60 82 61 49 62 33 63 34 64 42 65 35 66 36 67
REMARK SMILES IDX 40 68 43 69 37 70 38 71 41 72 39 73 65 74 66 75 74 76 67 77
REMARK SMILES IDX 68 78 72 79 75 80 69 81 70 82 73 83 71 84 50 85 51 86 59 87
REMARK SMILES IDX 52 88 53 89 57 90 60 91 54 92 55 93 58 94 56 95
REMARK H PARENT 17 6 3 11 21 29 80 48 48 59
REMARK Flexibility Score: inf
ROOT
ATOM      1  C   UNL A   1      31.966  28.564  24.899  1.00  0.00     0.042 C 
ENDROOT
BRANCH   1   2
ATOM      2  C   UNL A   1      32.444  27.507  23.919  1.00  0.00     0.117 C 
BRANCH   2   3
ATOM      3  N   UNL A   1      31.374  26.608  23.502  1.00  0.00    -0.354 N 
ATOM      4  C   UNL A   1      31.136  25.290  23.809  1.00  0.00     0.254 C 
ATOM      5  O   UNL A   1      30.183  24.762  23.234  1.00  0.00    -0.272 OA
ATOM      6  H   UNL A   1      30.710  27.014  22.900  1.00  0.00     0.163 HD
BRANCH   4   7
ATOM      7  C   UNL A   1      32.153  24.487  24.627  1.00  0.00     0.212 C 
ATOM      8  C   UNL A   1      31.533  23.058  24.704  1.00  0.00     0.056 C 
BRANCH   7   9
ATOM      9  N   UNL A   1      33.494  24.395  23.955  1.00  0.00    -0.334 N 
ATOM     10  C   UNL A   1      34.644  23.707  24.152  1.00  0.00     0.232 C 
ATOM     11  H   UNL A   1      33.553  24.988  23.171  1.00  0.00     0.164 HD
ATOM     12  O   UNL A   1      35.372  23.705  23.143  1.00  0.00    -0.274 OA
BRANCH  10  13
ATOM     13  C   UNL A   1      35.235  23.093  25.417  1.00  0.00     0.150 C 
ATOM     14  C   UNL A   1      34.999  21.573  25.431  1.00  0.00     0.248 C 
ATOM     15  C   UNL A   1      36.679  23.083  25.736  1.00  0.00     0.010 A 
ATOM     16  O   UNL A   1      36.252  20.898  25.138  1.00  0.00    -0.492 OA
ATOM     17  C   UNL A   1      37.193  21.810  25.543  1.00  0.00     0.123 A 
ATOM     18  C   UNL A   1      37.472  24.073  26.288  1.00  0.00     0.008 A 
ATOM     19  C   UNL A   1      38.526  21.515  25.751  1.00  0.00     0.047 A 
ATOM     20  C   UNL A   1      38.825  23.806  26.500  1.00  0.00     0.001 A 
ATOM     21  C   UNL A   1      39.355  22.538  26.216  1.00  0.00     0.004 A 
ENDBRANCH  10  13
ENDBRANCH   7   9
BRANCH   7  22
ATOM     22  C   UNL A   1      32.229  24.944  26.101  1.00  0.00     0.420 C 
ATOM     23  F   UNL A   1      32.377  23.933  26.982  1.00  0.00    -0.168 F 
ATOM     24  F   UNL A   1      33.326  25.743  26.264  1.00  0.00    -0.168 F 
ATOM     25  F   UNL A   1      31.190  25.698  26.493  1.00  0.00    -0.168 F 
ENDBRANCH   7  22
ENDBRANCH   4   7
ENDBRANCH   2   3
ENDBRANCH   1   2
BRANCH   1  26
ATOM     26  C   UNL A   1      33.102  29.335  25.554  1.00  0.00     0.118 C 
BRANCH  26  27
ATOM     27  N   UNL A   1      32.686  30.618  26.102  1.00  0.00    -0.352 N 
ATOM     28  C   UNL A   1      33.289  31.384  27.077  1.00  0.00     0.251 C 
ATOM     29  H   UNL A   1      31.858  30.991  25.723  1.00  0.00     0.163 HD
ATOM     30  O   UNL A   1      32.749  32.388  27.506  1.00  0.00    -0.269 OA
BRANCH  28  31
ATOM     31  C   UNL A   1      34.592  30.945  27.626  1.00  0.00     0.039 A 
ATOM     32  C   UNL A   1      35.608  31.888  27.791  1.00  0.00     0.014 A 
ATOM     33  C   UNL A   1      34.788  29.619  28.021  1.00  0.00     0.014 A 
ATOM     34  C   UNL A   1      36.792  31.517  28.432  1.00  0.00     0.010 A 
ATOM     35  C   UNL A   1      35.927  29.276  28.741  1.00  0.00     0.010 A 
ATOM     36  C   UNL A   1      36.942  30.220  28.951  1.00  0.00    -0.014 A 
BRANCH  36  37
ATOM     37  C   UNL A   1      38.160  29.836  29.708  1.00  0.00     0.031 A 
ATOM     38  C   UNL A   1      38.385  30.369  31.096  1.00  0.00     0.074 A 
ATOM     39  C   UNL A   1      39.089  29.051  29.128  1.00  0.00     0.049 A 
ATOM     40  N   UNL A   1      39.391  30.166  31.909  1.00  0.00    -0.248 NA
ATOM     41  C   UNL A   1      37.356  31.276  31.631  1.00  0.00     0.031 C 
ATOM     42  C   UNL A   1      39.020  28.528  27.761  1.00  0.00     0.029 A 
ATOM     43  N   UNL A   1      40.275  28.559  29.611  1.00  0.00    -0.354 N 
ATOM     44  C   UNL A   1      39.122  30.927  33.039  1.00  0.00     0.074 A 
ATOM     45  C   UNL A   1      37.894  31.646  32.783  1.00  0.00     0.031 C 
ATOM     46  C   UNL A   1      40.097  27.760  27.530  1.00  0.00     0.029 A 
ATOM     47  C   UNL A   1      40.945  27.759  28.718  1.00  0.00     0.049 A 
ATOM     48  H   UNL A   1      40.613  28.759  30.514  1.00  0.00     0.167 HD
ATOM     49  C   UNL A   1      39.820  30.996  34.197  1.00  0.00     0.037 A 
ATOM     50  C   UNL A   1      42.109  27.094  28.848  1.00  0.00     0.037 A 
ATOM     51  C   UNL A   1      41.027  30.259  34.460  1.00  0.00     0.049 A 
ATOM     52  C   UNL A   1      42.850  27.165  30.157  1.00  0.00     0.074 A 
ATOM     53  C   UNL A   1      41.780  30.216  35.619  1.00  0.00     0.029 A 
ATOM     54  N   UNL A   1      41.656  29.428  33.543  1.00  0.00    -0.354 N 
ATOM     55  N   UNL A   1      42.545  27.825  31.247  1.00  0.00    -0.248 NA
ATOM     56  C   UNL A   1      44.089  26.382  30.256  1.00  0.00     0.031 C 
ATOM     57  C   UNL A   1      42.886  29.391  35.392  1.00  0.00     0.029 A 
ATOM     58  C   UNL A   1      42.796  28.879  34.108  1.00  0.00     0.049 A 
ATOM     59  H   UNL A   1      41.340  29.256  32.627  1.00  0.00     0.167 HD
ATOM     60  C   UNL A   1      43.533  27.515  32.171  1.00  0.00     0.074 A 
ATOM     61  C   UNL A   1      44.439  26.593  31.517  1.00  0.00     0.031 C 
ATOM     62  C   UNL A   1      43.679  27.954  33.445  1.00  0.00     0.037 A 
BRANCH  49  63
ATOM     63  C   UNL A   1      39.282  31.895  35.273  1.00  0.00     0.064 A 
ATOM     64  C   UNL A   1      39.565  33.270  35.291  1.00  0.00     0.173 A 
ATOM     65  C   UNL A   1      38.458  31.383  36.286  1.00  0.00     0.173 A 
ATOM     66  F   UNL A   1      40.360  33.808  34.353  1.00  0.00    -0.203 F 
ATOM     67  C   UNL A   1      39.071  34.092  36.301  1.00  0.00     0.198 A 
ATOM     68  C   UNL A   1      37.940  32.214  37.277  1.00  0.00     0.198 A 
ATOM     69  F   UNL A   1      38.152  30.077  36.314  1.00  0.00    -0.203 F 
ATOM     70  F   UNL A   1      39.402  35.391  36.327  1.00  0.00    -0.200 F 
ATOM     71  C   UNL A   1      38.253  33.565  37.288  1.00  0.00     0.200 A 
ATOM     72  F   UNL A   1      37.140  31.706  38.225  1.00  0.00    -0.200 F 
ATOM     73  F   UNL A   1      37.776  34.357  38.257  1.00  0.00    -0.200 F 
ENDBRANCH  49  63
BRANCH  50  74
ATOM     74  C   UNL A   1      42.622  26.263  27.728  1.00  0.00     0.064 A 
ATOM     75  C   UNL A   1      42.284  24.906  27.627  1.00  0.00     0.173 A 
ATOM     76  C   UNL A   1      43.463  26.800  26.743  1.00  0.00     0.173 A 
ATOM     77  F   UNL A   1      41.497  24.341  28.555  1.00  0.00    -0.203 F 
ATOM     78  C   UNL A   1      42.787  24.112  26.599  1.00  0.00     0.198 A 
ATOM     79  C   UNL A   1      43.944  26.012  25.699  1.00  0.00     0.198 A 
ATOM     80  F   UNL A   1      43.810  28.095  26.791  1.00  0.00    -0.203 F 
ATOM     81  F   UNL A   1      42.488  22.807  26.555  1.00  0.00    -0.200 F 
ATOM     82  C   UNL A   1      43.614  24.666  25.633  1.00  0.00     0.200 A 
ATOM     83  F   UNL A   1      44.730  26.555  24.760  1.00  0.00    -0.200 F 
ATOM     84  F   UNL A   1      44.097  23.904  24.644  1.00  0.00    -0.200 F 
ENDBRANCH  50  74
BRANCH  62  85
ATOM     85  C   UNL A   1      44.836  27.406  34.229  1.00  0.00     0.064 A 
ATOM     86  C   UNL A   1      44.730  26.222  34.974  1.00  0.00     0.173 A 
ATOM     87  C   UNL A   1      46.076  28.065  34.214  1.00  0.00     0.173 A 
ATOM     88  F   UNL A   1      43.563  25.563  35.031  1.00  0.00    -0.203 F 
ATOM     89  C   UNL A   1      45.812  25.738  35.705  1.00  0.00     0.198 A 
ATOM     90  C   UNL A   1      47.163  27.561  34.920  1.00  0.00     0.198 A 
ATOM     91  F   UNL A   1      46.232  29.196  33.510  1.00  0.00    -0.203 F 
ATOM     92  F   UNL A   1      45.671  24.637  36.456  1.00  0.00    -0.200 F 
ATOM     93  C   UNL A   1      47.028  26.404  35.673  1.00  0.00     0.200 A 
ATOM     94  F   UNL A   1      48.341  28.198  34.878  1.00  0.00    -0.200 F 
ATOM     95  F   UNL A   1      48.068  25.935  36.376  1.00  0.00    -0.200 F 
ENDBRANCH  62  85
ENDBRANCH  36  37
ENDBRANCH  28  31
ENDBRANCH  26  27
ENDBRANCH   1  26
TORSDOF 13
ENDMDL
