MODEL 1
REMARK VINA RESULT:     -12.8      0.000      0.000
REMARK SMILES Cc1ccc(NC(=O)C[C@@H](C(=O)NCCCNC(=O)c2ccc(-c3c4nc(c(-c5c(F)c(F)c(F)c(F)c5F)c5ccc([nH]5)c(-c5c(F)c(F)c(F)c(F)c5F)c5nc(c(-c6c(F)c(F)c(F)c(F)c6F)c6ccc3[nH]6)C=C5)C=C4)cc2)[C@@H](C)c2ccccc2)cc1Br
REMARK SMILES IDX 14 1 13 2 11 3 12 4 10 6 9 7 7 8 6 9 8 11 5 12 1 13 2 14
REMARK SMILES IDX 3 15 92 16 4 17 91 18 93 19 83 20 84 21 85 22 86 23 90 24
REMARK SMILES IDX 87 25 89 26 88 27 15 28 16 29 17 30 18 31 19 33 20 34 21 35
REMARK SMILES IDX 82 36 22 37 81 38 23 39 24 40 25 41 75 42 26 43 80 44 74 45
REMARK SMILES IDX 76 46 27 47 79 48 73 49 72 50 28 52 60 53 40 54 59 55 41 56
REMARK SMILES IDX 44 57 58 58 77 59 42 60 43 61 57 63 78 64 45 65 29 66 30 67
REMARK SMILES IDX 38 68 31 69 32 70 36 71 39 72 33 73 34 74 37 75 35 76 61 77
REMARK SMILES IDX 62 78 70 79 63 80 64 81 68 82 71 83 65 84 66 85 69 86 67 87
REMARK SMILES IDX 46 88 47 89 55 90 48 91 49 92 53 93 56 94 50 95 51 96 54 97
REMARK SMILES IDX 52 98
REMARK H PARENT 13 5 6 10 17 32 76 51 44 62
REMARK Flexibility Score: inf
ROOT
ATOM      1  C   UNL A   1      34.142  28.724  23.170  1.00  0.00     0.117 C 
ENDROOT
BRANCH   1   2
ATOM      2  N   UNL A   1      33.822  27.805  22.094  1.00  0.00    -0.356 N 
ATOM      3  C   UNL A   1      33.334  26.541  22.033  1.00  0.00     0.224 C 
ATOM      4  O   UNL A   1      33.207  26.102  20.889  1.00  0.00    -0.275 OA
ATOM      5  H   UNL A   1      33.999  28.187  21.203  1.00  0.00     0.163 HD
BRANCH   3   6
ATOM      6  C   UNL A   1      32.983  25.719  23.276  1.00  0.00     0.095 C 
BRANCH   6   7
ATOM      7  C   UNL A   1      31.670  26.148  23.984  1.00  0.00     0.114 C 
BRANCH   7   8
ATOM      8  C   UNL A   1      30.427  25.290  23.981  1.00  0.00     0.225 C 
ATOM      9  N   UNL A   1      30.430  23.939  24.139  1.00  0.00    -0.326 N 
ATOM     10  H   UNL A   1      29.533  23.534  24.111  1.00  0.00     0.169 HD
ATOM     11  O   UNL A   1      29.327  25.840  23.837  1.00  0.00    -0.275 OA
BRANCH   9  12
ATOM     12  C   UNL A   1      31.464  23.012  24.335  1.00  0.00     0.042 A 
ATOM     13  C   UNL A   1      33.961  19.529  24.797  1.00  0.00     0.045 C 
ATOM     14  C   UNL A   1      33.201  20.813  24.630  1.00  0.00    -0.037 A 
ATOM     15  C   UNL A   1      32.648  21.124  23.382  1.00  0.00     0.007 A 
ATOM     16  C   UNL A   1      32.974  21.698  25.695  1.00  0.00     0.022 A 
ATOM     17  C   UNL A   1      31.815  22.233  23.229  1.00  0.00     0.026 A 
ATOM     18  C   UNL A   1      32.109  22.791  25.547  1.00  0.00     0.042 A 
ATOM     19  Br  UNL A   1      33.786  21.447  27.395  1.00  0.00    -0.050 Br
ENDBRANCH   9  12
ENDBRANCH   7   8
ENDBRANCH   6   7
BRANCH   6  20
ATOM     20  C   UNL A   1      34.126  25.713  24.374  1.00  0.00     0.029 C 
ATOM     21  C   UNL A   1      33.552  26.041  25.775  1.00  0.00     0.013 C 
BRANCH  20  22
ATOM     22  C   UNL A   1      35.041  24.490  24.471  1.00  0.00    -0.044 A 
ATOM     23  C   UNL A   1      35.779  24.167  25.619  1.00  0.00     0.004 A 
ATOM     24  C   UNL A   1      35.257  23.710  23.320  1.00  0.00     0.004 A 
ATOM     25  C   UNL A   1      36.714  23.124  25.601  1.00  0.00     0.000 A 
ATOM     26  C   UNL A   1      36.164  22.648  23.309  1.00  0.00     0.000 A 
ATOM     27  C   UNL A   1      36.903  22.364  24.449  1.00  0.00     0.000 A 
ENDBRANCH  20  22
ENDBRANCH   6  20
ENDBRANCH   3   6
ENDBRANCH   1   2
BRANCH   1  28
ATOM     28  C   UNL A   1      32.904  29.312  23.869  1.00  0.00     0.042 C 
BRANCH  28  29
ATOM     29  C   UNL A   1      32.946  29.434  25.393  1.00  0.00     0.118 C 
BRANCH  29  30
ATOM     30  N   UNL A   1      32.552  30.742  25.885  1.00  0.00    -0.352 N 
ATOM     31  C   UNL A   1      33.082  31.495  26.902  1.00  0.00     0.251 C 
ATOM     32  H   UNL A   1      31.788  31.152  25.418  1.00  0.00     0.163 HD
ATOM     33  O   UNL A   1      32.512  32.537  27.239  1.00  0.00    -0.269 OA
BRANCH  31  34
ATOM     34  C   UNL A   1      34.306  31.082  27.632  1.00  0.00     0.039 A 
ATOM     35  C   UNL A   1      35.271  32.057  27.907  1.00  0.00     0.014 A 
ATOM     36  C   UNL A   1      34.555  29.750  27.983  1.00  0.00     0.014 A 
ATOM     37  C   UNL A   1      36.454  31.712  28.568  1.00  0.00     0.010 A 
ATOM     38  C   UNL A   1      35.716  29.416  28.693  1.00  0.00     0.010 A 
ATOM     39  C   UNL A   1      36.683  30.391  28.987  1.00  0.00    -0.014 A 
BRANCH  39  40
ATOM     40  C   UNL A   1      37.929  30.039  29.722  1.00  0.00     0.031 A 
ATOM     41  C   UNL A   1      38.173  30.547  31.118  1.00  0.00     0.074 A 
ATOM     42  C   UNL A   1      38.860  29.264  29.131  1.00  0.00     0.049 A 
ATOM     43  N   UNL A   1      39.195  30.334  31.911  1.00  0.00    -0.248 NA
ATOM     44  C   UNL A   1      37.142  31.424  31.693  1.00  0.00     0.031 C 
ATOM     45  C   UNL A   1      38.773  28.731  27.770  1.00  0.00     0.029 A 
ATOM     46  N   UNL A   1      40.062  28.789  29.597  1.00  0.00    -0.354 N 
ATOM     47  C   UNL A   1      38.936  31.055  33.070  1.00  0.00     0.074 A 
ATOM     48  C   UNL A   1      37.680  31.746  32.860  1.00  0.00     0.031 C 
ATOM     49  C   UNL A   1      39.862  27.987  27.520  1.00  0.00     0.029 A 
ATOM     50  C   UNL A   1      40.738  28.010  28.689  1.00  0.00     0.049 A 
ATOM     51  H   UNL A   1      40.408  28.989  30.497  1.00  0.00     0.167 HD
ATOM     52  C   UNL A   1      39.664  31.120  34.210  1.00  0.00     0.037 A 
ATOM     53  C   UNL A   1      41.926  27.382  28.785  1.00  0.00     0.037 A 
ATOM     54  C   UNL A   1      40.898  30.412  34.437  1.00  0.00     0.049 A 
ATOM     55  C   UNL A   1      42.712  27.466  30.064  1.00  0.00     0.074 A 
ATOM     56  C   UNL A   1      41.668  30.367  35.589  1.00  0.00     0.029 A 
ATOM     57  N   UNL A   1      41.544  29.628  33.495  1.00  0.00    -0.354 N 
ATOM     58  N   UNL A   1      42.419  28.093  31.176  1.00  0.00    -0.248 NA
ATOM     59  C   UNL A   1      43.995  26.745  30.104  1.00  0.00     0.031 C 
ATOM     60  C   UNL A   1      42.801  29.589  35.328  1.00  0.00     0.029 A 
ATOM     61  C   UNL A   1      42.715  29.113  34.031  1.00  0.00     0.049 A 
ATOM     62  H   UNL A   1      41.221  29.460  32.581  1.00  0.00     0.167 HD
ATOM     63  C   UNL A   1      43.462  27.826  32.052  1.00  0.00     0.074 A 
ATOM     64  C   UNL A   1      44.391  26.966  31.350  1.00  0.00     0.031 C 
ATOM     65  C   UNL A   1      43.633  28.256  33.327  1.00  0.00     0.037 A 
BRANCH  52  66
ATOM     66  C   UNL A   1      39.144  31.990  35.318  1.00  0.00     0.064 A 
ATOM     67  C   UNL A   1      38.382  31.463  36.371  1.00  0.00     0.173 A 
ATOM     68  C   UNL A   1      39.455  33.358  35.354  1.00  0.00     0.173 A 
ATOM     69  F   UNL A   1      38.053  30.162  36.379  1.00  0.00    -0.203 F 
ATOM     70  C   UNL A   1      37.929  32.277  37.406  1.00  0.00     0.198 A 
ATOM     71  C   UNL A   1      39.022  34.164  36.404  1.00  0.00     0.198 A 
ATOM     72  F   UNL A   1      40.187  33.911  34.375  1.00  0.00    -0.203 F 
ATOM     73  F   UNL A   1      37.169  31.758  38.380  1.00  0.00    -0.200 F 
ATOM     74  C   UNL A   1      38.255  33.624  37.425  1.00  0.00     0.200 A 
ATOM     75  F   UNL A   1      39.349  35.463  36.428  1.00  0.00    -0.200 F 
ATOM     76  F   UNL A   1      37.825  34.405  38.426  1.00  0.00    -0.200 F 
ENDBRANCH  52  66
BRANCH  53  77
ATOM     77  C   UNL A   1      42.436  26.591  27.636  1.00  0.00     0.064 A 
ATOM     78  C   UNL A   1      43.365  27.137  26.741  1.00  0.00     0.173 A 
ATOM     79  C   UNL A   1      42.003  25.276  27.408  1.00  0.00     0.173 A 
ATOM     80  F   UNL A   1      43.788  28.399  26.905  1.00  0.00    -0.203 F 
ATOM     81  C   UNL A   1      43.832  26.404  25.652  1.00  0.00     0.198 A 
ATOM     82  C   UNL A   1      42.489  24.535  26.334  1.00  0.00     0.198 A 
ATOM     83  F   UNL A   1      41.114  24.709  28.237  1.00  0.00    -0.203 F 
ATOM     84  F   UNL A   1      44.690  26.965  24.789  1.00  0.00    -0.200 F 
ATOM     85  C   UNL A   1      43.399  25.102  25.453  1.00  0.00     0.200 A 
ATOM     86  F   UNL A   1      42.077  23.274  26.150  1.00  0.00    -0.200 F 
ATOM     87  F   UNL A   1      43.852  24.396  24.408  1.00  0.00    -0.200 F 
ENDBRANCH  53  77
BRANCH  65  88
ATOM     88  C   UNL A   1      44.857  27.785  34.057  1.00  0.00     0.064 A 
ATOM     89  C   UNL A   1      46.044  28.533  34.058  1.00  0.00     0.173 A 
ATOM     90  C   UNL A   1      44.830  26.594  34.797  1.00  0.00     0.173 A 
ATOM     91  F   UNL A   1      46.126  29.671  33.352  1.00  0.00    -0.203 F 
ATOM     92  C   UNL A   1      47.166  28.093  34.757  1.00  0.00     0.198 A 
ATOM     93  C   UNL A   1      45.945  26.171  35.516  1.00  0.00     0.198 A 
ATOM     94  F   UNL A   1      43.718  25.846  34.833  1.00  0.00    -0.203 F 
ATOM     95  F   UNL A   1      48.302  28.803  34.710  1.00  0.00    -0.200 F 
ATOM     96  C   UNL A   1      47.113  26.918  35.489  1.00  0.00     0.200 A 
ATOM     97  F   UNL A   1      45.890  25.040  36.232  1.00  0.00    -0.200 F 
ATOM     98  F   UNL A   1      48.192  26.500  36.167  1.00  0.00    -0.200 F 
ENDBRANCH  65  88
ENDBRANCH  39  40
ENDBRANCH  31  34
ENDBRANCH  29  30
ENDBRANCH  28  29
ENDBRANCH   1  28
TORSDOF 15
ENDMDL
MODEL 2
REMARK VINA RESULT:     -12.5      0.439      7.243
REMARK SMILES Cc1ccc(NC(=O)C[C@@H](C(=O)NCCCNC(=O)c2ccc(-c3c4nc(c(-c5c(F)c(F)c(F)c(F)c5F)c5ccc([nH]5)c(-c5c(F)c(F)c(F)c(F)c5F)c5nc(c(-c6c(F)c(F)c(F)c(F)c6F)c6ccc3[nH]6)C=C5)C=C4)cc2)[C@@H](C)c2ccccc2)cc1Br
REMARK SMILES IDX 14 1 13 2 11 3 12 4 10 6 9 7 7 8 6 9 8 11 5 12 1 13 2 14
REMARK SMILES IDX 3 15 92 16 4 17 91 18 93 19 83 20 84 21 85 22 86 23 90 24
REMARK SMILES IDX 87 25 89 26 88 27 15 28 16 29 17 30 18 31 19 33 20 34 21 35
REMARK SMILES IDX 82 36 22 37 81 38 23 39 24 40 25 41 75 42 26 43 80 44 74 45
REMARK SMILES IDX 76 46 27 47 79 48 73 49 72 50 28 52 60 53 40 54 59 55 41 56
REMARK SMILES IDX 44 57 58 58 77 59 42 60 43 61 57 63 78 64 45 65 29 66 30 67
REMARK SMILES IDX 38 68 31 69 32 70 36 71 39 72 33 73 34 74 37 75 35 76 61 77
REMARK SMILES IDX 62 78 70 79 63 80 64 81 68 82 71 83 65 84 66 85 69 86 67 87
REMARK SMILES IDX 46 88 47 89 55 90 48 91 49 92 53 93 56 94 50 95 51 96 54 97
REMARK SMILES IDX 52 98
REMARK H PARENT 13 5 6 10 17 32 76 51 44 62
REMARK Flexibility Score: inf
ROOT
ATOM      1  C   UNL A   1      34.094  28.739  23.077  1.00  0.00     0.117 C 
ENDROOT
BRANCH   1   2
ATOM      2  N   UNL A   1      33.778  27.798  22.020  1.00  0.00    -0.356 N 
ATOM      3  C   UNL A   1      33.277  26.537  21.984  1.00  0.00     0.224 C 
ATOM      4  O   UNL A   1      33.161  26.072  20.849  1.00  0.00    -0.275 OA
ATOM      5  H   UNL A   1      33.972  28.155  21.122  1.00  0.00     0.163 HD
BRANCH   3   6
ATOM      6  C   UNL A   1      32.899  25.751  23.241  1.00  0.00     0.095 C 
BRANCH   6   7
ATOM      7  C   UNL A   1      31.584  26.215  23.923  1.00  0.00     0.114 C 
BRANCH   7   8
ATOM      8  C   UNL A   1      30.333  25.369  23.936  1.00  0.00     0.225 C 
ATOM      9  N   UNL A   1      30.325  24.018  24.095  1.00  0.00    -0.326 N 
ATOM     10  H   UNL A   1      29.424  23.622  24.079  1.00  0.00     0.169 HD
ATOM     11  O   UNL A   1      29.237  25.929  23.804  1.00  0.00    -0.275 OA
BRANCH   9  12
ATOM     12  C   UNL A   1      31.352  23.081  24.280  1.00  0.00     0.042 A 
ATOM     13  C   UNL A   1      33.826  19.575  24.693  1.00  0.00     0.045 C 
ATOM     14  C   UNL A   1      33.074  20.867  24.545  1.00  0.00    -0.037 A 
ATOM     15  C   UNL A   1      32.528  21.202  23.300  1.00  0.00     0.007 A 
ATOM     16  C   UNL A   1      32.849  21.736  25.623  1.00  0.00     0.022 A 
ATOM     17  C   UNL A   1      31.702  22.319  23.162  1.00  0.00     0.026 A 
ATOM     18  C   UNL A   1      31.991  22.836  25.490  1.00  0.00     0.042 A 
ATOM     19  Br  UNL A   1      33.653  21.453  27.322  1.00  0.00    -0.050 Br
ENDBRANCH   9  12
ENDBRANCH   7   8
ENDBRANCH   6   7
BRANCH   6  20
ATOM     20  C   UNL A   1      34.028  25.756  24.354  1.00  0.00     0.029 C 
ATOM     21  C   UNL A   1      33.421  25.974  25.762  1.00  0.00     0.013 C 
BRANCH  20  22
ATOM     22  C   UNL A   1      35.015  24.587  24.400  1.00  0.00    -0.044 A 
ATOM     23  C   UNL A   1      35.234  23.718  23.321  1.00  0.00     0.004 A 
ATOM     24  C   UNL A   1      35.650  24.281  25.618  1.00  0.00     0.004 A 
ATOM     25  C   UNL A   1      36.034  22.578  23.469  1.00  0.00     0.000 A 
ATOM     26  C   UNL A   1      36.474  23.163  25.759  1.00  0.00     0.000 A 
ATOM     27  C   UNL A   1      36.655  22.302  24.685  1.00  0.00     0.000 A 
ENDBRANCH  20  22
ENDBRANCH   6  20
ENDBRANCH   3   6
ENDBRANCH   1   2
BRANCH   1  28
ATOM     28  C   UNL A   1      32.854  29.328  23.771  1.00  0.00     0.042 C 
BRANCH  28  29
ATOM     29  C   UNL A   1      32.876  29.421  25.297  1.00  0.00     0.118 C 
BRANCH  29  30
ATOM     30  N   UNL A   1      32.435  30.705  25.811  1.00  0.00    -0.352 N 
ATOM     31  C   UNL A   1      32.901  31.433  26.876  1.00  0.00     0.251 C 
ATOM     32  H   UNL A   1      31.686  31.116  25.320  1.00  0.00     0.163 HD
ATOM     33  O   UNL A   1      32.295  32.454  27.218  1.00  0.00    -0.269 OA
BRANCH  31  34
ATOM     34  C   UNL A   1      34.095  31.017  27.651  1.00  0.00     0.039 A 
ATOM     35  C   UNL A   1      35.045  31.993  27.974  1.00  0.00     0.014 A 
ATOM     36  C   UNL A   1      34.335  29.684  28.001  1.00  0.00     0.014 A 
ATOM     37  C   UNL A   1      36.202  31.646  28.679  1.00  0.00     0.010 A 
ATOM     38  C   UNL A   1      35.467  29.347  28.753  1.00  0.00     0.010 A 
ATOM     39  C   UNL A   1      36.418  30.323  29.095  1.00  0.00    -0.014 A 
BRANCH  39  40
ATOM     40  C   UNL A   1      37.635  29.968  29.877  1.00  0.00     0.031 A 
ATOM     41  C   UNL A   1      38.676  29.041  29.309  1.00  0.00     0.074 A 
ATOM     42  C   UNL A   1      37.806  30.471  31.116  1.00  0.00     0.049 A 
ATOM     43  N   UNL A   1      39.800  28.630  29.843  1.00  0.00    -0.248 NA
ATOM     44  C   UNL A   1      38.411  28.489  27.972  1.00  0.00     0.031 C 
ATOM     45  C   UNL A   1      36.863  31.351  31.807  1.00  0.00     0.029 A 
ATOM     46  N   UNL A   1      38.834  30.315  32.015  1.00  0.00    -0.354 N 
ATOM     47  C   UNL A   1      40.371  27.768  28.914  1.00  0.00     0.074 A 
ATOM     48  C   UNL A   1      39.447  27.681  27.801  1.00  0.00     0.031 C 
ATOM     49  C   UNL A   1      37.364  31.673  33.010  1.00  0.00     0.029 A 
ATOM     50  C   UNL A   1      38.650  31.004  33.189  1.00  0.00     0.049 A 
ATOM     51  H   UNL A   1      39.628  29.761  31.835  1.00  0.00     0.167 HD
ATOM     52  C   UNL A   1      41.561  27.124  28.972  1.00  0.00     0.037 A 
ATOM     53  C   UNL A   1      39.428  31.092  34.286  1.00  0.00     0.037 A 
ATOM     54  C   UNL A   1      42.497  27.229  30.062  1.00  0.00     0.049 A 
ATOM     55  C   UNL A   1      40.747  30.370  34.323  1.00  0.00     0.074 A 
ATOM     56  C   UNL A   1      43.758  26.664  30.174  1.00  0.00     0.029 A 
ATOM     57  N   UNL A   1      42.277  27.943  31.229  1.00  0.00    -0.354 N 
ATOM     58  N   UNL A   1      41.305  29.616  33.409  1.00  0.00    -0.248 NA
ATOM     59  C   UNL A   1      41.551  30.521  35.547  1.00  0.00     0.031 C 
ATOM     60  C   UNL A   1      44.281  27.002  31.427  1.00  0.00     0.029 A 
ATOM     61  C   UNL A   1      43.367  27.814  32.076  1.00  0.00     0.049 A 
ATOM     62  H   UNL A   1      41.466  28.464  31.428  1.00  0.00     0.167 HD
ATOM     63  C   UNL A   1      42.528  29.223  33.932  1.00  0.00     0.074 A 
ATOM     64  C   UNL A   1      42.642  29.832  35.240  1.00  0.00     0.031 C 
ATOM     65  C   UNL A   1      43.475  28.426  33.375  1.00  0.00     0.037 A 
BRANCH  52  66
ATOM     66  C   UNL A   1      41.931  26.241  27.816  1.00  0.00     0.064 A 
ATOM     67  C   UNL A   1      42.767  26.692  26.785  1.00  0.00     0.173 A 
ATOM     68  C   UNL A   1      41.485  24.911  27.766  1.00  0.00     0.173 A 
ATOM     69  F   UNL A   1      43.214  27.957  26.784  1.00  0.00    -0.203 F 
ATOM     70  C   UNL A   1      43.123  25.854  25.732  1.00  0.00     0.198 A 
ATOM     71  C   UNL A   1      41.865  24.067  26.724  1.00  0.00     0.198 A 
ATOM     72  F   UNL A   1      40.690  24.427  28.732  1.00  0.00    -0.203 F 
ATOM     73  F   UNL A   1      43.891  26.319  24.736  1.00  0.00    -0.200 F 
ATOM     74  C   UNL A   1      42.678  24.541  25.706  1.00  0.00     0.200 A 
ATOM     75  F   UNL A   1      41.445  22.795  26.708  1.00  0.00    -0.200 F 
ATOM     76  F   UNL A   1      43.028  23.732  24.696  1.00  0.00    -0.200 F 
ENDBRANCH  52  66
BRANCH  53  77
ATOM     77  C   UNL A   1      38.987  31.920  35.438  1.00  0.00     0.064 A 
ATOM     78  C   UNL A   1      39.326  33.277  35.521  1.00  0.00     0.173 A 
ATOM     79  C   UNL A   1      38.221  31.372  36.477  1.00  0.00     0.173 A 
ATOM     80  F   UNL A   1      40.078  33.837  34.562  1.00  0.00    -0.203 F 
ATOM     81  C   UNL A   1      38.929  34.052  36.608  1.00  0.00     0.198 A 
ATOM     82  C   UNL A   1      37.803  32.154  37.551  1.00  0.00     0.198 A 
ATOM     83  F   UNL A   1      37.871  30.078  36.443  1.00  0.00    -0.203 F 
ATOM     84  F   UNL A   1      39.301  35.337  36.683  1.00  0.00    -0.200 F 
ATOM     85  C   UNL A   1      38.163  33.492  37.619  1.00  0.00     0.200 A 
ATOM     86  F   UNL A   1      37.054  31.612  38.521  1.00  0.00    -0.200 F 
ATOM     87  F   UNL A   1      37.778  34.239  38.662  1.00  0.00    -0.200 F 
ENDBRANCH  53  77
BRANCH  65  88
ATOM     88  C   UNL A   1      44.728  28.185  34.165  1.00  0.00     0.064 A 
ATOM     89  C   UNL A   1      44.857  27.078  35.016  1.00  0.00     0.173 A 
ATOM     90  C   UNL A   1      45.825  29.049  34.037  1.00  0.00     0.173 A 
ATOM     91  F   UNL A   1      43.830  26.232  35.184  1.00  0.00    -0.203 F 
ATOM     92  C   UNL A   1      46.034  26.857  35.728  1.00  0.00     0.198 A 
ATOM     93  C   UNL A   1      47.010  28.810  34.730  1.00  0.00     0.198 A 
ATOM     94  F   UNL A   1      45.754  30.119  33.232  1.00  0.00    -0.203 F 
ATOM     95  F   UNL A   1      46.121  25.815  36.567  1.00  0.00    -0.200 F 
ATOM     96  C   UNL A   1      47.110  27.718  35.579  1.00  0.00     0.200 A 
ATOM     97  F   UNL A   1      48.053  29.637  34.578  1.00  0.00    -0.200 F 
ATOM     98  F   UNL A   1      48.244  27.499  36.259  1.00  0.00    -0.200 F 
ENDBRANCH  65  88
ENDBRANCH  39  40
ENDBRANCH  31  34
ENDBRANCH  29  30
ENDBRANCH  28  29
ENDBRANCH   1  28
TORSDOF 15
ENDMDL
MODEL 3
REMARK VINA RESULT:     -12.5      4.651      9.815
REMARK SMILES Cc1ccc(NC(=O)C[C@@H](C(=O)NCCCNC(=O)c2ccc(-c3c4nc(c(-c5c(F)c(F)c(F)c(F)c5F)c5ccc([nH]5)c(-c5c(F)c(F)c(F)c(F)c5F)c5nc(c(-c6c(F)c(F)c(F)c(F)c6F)c6ccc3[nH]6)C=C5)C=C4)cc2)[C@@H](C)c2ccccc2)cc1Br
REMARK SMILES IDX 14 1 13 2 11 3 12 4 10 6 9 7 7 8 6 9 8 11 5 12 1 13 2 14
REMARK SMILES IDX 3 15 92 16 4 17 91 18 93 19 83 20 84 21 85 22 86 23 90 24
REMARK SMILES IDX 87 25 89 26 88 27 15 28 16 29 17 30 18 31 19 33 20 34 21 35
REMARK SMILES IDX 82 36 22 37 81 38 23 39 24 40 25 41 75 42 26 43 80 44 74 45
REMARK SMILES IDX 76 46 27 47 79 48 73 49 72 50 28 52 60 53 40 54 59 55 41 56
REMARK SMILES IDX 44 57 58 58 77 59 42 60 43 61 57 63 78 64 45 65 29 66 30 67
REMARK SMILES IDX 38 68 31 69 32 70 36 71 39 72 33 73 34 74 37 75 35 76 61 77
REMARK SMILES IDX 62 78 70 79 63 80 64 81 68 82 71 83 65 84 66 85 69 86 67 87
REMARK SMILES IDX 46 88 47 89 55 90 48 91 49 92 53 93 56 94 50 95 51 96 54 97
REMARK SMILES IDX 52 98
REMARK H PARENT 13 5 6 10 17 32 76 51 44 62
REMARK Flexibility Score: inf
ROOT
ATOM      1  C   UNL A   1      36.299  20.540  24.708  1.00  0.00     0.117 C 
ENDROOT
BRANCH   1   2
ATOM      2  N   UNL A   1      35.016  19.975  25.079  1.00  0.00    -0.356 N 
ATOM      3  C   UNL A   1      33.762  20.472  25.226  1.00  0.00     0.224 C 
ATOM      4  O   UNL A   1      32.925  19.637  25.571  1.00  0.00    -0.275 OA
ATOM      5  H   UNL A   1      35.066  19.009  25.269  1.00  0.00     0.163 HD
BRANCH   3   6
ATOM      6  C   UNL A   1      33.414  21.945  24.998  1.00  0.00     0.095 C 
BRANCH   6   7
ATOM      7  C   UNL A   1      32.091  22.406  25.668  1.00  0.00     0.114 C 
BRANCH   7   8
ATOM      8  C   UNL A   1      32.062  23.157  26.978  1.00  0.00     0.225 C 
ATOM      9  N   UNL A   1      31.626  24.439  27.115  1.00  0.00    -0.326 N 
ATOM     10  H   UNL A   1      31.675  24.778  28.038  1.00  0.00     0.169 HD
ATOM     11  O   UNL A   1      32.447  22.578  28.002  1.00  0.00    -0.275 OA
BRANCH   9  12
ATOM     12  C   UNL A   1      31.120  25.369  26.195  1.00  0.00     0.042 A 
ATOM     13  C   UNL A   1      30.090  27.750  22.753  1.00  0.00     0.045 C 
ATOM     14  C   UNL A   1      30.351  26.980  24.016  1.00  0.00    -0.037 A 
ATOM     15  C   UNL A   1      29.924  25.649  24.106  1.00  0.00     0.007 A 
ATOM     16  C   UNL A   1      31.057  27.525  25.098  1.00  0.00     0.022 A 
ATOM     17  C   UNL A   1      30.277  24.862  25.203  1.00  0.00     0.026 A 
ATOM     18  C   UNL A   1      31.440  26.722  26.182  1.00  0.00     0.042 A 
ATOM     19  Br  UNL A   1      31.565  29.356  25.142  1.00  0.00    -0.050 Br
ENDBRANCH   9  12
ENDBRANCH   7   8
ENDBRANCH   6   7
BRANCH   6  20
ATOM     20  C   UNL A   1      33.326  22.345  23.467  1.00  0.00     0.029 C 
ATOM     21  C   UNL A   1      32.152  21.615  22.768  1.00  0.00     0.013 C 
BRANCH  20  22
ATOM     22  C   UNL A   1      33.294  23.830  23.100  1.00  0.00    -0.044 A 
ATOM     23  C   UNL A   1      32.768  24.316  21.894  1.00  0.00     0.004 A 
ATOM     24  C   UNL A   1      33.930  24.754  23.950  1.00  0.00     0.004 A 
ATOM     25  C   UNL A   1      32.902  25.667  21.547  1.00  0.00     0.000 A 
ATOM     26  C   UNL A   1      34.035  26.107  23.621  1.00  0.00     0.000 A 
ATOM     27  C   UNL A   1      33.531  26.561  22.410  1.00  0.00     0.000 A 
ENDBRANCH  20  22
ENDBRANCH   6  20
ENDBRANCH   3   6
ENDBRANCH   1   2
BRANCH   1  28
ATOM     28  C   UNL A   1      37.490  19.611  24.997  1.00  0.00     0.042 C 
BRANCH  28  29
ATOM     29  C   UNL A   1      38.681  20.203  25.753  1.00  0.00     0.118 C 
BRANCH  29  30
ATOM     30  N   UNL A   1      39.817  19.305  25.850  1.00  0.00    -0.352 N 
ATOM     31  C   UNL A   1      41.133  19.579  26.125  1.00  0.00     0.251 C 
ATOM     32  H   UNL A   1      39.613  18.355  25.693  1.00  0.00     0.163 HD
ATOM     33  O   UNL A   1      41.967  18.672  26.036  1.00  0.00    -0.269 OA
BRANCH  31  34
ATOM     34  C   UNL A   1      41.593  20.939  26.498  1.00  0.00     0.039 A 
ATOM     35  C   UNL A   1      41.798  21.870  25.474  1.00  0.00     0.014 A 
ATOM     36  C   UNL A   1      41.895  21.292  27.818  1.00  0.00     0.014 A 
ATOM     37  C   UNL A   1      42.258  23.157  25.772  1.00  0.00     0.010 A 
ATOM     38  C   UNL A   1      42.303  22.597  28.121  1.00  0.00     0.010 A 
ATOM     39  C   UNL A   1      42.497  23.543  27.101  1.00  0.00    -0.014 A 
BRANCH  39  40
ATOM     40  C   UNL A   1      42.952  24.927  27.413  1.00  0.00     0.031 A 
ATOM     41  C   UNL A   1      44.358  25.366  27.106  1.00  0.00     0.074 A 
ATOM     42  C   UNL A   1      42.100  25.798  27.989  1.00  0.00     0.049 A 
ATOM     43  N   UNL A   1      44.924  26.532  27.301  1.00  0.00    -0.248 NA
ATOM     44  C   UNL A   1      45.253  24.357  26.519  1.00  0.00     0.031 C 
ATOM     45  C   UNL A   1      40.720  25.499  28.375  1.00  0.00     0.029 A 
ATOM     46  N   UNL A   1      42.268  27.113  28.352  1.00  0.00    -0.354 N 
ATOM     47  C   UNL A   1      46.238  26.396  26.870  1.00  0.00     0.074 A 
ATOM     48  C   UNL A   1      46.398  25.021  26.444  1.00  0.00     0.031 C 
ATOM     49  C   UNL A   1      40.162  26.602  28.900  1.00  0.00     0.029 A 
ATOM     50  C   UNL A   1      41.149  27.680  28.912  1.00  0.00     0.049 A 
ATOM     51  H   UNL A   1      43.112  27.604  28.221  1.00  0.00     0.167 HD
ATOM     52  C   UNL A   1      47.215  27.332  26.816  1.00  0.00     0.037 A 
ATOM     53  C   UNL A   1      40.937  28.925  29.382  1.00  0.00     0.037 A 
ATOM     54  C   UNL A   1      47.055  28.709  27.210  1.00  0.00     0.049 A 
ATOM     55  C   UNL A   1      42.038  29.947  29.305  1.00  0.00     0.074 A 
ATOM     56  C   UNL A   1      47.973  29.743  27.124  1.00  0.00     0.029 A 
ATOM     57  N   UNL A   1      45.904  29.243  27.766  1.00  0.00    -0.354 N 
ATOM     58  N   UNL A   1      43.252  29.822  28.830  1.00  0.00    -0.248 NA
ATOM     59  C   UNL A   1      41.733  31.290  29.824  1.00  0.00     0.031 C 
ATOM     60  C   UNL A   1      47.391  30.893  27.668  1.00  0.00     0.029 A 
ATOM     61  C   UNL A   1      46.095  30.587  28.050  1.00  0.00     0.049 A 
ATOM     62  H   UNL A   1      45.073  28.744  27.934  1.00  0.00     0.167 HD
ATOM     63  C   UNL A   1      43.847  31.068  28.969  1.00  0.00     0.074 A 
ATOM     64  C   UNL A   1      42.857  31.943  29.560  1.00  0.00     0.031 C 
ATOM     65  C   UNL A   1      45.104  31.453  28.635  1.00  0.00     0.037 A 
BRANCH  52  66
ATOM     66  C   UNL A   1      48.560  26.904  26.304  1.00  0.00     0.064 A 
ATOM     67  C   UNL A   1      48.910  27.040  24.953  1.00  0.00     0.173 A 
ATOM     68  C   UNL A   1      49.529  26.400  27.185  1.00  0.00     0.173 A 
ATOM     69  F   UNL A   1      48.016  27.511  24.069  1.00  0.00    -0.203 F 
ATOM     70  C   UNL A   1      50.170  26.663  24.497  1.00  0.00     0.198 A 
ATOM     71  C   UNL A   1      50.798  26.049  26.730  1.00  0.00     0.198 A 
ATOM     72  F   UNL A   1      49.248  26.258  28.490  1.00  0.00    -0.203 F 
ATOM     73  F   UNL A   1      50.468  26.764  23.194  1.00  0.00    -0.200 F 
ATOM     74  C   UNL A   1      51.115  26.174  25.387  1.00  0.00     0.200 A 
ATOM     75  F   UNL A   1      51.714  25.589  27.594  1.00  0.00    -0.200 F 
ATOM     76  F   UNL A   1      52.331  25.820  24.948  1.00  0.00    -0.200 F 
ENDBRANCH  52  66
BRANCH  53  77
ATOM     77  C   UNL A   1      39.611  29.283  29.947  1.00  0.00     0.064 A 
ATOM     78  C   UNL A   1      39.346  29.131  31.315  1.00  0.00     0.173 A 
ATOM     79  C   UNL A   1      38.584  29.782  29.133  1.00  0.00     0.173 A 
ATOM     80  F   UNL A   1      40.290  28.634  32.127  1.00  0.00    -0.203 F 
ATOM     81  C   UNL A   1      38.098  29.450  31.845  1.00  0.00     0.198 A 
ATOM     82  C   UNL A   1      37.345  30.124  29.668  1.00  0.00     0.198 A 
ATOM     83  F   UNL A   1      38.789  29.945  27.818  1.00  0.00    -0.203 F 
ATOM     84  F   UNL A   1      37.858  29.257  33.149  1.00  0.00    -0.200 F 
ATOM     85  C   UNL A   1      37.101  29.952  31.023  1.00  0.00     0.200 A 
ATOM     86  F   UNL A   1      36.387  30.619  28.873  1.00  0.00    -0.200 F 
ATOM     87  F   UNL A   1      35.902  30.262  31.534  1.00  0.00    -0.200 F 
ENDBRANCH  53  77
BRANCH  65  88
ATOM     88  C   UNL A   1      45.477  32.886  28.877  1.00  0.00     0.064 A 
ATOM     89  C   UNL A   1      46.097  33.292  30.067  1.00  0.00     0.173 A 
ATOM     90  C   UNL A   1      45.247  33.856  27.890  1.00  0.00     0.173 A 
ATOM     91  F   UNL A   1      46.324  32.405  31.048  1.00  0.00    -0.203 F 
ATOM     92  C   UNL A   1      46.455  34.624  30.269  1.00  0.00     0.198 A 
ATOM     93  C   UNL A   1      45.630  35.181  28.084  1.00  0.00     0.198 A 
ATOM     94  F   UNL A   1      44.662  33.518  26.732  1.00  0.00    -0.203 F 
ATOM     95  F   UNL A   1      47.009  34.997  31.431  1.00  0.00    -0.200 F 
ATOM     96  C   UNL A   1      46.227  35.564  29.276  1.00  0.00     0.200 A 
ATOM     97  F   UNL A   1      45.419  36.087  27.120  1.00  0.00    -0.200 F 
ATOM     98  F   UNL A   1      46.578  36.843  29.470  1.00  0.00    -0.200 F 
ENDBRANCH  65  88
ENDBRANCH  39  40
ENDBRANCH  31  34
ENDBRANCH  29  30
ENDBRANCH  28  29
ENDBRANCH   1  28
TORSDOF 15
ENDMDL
