MODEL 1
REMARK VINA RESULT:     -13.5      0.000      0.000
REMARK SMILES O=C1C[C@@H](C(=O)Nc2cccc(C(=O)NCCCNC(=O)c3ccc(-c4c5nc(c(-c6c(F)c(F)c(F)c(F)c6F)c6ccc([nH]6)c(-c6c(F)c(F)c(F)c(F)c6F)c6nc(c(-c7c(F)c(F)c(F)c(F)c7F)c7ccc4[nH]7)C=C6)C=C5)cc3)c2)[C@H](c2ccccc2)O1
REMARK SMILES IDX 16 1 15 2 13 3 14 4 12 6 8 7 9 8 85 9 10 10 11 11 7 12 5 13
REMARK SMILES IDX 6 14 4 16 1 17 2 18 3 19 93 20 86 21 87 22 88 23 92 24 89 25
REMARK SMILES IDX 91 26 90 27 17 28 18 29 19 30 20 31 21 33 22 34 23 35 84 36
REMARK SMILES IDX 24 37 83 38 25 39 26 40 27 41 77 42 28 43 82 44 76 45 78 46
REMARK SMILES IDX 29 47 81 48 75 49 74 50 30 52 62 53 42 54 61 55 43 56 46 57
REMARK SMILES IDX 60 58 79 59 44 60 45 61 59 63 80 64 47 65 31 66 32 67 40 68
REMARK SMILES IDX 33 69 34 70 38 71 41 72 35 73 36 74 39 75 37 76 63 77 64 78
REMARK SMILES IDX 72 79 65 80 66 81 70 82 73 83 67 84 68 85 71 86 69 87 48 88
REMARK SMILES IDX 49 89 57 90 50 91 51 92 55 93 58 94 52 95 53 96 56 97 54 98
REMARK H PARENT 15 5 7 15 19 32 78 51 46 62
REMARK Flexibility Score: inf
ROOT
ATOM      1  C   UNL A   1      31.384  30.743  26.355  1.00  0.00     0.118 C 
ENDROOT
BRANCH   1   2
ATOM      2  N   UNL A   1      32.440  30.318  25.462  1.00  0.00    -0.352 N 
ATOM      3  C   UNL A   1      32.646  29.175  24.735  1.00  0.00     0.251 C 
ATOM      4  O   UNL A   1      33.637  29.159  24.004  1.00  0.00    -0.269 OA
ATOM      5  H   UNL A   1      33.155  30.986  25.356  1.00  0.00     0.163 HD
BRANCH   3   6
ATOM      6  C   UNL A   1      31.725  27.997  24.725  1.00  0.00     0.041 A 
ATOM      7  C   UNL A   1      30.759  25.954  25.637  1.00  0.00     0.041 A 
ATOM      8  C   UNL A   1      29.799  25.940  24.627  1.00  0.00     0.026 A 
ATOM      9  C   UNL A   1      31.775  26.919  25.615  1.00  0.00     0.040 A 
ATOM     10  C   UNL A   1      29.771  26.968  23.688  1.00  0.00     0.003 A 
ATOM     11  C   UNL A   1      30.709  28.002  23.756  1.00  0.00     0.014 A 
BRANCH   7  12
ATOM     12  N   UNL A   1      30.662  24.988  26.651  1.00  0.00    -0.326 N 
ATOM     13  C   UNL A   1      31.227  23.738  26.734  1.00  0.00     0.232 C 
ATOM     14  O   UNL A   1      30.866  22.992  27.646  1.00  0.00    -0.274 OA
ATOM     15  H   UNL A   1      30.104  25.245  27.421  1.00  0.00     0.169 HD
BRANCH  13  16
ATOM     16  C   UNL A   1      32.373  23.353  25.806  1.00  0.00     0.135 C 
ATOM     17  O   UNL A   1      31.818  20.115  24.499  1.00  0.00    -0.252 OA
ATOM     18  C   UNL A   1      32.185  21.126  25.082  1.00  0.00     0.307 C 
ATOM     19  C   UNL A   1      31.915  22.522  24.627  1.00  0.00     0.140 C 
ATOM     20  O   UNL A   1      32.967  21.118  26.196  1.00  0.00    -0.457 OA
ATOM     21  C   UNL A   1      33.376  22.454  26.521  1.00  0.00     0.220 C 
BRANCH  21  22
ATOM     22  C   UNL A   1      34.822  22.703  26.098  1.00  0.00    -0.007 A 
ATOM     23  C   UNL A   1      35.322  23.983  25.820  1.00  0.00     0.007 A 
ATOM     24  C   UNL A   1      35.701  21.617  25.951  1.00  0.00     0.007 A 
ATOM     25  C   UNL A   1      36.660  24.169  25.451  1.00  0.00     0.000 A 
ATOM     26  C   UNL A   1      37.043  21.800  25.610  1.00  0.00     0.000 A 
ATOM     27  C   UNL A   1      37.523  23.081  25.361  1.00  0.00     0.000 A 
ENDBRANCH  21  22
ENDBRANCH  13  16
ENDBRANCH   7  12
ENDBRANCH   3   6
ENDBRANCH   1   2
BRANCH   1  28
ATOM     28  C   UNL A   1      31.353  32.262  26.501  1.00  0.00     0.042 C 
BRANCH  28  29
ATOM     29  C   UNL A   1      32.578  32.785  27.235  1.00  0.00     0.118 C 
BRANCH  29  30
ATOM     30  N   UNL A   1      32.409  34.180  27.628  1.00  0.00    -0.352 N 
ATOM     31  C   UNL A   1      33.007  34.892  28.636  1.00  0.00     0.251 C 
ATOM     32  H   UNL A   1      31.767  34.690  27.085  1.00  0.00     0.163 HD
ATOM     33  O   UNL A   1      32.556  35.987  28.955  1.00  0.00    -0.269 OA
BRANCH  31  34
ATOM     34  C   UNL A   1      34.178  34.340  29.343  1.00  0.00     0.039 A 
ATOM     35  C   UNL A   1      33.983  33.644  30.538  1.00  0.00     0.014 A 
ATOM     36  C   UNL A   1      35.470  34.531  28.844  1.00  0.00     0.014 A 
ATOM     37  C   UNL A   1      35.077  33.089  31.201  1.00  0.00     0.010 A 
ATOM     38  C   UNL A   1      36.545  33.896  29.451  1.00  0.00     0.010 A 
ATOM     39  C   UNL A   1      36.362  33.180  30.643  1.00  0.00    -0.014 A 
BRANCH  39  40
ATOM     40  C   UNL A   1      37.532  32.543  31.294  1.00  0.00     0.031 A 
ATOM     41  C   UNL A   1      38.200  31.361  30.648  1.00  0.00     0.074 A 
ATOM     42  C   UNL A   1      37.946  32.987  32.496  1.00  0.00     0.049 A 
ATOM     43  N   UNL A   1      39.183  30.619  31.093  1.00  0.00    -0.248 NA
ATOM     44  C   UNL A   1      37.671  30.933  29.343  1.00  0.00     0.031 C 
ATOM     45  C   UNL A   1      37.343  34.094  33.241  1.00  0.00     0.029 A 
ATOM     46  N   UNL A   1      38.964  32.556  33.308  1.00  0.00    -0.354 N 
ATOM     47  C   UNL A   1      39.377  29.635  30.132  1.00  0.00     0.074 A 
ATOM     48  C   UNL A   1      38.371  29.832  29.112  1.00  0.00     0.031 C 
ATOM     49  C   UNL A   1      38.020  34.273  34.386  1.00  0.00     0.029 A 
ATOM     50  C   UNL A   1      39.072  33.267  34.479  1.00  0.00     0.049 A 
ATOM     51  H   UNL A   1      39.560  31.809  33.074  1.00  0.00     0.167 HD
ATOM     52  C   UNL A   1      40.328  28.672  30.091  1.00  0.00     0.037 A 
ATOM     53  C   UNL A   1      39.919  33.115  35.513  1.00  0.00     0.037 A 
ATOM     54  C   UNL A   1      41.339  28.498  31.101  1.00  0.00     0.049 A 
ATOM     55  C   UNL A   1      40.956  32.025  35.450  1.00  0.00     0.074 A 
ATOM     56  C   UNL A   1      42.383  27.592  31.130  1.00  0.00     0.029 A 
ATOM     57  N   UNL A   1      41.426  29.246  32.268  1.00  0.00    -0.354 N 
ATOM     58  N   UNL A   1      41.179  31.146  34.502  1.00  0.00    -0.248 NA
ATOM     59  C   UNL A   1      41.866  31.913  36.597  1.00  0.00     0.031 C 
ATOM     60  C   UNL A   1      43.066  27.751  32.339  1.00  0.00     0.029 A 
ATOM     61  C   UNL A   1      42.489  28.802  33.035  1.00  0.00     0.049 A 
ATOM     62  H   UNL A   1      40.820  29.983  32.512  1.00  0.00     0.167 HD
ATOM     63  C   UNL A   1      42.271  30.399  34.924  1.00  0.00     0.074 A 
ATOM     64  C   UNL A   1      42.675  30.939  36.204  1.00  0.00     0.031 C 
ATOM     65  C   UNL A   1      42.882  29.358  34.306  1.00  0.00     0.037 A 
BRANCH  52  66
ATOM     66  C   UNL A   1      40.319  27.733  28.918  1.00  0.00     0.064 A 
ATOM     67  C   UNL A   1      41.059  27.997  27.755  1.00  0.00     0.173 A 
ATOM     68  C   UNL A   1      39.588  26.537  28.969  1.00  0.00     0.173 A 
ATOM     69  F   UNL A   1      41.767  29.131  27.647  1.00  0.00    -0.203 F 
ATOM     70  C   UNL A   1      41.040  27.116  26.676  1.00  0.00     0.198 A 
ATOM     71  C   UNL A   1      39.600  25.641  27.903  1.00  0.00     0.198 A 
ATOM     72  F   UNL A   1      38.866  26.230  30.057  1.00  0.00    -0.203 F 
ATOM     73  F   UNL A   1      41.710  27.419  25.555  1.00  0.00    -0.200 F 
ATOM     74  C   UNL A   1      40.318  25.936  26.754  1.00  0.00     0.200 A 
ATOM     75  F   UNL A   1      38.913  24.493  27.986  1.00  0.00    -0.200 F 
ATOM     76  F   UNL A   1      40.307  25.085  25.719  1.00  0.00    -0.200 F 
ENDBRANCH  52  66
BRANCH  53  77
ATOM     77  C   UNL A   1      39.836  34.027  36.684  1.00  0.00     0.064 A 
ATOM     78  C   UNL A   1      39.042  33.704  37.794  1.00  0.00     0.173 A 
ATOM     79  C   UNL A   1      40.541  35.238  36.719  1.00  0.00     0.173 A 
ATOM     80  F   UNL A   1      38.335  32.564  37.801  1.00  0.00    -0.203 F 
ATOM     81  C   UNL A   1      38.934  34.570  38.880  1.00  0.00     0.198 A 
ATOM     82  C   UNL A   1      40.460  36.089  37.821  1.00  0.00     0.198 A 
ATOM     83  F   UNL A   1      41.322  35.593  35.688  1.00  0.00    -0.203 F 
ATOM     84  F   UNL A   1      38.127  34.260  39.903  1.00  0.00    -0.200 F 
ATOM     85  C   UNL A   1      39.648  35.758  38.895  1.00  0.00     0.200 A 
ATOM     86  F   UNL A   1      41.164  37.228  37.838  1.00  0.00    -0.200 F 
ATOM     87  F   UNL A   1      39.546  36.590  39.941  1.00  0.00    -0.200 F 
ENDBRANCH  53  77
BRANCH  65  88
ATOM     88  C   UNL A   1      44.081  28.763  34.986  1.00  0.00     0.064 A 
ATOM     89  C   UNL A   1      45.378  29.246  34.757  1.00  0.00     0.173 A 
ATOM     90  C   UNL A   1      43.924  27.721  35.914  1.00  0.00     0.173 A 
ATOM     91  F   UNL A   1      45.585  30.231  33.870  1.00  0.00    -0.203 F 
ATOM     92  C   UNL A   1      46.475  28.687  35.407  1.00  0.00     0.198 A 
ATOM     93  C   UNL A   1      45.019  27.190  36.588  1.00  0.00     0.198 A 
ATOM     94  F   UNL A   1      42.705  27.228  36.177  1.00  0.00    -0.203 F 
ATOM     95  F   UNL A   1      47.710  29.127  35.130  1.00  0.00    -0.200 F 
ATOM     96  C   UNL A   1      46.294  27.665  36.328  1.00  0.00     0.200 A 
ATOM     97  F   UNL A   1      44.839  26.216  37.492  1.00  0.00    -0.200 F 
ATOM     98  F   UNL A   1      47.350  27.136  36.959  1.00  0.00    -0.200 F 
ENDBRANCH  65  88
ENDBRANCH  39  40
ENDBRANCH  31  34
ENDBRANCH  29  30
ENDBRANCH  28  29
ENDBRANCH   1  28
TORSDOF 13
ENDMDL
MODEL 2
REMARK VINA RESULT:     -13.4      5.226     10.526
REMARK SMILES O=C1C[C@@H](C(=O)Nc2cccc(C(=O)NCCCNC(=O)c3ccc(-c4c5nc(c(-c6c(F)c(F)c(F)c(F)c6F)c6ccc([nH]6)c(-c6c(F)c(F)c(F)c(F)c6F)c6nc(c(-c7c(F)c(F)c(F)c(F)c7F)c7ccc4[nH]7)C=C6)C=C5)cc3)c2)[C@H](c2ccccc2)O1
REMARK SMILES IDX 16 1 15 2 13 3 14 4 12 6 8 7 9 8 85 9 10 10 11 11 7 12 5 13
REMARK SMILES IDX 6 14 4 16 1 17 2 18 3 19 93 20 86 21 87 22 88 23 92 24 89 25
REMARK SMILES IDX 91 26 90 27 17 28 18 29 19 30 20 31 21 33 22 34 23 35 84 36
REMARK SMILES IDX 24 37 83 38 25 39 26 40 27 41 77 42 28 43 82 44 76 45 78 46
REMARK SMILES IDX 29 47 81 48 75 49 74 50 30 52 62 53 42 54 61 55 43 56 46 57
REMARK SMILES IDX 60 58 79 59 44 60 45 61 59 63 80 64 47 65 31 66 32 67 40 68
REMARK SMILES IDX 33 69 34 70 38 71 41 72 35 73 36 74 39 75 37 76 63 77 64 78
REMARK SMILES IDX 72 79 65 80 66 81 70 82 73 83 67 84 68 85 71 86 69 87 48 88
REMARK SMILES IDX 49 89 57 90 50 91 51 92 55 93 58 94 52 95 53 96 56 97 54 98
REMARK H PARENT 15 5 7 15 19 32 78 51 46 62
REMARK Flexibility Score: inf
ROOT
ATOM      1  C   UNL A   1      37.320  21.128  24.564  1.00  0.00     0.118 C 
ENDROOT
BRANCH   1   2
ATOM      2  N   UNL A   1      37.783  22.285  25.301  1.00  0.00    -0.352 N 
ATOM      3  C   UNL A   1      37.169  23.441  25.708  1.00  0.00     0.251 C 
ATOM      4  O   UNL A   1      37.845  24.210  26.393  1.00  0.00    -0.269 OA
ATOM      5  H   UNL A   1      38.730  22.230  25.560  1.00  0.00     0.163 HD
BRANCH   3   6
ATOM      6  C   UNL A   1      35.741  23.786  25.435  1.00  0.00     0.041 A 
ATOM      7  C   UNL A   1      33.871  24.445  24.018  1.00  0.00     0.041 A 
ATOM      8  C   UNL A   1      32.981  24.232  25.069  1.00  0.00     0.026 A 
ATOM      9  C   UNL A   1      35.249  24.324  24.241  1.00  0.00     0.040 A 
ATOM     10  C   UNL A   1      33.456  23.761  26.290  1.00  0.00     0.003 A 
ATOM     11  C   UNL A   1      34.821  23.513  26.460  1.00  0.00     0.014 A 
BRANCH   7  12
ATOM     12  N   UNL A   1      33.339  24.774  22.761  1.00  0.00    -0.326 N 
ATOM     13  C   UNL A   1      32.318  25.633  22.433  1.00  0.00     0.232 C 
ATOM     14  O   UNL A   1      31.907  25.638  21.272  1.00  0.00    -0.274 OA
ATOM     15  H   UNL A   1      33.763  24.319  21.997  1.00  0.00     0.169 HD
BRANCH  13  16
ATOM     16  C   UNL A   1      31.816  26.651  23.453  1.00  0.00     0.135 C 
ATOM     17  O   UNL A   1      29.767  29.043  21.847  1.00  0.00    -0.252 OA
ATOM     18  C   UNL A   1      30.637  28.399  22.417  1.00  0.00     0.307 C 
ATOM     19  C   UNL A   1      30.409  27.124  23.160  1.00  0.00     0.140 C 
ATOM     20  O   UNL A   1      31.933  28.800  22.522  1.00  0.00    -0.457 OA
ATOM     21  C   UNL A   1      32.650  27.926  23.405  1.00  0.00     0.220 C 
BRANCH  21  22
ATOM     22  C   UNL A   1      32.847  28.573  24.774  1.00  0.00    -0.007 A 
ATOM     23  C   UNL A   1      32.198  29.756  25.155  1.00  0.00     0.007 A 
ATOM     24  C   UNL A   1      33.728  27.990  25.699  1.00  0.00     0.007 A 
ATOM     25  C   UNL A   1      32.394  30.307  26.428  1.00  0.00     0.000 A 
ATOM     26  C   UNL A   1      33.906  28.520  26.979  1.00  0.00     0.000 A 
ATOM     27  C   UNL A   1      33.235  29.681  27.344  1.00  0.00     0.000 A 
ENDBRANCH  21  22
ENDBRANCH  13  16
ENDBRANCH   7  12
ENDBRANCH   3   6
ENDBRANCH   1   2
BRANCH   1  28
ATOM     28  C   UNL A   1      38.144  19.888  24.897  1.00  0.00     0.042 C 
BRANCH  28  29
ATOM     29  C   UNL A   1      39.169  20.165  25.987  1.00  0.00     0.118 C 
BRANCH  29  30
ATOM     30  N   UNL A   1      40.261  19.200  25.950  1.00  0.00    -0.352 N 
ATOM     31  C   UNL A   1      41.616  19.397  26.023  1.00  0.00     0.251 C 
ATOM     32  H   UNL A   1      39.983  18.261  25.859  1.00  0.00     0.163 HD
ATOM     33  O   UNL A   1      42.379  18.480  25.735  1.00  0.00    -0.269 OA
BRANCH  31  34
ATOM     34  C   UNL A   1      42.157  20.707  26.433  1.00  0.00     0.039 A 
ATOM     35  C   UNL A   1      42.535  21.623  25.448  1.00  0.00     0.014 A 
ATOM     36  C   UNL A   1      42.315  21.024  27.785  1.00  0.00     0.014 A 
ATOM     37  C   UNL A   1      43.017  22.877  25.821  1.00  0.00     0.010 A 
ATOM     38  C   UNL A   1      42.702  22.305  28.154  1.00  0.00     0.010 A 
ATOM     39  C   UNL A   1      43.070  23.240  27.176  1.00  0.00    -0.014 A 
BRANCH  39  40
ATOM     40  C   UNL A   1      43.517  24.590  27.596  1.00  0.00     0.031 A 
ATOM     41  C   UNL A   1      42.502  25.636  27.969  1.00  0.00     0.074 A 
ATOM     42  C   UNL A   1      44.829  24.892  27.572  1.00  0.00     0.049 A 
ATOM     43  N   UNL A   1      42.685  26.892  28.288  1.00  0.00    -0.248 NA
ATOM     44  C   UNL A   1      41.089  25.223  27.952  1.00  0.00     0.031 C 
ATOM     45  C   UNL A   1      45.900  23.975  27.177  1.00  0.00     0.029 A 
ATOM     46  N   UNL A   1      45.485  26.058  27.875  1.00  0.00    -0.354 N 
ATOM     47  C   UNL A   1      41.417  27.418  28.492  1.00  0.00     0.074 A 
ATOM     48  C   UNL A   1      40.468  26.366  28.200  1.00  0.00     0.031 C 
ATOM     49  C   UNL A   1      47.081  24.603  27.291  1.00  0.00     0.029 A 
ATOM     50  C   UNL A   1      46.848  25.978  27.720  1.00  0.00     0.049 A 
ATOM     51  H   UNL A   1      45.024  26.873  28.177  1.00  0.00     0.167 HD
ATOM     52  C   UNL A   1      41.075  28.659  28.913  1.00  0.00     0.037 A 
ATOM     53  C   UNL A   1      47.800  26.914  27.894  1.00  0.00     0.037 A 
ATOM     54  C   UNL A   1      42.028  29.692  29.222  1.00  0.00     0.049 A 
ATOM     55  C   UNL A   1      47.392  28.290  28.347  1.00  0.00     0.074 A 
ATOM     56  C   UNL A   1      41.793  30.964  29.711  1.00  0.00     0.029 A 
ATOM     57  N   UNL A   1      43.402  29.571  29.066  1.00  0.00    -0.354 N 
ATOM     58  N   UNL A   1      46.194  28.756  28.608  1.00  0.00    -0.248 NA
ATOM     59  C   UNL A   1      48.470  29.269  28.537  1.00  0.00     0.031 C 
ATOM     60  C   UNL A   1      43.018  31.633  29.793  1.00  0.00     0.029 A 
ATOM     61  C   UNL A   1      44.024  30.756  29.421  1.00  0.00     0.049 A 
ATOM     62  H   UNL A   1      43.865  28.762  28.748  1.00  0.00     0.167 HD
ATOM     63  C   UNL A   1      46.377  30.068  29.023  1.00  0.00     0.074 A 
ATOM     64  C   UNL A   1      47.802  30.319  28.995  1.00  0.00     0.031 C 
ATOM     65  C   UNL A   1      45.448  30.984  29.393  1.00  0.00     0.037 A 
BRANCH  52  66
ATOM     66  C   UNL A   1      39.612  28.966  29.064  1.00  0.00     0.064 A 
ATOM     67  C   UNL A   1      38.828  29.382  27.976  1.00  0.00     0.173 A 
ATOM     68  C   UNL A   1      38.976  28.812  30.305  1.00  0.00     0.173 A 
ATOM     69  F   UNL A   1      39.386  29.559  26.769  1.00  0.00    -0.203 F 
ATOM     70  C   UNL A   1      37.473  29.664  28.133  1.00  0.00     0.198 A 
ATOM     71  C   UNL A   1      37.613  29.058  30.450  1.00  0.00     0.198 A 
ATOM     72  F   UNL A   1      39.675  28.413  31.379  1.00  0.00    -0.203 F 
ATOM     73  F   UNL A   1      36.760  30.113  27.091  1.00  0.00    -0.200 F 
ATOM     74  C   UNL A   1      36.865  29.493  29.367  1.00  0.00     0.200 A 
ATOM     75  F   UNL A   1      37.025  28.879  31.641  1.00  0.00    -0.200 F 
ATOM     76  F   UNL A   1      35.559  29.756  29.515  1.00  0.00    -0.200 F 
ENDBRANCH  52  66
BRANCH  53  77
ATOM     77  C   UNL A   1      49.228  26.576  27.660  1.00  0.00     0.064 A 
ATOM     78  C   UNL A   1      50.084  26.280  28.730  1.00  0.00     0.173 A 
ATOM     79  C   UNL A   1      49.770  26.547  26.366  1.00  0.00     0.173 A 
ATOM     80  F   UNL A   1      49.618  26.312  29.987  1.00  0.00    -0.203 F 
ATOM     81  C   UNL A   1      51.431  25.996  28.519  1.00  0.00     0.198 A 
ATOM     82  C   UNL A   1      51.110  26.229  26.153  1.00  0.00     0.198 A 
ATOM     83  F   UNL A   1      48.994  26.814  25.305  1.00  0.00    -0.203 F 
ATOM     84  F   UNL A   1      52.237  25.769  29.564  1.00  0.00    -0.200 F 
ATOM     85  C   UNL A   1      51.942  25.964  27.230  1.00  0.00     0.200 A 
ATOM     86  F   UNL A   1      51.595  26.184  24.906  1.00  0.00    -0.200 F 
ATOM     87  F   UNL A   1      53.238  25.688  27.027  1.00  0.00    -0.200 F 
ENDBRANCH  53  77
BRANCH  65  88
ATOM     88  C   UNL A   1      45.947  32.328  29.840  1.00  0.00     0.064 A 
ATOM     89  C   UNL A   1      46.307  32.580  31.171  1.00  0.00     0.173 A 
ATOM     90  C   UNL A   1      46.106  33.368  28.910  1.00  0.00     0.173 A 
ATOM     91  F   UNL A   1      46.161  31.624  32.102  1.00  0.00    -0.203 F 
ATOM     92  C   UNL A   1      46.778  33.830  31.562  1.00  0.00     0.198 A 
ATOM     93  C   UNL A   1      46.611  34.605  29.297  1.00  0.00     0.198 A 
ATOM     94  F   UNL A   1      45.784  33.179  27.622  1.00  0.00    -0.203 F 
ATOM     95  F   UNL A   1      47.063  34.064  32.850  1.00  0.00    -0.200 F 
ATOM     96  C   UNL A   1      46.938  34.839  30.624  1.00  0.00     0.200 A 
ATOM     97  F   UNL A   1      46.782  35.573  28.385  1.00  0.00    -0.200 F 
ATOM     98  F   UNL A   1      47.400  36.039  31.000  1.00  0.00    -0.200 F 
ENDBRANCH  65  88
ENDBRANCH  39  40
ENDBRANCH  31  34
ENDBRANCH  29  30
ENDBRANCH  28  29
ENDBRANCH   1  28
TORSDOF 13
ENDMDL
MODEL 3
REMARK VINA RESULT:     -13.4      5.241     10.609
REMARK SMILES O=C1C[C@@H](C(=O)Nc2cccc(C(=O)NCCCNC(=O)c3ccc(-c4c5nc(c(-c6c(F)c(F)c(F)c(F)c6F)c6ccc([nH]6)c(-c6c(F)c(F)c(F)c(F)c6F)c6nc(c(-c7c(F)c(F)c(F)c(F)c7F)c7ccc4[nH]7)C=C6)C=C5)cc3)c2)[C@H](c2ccccc2)O1
REMARK SMILES IDX 16 1 15 2 13 3 14 4 12 6 8 7 9 8 85 9 10 10 11 11 7 12 5 13
REMARK SMILES IDX 6 14 4 16 1 17 2 18 3 19 93 20 86 21 87 22 88 23 92 24 89 25
REMARK SMILES IDX 91 26 90 27 17 28 18 29 19 30 20 31 21 33 22 34 23 35 84 36
REMARK SMILES IDX 24 37 83 38 25 39 26 40 27 41 77 42 28 43 82 44 76 45 78 46
REMARK SMILES IDX 29 47 81 48 75 49 74 50 30 52 62 53 42 54 61 55 43 56 46 57
REMARK SMILES IDX 60 58 79 59 44 60 45 61 59 63 80 64 47 65 31 66 32 67 40 68
REMARK SMILES IDX 33 69 34 70 38 71 41 72 35 73 36 74 39 75 37 76 63 77 64 78
REMARK SMILES IDX 72 79 65 80 66 81 70 82 73 83 67 84 68 85 71 86 69 87 48 88
REMARK SMILES IDX 49 89 57 90 50 91 51 92 55 93 58 94 52 95 53 96 56 97 54 98
REMARK H PARENT 15 5 7 15 19 32 78 51 46 62
REMARK Flexibility Score: inf
ROOT
ATOM      1  C   UNL A   1      37.146  20.947  24.848  1.00  0.00     0.118 C 
ENDROOT
BRANCH   1   2
ATOM      2  N   UNL A   1      37.621  22.155  25.488  1.00  0.00    -0.352 N 
ATOM      3  C   UNL A   1      37.022  23.350  25.792  1.00  0.00     0.251 C 
ATOM      4  O   UNL A   1      37.705  24.165  26.415  1.00  0.00    -0.269 OA
ATOM      5  H   UNL A   1      38.566  22.110  25.757  1.00  0.00     0.163 HD
BRANCH   3   6
ATOM      6  C   UNL A   1      35.600  23.690  25.481  1.00  0.00     0.041 A 
ATOM      7  C   UNL A   1      33.772  24.377  24.022  1.00  0.00     0.041 A 
ATOM      8  C   UNL A   1      32.850  24.121  25.034  1.00  0.00     0.026 A 
ATOM      9  C   UNL A   1      35.144  24.262  24.289  1.00  0.00     0.040 A 
ATOM     10  C   UNL A   1      33.288  23.614  26.256  1.00  0.00     0.003 A 
ATOM     11  C   UNL A   1      34.648  23.374  26.464  1.00  0.00     0.014 A 
BRANCH   7  12
ATOM     12  N   UNL A   1      33.280  24.742  22.759  1.00  0.00    -0.326 N 
ATOM     13  C   UNL A   1      32.284  25.627  22.423  1.00  0.00     0.232 C 
ATOM     14  O   UNL A   1      31.904  25.663  21.252  1.00  0.00    -0.274 OA
ATOM     15  H   UNL A   1      33.717  24.297  21.997  1.00  0.00     0.169 HD
BRANCH  13  16
ATOM     16  C   UNL A   1      31.772  26.631  23.451  1.00  0.00     0.135 C 
ATOM     17  O   UNL A   1      29.793  29.081  21.847  1.00  0.00    -0.252 OA
ATOM     18  C   UNL A   1      30.641  28.414  22.424  1.00  0.00     0.307 C 
ATOM     19  C   UNL A   1      30.379  27.128  23.136  1.00  0.00     0.140 C 
ATOM     20  O   UNL A   1      31.939  28.795  22.565  1.00  0.00    -0.457 OA
ATOM     21  C   UNL A   1      32.624  27.895  23.447  1.00  0.00     0.220 C 
BRANCH  21  22
ATOM     22  C   UNL A   1      32.798  28.512  24.833  1.00  0.00    -0.007 A 
ATOM     23  C   UNL A   1      33.629  27.952  25.814  1.00  0.00     0.007 A 
ATOM     24  C   UNL A   1      32.088  29.676  25.172  1.00  0.00     0.007 A 
ATOM     25  C   UNL A   1      33.773  28.560  27.068  1.00  0.00     0.000 A 
ATOM     26  C   UNL A   1      32.249  30.300  26.411  1.00  0.00     0.000 A 
ATOM     27  C   UNL A   1      33.096  29.740  27.360  1.00  0.00     0.000 A 
ENDBRANCH  21  22
ENDBRANCH  13  16
ENDBRANCH   7  12
ENDBRANCH   3   6
ENDBRANCH   1   2
BRANCH   1  28
ATOM     28  C   UNL A   1      38.153  19.809  24.988  1.00  0.00     0.042 C 
BRANCH  28  29
ATOM     29  C   UNL A   1      39.187  20.097  26.067  1.00  0.00     0.118 C 
BRANCH  29  30
ATOM     30  N   UNL A   1      40.288  19.142  26.018  1.00  0.00    -0.352 N 
ATOM     31  C   UNL A   1      41.642  19.353  26.066  1.00  0.00     0.251 C 
ATOM     32  H   UNL A   1      40.018  18.199  25.939  1.00  0.00     0.163 HD
ATOM     33  O   UNL A   1      42.409  18.441  25.772  1.00  0.00    -0.269 OA
BRANCH  31  34
ATOM     34  C   UNL A   1      42.177  20.671  26.456  1.00  0.00     0.039 A 
ATOM     35  C   UNL A   1      42.581  21.561  25.458  1.00  0.00     0.014 A 
ATOM     36  C   UNL A   1      42.304  21.021  27.803  1.00  0.00     0.014 A 
ATOM     37  C   UNL A   1      43.058  22.823  25.811  1.00  0.00     0.010 A 
ATOM     38  C   UNL A   1      42.686  22.310  28.149  1.00  0.00     0.010 A 
ATOM     39  C   UNL A   1      43.080  23.220  27.158  1.00  0.00    -0.014 A 
BRANCH  39  40
ATOM     40  C   UNL A   1      43.521  24.579  27.554  1.00  0.00     0.031 A 
ATOM     41  C   UNL A   1      42.503  25.618  27.935  1.00  0.00     0.074 A 
ATOM     42  C   UNL A   1      44.829  24.893  27.502  1.00  0.00     0.049 A 
ATOM     43  N   UNL A   1      42.679  26.880  28.237  1.00  0.00    -0.248 NA
ATOM     44  C   UNL A   1      41.094  25.191  27.948  1.00  0.00     0.031 C 
ATOM     45  C   UNL A   1      45.902  23.982  27.098  1.00  0.00     0.029 A 
ATOM     46  N   UNL A   1      45.479  26.069  27.781  1.00  0.00    -0.354 N 
ATOM     47  C   UNL A   1      41.409  27.396  28.459  1.00  0.00     0.074 A 
ATOM     48  C   UNL A   1      40.466  26.331  28.196  1.00  0.00     0.031 C 
ATOM     49  C   UNL A   1      47.078  24.624  27.183  1.00  0.00     0.029 A 
ATOM     50  C   UNL A   1      46.840  26.001  27.601  1.00  0.00     0.049 A 
ATOM     51  H   UNL A   1      45.016  26.883  28.082  1.00  0.00     0.167 HD
ATOM     52  C   UNL A   1      41.063  28.638  28.873  1.00  0.00     0.037 A 
ATOM     53  C   UNL A   1      47.785  26.948  27.747  1.00  0.00     0.037 A 
ATOM     54  C   UNL A   1      42.011  29.683  29.153  1.00  0.00     0.049 A 
ATOM     55  C   UNL A   1      47.371  28.325  28.193  1.00  0.00     0.074 A 
ATOM     56  C   UNL A   1      41.773  30.959  29.632  1.00  0.00     0.029 A 
ATOM     57  N   UNL A   1      43.383  29.574  28.972  1.00  0.00    -0.354 N 
ATOM     58  N   UNL A   1      46.174  28.782  28.471  1.00  0.00    -0.248 NA
ATOM     59  C   UNL A   1      48.443  29.317  28.352  1.00  0.00     0.031 C 
ATOM     60  C   UNL A   1      42.992  31.640  29.684  1.00  0.00     0.029 A 
ATOM     61  C   UNL A   1      44.000  30.769  29.303  1.00  0.00     0.049 A 
ATOM     62  H   UNL A   1      43.849  28.766  28.655  1.00  0.00     0.167 HD
ATOM     63  C   UNL A   1      46.351  30.100  28.868  1.00  0.00     0.074 A 
ATOM     64  C   UNL A   1      47.774  30.364  28.810  1.00  0.00     0.031 C 
ATOM     65  C   UNL A   1      45.420  31.011  29.246  1.00  0.00     0.037 A 
BRANCH  52  66
ATOM     66  C   UNL A   1      39.600  28.932  29.047  1.00  0.00     0.064 A 
ATOM     67  C   UNL A   1      38.967  28.821  30.295  1.00  0.00     0.173 A 
ATOM     68  C   UNL A   1      38.826  29.363  27.959  1.00  0.00     0.173 A 
ATOM     69  F   UNL A   1      39.656  28.402  31.367  1.00  0.00    -0.203 F 
ATOM     70  C   UNL A   1      37.609  29.097  30.440  1.00  0.00     0.198 A 
ATOM     71  C   UNL A   1      37.477  29.673  28.114  1.00  0.00     0.198 A 
ATOM     72  F   UNL A   1      39.379  29.491  26.743  1.00  0.00    -0.203 F 
ATOM     73  F   UNL A   1      37.017  28.929  31.630  1.00  0.00    -0.200 F 
ATOM     74  C   UNL A   1      36.868  29.531  29.352  1.00  0.00     0.200 A 
ATOM     75  F   UNL A   1      36.766  30.106  27.065  1.00  0.00    -0.200 F 
ATOM     76  F   UNL A   1      35.564  29.805  29.494  1.00  0.00    -0.200 F 
ENDBRANCH  52  66
BRANCH  53  77
ATOM     77  C   UNL A   1      49.212  26.622  27.490  1.00  0.00     0.064 A 
ATOM     78  C   UNL A   1      49.719  26.587  26.183  1.00  0.00     0.173 A 
ATOM     79  C   UNL A   1      50.097  26.334  28.539  1.00  0.00     0.173 A 
ATOM     80  F   UNL A   1      48.909  26.839  25.145  1.00  0.00    -0.203 F 
ATOM     81  C   UNL A   1      51.048  26.250  25.934  1.00  0.00     0.198 A 
ATOM     82  C   UNL A   1      51.435  26.029  28.291  1.00  0.00     0.198 A 
ATOM     83  F   UNL A   1      49.667  26.360  29.809  1.00  0.00    -0.203 F 
ATOM     84  F   UNL A   1      51.491  26.173  24.672  1.00  0.00    -0.200 F 
ATOM     85  C   UNL A   1      51.906  25.977  26.988  1.00  0.00     0.200 A 
ATOM     86  F   UNL A   1      52.263  25.783  29.314  1.00  0.00    -0.200 F 
ATOM     87  F   UNL A   1      53.185  25.656  26.748  1.00  0.00    -0.200 F 
ENDBRANCH  53  77
BRANCH  65  88
ATOM     88  C   UNL A   1      45.914  32.365  29.668  1.00  0.00     0.064 A 
ATOM     89  C   UNL A   1      46.023  33.429  28.762  1.00  0.00     0.173 A 
ATOM     90  C   UNL A   1      46.244  32.610  31.011  1.00  0.00     0.173 A 
ATOM     91  F   UNL A   1      45.734  33.243  27.464  1.00  0.00    -0.203 F 
ATOM     92  C   UNL A   1      46.472  34.680  29.176  1.00  0.00     0.198 A 
ATOM     93  C   UNL A   1      46.657  33.871  31.428  1.00  0.00     0.198 A 
ATOM     94  F   UNL A   1      46.149  31.630  31.921  1.00  0.00    -0.203 F 
ATOM     95  F   UNL A   1      46.622  35.666  28.281  1.00  0.00    -0.200 F 
ATOM     96  C   UNL A   1      46.782  34.903  30.510  1.00  0.00     0.200 A 
ATOM     97  F   UNL A   1      46.937  34.089  32.721  1.00  0.00    -0.200 F 
ATOM     98  F   UNL A   1      47.205  36.109  30.908  1.00  0.00    -0.200 F 
ENDBRANCH  65  88
ENDBRANCH  39  40
ENDBRANCH  31  34
ENDBRANCH  29  30
ENDBRANCH  28  29
ENDBRANCH   1  28
TORSDOF 13
ENDMDL
