MODEL 1
REMARK VINA RESULT:     -11.9      0.000      0.000
REMARK SMILES C[C@H](O)[C@@H](NS(=O)(=O)c1ccc(F)cc1)C(=O)NCCCNC(=O)c1ccc(-c2c3nc(c(-c4c(F)c(F)c(F)c(F)c4F)c4ccc([nH]4)c(-c4c(F)c(F)c(F)c(F)c4F)c4nc(c(-c5c(F)c(F)c(F)c(F)c5F)c5ccc2[nH]5)C=C4)C=C3)cc1
REMARK SMILES IDX 19 1 18 2 16 3 17 4 4 6 2 7 1 8 3 9 5 11 6 13 7 14 8 15 9 16
REMARK SMILES IDX 10 17 15 18 11 19 14 20 12 21 13 22 20 23 21 24 22 25 23 26
REMARK SMILES IDX 24 28 25 29 26 30 87 31 27 32 86 33 28 34 29 35 30 36 80 37
REMARK SMILES IDX 31 38 85 39 79 40 81 41 32 42 84 43 78 44 77 45 33 47 65 48
REMARK SMILES IDX 45 49 64 50 46 51 49 52 63 53 82 54 47 55 48 56 62 58 83 59
REMARK SMILES IDX 50 60 34 61 35 62 43 63 36 64 37 65 41 66 44 67 38 68 39 69
REMARK SMILES IDX 42 70 40 71 66 72 67 73 75 74 68 75 69 76 73 77 76 78 70 79
REMARK SMILES IDX 71 80 74 81 72 82 51 83 52 84 60 85 53 86 54 87 58 88 61 89
REMARK SMILES IDX 55 90 56 91 59 92 57 93
REMARK H PARENT 18 5 3 10 5 12 22 27 81 46 49 57
REMARK Flexibility Score: inf
ROOT
ATOM      1  C   UNL A   1      31.772  30.770  26.041  1.00  0.00     0.117 C 
ENDROOT
BRANCH   1   2
ATOM      2  N   UNL A   1      31.556  29.671  26.965  1.00  0.00    -0.355 N 
ATOM      3  C   UNL A   1      31.693  28.326  26.788  1.00  0.00     0.240 C 
ATOM      4  O   UNL A   1      31.443  27.604  27.756  1.00  0.00    -0.273 OA
ATOM      5  H   UNL A   1      31.262  29.940  27.866  1.00  0.00     0.163 HD
BRANCH   3   6
ATOM      6  C   UNL A   1      32.111  27.732  25.446  1.00  0.00     0.187 C 
BRANCH   6   7
ATOM      7  C   UNL A   1      33.609  27.337  25.471  1.00  0.00     0.139 C 
ATOM      8  C   UNL A   1      33.816  25.849  25.754  1.00  0.00     0.040 C 
BRANCH   7   9
ATOM      9  O   UNL A   1      34.299  28.043  26.511  1.00  0.00    -0.391 OA
ATOM     10  H   UNL A   1      35.086  28.472  26.143  1.00  0.00     0.211 HD
ENDBRANCH   7   9
ENDBRANCH   6   7
BRANCH   6  11
ATOM     11  N   UNL A   1      31.246  26.570  25.082  1.00  0.00    -0.196 NA
ATOM     12  H   UNL A   1      30.397  26.646  25.641  1.00  0.00     0.142 HD
BRANCH  11  13
ATOM     13  S   UNL A   1      30.762  26.369  23.481  1.00  0.00     0.241 S 
ATOM     14  O   UNL A   1      31.919  26.451  22.620  1.00  0.00    -0.207 OA
ATOM     15  O   UNL A   1      29.929  25.188  23.521  1.00  0.00    -0.207 OA
BRANCH  13  16
ATOM     16  C   UNL A   1      29.702  27.753  23.127  1.00  0.00     0.082 A 
ATOM     17  C   UNL A   1      30.258  28.970  22.711  1.00  0.00     0.025 A 
ATOM     18  C   UNL A   1      28.329  27.662  23.380  1.00  0.00     0.025 A 
ATOM     19  C   UNL A   1      29.429  30.078  22.509  1.00  0.00     0.040 A 
ATOM     20  C   UNL A   1      27.501  28.760  23.139  1.00  0.00     0.040 A 
ATOM     21  C   UNL A   1      28.058  29.958  22.709  1.00  0.00     0.123 A 
ATOM     22  F   UNL A   1      27.265  31.019  22.508  1.00  0.00    -0.207 F 
ENDBRANCH  13  16
ENDBRANCH  11  13
ENDBRANCH   6  11
ENDBRANCH   3   6
ENDBRANCH   1   2
BRANCH   1  23
ATOM     23  C   UNL A   1      31.420  32.108  26.677  1.00  0.00     0.042 C 
BRANCH  23  24
ATOM     24  C   UNL A   1      32.606  32.802  27.331  1.00  0.00     0.118 C 
BRANCH  24  25
ATOM     25  N   UNL A   1      32.347  34.205  27.619  1.00  0.00    -0.352 N 
ATOM     26  C   UNL A   1      32.957  35.014  28.549  1.00  0.00     0.251 C 
ATOM     27  H   UNL A   1      31.643  34.631  27.078  1.00  0.00     0.163 HD
ATOM     28  O   UNL A   1      32.520  36.136  28.776  1.00  0.00    -0.269 OA
BRANCH  26  29
ATOM     29  C   UNL A   1      34.123  34.504  29.300  1.00  0.00     0.039 A 
ATOM     30  C   UNL A   1      33.911  33.851  30.515  1.00  0.00     0.014 A 
ATOM     31  C   UNL A   1      35.416  34.647  28.789  1.00  0.00     0.014 A 
ATOM     32  C   UNL A   1      34.991  33.276  31.187  1.00  0.00     0.010 A 
ATOM     33  C   UNL A   1      36.482  34.016  29.423  1.00  0.00     0.010 A 
ATOM     34  C   UNL A   1      36.279  33.323  30.627  1.00  0.00    -0.014 A 
BRANCH  34  35
ATOM     35  C   UNL A   1      37.428  32.656  31.285  1.00  0.00     0.031 A 
ATOM     36  C   UNL A   1      38.143  31.533  30.592  1.00  0.00     0.074 A 
ATOM     37  C   UNL A   1      37.786  33.019  32.532  1.00  0.00     0.049 A 
ATOM     38  N   UNL A   1      39.111  30.770  31.034  1.00  0.00    -0.248 NA
ATOM     39  C   UNL A   1      37.694  31.202  29.230  1.00  0.00     0.031 C 
ATOM     40  C   UNL A   1      37.140  34.066  33.326  1.00  0.00     0.029 A 
ATOM     41  N   UNL A   1      38.775  32.541  33.355  1.00  0.00    -0.354 N 
ATOM     42  C   UNL A   1      39.371  29.864  30.016  1.00  0.00     0.074 A 
ATOM     43  C   UNL A   1      38.433  30.139  28.950  1.00  0.00     0.031 C 
ATOM     44  C   UNL A   1      37.768  34.170  34.508  1.00  0.00     0.029 A 
ATOM     45  C   UNL A   1      38.835  33.176  34.571  1.00  0.00     0.049 A 
ATOM     46  H   UNL A   1      39.384  31.812  33.097  1.00  0.00     0.167 HD
ATOM     47  C   UNL A   1      40.325  28.905  29.966  1.00  0.00     0.037 A 
ATOM     48  C   UNL A   1      39.657  32.977  35.619  1.00  0.00     0.037 A 
ATOM     49  C   UNL A   1      41.284  28.660  31.009  1.00  0.00     0.049 A 
ATOM     50  C   UNL A   1      40.716  31.913  35.533  1.00  0.00     0.074 A 
ATOM     51  C   UNL A   1      42.326  27.749  31.025  1.00  0.00     0.029 A 
ATOM     52  N   UNL A   1      41.322  29.336  32.220  1.00  0.00    -0.354 N 
ATOM     53  N   UNL A   1      40.981  31.091  34.548  1.00  0.00    -0.248 NA
ATOM     54  C   UNL A   1      41.590  31.748  36.703  1.00  0.00     0.031 C 
ATOM     55  C   UNL A   1      42.976  27.852  32.259  1.00  0.00     0.029 A 
ATOM     56  C   UNL A   1      42.363  28.853  32.995  1.00  0.00     0.049 A 
ATOM     57  H   UNL A   1      40.703  30.052  32.488  1.00  0.00     0.167 HD
ATOM     58  C   UNL A   1      42.060  30.327  34.968  1.00  0.00     0.074 A 
ATOM     59  C   UNL A   1      42.411  30.789  36.294  1.00  0.00     0.031 C 
ATOM     60  C   UNL A   1      42.702  29.330  34.311  1.00  0.00     0.037 A 
BRANCH  47  61
ATOM     61  C   UNL A   1      40.394  28.057  28.732  1.00  0.00     0.064 A 
ATOM     62  C   UNL A   1      39.739  26.817  28.682  1.00  0.00     0.173 A 
ATOM     63  C   UNL A   1      41.155  28.444  27.621  1.00  0.00     0.173 A 
ATOM     64  F   UNL A   1      39.001  26.399  29.721  1.00  0.00    -0.203 F 
ATOM     65  C   UNL A   1      39.852  25.993  27.566  1.00  0.00     0.198 A 
ATOM     66  C   UNL A   1      41.245  27.629  26.495  1.00  0.00     0.198 A 
ATOM     67  F   UNL A   1      41.789  29.627  27.616  1.00  0.00    -0.203 F 
ATOM     68  F   UNL A   1      39.239  24.802  27.548  1.00  0.00    -0.200 F 
ATOM     69  C   UNL A   1      40.602  26.402  26.472  1.00  0.00     0.200 A 
ATOM     70  F   UNL A   1      41.951  28.037  25.431  1.00  0.00    -0.200 F 
ATOM     71  F   UNL A   1      40.700  25.613  25.394  1.00  0.00    -0.200 F 
ENDBRANCH  47  61
BRANCH  48  72
ATOM     72  C   UNL A   1      39.533  33.837  36.822  1.00  0.00     0.064 A 
ATOM     73  C   UNL A   1      38.760  33.448  37.924  1.00  0.00     0.173 A 
ATOM     74  C   UNL A   1      40.167  35.086  36.876  1.00  0.00     0.173 A 
ATOM     75  F   UNL A   1      38.129  32.265  37.918  1.00  0.00    -0.203 F 
ATOM     76  C   UNL A   1      38.613  34.283  39.030  1.00  0.00     0.198 A 
ATOM     77  C   UNL A   1      40.037  35.911  37.990  1.00  0.00     0.198 A 
ATOM     78  F   UNL A   1      40.932  35.492  35.852  1.00  0.00    -0.203 F 
ATOM     79  F   UNL A   1      37.845  33.901  40.058  1.00  0.00    -0.200 F 
ATOM     80  C   UNL A   1      39.255  35.512  39.063  1.00  0.00     0.200 A 
ATOM     81  F   UNL A   1      40.674  37.089  38.026  1.00  0.00    -0.200 F 
ATOM     82  F   UNL A   1      39.119  36.312  40.130  1.00  0.00    -0.200 F 
ENDBRANCH  48  72
BRANCH  60  83
ATOM     83  C   UNL A   1      43.862  28.679  35.001  1.00  0.00     0.064 A 
ATOM     84  C   UNL A   1      43.660  27.572  35.839  1.00  0.00     0.173 A 
ATOM     85  C   UNL A   1      45.158  29.202  34.898  1.00  0.00     0.173 A 
ATOM     86  F   UNL A   1      42.435  27.042  35.974  1.00  0.00    -0.203 F 
ATOM     87  C   UNL A   1      44.712  27.022  36.562  1.00  0.00     0.198 A 
ATOM     88  C   UNL A   1      46.214  28.634  35.605  1.00  0.00     0.198 A 
ATOM     89  F   UNL A   1      45.401  30.252  34.099  1.00  0.00    -0.203 F 
ATOM     90  F   UNL A   1      44.491  25.984  37.381  1.00  0.00    -0.200 F 
ATOM     91  C   UNL A   1      45.989  27.552  36.444  1.00  0.00     0.200 A 
ATOM     92  F   UNL A   1      47.450  29.134  35.475  1.00  0.00    -0.200 F 
ATOM     93  F   UNL A   1      47.004  27.018  37.137  1.00  0.00    -0.200 F 
ENDBRANCH  60  83
ENDBRANCH  34  35
ENDBRANCH  26  29
ENDBRANCH  24  25
ENDBRANCH  23  24
ENDBRANCH   1  23
TORSDOF 15
ENDMDL
MODEL 2
REMARK VINA RESULT:     -11.8      6.365     11.630
REMARK SMILES C[C@H](O)[C@@H](NS(=O)(=O)c1ccc(F)cc1)C(=O)NCCCNC(=O)c1ccc(-c2c3nc(c(-c4c(F)c(F)c(F)c(F)c4F)c4ccc([nH]4)c(-c4c(F)c(F)c(F)c(F)c4F)c4nc(c(-c5c(F)c(F)c(F)c(F)c5F)c5ccc2[nH]5)C=C4)C=C3)cc1
REMARK SMILES IDX 19 1 18 2 16 3 17 4 4 6 2 7 1 8 3 9 5 11 6 13 7 14 8 15 9 16
REMARK SMILES IDX 10 17 15 18 11 19 14 20 12 21 13 22 20 23 21 24 22 25 23 26
REMARK SMILES IDX 24 28 25 29 26 30 87 31 27 32 86 33 28 34 29 35 30 36 80 37
REMARK SMILES IDX 31 38 85 39 79 40 81 41 32 42 84 43 78 44 77 45 33 47 65 48
REMARK SMILES IDX 45 49 64 50 46 51 49 52 63 53 82 54 47 55 48 56 62 58 83 59
REMARK SMILES IDX 50 60 34 61 35 62 43 63 36 64 37 65 41 66 44 67 38 68 39 69
REMARK SMILES IDX 42 70 40 71 66 72 67 73 75 74 68 75 69 76 73 77 76 78 70 79
REMARK SMILES IDX 71 80 74 81 72 82 51 83 52 84 60 85 53 86 54 87 58 88 61 89
REMARK SMILES IDX 55 90 56 91 59 92 57 93
REMARK H PARENT 18 5 3 10 5 12 22 27 81 46 49 57
REMARK Flexibility Score: inf
ROOT
ATOM      1  C   UNL A   1      37.059  21.079  25.156  1.00  0.00     0.117 C 
ENDROOT
BRANCH   1   2
ATOM      2  N   UNL A   1      36.786  21.864  23.965  1.00  0.00    -0.355 N 
ATOM      3  C   UNL A   1      35.773  22.734  23.690  1.00  0.00     0.240 C 
ATOM      4  O   UNL A   1      35.783  23.277  22.582  1.00  0.00    -0.273 OA
ATOM      5  H   UNL A   1      37.440  21.751  23.237  1.00  0.00     0.163 HD
BRANCH   3   6
ATOM      6  C   UNL A   1      34.656  23.006  24.694  1.00  0.00     0.187 C 
BRANCH   6   7
ATOM      7  C   UNL A   1      34.372  24.526  24.788  1.00  0.00     0.139 C 
ATOM      8  C   UNL A   1      33.424  24.873  25.937  1.00  0.00     0.040 C 
BRANCH   7   9
ATOM      9  O   UNL A   1      33.738  24.995  23.590  1.00  0.00    -0.391 OA
ATOM     10  H   UNL A   1      32.782  25.068  23.737  1.00  0.00     0.211 HD
ENDBRANCH   7   9
ENDBRANCH   6   7
BRANCH   6  11
ATOM     11  N   UNL A   1      33.422  22.241  24.343  1.00  0.00    -0.196 NA
ATOM     12  H   UNL A   1      33.595  21.798  23.440  1.00  0.00     0.142 HD
BRANCH  11  13
ATOM     13  S   UNL A   1      32.873  21.035  25.383  1.00  0.00     0.241 S 
ATOM     14  O   UNL A   1      33.609  21.106  26.624  1.00  0.00    -0.207 OA
ATOM     15  O   UNL A   1      31.435  21.179  25.345  1.00  0.00    -0.207 OA
BRANCH  13  16
ATOM     16  C   UNL A   1      33.272  19.498  24.583  1.00  0.00     0.082 A 
ATOM     17  C   UNL A   1      34.456  18.824  24.915  1.00  0.00     0.025 A 
ATOM     18  C   UNL A   1      32.469  19.026  23.540  1.00  0.00     0.025 A 
ATOM     19  C   UNL A   1      34.805  17.657  24.228  1.00  0.00     0.040 A 
ATOM     20  C   UNL A   1      32.801  17.838  22.885  1.00  0.00     0.040 A 
ATOM     21  C   UNL A   1      33.967  17.167  23.232  1.00  0.00     0.123 A 
ATOM     22  F   UNL A   1      34.301  16.045  22.581  1.00  0.00    -0.207 F 
ENDBRANCH  13  16
ENDBRANCH  11  13
ENDBRANCH   6  11
ENDBRANCH   3   6
ENDBRANCH   1   2
BRANCH   1  23
ATOM     23  C   UNL A   1      38.250  20.153  24.951  1.00  0.00     0.042 C 
BRANCH  23  24
ATOM     24  C   UNL A   1      39.302  20.264  26.046  1.00  0.00     0.118 C 
BRANCH  24  25
ATOM     25  N   UNL A   1      40.283  19.191  25.991  1.00  0.00    -0.352 N 
ATOM     26  C   UNL A   1      41.654  19.281  26.061  1.00  0.00     0.251 C 
ATOM     27  H   UNL A   1      39.919  18.282  25.892  1.00  0.00     0.163 HD
ATOM     28  O   UNL A   1      42.352  18.297  25.847  1.00  0.00    -0.269 OA
BRANCH  26  29
ATOM     29  C   UNL A   1      42.281  20.586  26.360  1.00  0.00     0.039 A 
ATOM     30  C   UNL A   1      42.636  21.423  25.301  1.00  0.00     0.014 A 
ATOM     31  C   UNL A   1      42.488  20.989  27.682  1.00  0.00     0.014 A 
ATOM     32  C   UNL A   1      43.136  22.698  25.568  1.00  0.00     0.010 A 
ATOM     33  C   UNL A   1      42.921  22.285  27.948  1.00  0.00     0.010 A 
ATOM     34  C   UNL A   1      43.248  23.151  26.893  1.00  0.00    -0.014 A 
BRANCH  34  35
ATOM     35  C   UNL A   1      43.706  24.528  27.199  1.00  0.00     0.031 A 
ATOM     36  C   UNL A   1      42.739  25.538  27.746  1.00  0.00     0.074 A 
ATOM     37  C   UNL A   1      44.975  24.886  26.923  1.00  0.00     0.049 A 
ATOM     38  N   UNL A   1      42.925  26.810  27.997  1.00  0.00    -0.248 NA
ATOM     39  C   UNL A   1      41.374  25.065  28.024  1.00  0.00     0.031 C 
ATOM     40  C   UNL A   1      45.996  24.007  26.350  1.00  0.00     0.029 A 
ATOM     41  N   UNL A   1      45.621  26.086  27.080  1.00  0.00    -0.354 N 
ATOM     42  C   UNL A   1      41.701  27.288  28.441  1.00  0.00     0.074 A 
ATOM     43  C   UNL A   1      40.767  26.185  28.387  1.00  0.00     0.031 C 
ATOM     44  C   UNL A   1      47.146  24.690  26.229  1.00  0.00     0.029 A 
ATOM     45  C   UNL A   1      46.936  26.062  26.683  1.00  0.00     0.049 A 
ATOM     46  H   UNL A   1      45.183  26.890  27.443  1.00  0.00     0.167 HD
ATOM     47  C   UNL A   1      41.391  28.530  28.880  1.00  0.00     0.037 A 
ATOM     48  C   UNL A   1      47.866  27.035  26.684  1.00  0.00     0.037 A 
ATOM     49  C   UNL A   1      42.331  29.615  28.973  1.00  0.00     0.049 A 
ATOM     50  C   UNL A   1      47.499  28.403  27.187  1.00  0.00     0.074 A 
ATOM     51  C   UNL A   1      42.126  30.894  29.461  1.00  0.00     0.029 A 
ATOM     52  N   UNL A   1      43.659  29.545  28.577  1.00  0.00    -0.354 N 
ATOM     53  N   UNL A   1      46.350  28.833  27.647  1.00  0.00    -0.248 NA
ATOM     54  C   UNL A   1      48.558  29.423  27.173  1.00  0.00     0.031 C 
ATOM     55  C   UNL A   1      43.321  31.608  29.330  1.00  0.00     0.029 A 
ATOM     56  C   UNL A   1      44.280  30.762  28.797  1.00  0.00     0.049 A 
ATOM     57  H   UNL A   1      44.093  28.748  28.195  1.00  0.00     0.167 HD
ATOM     58  C   UNL A   1      46.549  30.160  27.994  1.00  0.00     0.074 A 
ATOM     59  C   UNL A   1      47.934  30.467  27.704  1.00  0.00     0.031 C 
ATOM     60  C   UNL A   1      45.662  31.047  28.508  1.00  0.00     0.037 A 
BRANCH  47  61
ATOM     61  C   UNL A   1      39.979  28.783  29.314  1.00  0.00     0.064 A 
ATOM     62  C   UNL A   1      39.579  28.511  30.631  1.00  0.00     0.173 A 
ATOM     63  C   UNL A   1      39.008  29.239  28.412  1.00  0.00     0.173 A 
ATOM     64  F   UNL A   1      40.470  28.070  31.532  1.00  0.00    -0.203 F 
ATOM     65  C   UNL A   1      38.255  28.680  31.026  1.00  0.00     0.198 A 
ATOM     66  C   UNL A   1      37.689  29.431  28.816  1.00  0.00     0.198 A 
ATOM     67  F   UNL A   1      39.344  29.525  27.145  1.00  0.00    -0.203 F 
ATOM     68  F   UNL A   1      37.889  28.392  32.282  1.00  0.00    -0.200 F 
ATOM     69  C   UNL A   1      37.312  29.144  30.119  1.00  0.00     0.200 A 
ATOM     70  F   UNL A   1      36.786  29.901  27.945  1.00  0.00    -0.200 F 
ATOM     71  F   UNL A   1      36.040  29.317  30.504  1.00  0.00    -0.200 F 
ENDBRANCH  47  61
BRANCH  48  72
ATOM     72  C   UNL A   1      49.245  26.732  26.228  1.00  0.00     0.064 A 
ATOM     73  C   UNL A   1      50.215  26.233  27.108  1.00  0.00     0.173 A 
ATOM     74  C   UNL A   1      49.626  26.966  24.899  1.00  0.00     0.173 A 
ATOM     75  F   UNL A   1      49.901  25.998  28.390  1.00  0.00    -0.203 F 
ATOM     76  C   UNL A   1      51.520  25.995  26.680  1.00  0.00     0.198 A 
ATOM     77  C   UNL A   1      50.924  26.708  24.467  1.00  0.00     0.198 A 
ATOM     78  F   UNL A   1      48.727  27.426  24.017  1.00  0.00    -0.203 F 
ATOM     79  F   UNL A   1      52.436  25.546  27.548  1.00  0.00    -0.200 F 
ATOM     80  C   UNL A   1      51.872  26.229  25.359  1.00  0.00     0.200 A 
ATOM     81  F   UNL A   1      51.256  26.917  23.186  1.00  0.00    -0.200 F 
ATOM     82  F   UNL A   1      53.125  25.992  24.947  1.00  0.00    -0.200 F 
ENDBRANCH  48  72
BRANCH  60  83
ATOM     83  C   UNL A   1      46.157  32.429  28.810  1.00  0.00     0.064 A 
ATOM     84  C   UNL A   1      46.120  33.427  27.826  1.00  0.00     0.173 A 
ATOM     85  C   UNL A   1      46.743  32.739  30.045  1.00  0.00     0.173 A 
ATOM     86  F   UNL A   1      45.574  33.174  26.626  1.00  0.00    -0.203 F 
ATOM     87  C   UNL A   1      46.667  34.684  28.062  1.00  0.00     0.198 A 
ATOM     88  C   UNL A   1      47.269  34.005  30.285  1.00  0.00     0.198 A 
ATOM     89  F   UNL A   1      46.790  31.820  31.020  1.00  0.00    -0.203 F 
ATOM     90  F   UNL A   1      46.649  35.614  27.096  1.00  0.00    -0.200 F 
ATOM     91  C   UNL A   1      47.240  34.972  29.292  1.00  0.00     0.200 A 
ATOM     92  F   UNL A   1      47.804  34.290  31.481  1.00  0.00    -0.200 F 
ATOM     93  F   UNL A   1      47.762  36.185  29.520  1.00  0.00    -0.200 F 
ENDBRANCH  60  83
ENDBRANCH  34  35
ENDBRANCH  26  29
ENDBRANCH  24  25
ENDBRANCH  23  24
ENDBRANCH   1  23
TORSDOF 15
ENDMDL
MODEL 3
REMARK VINA RESULT:     -11.8      1.580      2.994
REMARK SMILES C[C@H](O)[C@@H](NS(=O)(=O)c1ccc(F)cc1)C(=O)NCCCNC(=O)c1ccc(-c2c3nc(c(-c4c(F)c(F)c(F)c(F)c4F)c4ccc([nH]4)c(-c4c(F)c(F)c(F)c(F)c4F)c4nc(c(-c5c(F)c(F)c(F)c(F)c5F)c5ccc2[nH]5)C=C4)C=C3)cc1
REMARK SMILES IDX 19 1 18 2 16 3 17 4 4 6 2 7 1 8 3 9 5 11 6 13 7 14 8 15 9 16
REMARK SMILES IDX 10 17 15 18 11 19 14 20 12 21 13 22 20 23 21 24 22 25 23 26
REMARK SMILES IDX 24 28 25 29 26 30 87 31 27 32 86 33 28 34 29 35 30 36 80 37
REMARK SMILES IDX 31 38 85 39 79 40 81 41 32 42 84 43 78 44 77 45 33 47 65 48
REMARK SMILES IDX 45 49 64 50 46 51 49 52 63 53 82 54 47 55 48 56 62 58 83 59
REMARK SMILES IDX 50 60 34 61 35 62 43 63 36 64 37 65 41 66 44 67 38 68 39 69
REMARK SMILES IDX 42 70 40 71 66 72 67 73 75 74 68 75 69 76 73 77 76 78 70 79
REMARK SMILES IDX 71 80 74 81 72 82 51 83 52 84 60 85 53 86 54 87 58 88 61 89
REMARK SMILES IDX 55 90 56 91 59 92 57 93
REMARK H PARENT 18 5 3 10 5 12 22 27 81 46 49 57
REMARK Flexibility Score: inf
ROOT
ATOM      1  C   UNL A   1      31.762  30.542  26.562  1.00  0.00     0.117 C 
ENDROOT
BRANCH   1   2
ATOM      2  N   UNL A   1      32.534  30.176  25.388  1.00  0.00    -0.355 N 
ATOM      3  C   UNL A   1      32.267  29.279  24.396  1.00  0.00     0.240 C 
ATOM      4  O   UNL A   1      33.108  29.166  23.501  1.00  0.00    -0.273 OA
ATOM      5  H   UNL A   1      33.390  30.655  25.292  1.00  0.00     0.163 HD
BRANCH   3   6
ATOM      6  C   UNL A   1      30.999  28.430  24.404  1.00  0.00     0.187 C 
BRANCH   6   7
ATOM      7  C   UNL A   1      30.184  28.664  23.107  1.00  0.00     0.139 C 
ATOM      8  C   UNL A   1      28.830  27.955  23.133  1.00  0.00     0.040 C 
BRANCH   7   9
ATOM      9  O   UNL A   1      30.887  28.145  21.970  1.00  0.00    -0.391 OA
ATOM     10  H   UNL A   1      30.923  27.177  22.026  1.00  0.00     0.211 HD
ENDBRANCH   7   9
ENDBRANCH   6   7
BRANCH   6  11
ATOM     11  N   UNL A   1      31.324  26.985  24.591  1.00  0.00    -0.196 NA
ATOM     12  H   UNL A   1      32.328  26.884  24.439  1.00  0.00     0.142 HD
BRANCH  11  13
ATOM     13  S   UNL A   1      30.975  26.243  26.062  1.00  0.00     0.241 S 
ATOM     14  O   UNL A   1      31.102  27.212  27.126  1.00  0.00    -0.207 OA
ATOM     15  O   UNL A   1      29.730  25.553  25.811  1.00  0.00    -0.207 OA
BRANCH  13  16
ATOM     16  C   UNL A   1      32.232  25.004  26.282  1.00  0.00     0.082 A 
ATOM     17  C   UNL A   1      33.521  25.219  25.775  1.00  0.00     0.025 A 
ATOM     18  C   UNL A   1      31.902  23.769  26.850  1.00  0.00     0.025 A 
ATOM     19  C   UNL A   1      34.485  24.211  25.879  1.00  0.00     0.040 A 
ATOM     20  C   UNL A   1      32.879  22.781  26.988  1.00  0.00     0.040 A 
ATOM     21  C   UNL A   1      34.159  23.009  26.498  1.00  0.00     0.123 A 
ATOM     22  F   UNL A   1      35.086  22.048  26.604  1.00  0.00    -0.207 F 
ENDBRANCH  13  16
ENDBRANCH  11  13
ENDBRANCH   6  11
ENDBRANCH   3   6
ENDBRANCH   1   2
BRANCH   1  23
ATOM     23  C   UNL A   1      31.557  32.048  26.647  1.00  0.00     0.042 C 
BRANCH  23  24
ATOM     24  C   UNL A   1      32.732  32.788  27.270  1.00  0.00     0.118 C 
BRANCH  24  25
ATOM     25  N   UNL A   1      32.411  34.166  27.610  1.00  0.00    -0.352 N 
ATOM     26  C   UNL A   1      32.970  34.959  28.585  1.00  0.00     0.251 C 
ATOM     27  H   UNL A   1      31.700  34.586  27.073  1.00  0.00     0.163 HD
ATOM     28  O   UNL A   1      32.485  36.053  28.849  1.00  0.00    -0.269 OA
BRANCH  26  29
ATOM     29  C   UNL A   1      34.142  34.465  29.338  1.00  0.00     0.039 A 
ATOM     30  C   UNL A   1      33.934  33.769  30.530  1.00  0.00     0.014 A 
ATOM     31  C   UNL A   1      35.437  34.664  28.850  1.00  0.00     0.014 A 
ATOM     32  C   UNL A   1      35.023  33.210  31.201  1.00  0.00     0.010 A 
ATOM     33  C   UNL A   1      36.513  34.049  29.481  1.00  0.00     0.010 A 
ATOM     34  C   UNL A   1      36.316  33.315  30.661  1.00  0.00    -0.014 A 
BRANCH  34  35
ATOM     35  C   UNL A   1      37.478  32.666  31.317  1.00  0.00     0.031 A 
ATOM     36  C   UNL A   1      38.208  31.554  30.621  1.00  0.00     0.074 A 
ATOM     37  C   UNL A   1      37.832  33.034  32.563  1.00  0.00     0.049 A 
ATOM     38  N   UNL A   1      39.190  30.807  31.061  1.00  0.00    -0.248 NA
ATOM     39  C   UNL A   1      37.761  31.217  29.261  1.00  0.00     0.031 C 
ATOM     40  C   UNL A   1      37.172  34.071  33.358  1.00  0.00     0.029 A 
ATOM     41  N   UNL A   1      38.830  32.571  33.383  1.00  0.00    -0.354 N 
ATOM     42  C   UNL A   1      39.461  29.905  30.043  1.00  0.00     0.074 A 
ATOM     43  C   UNL A   1      38.516  30.166  28.979  1.00  0.00     0.031 C 
ATOM     44  C   UNL A   1      37.801  34.184  34.540  1.00  0.00     0.029 A 
ATOM     45  C   UNL A   1      38.884  33.206  34.600  1.00  0.00     0.049 A 
ATOM     46  H   UNL A   1      39.450  31.852  33.124  1.00  0.00     0.167 HD
ATOM     47  C   UNL A   1      40.430  28.961  29.990  1.00  0.00     0.037 A 
ATOM     48  C   UNL A   1      39.711  33.020  35.645  1.00  0.00     0.037 A 
ATOM     49  C   UNL A   1      41.395  28.731  31.031  1.00  0.00     0.049 A 
ATOM     50  C   UNL A   1      40.786  31.973  35.557  1.00  0.00     0.074 A 
ATOM     51  C   UNL A   1      42.451  27.837  31.045  1.00  0.00     0.029 A 
ATOM     52  N   UNL A   1      41.426  29.407  32.242  1.00  0.00    -0.354 N 
ATOM     53  N   UNL A   1      41.061  31.155  34.571  1.00  0.00    -0.248 NA
ATOM     54  C   UNL A   1      41.665  31.822  36.725  1.00  0.00     0.031 C 
ATOM     55  C   UNL A   1      43.102  27.949  32.276  1.00  0.00     0.029 A 
ATOM     56  C   UNL A   1      42.476  28.940  33.015  1.00  0.00     0.049 A 
ATOM     57  H   UNL A   1      40.795  30.113  32.511  1.00  0.00     0.167 HD
ATOM     58  C   UNL A   1      42.153  30.409  34.988  1.00  0.00     0.074 A 
ATOM     59  C   UNL A   1      42.500  30.876  36.314  1.00  0.00     0.031 C 
ATOM     60  C   UNL A   1      42.809  29.422  34.330  1.00  0.00     0.037 A 
BRANCH  47  61
ATOM     61  C   UNL A   1      40.509  28.114  28.756  1.00  0.00     0.064 A 
ATOM     62  C   UNL A   1      39.840  26.883  28.692  1.00  0.00     0.173 A 
ATOM     63  C   UNL A   1      41.294  28.495  27.658  1.00  0.00     0.173 A 
ATOM     64  F   UNL A   1      39.079  26.472  29.718  1.00  0.00    -0.203 F 
ATOM     65  C   UNL A   1      39.962  26.060  27.576  1.00  0.00     0.198 A 
ATOM     66  C   UNL A   1      41.394  27.681  26.533  1.00  0.00     0.198 A 
ATOM     67  F   UNL A   1      41.943  29.669  27.666  1.00  0.00    -0.203 F 
ATOM     68  F   UNL A   1      39.334  24.877  27.545  1.00  0.00    -0.200 F 
ATOM     69  C   UNL A   1      40.735  26.462  26.496  1.00  0.00     0.200 A 
ATOM     70  F   UNL A   1      42.122  28.081  25.481  1.00  0.00    -0.200 F 
ATOM     71  F   UNL A   1      40.842  25.673  25.418  1.00  0.00    -0.200 F 
ENDBRANCH  47  61
BRANCH  48  72
ATOM     72  C   UNL A   1      39.576  33.878  36.849  1.00  0.00     0.064 A 
ATOM     73  C   UNL A   1      40.158  35.152  36.911  1.00  0.00     0.173 A 
ATOM     74  C   UNL A   1      38.881  33.421  37.978  1.00  0.00     0.173 A 
ATOM     75  F   UNL A   1      40.837  35.631  35.859  1.00  0.00    -0.203 F 
ATOM     76  C   UNL A   1      40.064  35.930  38.063  1.00  0.00     0.198 A 
ATOM     77  C   UNL A   1      38.769  34.208  39.121  1.00  0.00     0.198 A 
ATOM     78  F   UNL A   1      38.292  32.216  37.958  1.00  0.00    -0.203 F 
ATOM     79  F   UNL A   1      40.654  37.132  38.107  1.00  0.00    -0.200 F 
ATOM     80  C   UNL A   1      39.366  35.460  39.165  1.00  0.00     0.200 A 
ATOM     81  F   UNL A   1      38.078  33.758  40.177  1.00  0.00    -0.200 F 
ATOM     82  F   UNL A   1      39.269  36.212  40.270  1.00  0.00    -0.200 F 
ENDBRANCH  48  72
BRANCH  60  83
ATOM     83  C   UNL A   1      43.981  28.789  35.017  1.00  0.00     0.064 A 
ATOM     84  C   UNL A   1      43.791  27.721  35.905  1.00  0.00     0.173 A 
ATOM     85  C   UNL A   1      45.279  29.295  34.859  1.00  0.00     0.173 A 
ATOM     86  F   UNL A   1      42.565  27.208  36.093  1.00  0.00    -0.203 F 
ATOM     87  C   UNL A   1      44.857  27.190  36.624  1.00  0.00     0.198 A 
ATOM     88  C   UNL A   1      46.347  28.747  35.563  1.00  0.00     0.198 A 
ATOM     89  F   UNL A   1      45.510  30.308  34.011  1.00  0.00    -0.203 F 
ATOM     90  F   UNL A   1      44.648  26.190  37.491  1.00  0.00    -0.200 F 
ATOM     91  C   UNL A   1      46.135  27.703  36.451  1.00  0.00     0.200 A 
ATOM     92  F   UNL A   1      47.585  29.229  35.381  1.00  0.00    -0.200 F 
ATOM     93  F   UNL A   1      47.162  27.188  37.140  1.00  0.00    -0.200 F 
ENDBRANCH  60  83
ENDBRANCH  34  35
ENDBRANCH  26  29
ENDBRANCH  24  25
ENDBRANCH  23  24
ENDBRANCH   1  23
TORSDOF 15
ENDMDL
