MODEL 1
REMARK VINA RESULT:     -12.9      0.000      0.000
REMARK SMILES CCc1ccsc1-c1nnnn1C[C@H](CC(C)C)C(=O)NCCCNC(=O)c1ccc(-c2c3nc(c(-c4c(F)c(F)c(F)c(F)c4F)c4ccc([nH]4)c(-c4c(F)c(F)c(F)c(F)c4F)c4nc(c(-c5c(F)c(F)c(F)c(F)c5F)c5ccc2[nH]5)C=C4)C=C3)cc1
REMARK SMILES IDX 22 1 21 2 19 3 20 4 14 6 13 7 12 8 8 9 9 10 10 11 11 12 7 13
REMARK SMILES IDX 3 14 4 15 5 16 6 17 2 18 1 19 15 20 16 21 17 22 18 23 23 24
REMARK SMILES IDX 24 25 25 26 26 27 27 29 28 30 29 31 90 32 30 33 89 34 31 35
REMARK SMILES IDX 32 36 33 37 83 38 34 39 88 40 82 41 84 42 35 43 87 44 81 45
REMARK SMILES IDX 80 46 36 48 68 49 48 50 67 51 49 52 52 53 66 54 85 55 50 56
REMARK SMILES IDX 51 57 65 59 86 60 53 61 37 62 38 63 46 64 39 65 40 66 44 67
REMARK SMILES IDX 47 68 41 69 42 70 45 71 43 72 69 73 70 74 78 75 71 76 72 77
REMARK SMILES IDX 76 78 79 79 73 80 74 81 77 82 75 83 54 84 55 85 63 86 56 87
REMARK SMILES IDX 57 88 61 89 64 90 58 91 59 92 62 93 60 94
REMARK H PARENT 21 5 25 28 84 47 52 58
REMARK Flexibility Score: inf
ROOT
ATOM      1  C   UNL A   1      36.559  21.368  25.280  1.00  0.00     0.117 C 
ENDROOT
BRANCH   1   2
ATOM      2  N   UNL A   1      35.830  21.448  26.528  1.00  0.00    -0.356 N 
ATOM      3  C   UNL A   1      34.549  21.858  26.745  1.00  0.00     0.224 C 
ATOM      4  O   UNL A   1      34.017  21.527  27.808  1.00  0.00    -0.275 OA
ATOM      5  H   UNL A   1      36.328  21.169  27.330  1.00  0.00     0.163 HD
BRANCH   3   6
ATOM      6  C   UNL A   1      33.773  22.713  25.744  1.00  0.00     0.100 C 
BRANCH   6   7
ATOM      7  C   UNL A   1      33.096  23.939  26.396  1.00  0.00     0.162 C 
BRANCH   7   8
ATOM      8  N   UNL A   1      31.669  23.917  26.596  1.00  0.00    -0.224 N 
ATOM      9  C   UNL A   1      30.686  24.775  26.164  1.00  0.00     0.192 A 
ATOM     10  N   UNL A   1      29.568  24.448  26.785  1.00  0.00    -0.108 NA
ATOM     11  N   UNL A   1      29.845  23.315  27.508  1.00  0.00    -0.023 NA
ATOM     12  N   UNL A   1      31.113  22.959  27.365  1.00  0.00    -0.045 NA
BRANCH   9  13
ATOM     13  C   UNL A   1      30.813  25.839  25.216  1.00  0.00     0.077 A 
ATOM     14  C   UNL A   1      31.314  27.115  25.440  1.00  0.00    -0.026 A 
ATOM     15  C   UNL A   1      31.234  27.910  24.244  1.00  0.00     0.016 A 
ATOM     16  C   UNL A   1      30.759  27.204  23.163  1.00  0.00     0.066 A 
ATOM     17  S   UNL A   1      30.424  25.585  23.566  1.00  0.00    -0.140 S 
BRANCH  14  18
ATOM     18  C   UNL A   1      31.879  27.629  26.737  1.00  0.00     0.034 C 
ATOM     19  C   UNL A   1      33.382  27.870  26.686  1.00  0.00     0.009 C 
ENDBRANCH  14  18
ENDBRANCH   9  13
ENDBRANCH   7   8
ENDBRANCH   6   7
BRANCH   6  20
ATOM     20  C   UNL A   1      32.972  21.835  24.763  1.00  0.00     0.018 C 
BRANCH  20  21
ATOM     21  C   UNL A   1      32.630  22.471  23.403  1.00  0.00    -0.017 C 
ATOM     22  C   UNL A   1      33.831  23.185  22.780  1.00  0.00     0.007 C 
ATOM     23  C   UNL A   1      32.144  21.371  22.452  1.00  0.00     0.007 C 
ENDBRANCH  20  21
ENDBRANCH   6  20
ENDBRANCH   3   6
ENDBRANCH   1   2
BRANCH   1  24
ATOM     24  C   UNL A   1      37.765  22.276  25.124  1.00  0.00     0.042 C 
BRANCH  24  25
ATOM     25  C   UNL A   1      38.679  22.241  26.332  1.00  0.00     0.118 C 
BRANCH  25  26
ATOM     26  N   UNL A   1      40.100  22.126  25.990  1.00  0.00    -0.352 N 
ATOM     27  C   UNL A   1      41.110  23.043  26.243  1.00  0.00     0.251 C 
ATOM     28  H   UNL A   1      40.369  21.302  25.526  1.00  0.00     0.163 HD
ATOM     29  O   UNL A   1      42.200  22.974  25.726  1.00  0.00    -0.269 OA
BRANCH  27  30
ATOM     30  C   UNL A   1      40.772  24.149  27.157  1.00  0.00     0.039 A 
ATOM     31  C   UNL A   1      41.661  24.495  28.174  1.00  0.00     0.014 A 
ATOM     32  C   UNL A   1      39.704  24.970  26.811  1.00  0.00     0.014 A 
ATOM     33  C   UNL A   1      41.552  25.757  28.750  1.00  0.00     0.010 A 
ATOM     34  C   UNL A   1      39.687  26.265  27.289  1.00  0.00     0.010 A 
ATOM     35  C   UNL A   1      40.604  26.674  28.261  1.00  0.00    -0.014 A 
BRANCH  35  36
ATOM     36  C   UNL A   1      40.688  28.086  28.671  1.00  0.00     0.031 A 
ATOM     37  C   UNL A   1      41.822  28.879  28.101  1.00  0.00     0.074 A 
ATOM     38  C   UNL A   1      39.733  28.747  29.360  1.00  0.00     0.049 A 
ATOM     39  N   UNL A   1      42.785  29.452  28.750  1.00  0.00    -0.248 NA
ATOM     40  C   UNL A   1      41.928  29.022  26.641  1.00  0.00     0.031 C 
ATOM     41  C   UNL A   1      38.407  28.261  29.752  1.00  0.00     0.029 A 
ATOM     42  N   UNL A   1      39.716  30.051  29.781  1.00  0.00    -0.354 N 
ATOM     43  C   UNL A   1      43.529  30.163  27.809  1.00  0.00     0.074 A 
ATOM     44  C   UNL A   1      43.027  29.773  26.517  1.00  0.00     0.031 C 
ATOM     45  C   UNL A   1      37.637  29.301  30.131  1.00  0.00     0.029 A 
ATOM     46  C   UNL A   1      38.473  30.483  30.212  1.00  0.00     0.049 A 
ATOM     47  H   UNL A   1      40.514  30.628  29.776  1.00  0.00     0.167 HD
ATOM     48  C   UNL A   1      44.350  31.183  28.191  1.00  0.00     0.037 A 
ATOM     49  C   UNL A   1      38.121  31.708  30.660  1.00  0.00     0.037 A 
ATOM     50  C   UNL A   1      44.548  31.190  29.615  1.00  0.00     0.049 A 
ATOM     51  C   UNL A   1      39.327  32.383  31.178  1.00  0.00     0.074 A 
ATOM     52  C   UNL A   1      45.351  30.555  30.533  1.00  0.00     0.029 A 
ATOM     53  N   UNL A   1      43.552  31.817  30.308  1.00  0.00    -0.354 N 
ATOM     54  N   UNL A   1      39.975  31.985  32.238  1.00  0.00    -0.248 NA
ATOM     55  C   UNL A   1      40.008  33.386  30.368  1.00  0.00     0.031 C 
ATOM     56  C   UNL A   1      44.703  30.693  31.799  1.00  0.00     0.029 A 
ATOM     57  C   UNL A   1      43.527  31.414  31.616  1.00  0.00     0.049 A 
ATOM     58  H   UNL A   1      42.933  32.475  29.918  1.00  0.00     0.167 HD
ATOM     59  C   UNL A   1      41.279  32.352  31.989  1.00  0.00     0.074 A 
ATOM     60  C   UNL A   1      41.209  33.368  30.950  1.00  0.00     0.031 C 
ATOM     61  C   UNL A   1      42.313  31.558  32.383  1.00  0.00     0.037 A 
BRANCH  48  62
ATOM     62  C   UNL A   1      44.637  32.444  27.398  1.00  0.00     0.064 A 
ATOM     63  C   UNL A   1      45.872  32.563  26.719  1.00  0.00     0.173 A 
ATOM     64  C   UNL A   1      43.920  33.646  27.559  1.00  0.00     0.173 A 
ATOM     65  F   UNL A   1      46.647  31.487  26.515  1.00  0.00    -0.203 F 
ATOM     66  C   UNL A   1      46.382  33.800  26.312  1.00  0.00     0.198 A 
ATOM     67  C   UNL A   1      44.409  34.874  27.107  1.00  0.00     0.198 A 
ATOM     68  F   UNL A   1      42.781  33.701  28.259  1.00  0.00    -0.203 F 
ATOM     69  F   UNL A   1      47.613  33.875  25.787  1.00  0.00    -0.200 F 
ATOM     70  C   UNL A   1      45.653  34.956  26.513  1.00  0.00     0.200 A 
ATOM     71  F   UNL A   1      43.698  35.988  27.327  1.00  0.00    -0.200 F 
ATOM     72  F   UNL A   1      46.163  36.149  26.183  1.00  0.00    -0.200 F 
ENDBRANCH  48  62
BRANCH  49  73
ATOM     73  C   UNL A   1      36.797  32.356  30.611  1.00  0.00     0.064 A 
ATOM     74  C   UNL A   1      35.920  32.313  31.702  1.00  0.00     0.173 A 
ATOM     75  C   UNL A   1      36.477  33.249  29.571  1.00  0.00     0.173 A 
ATOM     76  F   UNL A   1      36.175  31.508  32.743  1.00  0.00    -0.203 F 
ATOM     77  C   UNL A   1      34.799  33.143  31.767  1.00  0.00     0.198 A 
ATOM     78  C   UNL A   1      35.354  34.072  29.633  1.00  0.00     0.198 A 
ATOM     79  F   UNL A   1      37.298  33.398  28.520  1.00  0.00    -0.203 F 
ATOM     80  F   UNL A   1      34.014  33.120  32.854  1.00  0.00    -0.200 F 
ATOM     81  C   UNL A   1      34.524  34.030  30.738  1.00  0.00     0.200 A 
ATOM     82  F   UNL A   1      35.115  34.947  28.646  1.00  0.00    -0.200 F 
ATOM     83  F   UNL A   1      33.485  34.871  30.831  1.00  0.00    -0.200 F 
ENDBRANCH  49  73
BRANCH  61  84
ATOM     84  C   UNL A   1      42.074  30.644  33.541  1.00  0.00     0.064 A 
ATOM     85  C   UNL A   1      42.185  31.029  34.885  1.00  0.00     0.173 A 
ATOM     86  C   UNL A   1      41.679  29.328  33.270  1.00  0.00     0.173 A 
ATOM     87  F   UNL A   1      42.482  32.291  35.218  1.00  0.00    -0.203 F 
ATOM     88  C   UNL A   1      41.963  30.115  35.914  1.00  0.00     0.198 A 
ATOM     89  C   UNL A   1      41.425  28.427  34.298  1.00  0.00     0.198 A 
ATOM     90  F   UNL A   1      41.517  28.922  32.000  1.00  0.00    -0.203 F 
ATOM     91  F   UNL A   1      42.106  30.494  37.192  1.00  0.00    -0.200 F 
ATOM     92  C   UNL A   1      41.582  28.816  35.619  1.00  0.00     0.200 A 
ATOM     93  F   UNL A   1      41.020  27.182  34.008  1.00  0.00    -0.200 F 
ATOM     94  F   UNL A   1      41.348  27.942  36.608  1.00  0.00    -0.200 F 
ENDBRANCH  61  84
ENDBRANCH  35  36
ENDBRANCH  27  30
ENDBRANCH  25  26
ENDBRANCH  24  25
ENDBRANCH   1  24
TORSDOF 16
ENDMDL
MODEL 2
REMARK VINA RESULT:     -12.8      1.414      2.107
REMARK SMILES CCc1ccsc1-c1nnnn1C[C@H](CC(C)C)C(=O)NCCCNC(=O)c1ccc(-c2c3nc(c(-c4c(F)c(F)c(F)c(F)c4F)c4ccc([nH]4)c(-c4c(F)c(F)c(F)c(F)c4F)c4nc(c(-c5c(F)c(F)c(F)c(F)c5F)c5ccc2[nH]5)C=C4)C=C3)cc1
REMARK SMILES IDX 22 1 21 2 19 3 20 4 14 6 13 7 12 8 8 9 9 10 10 11 11 12 7 13
REMARK SMILES IDX 3 14 4 15 5 16 6 17 2 18 1 19 15 20 16 21 17 22 18 23 23 24
REMARK SMILES IDX 24 25 25 26 26 27 27 29 28 30 29 31 90 32 30 33 89 34 31 35
REMARK SMILES IDX 32 36 33 37 83 38 34 39 88 40 82 41 84 42 35 43 87 44 81 45
REMARK SMILES IDX 80 46 36 48 68 49 48 50 67 51 49 52 52 53 66 54 85 55 50 56
REMARK SMILES IDX 51 57 65 59 86 60 53 61 37 62 38 63 46 64 39 65 40 66 44 67
REMARK SMILES IDX 47 68 41 69 42 70 45 71 43 72 69 73 70 74 78 75 71 76 72 77
REMARK SMILES IDX 76 78 79 79 73 80 74 81 77 82 75 83 54 84 55 85 63 86 56 87
REMARK SMILES IDX 57 88 61 89 64 90 58 91 59 92 62 93 60 94
REMARK H PARENT 21 5 25 28 84 47 52 58
REMARK Flexibility Score: inf
ROOT
ATOM      1  C   UNL A   1      37.448  22.532  25.311  1.00  0.00     0.117 C 
ENDROOT
BRANCH   1   2
ATOM      2  N   UNL A   1      36.494  22.688  26.389  1.00  0.00    -0.356 N 
ATOM      3  C   UNL A   1      35.141  22.822  26.319  1.00  0.00     0.224 C 
ATOM      4  O   UNL A   1      34.491  22.597  27.344  1.00  0.00    -0.275 OA
ATOM      5  H   UNL A   1      36.876  22.701  27.296  1.00  0.00     0.163 HD
BRANCH   3   6
ATOM      6  C   UNL A   1      34.416  23.254  25.043  1.00  0.00     0.100 C 
BRANCH   6   7
ATOM      7  C   UNL A   1      34.341  24.789  24.883  1.00  0.00     0.162 C 
BRANCH   7   8
ATOM      8  N   UNL A   1      33.923  25.332  23.615  1.00  0.00    -0.224 N 
ATOM      9  C   UNL A   1      33.168  26.442  23.317  1.00  0.00     0.192 A 
ATOM     10  N   UNL A   1      32.881  26.395  22.030  1.00  0.00    -0.108 NA
ATOM     11  N   UNL A   1      33.560  25.317  21.521  1.00  0.00    -0.023 NA
ATOM     12  N   UNL A   1      34.233  24.688  22.473  1.00  0.00    -0.045 NA
BRANCH   9  13
ATOM     13  C   UNL A   1      32.751  27.478  24.210  1.00  0.00     0.077 A 
ATOM     14  C   UNL A   1      31.582  27.529  24.958  1.00  0.00    -0.026 A 
ATOM     15  C   UNL A   1      31.506  28.759  25.701  1.00  0.00     0.016 A 
ATOM     16  C   UNL A   1      32.627  29.543  25.553  1.00  0.00     0.066 A 
ATOM     17  S   UNL A   1      33.781  28.806  24.544  1.00  0.00    -0.140 S 
BRANCH  14  18
ATOM     18  C   UNL A   1      30.522  26.462  25.018  1.00  0.00     0.034 C 
ATOM     19  C   UNL A   1      29.424  26.644  23.978  1.00  0.00     0.009 C 
ENDBRANCH  14  18
ENDBRANCH   9  13
ENDBRANCH   7   8
ENDBRANCH   6   7
BRANCH   6  20
ATOM     20  C   UNL A   1      33.155  22.402  24.804  1.00  0.00     0.018 C 
BRANCH  20  21
ATOM     21  C   UNL A   1      31.810  23.151  24.839  1.00  0.00    -0.017 C 
ATOM     22  C   UNL A   1      31.084  23.101  23.494  1.00  0.00     0.007 C 
ATOM     23  C   UNL A   1      30.922  22.522  25.919  1.00  0.00     0.007 C 
ENDBRANCH  20  21
ENDBRANCH   6  20
ENDBRANCH   3   6
ENDBRANCH   1   2
BRANCH   1  24
ATOM     24  C   UNL A   1      38.501  21.452  25.470  1.00  0.00     0.042 C 
BRANCH  24  25
ATOM     25  C   UNL A   1      39.531  21.794  26.528  1.00  0.00     0.118 C 
BRANCH  25  26
ATOM     26  N   UNL A   1      40.881  21.991  25.991  1.00  0.00    -0.352 N 
ATOM     27  C   UNL A   1      41.638  23.154  26.003  1.00  0.00     0.251 C 
ATOM     28  H   UNL A   1      41.300  21.205  25.572  1.00  0.00     0.163 HD
ATOM     29  O   UNL A   1      42.638  23.289  25.339  1.00  0.00    -0.269 OA
BRANCH  27  30
ATOM     30  C   UNL A   1      41.132  24.251  26.848  1.00  0.00     0.039 A 
ATOM     31  C   UNL A   1      41.745  24.511  28.073  1.00  0.00     0.014 A 
ATOM     32  C   UNL A   1      40.234  25.146  26.276  1.00  0.00     0.014 A 
ATOM     33  C   UNL A   1      41.555  25.760  28.657  1.00  0.00     0.010 A 
ATOM     34  C   UNL A   1      40.160  26.425  26.791  1.00  0.00     0.010 A 
ATOM     35  C   UNL A   1      40.815  26.748  27.983  1.00  0.00    -0.014 A 
BRANCH  35  36
ATOM     36  C   UNL A   1      40.863  28.139  28.463  1.00  0.00     0.031 A 
ATOM     37  C   UNL A   1      41.994  28.979  27.959  1.00  0.00     0.074 A 
ATOM     38  C   UNL A   1      39.880  28.748  29.161  1.00  0.00     0.049 A 
ATOM     39  N   UNL A   1      42.932  29.536  28.658  1.00  0.00    -0.248 NA
ATOM     40  C   UNL A   1      42.130  29.196  26.511  1.00  0.00     0.031 C 
ATOM     41  C   UNL A   1      38.555  28.220  29.497  1.00  0.00     0.029 A 
ATOM     42  N   UNL A   1      39.829  30.030  29.644  1.00  0.00    -0.354 N 
ATOM     43  C   UNL A   1      43.683  30.306  27.771  1.00  0.00     0.074 A 
ATOM     44  C   UNL A   1      43.218  29.971  26.450  1.00  0.00     0.031 C 
ATOM     45  C   UNL A   1      37.757  29.226  29.909  1.00  0.00     0.029 A 
ATOM     46  C   UNL A   1      38.569  30.417  30.067  1.00  0.00     0.049 A 
ATOM     47  H   UNL A   1      40.616  30.620  29.686  1.00  0.00     0.167 HD
ATOM     48  C   UNL A   1      44.476  31.320  28.221  1.00  0.00     0.037 A 
ATOM     49  C   UNL A   1      38.183  31.612  30.565  1.00  0.00     0.037 A 
ATOM     50  C   UNL A   1      44.641  31.261  29.648  1.00  0.00     0.049 A 
ATOM     51  C   UNL A   1      39.364  32.282  31.144  1.00  0.00     0.074 A 
ATOM     52  C   UNL A   1      45.436  30.596  30.553  1.00  0.00     0.029 A 
ATOM     53  N   UNL A   1      43.618  31.835  30.347  1.00  0.00    -0.354 N 
ATOM     54  N   UNL A   1      39.996  31.844  32.198  1.00  0.00    -0.248 NA
ATOM     55  C   UNL A   1      40.045  33.336  30.399  1.00  0.00     0.031 C 
ATOM     56  C   UNL A   1      44.756  30.660  31.808  1.00  0.00     0.029 A 
ATOM     57  C   UNL A   1      43.571  31.368  31.632  1.00  0.00     0.049 A 
ATOM     58  H   UNL A   1      42.996  32.500  29.975  1.00  0.00     0.167 HD
ATOM     59  C   UNL A   1      41.298  32.247  31.998  1.00  0.00     0.074 A 
ATOM     60  C   UNL A   1      41.232  33.311  31.009  1.00  0.00     0.031 C 
ATOM     61  C   UNL A   1      42.338  31.452  32.377  1.00  0.00     0.037 A 
BRANCH  48  62
ATOM     62  C   UNL A   1      44.757  32.624  27.497  1.00  0.00     0.064 A 
ATOM     63  C   UNL A   1      46.001  32.794  26.847  1.00  0.00     0.173 A 
ATOM     64  C   UNL A   1      44.018  33.806  27.706  1.00  0.00     0.173 A 
ATOM     65  F   UNL A   1      46.795  31.741  26.603  1.00  0.00    -0.203 F 
ATOM     66  C   UNL A   1      46.498  34.057  26.511  1.00  0.00     0.198 A 
ATOM     67  C   UNL A   1      44.497  35.061  27.325  1.00  0.00     0.198 A 
ATOM     68  F   UNL A   1      42.868  33.809  28.388  1.00  0.00    -0.203 F 
ATOM     69  F   UNL A   1      47.737  34.177  26.012  1.00  0.00    -0.200 F 
ATOM     70  C   UNL A   1      45.749  35.191  26.757  1.00  0.00     0.200 A 
ATOM     71  F   UNL A   1      43.766  36.153  27.588  1.00  0.00    -0.200 F 
ATOM     72  F   UNL A   1      46.246  36.407  26.496  1.00  0.00    -0.200 F 
ENDBRANCH  48  62
BRANCH  49  73
ATOM     73  C   UNL A   1      36.849  32.238  30.517  1.00  0.00     0.064 A 
ATOM     74  C   UNL A   1      35.945  32.119  31.580  1.00  0.00     0.173 A 
ATOM     75  C   UNL A   1      36.539  33.182  29.519  1.00  0.00     0.173 A 
ATOM     76  F   UNL A   1      36.189  31.263  32.582  1.00  0.00    -0.203 F 
ATOM     77  C   UNL A   1      34.807  32.924  31.660  1.00  0.00     0.198 A 
ATOM     78  C   UNL A   1      35.398  33.980  29.597  1.00  0.00     0.198 A 
ATOM     79  F   UNL A   1      37.383  33.403  28.500  1.00  0.00    -0.203 F 
ATOM     80  F   UNL A   1      33.996  32.828  32.723  1.00  0.00    -0.200 F 
ATOM     81  C   UNL A   1      34.542  33.862  30.675  1.00  0.00     0.200 A 
ATOM     82  F   UNL A   1      35.168  34.904  28.653  1.00  0.00    -0.200 F 
ATOM     83  F   UNL A   1      33.485  34.678  30.786  1.00  0.00    -0.200 F 
ENDBRANCH  49  73
BRANCH  61  84
ATOM     84  C   UNL A   1      42.089  30.479  33.483  1.00  0.00     0.064 A 
ATOM     85  C   UNL A   1      41.696  29.147  33.288  1.00  0.00     0.173 A 
ATOM     86  C   UNL A   1      42.295  30.912  34.799  1.00  0.00     0.173 A 
ATOM     87  F   UNL A   1      41.557  28.642  32.056  1.00  0.00    -0.203 F 
ATOM     88  C   UNL A   1      41.465  28.301  34.372  1.00  0.00     0.198 A 
ATOM     89  C   UNL A   1      42.097  30.057  35.877  1.00  0.00     0.198 A 
ATOM     90  F   UNL A   1      42.712  32.166  35.037  1.00  0.00    -0.203 F 
ATOM     91  F   UNL A   1      41.059  27.040  34.165  1.00  0.00    -0.200 F 
ATOM     92  C   UNL A   1      41.668  28.756  35.664  1.00  0.00     0.200 A 
ATOM     93  F   UNL A   1      42.331  30.491  37.124  1.00  0.00    -0.200 F 
ATOM     94  F   UNL A   1      41.467  27.937  36.706  1.00  0.00    -0.200 F 
ENDBRANCH  61  84
ENDBRANCH  35  36
ENDBRANCH  27  30
ENDBRANCH  25  26
ENDBRANCH  24  25
ENDBRANCH   1  24
TORSDOF 16
ENDMDL
MODEL 3
REMARK VINA RESULT:     -12.3      1.317      2.159
REMARK SMILES CCc1ccsc1-c1nnnn1C[C@H](CC(C)C)C(=O)NCCCNC(=O)c1ccc(-c2c3nc(c(-c4c(F)c(F)c(F)c(F)c4F)c4ccc([nH]4)c(-c4c(F)c(F)c(F)c(F)c4F)c4nc(c(-c5c(F)c(F)c(F)c(F)c5F)c5ccc2[nH]5)C=C4)C=C3)cc1
REMARK SMILES IDX 22 1 21 2 19 3 20 4 14 6 13 7 12 8 8 9 9 10 10 11 11 12 7 13
REMARK SMILES IDX 3 14 4 15 5 16 6 17 2 18 1 19 15 20 16 21 17 22 18 23 23 24
REMARK SMILES IDX 24 25 25 26 26 27 27 29 28 30 29 31 90 32 30 33 89 34 31 35
REMARK SMILES IDX 32 36 33 37 83 38 34 39 88 40 82 41 84 42 35 43 87 44 81 45
REMARK SMILES IDX 80 46 36 48 68 49 48 50 67 51 49 52 52 53 66 54 85 55 50 56
REMARK SMILES IDX 51 57 65 59 86 60 53 61 37 62 38 63 46 64 39 65 40 66 44 67
REMARK SMILES IDX 47 68 41 69 42 70 45 71 43 72 69 73 70 74 78 75 71 76 72 77
REMARK SMILES IDX 76 78 79 79 73 80 74 81 77 82 75 83 54 84 55 85 63 86 56 87
REMARK SMILES IDX 57 88 61 89 64 90 58 91 59 92 62 93 60 94
REMARK H PARENT 21 5 25 28 84 47 52 58
REMARK Flexibility Score: inf
ROOT
ATOM      1  C   UNL A   1      37.348  22.997  25.316  1.00  0.00     0.117 C 
ENDROOT
BRANCH   1   2
ATOM      2  N   UNL A   1      36.639  23.294  24.090  1.00  0.00    -0.356 N 
ATOM      3  C   UNL A   1      35.303  23.218  23.835  1.00  0.00     0.224 C 
ATOM      4  O   UNL A   1      34.872  23.834  22.856  1.00  0.00    -0.275 OA
ATOM      5  H   UNL A   1      37.199  23.589  23.336  1.00  0.00     0.163 HD
BRANCH   3   6
ATOM      6  C   UNL A   1      34.342  22.395  24.693  1.00  0.00     0.100 C 
BRANCH   6   7
ATOM      7  C   UNL A   1      34.018  23.065  26.047  1.00  0.00     0.162 C 
BRANCH   7   8
ATOM      8  N   UNL A   1      32.652  23.425  26.332  1.00  0.00    -0.224 N 
ATOM      9  C   UNL A   1      31.855  24.416  25.811  1.00  0.00     0.192 A 
ATOM     10  N   UNL A   1      30.761  24.477  26.546  1.00  0.00    -0.108 NA
ATOM     11  N   UNL A   1      30.840  23.443  27.444  1.00  0.00    -0.023 NA
ATOM     12  N   UNL A   1      31.971  22.769  27.292  1.00  0.00    -0.045 NA
BRANCH   9  13
ATOM     13  C   UNL A   1      32.128  25.250  24.681  1.00  0.00     0.077 A 
ATOM     14  C   UNL A   1      32.995  26.333  24.619  1.00  0.00    -0.026 A 
ATOM     15  C   UNL A   1      32.958  26.941  23.316  1.00  0.00     0.016 A 
ATOM     16  C   UNL A   1      32.143  26.269  22.435  1.00  0.00     0.066 A 
ATOM     17  S   UNL A   1      31.434  24.899  23.154  1.00  0.00    -0.140 S 
BRANCH  14  18
ATOM     18  C   UNL A   1      33.875  26.827  25.737  1.00  0.00     0.034 C 
ATOM     19  C   UNL A   1      33.196  27.860  26.627  1.00  0.00     0.009 C 
ENDBRANCH  14  18
ENDBRANCH   9  13
ENDBRANCH   7   8
ENDBRANCH   6   7
BRANCH   6  20
ATOM     20  C   UNL A   1      34.702  20.897  24.653  1.00  0.00     0.018 C 
BRANCH  20  21
ATOM     21  C   UNL A   1      33.597  19.920  25.093  1.00  0.00    -0.017 C 
ATOM     22  C   UNL A   1      32.237  20.272  24.486  1.00  0.00     0.007 C 
ATOM     23  C   UNL A   1      33.992  18.502  24.664  1.00  0.00     0.007 C 
ENDBRANCH  20  21
ENDBRANCH   6  20
ENDBRANCH   3   6
ENDBRANCH   1   2
BRANCH   1  24
ATOM     24  C   UNL A   1      38.248  21.776  25.317  1.00  0.00     0.042 C 
BRANCH  24  25
ATOM     25  C   UNL A   1      39.315  21.840  26.392  1.00  0.00     0.118 C 
BRANCH  25  26
ATOM     26  N   UNL A   1      40.678  21.929  25.860  1.00  0.00    -0.352 N 
ATOM     27  C   UNL A   1      41.586  22.965  26.022  1.00  0.00     0.251 C 
ATOM     28  H   UNL A   1      40.986  21.162  25.326  1.00  0.00     0.163 HD
ATOM     29  O   UNL A   1      42.595  23.059  25.363  1.00  0.00    -0.269 OA
BRANCH  27  30
ATOM     30  C   UNL A   1      41.236  23.988  27.024  1.00  0.00     0.039 A 
ATOM     31  C   UNL A   1      42.070  24.184  28.124  1.00  0.00     0.014 A 
ATOM     32  C   UNL A   1      40.228  24.891  26.700  1.00  0.00     0.014 A 
ATOM     33  C   UNL A   1      41.976  25.386  28.821  1.00  0.00     0.010 A 
ATOM     34  C   UNL A   1      40.234  26.130  27.310  1.00  0.00     0.010 A 
ATOM     35  C   UNL A   1      41.102  26.393  28.373  1.00  0.00    -0.014 A 
BRANCH  35  36
ATOM     36  C   UNL A   1      41.218  27.750  28.933  1.00  0.00     0.031 A 
ATOM     37  C   UNL A   1      42.363  28.578  28.440  1.00  0.00     0.074 A 
ATOM     38  C   UNL A   1      40.283  28.351  29.700  1.00  0.00     0.049 A 
ATOM     39  N   UNL A   1      43.343  29.058  29.136  1.00  0.00    -0.248 NA
ATOM     40  C   UNL A   1      42.459  28.877  27.003  1.00  0.00     0.031 C 
ATOM     41  C   UNL A   1      38.951  27.851  30.051  1.00  0.00     0.029 A 
ATOM     42  N   UNL A   1      40.297  29.601  30.260  1.00  0.00    -0.354 N 
ATOM     43  C   UNL A   1      44.094  29.853  28.270  1.00  0.00     0.074 A 
ATOM     44  C   UNL A   1      43.572  29.615  26.949  1.00  0.00     0.031 C 
ATOM     45  C   UNL A   1      38.205  28.858  30.550  1.00  0.00     0.029 A 
ATOM     46  C   UNL A   1      39.066  30.007  30.749  1.00  0.00     0.049 A 
ATOM     47  H   UNL A   1      41.106  30.159  30.309  1.00  0.00     0.167 HD
ATOM     48  C   UNL A   1      44.938  30.809  28.752  1.00  0.00     0.037 A 
ATOM     49  C   UNL A   1      38.743  31.183  31.331  1.00  0.00     0.037 A 
ATOM     50  C   UNL A   1      45.148  30.658  30.166  1.00  0.00     0.049 A 
ATOM     51  C   UNL A   1      39.967  31.774  31.906  1.00  0.00     0.074 A 
ATOM     52  C   UNL A   1      45.947  29.911  31.001  1.00  0.00     0.029 A 
ATOM     53  N   UNL A   1      44.172  31.225  30.934  1.00  0.00    -0.354 N 
ATOM     54  N   UNL A   1      40.616  31.251  32.909  1.00  0.00    -0.248 NA
ATOM     55  C   UNL A   1      40.661  32.846  31.202  1.00  0.00     0.031 C 
ATOM     56  C   UNL A   1      45.312  29.923  32.281  1.00  0.00     0.029 A 
ATOM     57  C   UNL A   1      44.150  30.683  32.190  1.00  0.00     0.049 A 
ATOM     58  H   UNL A   1      43.563  31.933  30.624  1.00  0.00     0.167 HD
ATOM     59  C   UNL A   1      41.925  31.618  32.687  1.00  0.00     0.074 A 
ATOM     60  C   UNL A   1      41.867  32.742  31.766  1.00  0.00     0.031 C 
ATOM     61  C   UNL A   1      42.946  30.766  32.981  1.00  0.00     0.037 A 
BRANCH  48  62
ATOM     62  C   UNL A   1      45.244  32.143  28.096  1.00  0.00     0.064 A 
ATOM     63  C   UNL A   1      44.186  33.050  27.858  1.00  0.00     0.173 A 
ATOM     64  C   UNL A   1      46.438  32.412  27.397  1.00  0.00     0.173 A 
ATOM     65  F   UNL A   1      42.998  32.889  28.461  1.00  0.00    -0.203 F 
ATOM     66  C   UNL A   1      44.292  34.091  26.931  1.00  0.00     0.198 A 
ATOM     67  C   UNL A   1      46.556  33.483  26.508  1.00  0.00     0.198 A 
ATOM     68  F   UNL A   1      47.490  31.589  27.454  1.00  0.00    -0.203 F 
ATOM     69  F   UNL A   1      43.221  34.846  26.648  1.00  0.00    -0.200 F 
ATOM     70  C   UNL A   1      45.476  34.302  26.250  1.00  0.00     0.200 A 
ATOM     71  F   UNL A   1      47.705  33.662  25.842  1.00  0.00    -0.200 F 
ATOM     72  F   UNL A   1      45.563  35.257  25.316  1.00  0.00    -0.200 F 
ENDBRANCH  48  62
BRANCH  49  73
ATOM     73  C   UNL A   1      37.432  31.858  31.367  1.00  0.00     0.064 A 
ATOM     74  C   UNL A   1      36.690  31.954  32.551  1.00  0.00     0.173 A 
ATOM     75  C   UNL A   1      37.004  32.645  30.281  1.00  0.00     0.173 A 
ATOM     76  F   UNL A   1      37.055  31.256  33.636  1.00  0.00    -0.203 F 
ATOM     77  C   UNL A   1      35.597  32.816  32.656  1.00  0.00     0.198 A 
ATOM     78  C   UNL A   1      35.908  33.500  30.385  1.00  0.00     0.198 A 
ATOM     79  F   UNL A   1      37.696  32.660  29.132  1.00  0.00    -0.203 F 
ATOM     80  F   UNL A   1      34.947  32.929  33.823  1.00  0.00    -0.200 F 
ATOM     81  C   UNL A   1      35.215  33.597  31.577  1.00  0.00     0.200 A 
ATOM     82  F   UNL A   1      35.567  34.272  29.344  1.00  0.00    -0.200 F 
ATOM     83  F   UNL A   1      34.207  34.471  31.699  1.00  0.00    -0.200 F 
ENDBRANCH  49  73
BRANCH  61  84
ATOM     84  C   UNL A   1      42.698  29.737  34.036  1.00  0.00     0.064 A 
ATOM     85  C   UNL A   1      42.077  28.501  33.802  1.00  0.00     0.173 A 
ATOM     86  C   UNL A   1      43.144  30.006  35.336  1.00  0.00     0.173 A 
ATOM     87  F   UNL A   1      41.697  28.144  32.569  1.00  0.00    -0.203 F 
ATOM     88  C   UNL A   1      41.864  27.597  34.842  1.00  0.00     0.198 A 
ATOM     89  C   UNL A   1      42.961  29.089  36.364  1.00  0.00     0.198 A 
ATOM     90  F   UNL A   1      43.782  31.157  35.603  1.00  0.00    -0.203 F 
ATOM     91  F   UNL A   1      41.240  26.434  34.603  1.00  0.00    -0.200 F 
ATOM     92  C   UNL A   1      42.308  27.891  36.120  1.00  0.00     0.200 A 
ATOM     93  F   UNL A   1      43.426  29.362  37.592  1.00  0.00    -0.200 F 
ATOM     94  F   UNL A   1      42.121  27.014  37.116  1.00  0.00    -0.200 F 
ENDBRANCH  61  84
ENDBRANCH  35  36
ENDBRANCH  27  30
ENDBRANCH  25  26
ENDBRANCH  24  25
ENDBRANCH   1  24
TORSDOF 16
ENDMDL
