MODEL 1
REMARK VINA RESULT:     -13.0      0.000      0.000
REMARK SMILES Cc1cc(NC(=O)COc2cc(C)c(Cl)c(C)c2)cc(C(=O)NCCCNC(=O)c2ccc(-c3c4nc(c(-c5c(F)c(F)c(F)c(F)c5F)c5ccc([nH]5)c(-c5c(F)c(F)c(F)c(F)c5F)c5nc(c(-c6c(F)c(F)c(F)c(F)c6F)c6ccc3[nH]6)C=C5)C=C4)cc2)c1O
REMARK SMILES IDX 24 1 23 2 21 3 22 4 20 6 1 7 2 8 3 9 93 10 4 11 19 12 94 13
REMARK SMILES IDX 5 15 6 16 7 18 8 19 9 20 10 21 11 22 18 23 12 24 16 25 13 26
REMARK SMILES IDX 14 27 17 28 15 29 25 30 26 31 27 32 28 33 29 35 30 36 31 37
REMARK SMILES IDX 92 38 32 39 91 40 33 41 34 42 35 43 85 44 36 45 90 46 84 47
REMARK SMILES IDX 86 48 37 49 89 50 83 51 82 52 38 54 70 55 50 56 69 57 51 58
REMARK SMILES IDX 54 59 68 60 87 61 52 62 53 63 67 65 88 66 55 67 39 68 40 69
REMARK SMILES IDX 48 70 41 71 42 72 46 73 49 74 43 75 44 76 47 77 45 78 71 79
REMARK SMILES IDX 72 80 80 81 73 82 74 83 78 84 81 85 75 86 76 87 79 88 77 89
REMARK SMILES IDX 56 90 57 91 65 92 58 93 59 94 63 95 66 96 60 97 61 98 64 99
REMARK SMILES IDX 62 100
REMARK H PARENT 23 5 94 14 5 17 27 34 86 53 54 64
REMARK Flexibility Score: inf
ROOT
ATOM      1  C   UNL A   1      31.325  31.012  25.786  1.00  0.00     0.118 C 
ENDROOT
BRANCH   1   2
ATOM      2  N   UNL A   1      32.417  30.216  26.317  1.00  0.00    -0.352 N 
ATOM      3  C   UNL A   1      32.744  28.880  26.370  1.00  0.00     0.255 C 
ATOM      4  O   UNL A   1      33.760  28.656  27.032  1.00  0.00    -0.269 OA
ATOM      5  H   UNL A   1      33.100  30.776  26.751  1.00  0.00     0.163 HD
BRANCH   3   6
ATOM      6  C   UNL A   1      31.976  27.747  25.729  1.00  0.00     0.083 A 
ATOM      7  C   UNL A   1      31.361  26.331  22.193  1.00  0.00     0.048 C 
ATOM      8  C   UNL A   1      31.334  26.529  23.684  1.00  0.00    -0.006 A 
ATOM      9  C   UNL A   1      30.629  25.613  24.471  1.00  0.00     0.033 A 
ATOM     10  C   UNL A   1      31.990  27.598  24.322  1.00  0.00     0.131 A 
ATOM     11  C   UNL A   1      30.596  25.721  25.865  1.00  0.00     0.042 A 
ATOM     12  C   UNL A   1      31.276  26.781  26.473  1.00  0.00     0.043 A 
BRANCH  10  13
ATOM     13  O   UNL A   1      32.617  28.534  23.542  1.00  0.00    -0.507 OA
ATOM     14  H   UNL A   1      33.162  28.262  22.829  1.00  0.00     0.293 HD
ENDBRANCH  10  13
BRANCH  11  15
ATOM     15  N   UNL A   1      29.834  24.744  26.528  1.00  0.00    -0.323 N 
ATOM     16  C   UNL A   1      30.054  23.471  26.952  1.00  0.00     0.262 C 
ATOM     17  H   UNL A   1      28.922  25.055  26.733  1.00  0.00     0.170 HD
ATOM     18  O   UNL A   1      29.158  22.939  27.620  1.00  0.00    -0.271 OA
BRANCH  16  19
ATOM     19  C   UNL A   1      31.318  22.681  26.632  1.00  0.00     0.329 C 
BRANCH  19  20
ATOM     20  O   UNL A   1      32.565  23.245  26.996  1.00  0.00    -0.484 OA
BRANCH  20  21
ATOM     21  C   UNL A   1      33.577  23.195  26.087  1.00  0.00     0.120 A 
ATOM     22  C   UNL A   1      34.929  23.099  26.397  1.00  0.00     0.051 A 
ATOM     23  C   UNL A   1      33.173  23.175  24.751  1.00  0.00     0.051 A 
ATOM     24  C   UNL A   1      35.892  23.009  25.378  1.00  0.00    -0.029 A 
ATOM     25  C   UNL A   1      34.108  23.109  23.709  1.00  0.00    -0.029 A 
ATOM     26  C   UNL A   1      37.340  22.879  25.764  1.00  0.00     0.046 C 
ATOM     27  C   UNL A   1      35.474  23.029  24.033  1.00  0.00     0.047 A 
ATOM     28  C   UNL A   1      33.616  23.125  22.287  1.00  0.00     0.046 C 
ATOM     29  Cl  UNL A   1      36.654  22.954  22.764  1.00  0.00    -0.084 Cl
ENDBRANCH  20  21
ENDBRANCH  19  20
ENDBRANCH  16  19
ENDBRANCH  11  15
ENDBRANCH   3   6
ENDBRANCH   1   2
BRANCH   1  30
ATOM     30  C   UNL A   1      31.229  32.362  26.502  1.00  0.00     0.042 C 
BRANCH  30  31
ATOM     31  C   UNL A   1      32.522  32.794  27.193  1.00  0.00     0.118 C 
BRANCH  31  32
ATOM     32  N   UNL A   1      32.459  34.183  27.629  1.00  0.00    -0.352 N 
ATOM     33  C   UNL A   1      33.081  34.839  28.661  1.00  0.00     0.251 C 
ATOM     34  H   UNL A   1      31.865  34.751  27.086  1.00  0.00     0.163 HD
ATOM     35  O   UNL A   1      32.670  35.948  28.990  1.00  0.00    -0.269 OA
BRANCH  33  36
ATOM     36  C   UNL A   1      34.233  34.250  29.388  1.00  0.00     0.039 A 
ATOM     37  C   UNL A   1      35.511  34.375  28.826  1.00  0.00     0.014 A 
ATOM     38  C   UNL A   1      34.069  33.498  30.553  1.00  0.00     0.014 A 
ATOM     39  C   UNL A   1      36.618  33.787  29.450  1.00  0.00     0.010 A 
ATOM     40  C   UNL A   1      35.182  32.974  31.213  1.00  0.00     0.010 A 
ATOM     41  C   UNL A   1      36.467  33.104  30.665  1.00  0.00    -0.014 A 
BRANCH  41  42
ATOM     42  C   UNL A   1      37.630  32.501  31.368  1.00  0.00     0.031 A 
ATOM     43  C   UNL A   1      38.372  31.344  30.754  1.00  0.00     0.074 A 
ATOM     44  C   UNL A   1      37.973  32.943  32.593  1.00  0.00     0.049 A 
ATOM     45  N   UNL A   1      39.325  30.603  31.263  1.00  0.00    -0.248 NA
ATOM     46  C   UNL A   1      37.967  30.948  29.397  1.00  0.00     0.031 C 
ATOM     47  C   UNL A   1      37.314  34.032  33.314  1.00  0.00     0.029 A 
ATOM     48  N   UNL A   1      38.953  32.518  33.458  1.00  0.00    -0.354 N 
ATOM     49  C   UNL A   1      39.609  29.639  30.305  1.00  0.00     0.074 A 
ATOM     50  C   UNL A   1      38.703  29.864  29.199  1.00  0.00     0.031 C 
ATOM     51  C   UNL A   1      37.912  34.197  34.505  1.00  0.00     0.029 A 
ATOM     52  C   UNL A   1      38.970  33.201  34.649  1.00  0.00     0.049 A 
ATOM     53  H   UNL A   1      39.582  31.791  33.244  1.00  0.00     0.167 HD
ATOM     54  C   UNL A   1      40.550  28.664  30.338  1.00  0.00     0.037 A 
ATOM     55  C   UNL A   1      39.741  33.035  35.741  1.00  0.00     0.037 A 
ATOM     56  C   UNL A   1      41.478  28.469  31.420  1.00  0.00     0.049 A 
ATOM     57  C   UNL A   1      40.790  31.955  35.746  1.00  0.00     0.074 A 
ATOM     58  C   UNL A   1      42.512  27.553  31.517  1.00  0.00     0.029 A 
ATOM     59  N   UNL A   1      41.487  29.205  32.595  1.00  0.00    -0.354 N 
ATOM     60  N   UNL A   1      41.083  31.083  34.812  1.00  0.00    -0.248 NA
ATOM     61  C   UNL A   1      41.615  31.838  36.956  1.00  0.00     0.031 C 
ATOM     62  C   UNL A   1      43.121  27.710  32.766  1.00  0.00     0.029 A 
ATOM     63  C   UNL A   1      42.496  28.754  33.430  1.00  0.00     0.049 A 
ATOM     64  H   UNL A   1      40.867  29.942  32.805  1.00  0.00     0.167 HD
ATOM     65  C   UNL A   1      42.139  30.332  35.309  1.00  0.00     0.074 A 
ATOM     66  C   UNL A   1      42.446  30.860  36.622  1.00  0.00     0.031 C 
ATOM     67  C   UNL A   1      42.796  29.298  34.730  1.00  0.00     0.037 A 
BRANCH  54  68
ATOM     68  C   UNL A   1      40.627  27.730  29.164  1.00  0.00     0.064 A 
ATOM     69  C   UNL A   1      39.780  26.618  29.049  1.00  0.00     0.173 A 
ATOM     70  C   UNL A   1      41.533  27.975  28.120  1.00  0.00     0.173 A 
ATOM     71  F   UNL A   1      38.902  26.334  30.023  1.00  0.00    -0.203 F 
ATOM     72  C   UNL A   1      39.856  25.770  27.946  1.00  0.00     0.198 A 
ATOM     73  C   UNL A   1      41.586  27.141  27.005  1.00  0.00     0.198 A 
ATOM     74  F   UNL A   1      42.362  29.028  28.175  1.00  0.00    -0.203 F 
ATOM     75  F   UNL A   1      39.068  24.688  27.881  1.00  0.00    -0.200 F 
ATOM     76  C   UNL A   1      40.753  26.036  26.923  1.00  0.00     0.200 A 
ATOM     77  F   UNL A   1      42.444  27.407  26.011  1.00  0.00    -0.200 F 
ATOM     78  F   UNL A   1      40.819  25.223  25.860  1.00  0.00    -0.200 F 
ENDBRANCH  54  68
BRANCH  55  79
ATOM     79  C   UNL A   1      39.561  33.927  36.914  1.00  0.00     0.064 A 
ATOM     80  C   UNL A   1      40.180  35.184  36.961  1.00  0.00     0.173 A 
ATOM     81  C   UNL A   1      38.768  33.548  38.007  1.00  0.00     0.173 A 
ATOM     82  F   UNL A   1      40.967  35.581  35.950  1.00  0.00    -0.203 F 
ATOM     83  C   UNL A   1      40.026  36.021  38.063  1.00  0.00     0.198 A 
ATOM     84  C   UNL A   1      38.592  34.398  39.098  1.00  0.00     0.198 A 
ATOM     85  F   UNL A   1      38.152  32.357  38.008  1.00  0.00    -0.203 F 
ATOM     86  F   UNL A   1      40.663  37.199  38.102  1.00  0.00    -0.200 F 
ATOM     87  C   UNL A   1      39.227  35.631  39.128  1.00  0.00     0.200 A 
ATOM     88  F   UNL A   1      37.811  34.024  40.120  1.00  0.00    -0.200 F 
ATOM     89  F   UNL A   1      39.076  36.439  40.186  1.00  0.00    -0.200 F 
ENDBRANCH  55  79
BRANCH  67  90
ATOM     90  C   UNL A   1      43.933  28.686  35.494  1.00  0.00     0.064 A 
ATOM     91  C   UNL A   1      43.737  27.599  36.358  1.00  0.00     0.173 A 
ATOM     92  C   UNL A   1      45.242  29.161  35.319  1.00  0.00     0.173 A 
ATOM     93  F   UNL A   1      42.503  27.118  36.570  1.00  0.00    -0.203 F 
ATOM     94  C   UNL A   1      44.809  27.023  37.034  1.00  0.00     0.198 A 
ATOM     95  C   UNL A   1      46.314  28.564  35.975  1.00  0.00     0.198 A 
ATOM     96  F   UNL A   1      45.482  30.195  34.498  1.00  0.00    -0.203 F 
ATOM     97  F   UNL A   1      44.595  26.010  37.885  1.00  0.00    -0.200 F 
ATOM     98  C   UNL A   1      46.097  27.499  36.836  1.00  0.00     0.200 A 
ATOM     99  F   UNL A   1      47.559  29.018  35.772  1.00  0.00    -0.200 F 
ATOM    100  F   UNL A   1      47.128  26.935  37.479  1.00  0.00    -0.200 F 
ENDBRANCH  67  90
ENDBRANCH  41  42
ENDBRANCH  33  36
ENDBRANCH  31  32
ENDBRANCH  30  31
ENDBRANCH   1  30
TORSDOF 15
ENDMDL
MODEL 2
REMARK VINA RESULT:     -12.9      1.968      3.058
REMARK SMILES Cc1cc(NC(=O)COc2cc(C)c(Cl)c(C)c2)cc(C(=O)NCCCNC(=O)c2ccc(-c3c4nc(c(-c5c(F)c(F)c(F)c(F)c5F)c5ccc([nH]5)c(-c5c(F)c(F)c(F)c(F)c5F)c5nc(c(-c6c(F)c(F)c(F)c(F)c6F)c6ccc3[nH]6)C=C5)C=C4)cc2)c1O
REMARK SMILES IDX 24 1 23 2 21 3 22 4 20 6 1 7 2 8 3 9 93 10 4 11 19 12 94 13
REMARK SMILES IDX 5 15 6 16 7 18 8 19 9 20 10 21 11 22 18 23 12 24 16 25 13 26
REMARK SMILES IDX 14 27 17 28 15 29 25 30 26 31 27 32 28 33 29 35 30 36 31 37
REMARK SMILES IDX 92 38 32 39 91 40 33 41 34 42 35 43 85 44 36 45 90 46 84 47
REMARK SMILES IDX 86 48 37 49 89 50 83 51 82 52 38 54 70 55 50 56 69 57 51 58
REMARK SMILES IDX 54 59 68 60 87 61 52 62 53 63 67 65 88 66 55 67 39 68 40 69
REMARK SMILES IDX 48 70 41 71 42 72 46 73 49 74 43 75 44 76 47 77 45 78 71 79
REMARK SMILES IDX 72 80 80 81 73 82 74 83 78 84 81 85 75 86 76 87 79 88 77 89
REMARK SMILES IDX 56 90 57 91 65 92 58 93 59 94 63 95 66 96 60 97 61 98 64 99
REMARK SMILES IDX 62 100
REMARK H PARENT 23 5 94 14 5 17 27 34 86 53 54 64
REMARK Flexibility Score: inf
ROOT
ATOM      1  C   UNL A   1      33.831  28.938  22.858  1.00  0.00     0.118 C 
ENDROOT
BRANCH   1   2
ATOM      2  N   UNL A   1      33.685  27.666  22.174  1.00  0.00    -0.352 N 
ATOM      3  C   UNL A   1      32.798  26.614  22.201  1.00  0.00     0.255 C 
ATOM      4  O   UNL A   1      33.143  25.670  21.486  1.00  0.00    -0.269 OA
ATOM      5  H   UNL A   1      34.407  27.517  21.521  1.00  0.00     0.163 HD
BRANCH   3   6
ATOM      6  C   UNL A   1      31.524  26.541  23.012  1.00  0.00     0.083 A 
ATOM      7  C   UNL A   1      28.038  28.194  23.042  1.00  0.00     0.048 C 
ATOM      8  C   UNL A   1      29.216  27.324  23.384  1.00  0.00    -0.006 A 
ATOM      9  C   UNL A   1      29.093  26.407  24.433  1.00  0.00     0.033 A 
ATOM     10  C   UNL A   1      30.439  27.392  22.692  1.00  0.00     0.131 A 
ATOM     11  C   UNL A   1      30.139  25.544  24.776  1.00  0.00     0.042 A 
ATOM     12  C   UNL A   1      31.335  25.619  24.056  1.00  0.00     0.043 A 
BRANCH  10  13
ATOM     13  O   UNL A   1      30.581  28.341  21.715  1.00  0.00    -0.507 OA
ATOM     14  H   UNL A   1      30.145  28.236  20.892  1.00  0.00     0.293 HD
ENDBRANCH  10  13
BRANCH  11  15
ATOM     15  N   UNL A   1      29.883  24.689  25.862  1.00  0.00    -0.323 N 
ATOM     16  C   UNL A   1      30.537  23.650  26.447  1.00  0.00     0.262 C 
ATOM     17  H   UNL A   1      29.027  24.890  26.304  1.00  0.00     0.170 HD
ATOM     18  O   UNL A   1      30.046  23.194  27.488  1.00  0.00    -0.271 OA
BRANCH  16  19
ATOM     19  C   UNL A   1      31.806  23.023  25.880  1.00  0.00     0.329 C 
BRANCH  19  20
ATOM     20  O   UNL A   1      33.048  23.418  26.435  1.00  0.00    -0.484 OA
BRANCH  20  21
ATOM     21  C   UNL A   1      34.162  22.736  26.051  1.00  0.00     0.120 A 
ATOM     22  C   UNL A   1      35.463  23.220  26.129  1.00  0.00     0.051 A 
ATOM     23  C   UNL A   1      33.936  21.432  25.611  1.00  0.00     0.051 A 
ATOM     24  C   UNL A   1      36.549  22.415  25.746  1.00  0.00    -0.029 A 
ATOM     25  C   UNL A   1      34.994  20.610  25.199  1.00  0.00    -0.029 A 
ATOM     26  C   UNL A   1      37.941  22.973  25.875  1.00  0.00     0.046 C 
ATOM     27  C   UNL A   1      36.306  21.113  25.267  1.00  0.00     0.047 A 
ATOM     28  C   UNL A   1      34.689  19.223  24.703  1.00  0.00     0.046 C 
ATOM     29  Cl  UNL A   1      37.634  20.122  24.756  1.00  0.00    -0.084 Cl
ENDBRANCH  20  21
ENDBRANCH  19  20
ENDBRANCH  16  19
ENDBRANCH  11  15
ENDBRANCH   3   6
ENDBRANCH   1   2
BRANCH   1  30
ATOM     30  C   UNL A   1      34.258  28.733  24.314  1.00  0.00     0.042 C 
BRANCH  30  31
ATOM     31  C   UNL A   1      33.096  28.718  25.308  1.00  0.00     0.118 C 
BRANCH  31  32
ATOM     32  N   UNL A   1      32.679  30.068  25.665  1.00  0.00    -0.352 N 
ATOM     33  C   UNL A   1      33.081  30.903  26.677  1.00  0.00     0.251 C 
ATOM     34  H   UNL A   1      31.987  30.448  25.077  1.00  0.00     0.163 HD
ATOM     35  O   UNL A   1      32.399  31.892  26.933  1.00  0.00    -0.269 OA
BRANCH  33  36
ATOM     36  C   UNL A   1      34.312  30.649  27.466  1.00  0.00     0.039 A 
ATOM     37  C   UNL A   1      35.236  31.692  27.616  1.00  0.00     0.014 A 
ATOM     38  C   UNL A   1      34.618  29.386  27.975  1.00  0.00     0.014 A 
ATOM     39  C   UNL A   1      36.435  31.481  28.306  1.00  0.00     0.010 A 
ATOM     40  C   UNL A   1      35.781  29.194  28.725  1.00  0.00     0.010 A 
ATOM     41  C   UNL A   1      36.706  30.235  28.890  1.00  0.00    -0.014 A 
BRANCH  41  42
ATOM     42  C   UNL A   1      37.956  29.993  29.660  1.00  0.00     0.031 A 
ATOM     43  C   UNL A   1      39.011  29.065  29.119  1.00  0.00     0.074 A 
ATOM     44  C   UNL A   1      38.109  30.545  30.878  1.00  0.00     0.049 A 
ATOM     45  N   UNL A   1      40.105  28.627  29.693  1.00  0.00    -0.248 NA
ATOM     46  C   UNL A   1      38.793  28.536  27.765  1.00  0.00     0.031 C 
ATOM     47  C   UNL A   1      37.146  31.433  31.531  1.00  0.00     0.029 A 
ATOM     48  N   UNL A   1      39.126  30.427  31.795  1.00  0.00    -0.354 N 
ATOM     49  C   UNL A   1      40.684  27.750  28.784  1.00  0.00     0.074 A 
ATOM     50  C   UNL A   1      39.804  27.689  27.637  1.00  0.00     0.031 C 
ATOM     51  C   UNL A   1      37.621  31.787  32.736  1.00  0.00     0.029 A 
ATOM     52  C   UNL A   1      38.901  31.122  32.958  1.00  0.00     0.049 A 
ATOM     53  H   UNL A   1      39.937  29.894  31.633  1.00  0.00     0.167 HD
ATOM     54  C   UNL A   1      41.852  27.071  28.890  1.00  0.00     0.037 A 
ATOM     55  C   UNL A   1      39.637  31.203  34.083  1.00  0.00     0.037 A 
ATOM     56  C   UNL A   1      42.747  27.167  30.013  1.00  0.00     0.049 A 
ATOM     57  C   UNL A   1      40.938  30.451  34.169  1.00  0.00     0.074 A 
ATOM     58  C   UNL A   1      43.985  26.571  30.184  1.00  0.00     0.029 A 
ATOM     59  N   UNL A   1      42.500  27.910  31.158  1.00  0.00    -0.354 N 
ATOM     60  N   UNL A   1      41.500  29.667  33.282  1.00  0.00    -0.248 NA
ATOM     61  C   UNL A   1      41.707  30.597  35.413  1.00  0.00     0.031 C 
ATOM     62  C   UNL A   1      44.469  26.923  31.448  1.00  0.00     0.029 A 
ATOM     63  C   UNL A   1      43.555  27.774  32.047  1.00  0.00     0.049 A 
ATOM     64  H   UNL A   1      41.695  28.454  31.316  1.00  0.00     0.167 HD
ATOM     65  C   UNL A   1      42.696  29.247  33.848  1.00  0.00     0.074 A 
ATOM     66  C   UNL A   1      42.787  29.874  35.149  1.00  0.00     0.031 C 
ATOM     67  C   UNL A   1      43.635  28.415  33.334  1.00  0.00     0.037 A 
BRANCH  54  68
ATOM     68  C   UNL A   1      42.235  26.161  27.758  1.00  0.00     0.064 A 
ATOM     69  C   UNL A   1      41.669  24.886  27.612  1.00  0.00     0.173 A 
ATOM     70  C   UNL A   1      43.148  26.588  26.781  1.00  0.00     0.173 A 
ATOM     71  F   UNL A   1      40.796  24.427  28.522  1.00  0.00    -0.203 F 
ATOM     72  C   UNL A   1      42.024  24.061  26.548  1.00  0.00     0.198 A 
ATOM     73  C   UNL A   1      43.479  25.772  25.703  1.00  0.00     0.198 A 
ATOM     74  F   UNL A   1      43.714  27.801  26.867  1.00  0.00    -0.203 F 
ATOM     75  F   UNL A   1      41.505  22.829  26.456  1.00  0.00    -0.200 F 
ATOM     76  C   UNL A   1      42.923  24.506  25.591  1.00  0.00     0.200 A 
ATOM     77  F   UNL A   1      44.338  26.209  24.771  1.00  0.00    -0.200 F 
ATOM     78  F   UNL A   1      43.259  23.714  24.564  1.00  0.00    -0.200 F 
ENDBRANCH  54  68
BRANCH  55  79
ATOM     79  C   UNL A   1      39.167  32.045  35.213  1.00  0.00     0.064 A 
ATOM     80  C   UNL A   1      39.449  33.417  35.250  1.00  0.00     0.173 A 
ATOM     81  C   UNL A   1      38.427  31.500  36.273  1.00  0.00     0.173 A 
ATOM     82  F   UNL A   1      40.173  33.979  34.272  1.00  0.00    -0.203 F 
ATOM     83  C   UNL A   1      39.022  34.210  36.313  1.00  0.00     0.198 A 
ATOM     84  C   UNL A   1      37.977  32.301  37.322  1.00  0.00     0.198 A 
ATOM     85  F   UNL A   1      38.129  30.193  36.281  1.00  0.00    -0.203 F 
ATOM     86  F   UNL A   1      39.342  35.511  36.346  1.00  0.00    -0.200 F 
ATOM     87  C   UNL A   1      38.281  33.653  37.344  1.00  0.00     0.200 A 
ATOM     88  F   UNL A   1      37.252  31.762  38.311  1.00  0.00    -0.200 F 
ATOM     89  F   UNL A   1      37.867  34.418  38.364  1.00  0.00    -0.200 F 
ENDBRANCH  55  79
BRANCH  67  90
ATOM     90  C   UNL A   1      44.859  28.158  34.163  1.00  0.00     0.064 A 
ATOM     91  C   UNL A   1      45.982  28.996  34.094  1.00  0.00     0.173 A 
ATOM     92  C   UNL A   1      44.888  27.092  35.074  1.00  0.00     0.173 A 
ATOM     93  F   UNL A   1      46.008  30.020  33.229  1.00  0.00    -0.203 F 
ATOM     94  C   UNL A   1      47.097  28.762  34.895  1.00  0.00     0.198 A 
ATOM     95  C   UNL A   1      45.993  26.878  35.893  1.00  0.00     0.198 A 
ATOM     96  F   UNL A   1      43.836  26.266  35.182  1.00  0.00    -0.203 F 
ATOM     97  F   UNL A   1      48.174  29.552  34.786  1.00  0.00    -0.200 F 
ATOM     98  C   UNL A   1      47.098  27.711  35.799  1.00  0.00     0.200 A 
ATOM     99  F   UNL A   1      45.988  25.869  36.774  1.00  0.00    -0.200 F 
ATOM    100  F   UNL A   1      48.169  27.494  36.576  1.00  0.00    -0.200 F 
ENDBRANCH  67  90
ENDBRANCH  41  42
ENDBRANCH  33  36
ENDBRANCH  31  32
ENDBRANCH  30  31
ENDBRANCH   1  30
TORSDOF 15
ENDMDL
MODEL 3
REMARK VINA RESULT:     -12.9      0.162      1.558
REMARK SMILES Cc1cc(NC(=O)COc2cc(C)c(Cl)c(C)c2)cc(C(=O)NCCCNC(=O)c2ccc(-c3c4nc(c(-c5c(F)c(F)c(F)c(F)c5F)c5ccc([nH]5)c(-c5c(F)c(F)c(F)c(F)c5F)c5nc(c(-c6c(F)c(F)c(F)c(F)c6F)c6ccc3[nH]6)C=C5)C=C4)cc2)c1O
REMARK SMILES IDX 24 1 23 2 21 3 22 4 20 6 1 7 2 8 3 9 93 10 4 11 19 12 94 13
REMARK SMILES IDX 5 15 6 16 7 18 8 19 9 20 10 21 11 22 18 23 12 24 16 25 13 26
REMARK SMILES IDX 14 27 17 28 15 29 25 30 26 31 27 32 28 33 29 35 30 36 31 37
REMARK SMILES IDX 92 38 32 39 91 40 33 41 34 42 35 43 85 44 36 45 90 46 84 47
REMARK SMILES IDX 86 48 37 49 89 50 83 51 82 52 38 54 70 55 50 56 69 57 51 58
REMARK SMILES IDX 54 59 68 60 87 61 52 62 53 63 67 65 88 66 55 67 39 68 40 69
REMARK SMILES IDX 48 70 41 71 42 72 46 73 49 74 43 75 44 76 47 77 45 78 71 79
REMARK SMILES IDX 72 80 80 81 73 82 74 83 78 84 81 85 75 86 76 87 79 88 77 89
REMARK SMILES IDX 56 90 57 91 65 92 58 93 59 94 63 95 66 96 60 97 61 98 64 99
REMARK SMILES IDX 62 100
REMARK H PARENT 23 5 94 14 5 17 27 34 86 53 54 64
REMARK Flexibility Score: inf
ROOT
ATOM      1  C   UNL A   1      31.322  30.977  25.765  1.00  0.00     0.118 C 
ENDROOT
BRANCH   1   2
ATOM      2  N   UNL A   1      32.394  30.190  26.348  1.00  0.00    -0.352 N 
ATOM      3  C   UNL A   1      32.710  28.854  26.448  1.00  0.00     0.255 C 
ATOM      4  O   UNL A   1      33.707  28.643  27.143  1.00  0.00    -0.269 OA
ATOM      5  H   UNL A   1      33.070  30.758  26.783  1.00  0.00     0.163 HD
BRANCH   3   6
ATOM      6  C   UNL A   1      31.951  27.708  25.819  1.00  0.00     0.083 A 
ATOM      7  C   UNL A   1      31.324  26.266  22.296  1.00  0.00     0.048 C 
ATOM      8  C   UNL A   1      31.308  26.471  23.786  1.00  0.00    -0.006 A 
ATOM      9  C   UNL A   1      30.622  25.550  24.584  1.00  0.00     0.033 A 
ATOM     10  C   UNL A   1      31.955  27.552  24.412  1.00  0.00     0.131 A 
ATOM     11  C   UNL A   1      30.599  25.665  25.978  1.00  0.00     0.042 A 
ATOM     12  C   UNL A   1      31.271  26.737  26.574  1.00  0.00     0.043 A 
BRANCH  10  13
ATOM     13  O   UNL A   1      32.564  28.491  23.623  1.00  0.00    -0.507 OA
ATOM     14  H   UNL A   1      32.319  29.393  23.694  1.00  0.00     0.293 HD
ENDBRANCH  10  13
BRANCH  11  15
ATOM     15  N   UNL A   1      29.856  24.682  26.652  1.00  0.00    -0.323 N 
ATOM     16  C   UNL A   1      30.037  23.367  26.947  1.00  0.00     0.262 C 
ATOM     17  H   UNL A   1      28.998  25.027  26.991  1.00  0.00     0.170 HD
ATOM     18  O   UNL A   1      29.191  22.834  27.677  1.00  0.00    -0.271 OA
BRANCH  16  19
ATOM     19  C   UNL A   1      31.198  22.534  26.415  1.00  0.00     0.329 C 
BRANCH  19  20
ATOM     20  O   UNL A   1      32.491  22.787  26.936  1.00  0.00    -0.484 OA
BRANCH  20  21
ATOM     21  C   UNL A   1      33.531  22.842  26.059  1.00  0.00     0.120 A 
ATOM     22  C   UNL A   1      34.873  22.704  26.397  1.00  0.00     0.051 A 
ATOM     23  C   UNL A   1      33.169  22.986  24.719  1.00  0.00     0.051 A 
ATOM     24  C   UNL A   1      35.867  22.733  25.405  1.00  0.00    -0.029 A 
ATOM     25  C   UNL A   1      34.137  23.042  23.706  1.00  0.00    -0.029 A 
ATOM     26  C   UNL A   1      37.302  22.552  25.818  1.00  0.00     0.046 C 
ATOM     27  C   UNL A   1      35.492  22.917  24.060  1.00  0.00     0.047 A 
ATOM     28  C   UNL A   1      33.690  23.230  22.282  1.00  0.00     0.046 C 
ATOM     29  Cl  UNL A   1      36.712  22.991  22.829  1.00  0.00    -0.084 Cl
ENDBRANCH  20  21
ENDBRANCH  19  20
ENDBRANCH  16  19
ENDBRANCH  11  15
ENDBRANCH   3   6
ENDBRANCH   1   2
BRANCH   1  30
ATOM     30  C   UNL A   1      31.226  32.352  26.431  1.00  0.00     0.042 C 
BRANCH  30  31
ATOM     31  C   UNL A   1      32.499  32.785  27.156  1.00  0.00     0.118 C 
BRANCH  31  32
ATOM     32  N   UNL A   1      32.413  34.166  27.614  1.00  0.00    -0.352 N 
ATOM     33  C   UNL A   1      33.028  34.816  28.655  1.00  0.00     0.251 C 
ATOM     34  H   UNL A   1      31.808  34.732  27.082  1.00  0.00     0.163 HD
ATOM     35  O   UNL A   1      32.598  35.913  29.001  1.00  0.00    -0.269 OA
BRANCH  33  36
ATOM     36  C   UNL A   1      34.192  34.237  29.368  1.00  0.00     0.039 A 
ATOM     37  C   UNL A   1      35.478  34.518  28.886  1.00  0.00     0.014 A 
ATOM     38  C   UNL A   1      34.041  33.349  30.435  1.00  0.00     0.014 A 
ATOM     39  C   UNL A   1      36.602  33.948  29.496  1.00  0.00     0.010 A 
ATOM     40  C   UNL A   1      35.165  32.838  31.088  1.00  0.00     0.010 A 
ATOM     41  C   UNL A   1      36.457  33.123  30.620  1.00  0.00    -0.014 A 
BRANCH  41  42
ATOM     42  C   UNL A   1      37.635  32.533  31.309  1.00  0.00     0.031 A 
ATOM     43  C   UNL A   1      38.388  31.391  30.681  1.00  0.00     0.074 A 
ATOM     44  C   UNL A   1      37.981  32.971  32.535  1.00  0.00     0.049 A 
ATOM     45  N   UNL A   1      39.357  30.662  31.177  1.00  0.00    -0.248 NA
ATOM     46  C   UNL A   1      37.979  30.999  29.325  1.00  0.00     0.031 C 
ATOM     47  C   UNL A   1      37.311  34.045  33.269  1.00  0.00     0.029 A 
ATOM     48  N   UNL A   1      38.974  32.555  33.389  1.00  0.00    -0.354 N 
ATOM     49  C   UNL A   1      39.647  29.708  30.210  1.00  0.00     0.074 A 
ATOM     50  C   UNL A   1      38.729  29.927  29.113  1.00  0.00     0.031 C 
ATOM     51  C   UNL A   1      37.917  34.210  34.456  1.00  0.00     0.029 A 
ATOM     52  C   UNL A   1      38.991  33.230  34.584  1.00  0.00     0.049 A 
ATOM     53  H   UNL A   1      39.612  31.839  33.164  1.00  0.00     0.167 HD
ATOM     54  C   UNL A   1      40.603  28.748  30.228  1.00  0.00     0.037 A 
ATOM     55  C   UNL A   1      39.773  33.067  35.668  1.00  0.00     0.037 A 
ATOM     56  C   UNL A   1      41.543  28.559  31.301  1.00  0.00     0.049 A 
ATOM     57  C   UNL A   1      40.838  32.003  35.657  1.00  0.00     0.074 A 
ATOM     58  C   UNL A   1      42.592  27.659  31.382  1.00  0.00     0.029 A 
ATOM     59  N   UNL A   1      41.550  29.287  32.481  1.00  0.00    -0.354 N 
ATOM     60  N   UNL A   1      41.136  31.143  34.715  1.00  0.00    -0.248 NA
ATOM     61  C   UNL A   1      41.675  31.890  36.860  1.00  0.00     0.031 C 
ATOM     62  C   UNL A   1      43.208  27.816  32.628  1.00  0.00     0.029 A 
ATOM     63  C   UNL A   1      42.574  28.845  33.305  1.00  0.00     0.049 A 
ATOM     64  H   UNL A   1      40.921  30.013  32.702  1.00  0.00     0.167 HD
ATOM     65  C   UNL A   1      42.208  30.405  35.198  1.00  0.00     0.074 A 
ATOM     66  C   UNL A   1      42.518  30.927  36.512  1.00  0.00     0.031 C 
ATOM     67  C   UNL A   1      42.876  29.384  34.606  1.00  0.00     0.037 A 
BRANCH  54  68
ATOM     68  C   UNL A   1      40.685  27.823  29.047  1.00  0.00     0.064 A 
ATOM     69  C   UNL A   1      39.859  26.696  28.933  1.00  0.00     0.173 A 
ATOM     70  C   UNL A   1      41.574  28.094  27.994  1.00  0.00     0.173 A 
ATOM     71  F   UNL A   1      38.998  26.388  29.916  1.00  0.00    -0.203 F 
ATOM     72  C   UNL A   1      39.938  25.857  27.824  1.00  0.00     0.198 A 
ATOM     73  C   UNL A   1      41.629  27.269  26.873  1.00  0.00     0.198 A 
ATOM     74  F   UNL A   1      42.382  29.163  28.046  1.00  0.00    -0.203 F 
ATOM     75  F   UNL A   1      39.171  24.759  27.761  1.00  0.00    -0.200 F 
ATOM     76  C   UNL A   1      40.818  26.147  26.793  1.00  0.00     0.200 A 
ATOM     77  F   UNL A   1      42.470  27.558  25.870  1.00  0.00    -0.200 F 
ATOM     78  F   UNL A   1      40.887  25.343  25.723  1.00  0.00    -0.200 F 
ENDBRANCH  54  68
BRANCH  55  79
ATOM     79  C   UNL A   1      39.589  33.948  36.850  1.00  0.00     0.064 A 
ATOM     80  C   UNL A   1      38.821  33.528  37.945  1.00  0.00     0.173 A 
ATOM     81  C   UNL A   1      40.177  35.221  36.913  1.00  0.00     0.173 A 
ATOM     82  F   UNL A   1      38.220  32.329  37.921  1.00  0.00    -0.203 F 
ATOM     83  C   UNL A   1      38.634  34.354  39.051  1.00  0.00     0.198 A 
ATOM     84  C   UNL A   1      40.011  36.034  38.033  1.00  0.00     0.198 A 
ATOM     85  F   UNL A   1      40.924  35.666  35.892  1.00  0.00    -0.203 F 
ATOM     86  F   UNL A   1      37.859  33.946  40.065  1.00  0.00    -0.200 F 
ATOM     87  C   UNL A   1      39.234  35.603  39.097  1.00  0.00     0.200 A 
ATOM     88  F   UNL A   1      40.601  37.236  38.079  1.00  0.00    -0.200 F 
ATOM     89  F   UNL A   1      39.056  36.395  40.164  1.00  0.00    -0.200 F 
ENDBRANCH  55  79
BRANCH  67  90
ATOM     90  C   UNL A   1      44.028  28.785  35.356  1.00  0.00     0.064 A 
ATOM     91  C   UNL A   1      45.337  29.265  35.199  1.00  0.00     0.173 A 
ATOM     92  C   UNL A   1      43.812  27.752  36.281  1.00  0.00     0.173 A 
ATOM     93  F   UNL A   1      45.597  30.241  34.316  1.00  0.00    -0.203 F 
ATOM     94  C   UNL A   1      46.390  28.718  35.928  1.00  0.00     0.198 A 
ATOM     95  C   UNL A   1      44.863  27.228  37.028  1.00  0.00     0.198 A 
ATOM     96  F   UNL A   1      42.578  27.263  36.472  1.00  0.00    -0.203 F 
ATOM     97  F   UNL A   1      47.638  29.165  35.734  1.00  0.00    -0.200 F 
ATOM     98  C   UNL A   1      46.152  27.708  36.847  1.00  0.00     0.200 A 
ATOM     99  F   UNL A   1      44.629  26.260  37.924  1.00  0.00    -0.200 F 
ATOM    100  F   UNL A   1      47.165  27.191  37.555  1.00  0.00    -0.200 F 
ENDBRANCH  67  90
ENDBRANCH  41  42
ENDBRANCH  33  36
ENDBRANCH  31  32
ENDBRANCH  30  31
ENDBRANCH   1  30
TORSDOF 15
ENDMDL
