MODEL 1
REMARK VINA RESULT:     -13.6      0.000      0.000
REMARK SMILES CN1C=C/C(=C\C=C/C=N\c2ccc(C(=O)NCCCNC(=O)c3ccc(-c4c5nc(c(-c6c(F)c(F)c(F)c(F)c6F)c6ccc([nH]6)c(-c6c(F)c(F)c(F)c(F)c6F)c6nc(c(-c7c(F)c(F)c(F)c(F)c7F)c7ccc4[nH]7)C=C6)C=C5)cc3)cc2)c2ccccc21
REMARK SMILES IDX 18 1 17 2 15 3 16 4 14 6 11 7 12 8 88 9 13 10 87 11 10 12
REMARK SMILES IDX 9 13 8 14 7 15 6 16 1 17 2 18 3 19 94 20 4 21 89 22 93 23
REMARK SMILES IDX 5 24 90 25 92 26 91 27 19 28 20 29 21 30 22 31 23 33 24 34
REMARK SMILES IDX 25 35 86 36 26 37 85 38 27 39 28 40 29 41 79 42 30 43 84 44
REMARK SMILES IDX 78 45 80 46 31 47 83 48 77 49 76 50 32 52 64 53 44 54 63 55
REMARK SMILES IDX 45 56 48 57 62 58 81 59 46 60 47 61 61 63 82 64 49 65 33 66
REMARK SMILES IDX 34 67 42 68 35 69 36 70 40 71 43 72 37 73 38 74 41 75 39 76
REMARK SMILES IDX 65 77 66 78 74 79 67 80 68 81 72 82 75 83 69 84 70 85 73 86
REMARK SMILES IDX 71 87 50 88 51 89 59 90 52 91 53 92 57 93 60 94 54 95 55 96
REMARK SMILES IDX 58 97 56 98
REMARK H PARENT 17 5 21 32 80 51 48 62
REMARK Flexibility Score: inf
ROOT
ATOM      1  C   UNL A   1      31.635  30.552  26.870  1.00  0.00     0.118 C 
ENDROOT
BRANCH   1   2
ATOM      2  N   UNL A   1      32.906  30.102  27.415  1.00  0.00    -0.352 N 
ATOM      3  C   UNL A   1      33.894  29.274  26.948  1.00  0.00     0.251 C 
ATOM      4  O   UNL A   1      34.840  29.050  27.704  1.00  0.00    -0.269 OA
ATOM      5  H   UNL A   1      33.098  30.470  28.307  1.00  0.00     0.163 HD
BRANCH   3   6
ATOM      6  C   UNL A   1      33.854  28.605  25.621  1.00  0.00     0.039 A 
ATOM      7  C   UNL A   1      33.596  27.146  23.220  1.00  0.00     0.063 A 
ATOM      8  C   UNL A   1      33.963  26.503  24.401  1.00  0.00     0.029 A 
ATOM      9  C   UNL A   1      33.508  28.539  23.224  1.00  0.00     0.029 A 
ATOM     10  C   UNL A   1      34.048  27.216  25.599  1.00  0.00     0.016 A 
ATOM     11  C   UNL A   1      33.685  29.267  24.405  1.00  0.00     0.016 A 
BRANCH   7  12
ATOM     12  N   UNL A   1      33.395  26.485  22.004  1.00  0.00    -0.257 NA
ATOM     13  C   UNL A   1      32.261  25.960  21.666  1.00  0.00     0.111 C 
BRANCH  13  14
ATOM     14  C   UNL A   1      30.964  25.907  22.398  1.00  0.00     0.020 C 
ATOM     15  C   UNL A   1      30.535  24.863  23.124  1.00  0.00     0.002 C 
BRANCH  15  16
ATOM     16  C   UNL A   1      31.161  23.558  23.222  1.00  0.00     0.009 C 
ATOM     17  C   UNL A   1      34.027  21.455  27.625  1.00  0.00     0.149 C 
ATOM     18  N   UNL A   1      33.355  21.999  26.448  1.00  0.00    -0.351 N 
ATOM     19  C   UNL A   1      33.010  23.337  26.363  1.00  0.00     0.086 C 
ATOM     20  C   UNL A   1      33.063  21.125  25.361  1.00  0.00     0.048 A 
ATOM     21  C   UNL A   1      32.349  23.899  25.344  1.00  0.00     0.026 C 
ATOM     22  C   UNL A   1      32.386  21.625  24.206  1.00  0.00     0.005 A 
ATOM     23  C   UNL A   1      33.432  19.763  25.378  1.00  0.00     0.027 A 
ATOM     24  C   UNL A   1      31.935  23.070  24.215  1.00  0.00    -0.015 C 
ATOM     25  C   UNL A   1      32.149  20.750  23.124  1.00  0.00     0.011 A 
ATOM     26  C   UNL A   1      33.163  18.916  24.303  1.00  0.00     0.002 A 
ATOM     27  C   UNL A   1      32.528  19.410  23.174  1.00  0.00     0.001 A 
ENDBRANCH  15  16
ENDBRANCH  13  14
ENDBRANCH   7  12
ENDBRANCH   3   6
ENDBRANCH   1   2
BRANCH   1  28
ATOM     28  C   UNL A   1      31.508  32.066  26.803  1.00  0.00     0.042 C 
BRANCH  28  29
ATOM     29  C   UNL A   1      32.760  32.827  27.205  1.00  0.00     0.118 C 
BRANCH  29  30
ATOM     30  N   UNL A   1      32.497  34.195  27.636  1.00  0.00    -0.352 N 
ATOM     31  C   UNL A   1      33.020  34.947  28.666  1.00  0.00     0.251 C 
ATOM     32  H   UNL A   1      31.824  34.667  27.094  1.00  0.00     0.163 HD
ATOM     33  O   UNL A   1      32.527  36.033  28.934  1.00  0.00    -0.269 OA
BRANCH  31  34
ATOM     34  C   UNL A   1      34.141  34.429  29.486  1.00  0.00     0.039 A 
ATOM     35  C   UNL A   1      35.462  34.582  29.077  1.00  0.00     0.014 A 
ATOM     36  C   UNL A   1      33.863  33.778  30.692  1.00  0.00     0.014 A 
ATOM     37  C   UNL A   1      36.469  33.877  29.722  1.00  0.00     0.010 A 
ATOM     38  C   UNL A   1      34.900  33.182  31.419  1.00  0.00     0.010 A 
ATOM     39  C   UNL A   1      36.204  33.167  30.903  1.00  0.00    -0.014 A 
BRANCH  39  40
ATOM     40  C   UNL A   1      37.310  32.422  31.563  1.00  0.00     0.031 A 
ATOM     41  C   UNL A   1      38.055  31.334  30.837  1.00  0.00     0.074 A 
ATOM     42  C   UNL A   1      37.693  32.782  32.804  1.00  0.00     0.049 A 
ATOM     43  N   UNL A   1      39.064  30.606  31.251  1.00  0.00    -0.248 NA
ATOM     44  C   UNL A   1      37.605  31.006  29.477  1.00  0.00     0.031 C 
ATOM     45  C   UNL A   1      37.053  33.822  33.611  1.00  0.00     0.029 A 
ATOM     46  N   UNL A   1      38.730  32.345  33.589  1.00  0.00    -0.354 N 
ATOM     47  C   UNL A   1      39.343  29.719  30.221  1.00  0.00     0.074 A 
ATOM     48  C   UNL A   1      38.384  29.978  29.169  1.00  0.00     0.031 C 
ATOM     49  C   UNL A   1      37.753  33.996  34.739  1.00  0.00     0.029 A 
ATOM     50  C   UNL A   1      38.842  33.026  34.776  1.00  0.00     0.049 A 
ATOM     51  H   UNL A   1      39.336  31.614  33.326  1.00  0.00     0.167 HD
ATOM     52  C   UNL A   1      40.318  28.780  30.154  1.00  0.00     0.037 A 
ATOM     53  C   UNL A   1      39.711  32.881  35.793  1.00  0.00     0.037 A 
ATOM     54  C   UNL A   1      41.299  28.555  31.184  1.00  0.00     0.049 A 
ATOM     55  C   UNL A   1      40.774  31.827  35.703  1.00  0.00     0.074 A 
ATOM     56  C   UNL A   1      42.360  27.666  31.184  1.00  0.00     0.029 A 
ATOM     57  N   UNL A   1      41.339  29.224  32.400  1.00  0.00    -0.354 N 
ATOM     58  N   UNL A   1      41.033  31.003  34.717  1.00  0.00    -0.248 NA
ATOM     59  C   UNL A   1      41.652  31.670  36.868  1.00  0.00     0.031 C 
ATOM     60  C   UNL A   1      43.011  27.762  32.419  1.00  0.00     0.029 A 
ATOM     61  C   UNL A   1      42.387  28.746  33.170  1.00  0.00     0.049 A 
ATOM     62  H   UNL A   1      40.714  29.935  32.674  1.00  0.00     0.167 HD
ATOM     63  C   UNL A   1      42.100  30.226  35.142  1.00  0.00     0.074 A 
ATOM     64  C   UNL A   1      42.458  30.696  36.466  1.00  0.00     0.031 C 
ATOM     65  C   UNL A   1      42.719  29.209  34.494  1.00  0.00     0.037 A 
BRANCH  52  66
ATOM     66  C   UNL A   1      40.363  27.906  28.933  1.00  0.00     0.064 A 
ATOM     67  C   UNL A   1      39.632  26.713  28.846  1.00  0.00     0.173 A 
ATOM     68  C   UNL A   1      41.120  28.292  27.816  1.00  0.00     0.173 A 
ATOM     69  F   UNL A   1      38.901  26.291  29.890  1.00  0.00    -0.203 F 
ATOM     70  C   UNL A   1      39.680  25.924  27.698  1.00  0.00     0.198 A 
ATOM     71  C   UNL A   1      41.142  27.517  26.659  1.00  0.00     0.198 A 
ATOM     72  F   UNL A   1      41.832  29.429  27.842  1.00  0.00    -0.203 F 
ATOM     73  F   UNL A   1      39.011  24.763  27.657  1.00  0.00    -0.200 F 
ATOM     74  C   UNL A   1      40.428  26.331  26.604  1.00  0.00     0.200 A 
ATOM     75  F   UNL A   1      41.856  27.918  25.598  1.00  0.00    -0.200 F 
ATOM     76  F   UNL A   1      40.467  25.574  25.498  1.00  0.00    -0.200 F 
ENDBRANCH  52  66
BRANCH  53  77
ATOM     77  C   UNL A   1      39.587  33.772  36.974  1.00  0.00     0.064 A 
ATOM     78  C   UNL A   1      40.172  35.045  36.979  1.00  0.00     0.173 A 
ATOM     79  C   UNL A   1      38.806  33.405  38.079  1.00  0.00     0.173 A 
ATOM     80  F   UNL A   1      40.941  35.433  35.951  1.00  0.00    -0.203 F 
ATOM     81  C   UNL A   1      39.967  35.924  38.041  1.00  0.00     0.198 A 
ATOM     82  C   UNL A   1      38.579  34.294  39.127  1.00  0.00     0.198 A 
ATOM     83  F   UNL A   1      38.220  32.199  38.116  1.00  0.00    -0.203 F 
ATOM     84  F   UNL A   1      40.542  37.133  38.027  1.00  0.00    -0.200 F 
ATOM     85  C   UNL A   1      39.159  35.553  39.106  1.00  0.00     0.200 A 
ATOM     86  F   UNL A   1      37.780  33.939  40.142  1.00  0.00    -0.200 F 
ATOM     87  F   UNL A   1      38.934  36.411  40.111  1.00  0.00    -0.200 F 
ENDBRANCH  53  77
BRANCH  65  88
ATOM     88  C   UNL A   1      43.845  28.522  35.208  1.00  0.00     0.064 A 
ATOM     89  C   UNL A   1      45.160  29.005  35.127  1.00  0.00     0.173 A 
ATOM     90  C   UNL A   1      43.600  27.415  36.033  1.00  0.00     0.173 A 
ATOM     91  F   UNL A   1      45.447  30.052  34.339  1.00  0.00    -0.203 F 
ATOM     92  C   UNL A   1      46.190  28.395  35.838  1.00  0.00     0.198 A 
ATOM     93  C   UNL A   1      44.627  26.825  36.763  1.00  0.00     0.198 A 
ATOM     94  F   UNL A   1      42.357  26.921  36.149  1.00  0.00    -0.203 F 
ATOM     95  F   UNL A   1      47.444  28.852  35.720  1.00  0.00    -0.200 F 
ATOM     96  C   UNL A   1      45.922  27.312  36.662  1.00  0.00     0.200 A 
ATOM     97  F   UNL A   1      44.364  25.787  37.569  1.00  0.00    -0.200 F 
ATOM     98  F   UNL A   1      46.911  26.736  37.357  1.00  0.00    -0.200 F 
ENDBRANCH  65  88
ENDBRANCH  39  40
ENDBRANCH  31  34
ENDBRANCH  29  30
ENDBRANCH  28  29
ENDBRANCH   1  28
TORSDOF 13
ENDMDL
MODEL 2
REMARK VINA RESULT:     -13.5      1.259      7.351
REMARK SMILES CN1C=C/C(=C\C=C/C=N\c2ccc(C(=O)NCCCNC(=O)c3ccc(-c4c5nc(c(-c6c(F)c(F)c(F)c(F)c6F)c6ccc([nH]6)c(-c6c(F)c(F)c(F)c(F)c6F)c6nc(c(-c7c(F)c(F)c(F)c(F)c7F)c7ccc4[nH]7)C=C6)C=C5)cc3)cc2)c2ccccc21
REMARK SMILES IDX 18 1 17 2 15 3 16 4 14 6 11 7 12 8 88 9 13 10 87 11 10 12
REMARK SMILES IDX 9 13 8 14 7 15 6 16 1 17 2 18 3 19 94 20 4 21 89 22 93 23
REMARK SMILES IDX 5 24 90 25 92 26 91 27 19 28 20 29 21 30 22 31 23 33 24 34
REMARK SMILES IDX 25 35 86 36 26 37 85 38 27 39 28 40 29 41 79 42 30 43 84 44
REMARK SMILES IDX 78 45 80 46 31 47 83 48 77 49 76 50 32 52 64 53 44 54 63 55
REMARK SMILES IDX 45 56 48 57 62 58 81 59 46 60 47 61 61 63 82 64 49 65 33 66
REMARK SMILES IDX 34 67 42 68 35 69 36 70 40 71 43 72 37 73 38 74 41 75 39 76
REMARK SMILES IDX 65 77 66 78 74 79 67 80 68 81 72 82 75 83 69 84 70 85 73 86
REMARK SMILES IDX 71 87 50 88 51 89 59 90 52 91 53 92 57 93 60 94 54 95 55 96
REMARK SMILES IDX 58 97 56 98
REMARK H PARENT 17 5 21 32 80 51 48 62
REMARK Flexibility Score: inf
ROOT
ATOM      1  C   UNL A   1      31.726  30.765  25.907  1.00  0.00     0.118 C 
ENDROOT
BRANCH   1   2
ATOM      2  N   UNL A   1      33.103  30.341  26.101  1.00  0.00    -0.352 N 
ATOM      3  C   UNL A   1      33.700  29.119  26.271  1.00  0.00     0.251 C 
ATOM      4  O   UNL A   1      34.915  29.112  26.475  1.00  0.00    -0.269 OA
ATOM      5  H   UNL A   1      33.742  31.090  26.115  1.00  0.00     0.163 HD
BRANCH   3   6
ATOM      6  C   UNL A   1      32.959  27.830  26.273  1.00  0.00     0.039 A 
ATOM      7  C   UNL A   1      31.747  25.290  26.470  1.00  0.00     0.063 A 
ATOM      8  C   UNL A   1      33.102  25.404  26.164  1.00  0.00     0.029 A 
ATOM      9  C   UNL A   1      30.981  26.455  26.525  1.00  0.00     0.029 A 
ATOM     10  C   UNL A   1      33.713  26.659  26.111  1.00  0.00     0.016 A 
ATOM     11  C   UNL A   1      31.573  27.713  26.379  1.00  0.00     0.016 A 
BRANCH   7  12
ATOM     12  N   UNL A   1      31.088  24.068  26.637  1.00  0.00    -0.257 NA
ATOM     13  C   UNL A   1      30.671  23.349  25.644  1.00  0.00     0.111 C 
BRANCH  13  14
ATOM     14  C   UNL A   1      30.757  23.588  24.175  1.00  0.00     0.020 C 
ATOM     15  C   UNL A   1      31.805  23.260  23.404  1.00  0.00     0.002 C 
BRANCH  15  16
ATOM     16  C   UNL A   1      33.087  22.754  23.853  1.00  0.00     0.009 C 
ATOM     17  C   UNL A   1      34.549  17.345  24.647  1.00  0.00     0.149 C 
ATOM     18  N   UNL A   1      34.177  18.752  24.519  1.00  0.00    -0.351 N 
ATOM     19  C   UNL A   1      32.863  19.140  24.327  1.00  0.00     0.086 C 
ATOM     20  C   UNL A   1      35.199  19.741  24.611  1.00  0.00     0.048 A 
ATOM     21  C   UNL A   1      32.450  20.401  24.151  1.00  0.00     0.026 C 
ATOM     22  C   UNL A   1      34.868  21.124  24.467  1.00  0.00     0.005 A 
ATOM     23  C   UNL A   1      36.548  19.401  24.850  1.00  0.00     0.027 A 
ATOM     24  C   UNL A   1      33.433  21.482  24.148  1.00  0.00    -0.015 C 
ATOM     25  C   UNL A   1      35.890  22.086  24.607  1.00  0.00     0.011 A 
ATOM     26  C   UNL A   1      37.542  20.374  24.959  1.00  0.00     0.002 A 
ATOM     27  C   UNL A   1      37.213  21.716  24.844  1.00  0.00     0.001 A 
ENDBRANCH  15  16
ENDBRANCH  13  14
ENDBRANCH   7  12
ENDBRANCH   3   6
ENDBRANCH   1   2
BRANCH   1  28
ATOM     28  C   UNL A   1      31.410  32.106  26.553  1.00  0.00     0.042 C 
BRANCH  28  29
ATOM     29  C   UNL A   1      32.573  32.744  27.294  1.00  0.00     0.118 C 
BRANCH  29  30
ATOM     30  N   UNL A   1      32.333  34.132  27.671  1.00  0.00    -0.352 N 
ATOM     31  C   UNL A   1      32.946  34.948  28.597  1.00  0.00     0.251 C 
ATOM     32  H   UNL A   1      31.600  34.564  27.174  1.00  0.00     0.163 HD
ATOM     33  O   UNL A   1      32.465  36.044  28.850  1.00  0.00    -0.269 OA
BRANCH  31  34
ATOM     34  C   UNL A   1      34.152  34.492  29.325  1.00  0.00     0.039 A 
ATOM     35  C   UNL A   1      35.424  34.650  28.783  1.00  0.00     0.014 A 
ATOM     36  C   UNL A   1      34.008  33.893  30.581  1.00  0.00     0.014 A 
ATOM     37  C   UNL A   1      36.505  33.996  29.358  1.00  0.00     0.010 A 
ATOM     38  C   UNL A   1      35.124  33.352  31.230  1.00  0.00     0.010 A 
ATOM     39  C   UNL A   1      36.372  33.338  30.590  1.00  0.00    -0.014 A 
BRANCH  39  40
ATOM     40  C   UNL A   1      37.554  32.647  31.171  1.00  0.00     0.031 A 
ATOM     41  C   UNL A   1      38.032  32.964  32.563  1.00  0.00     0.074 A 
ATOM     42  C   UNL A   1      38.159  31.672  30.463  1.00  0.00     0.049 A 
ATOM     43  N   UNL A   1      39.026  32.435  33.236  1.00  0.00    -0.248 NA
ATOM     44  C   UNL A   1      37.316  34.019  33.294  1.00  0.00     0.031 C 
ATOM     45  C   UNL A   1      37.788  31.270  29.104  1.00  0.00     0.029 A 
ATOM     46  N   UNL A   1      39.181  30.819  30.794  1.00  0.00    -0.354 N 
ATOM     47  C   UNL A   1      39.071  33.114  34.446  1.00  0.00     0.074 A 
ATOM     48  C   UNL A   1      38.024  34.111  34.410  1.00  0.00     0.031 C 
ATOM     49  C   UNL A   1      38.516  30.204  28.748  1.00  0.00     0.029 A 
ATOM     50  C   UNL A   1      39.461  29.896  29.816  1.00  0.00     0.049 A 
ATOM     51  H   UNL A   1      39.666  30.864  31.650  1.00  0.00     0.167 HD
ATOM     52  C   UNL A   1      39.905  32.916  35.496  1.00  0.00     0.037 A 
ATOM     53  C   UNL A   1      40.385  28.919  29.771  1.00  0.00     0.037 A 
ATOM     54  C   UNL A   1      40.918  31.893  35.545  1.00  0.00     0.049 A 
ATOM     55  C   UNL A   1      41.305  28.727  30.938  1.00  0.00     0.074 A 
ATOM     56  C   UNL A   1      41.774  31.577  36.587  1.00  0.00     0.029 A 
ATOM     57  N   UNL A   1      41.212  31.019  34.508  1.00  0.00    -0.354 N 
ATOM     58  N   UNL A   1      41.330  29.369  32.080  1.00  0.00    -0.248 NA
ATOM     59  C   UNL A   1      42.335  27.689  30.806  1.00  0.00     0.031 C 
ATOM     60  C   UNL A   1      42.618  30.547  36.161  1.00  0.00     0.029 A 
ATOM     61  C   UNL A   1      42.258  30.185  34.872  1.00  0.00     0.049 A 
ATOM     62  H   UNL A   1      40.746  30.995  33.640  1.00  0.00     0.167 HD
ATOM     63  C   UNL A   1      42.377  28.819  32.804  1.00  0.00     0.074 A 
ATOM     64  C   UNL A   1      42.948  27.771  31.981  1.00  0.00     0.031 C 
ATOM     65  C   UNL A   1      42.828  29.160  34.035  1.00  0.00     0.037 A 
BRANCH  52  66
ATOM     66  C   UNL A   1      39.775  33.838  36.675  1.00  0.00     0.064 A 
ATOM     67  C   UNL A   1      40.437  35.073  36.728  1.00  0.00     0.173 A 
ATOM     68  C   UNL A   1      38.940  33.496  37.750  1.00  0.00     0.173 A 
ATOM     69  F   UNL A   1      41.256  35.445  35.732  1.00  0.00    -0.203 F 
ATOM     70  C   UNL A   1      40.291  35.919  37.827  1.00  0.00     0.198 A 
ATOM     71  C   UNL A   1      38.774  34.355  38.833  1.00  0.00     0.198 A 
ATOM     72  F   UNL A   1      38.278  32.330  37.746  1.00  0.00    -0.203 F 
ATOM     73  F   UNL A   1      40.971  37.072  37.877  1.00  0.00    -0.200 F 
ATOM     74  C   UNL A   1      39.454  35.562  38.874  1.00  0.00     0.200 A 
ATOM     75  F   UNL A   1      37.955  34.015  39.838  1.00  0.00    -0.200 F 
ATOM     76  F   UNL A   1      39.310  36.379  39.926  1.00  0.00    -0.200 F 
ENDBRANCH  52  66
BRANCH  53  77
ATOM     77  C   UNL A   1      40.462  28.062  28.560  1.00  0.00     0.064 A 
ATOM     78  C   UNL A   1      41.248  28.437  27.463  1.00  0.00     0.173 A 
ATOM     79  C   UNL A   1      39.826  26.812  28.516  1.00  0.00     0.173 A 
ATOM     80  F   UNL A   1      41.861  29.630  27.454  1.00  0.00    -0.203 F 
ATOM     81  C   UNL A   1      41.407  27.585  26.372  1.00  0.00     0.198 A 
ATOM     82  C   UNL A   1      40.009  25.951  27.437  1.00  0.00     0.198 A 
ATOM     83  F   UNL A   1      39.070  26.408  29.546  1.00  0.00    -0.203 F 
ATOM     84  F   UNL A   1      42.158  27.967  25.331  1.00  0.00    -0.200 F 
ATOM     85  C   UNL A   1      40.800  26.337  26.367  1.00  0.00     0.200 A 
ATOM     86  F   UNL A   1      39.438  24.739  27.448  1.00  0.00    -0.200 F 
ATOM     87  F   UNL A   1      40.981  25.505  25.332  1.00  0.00    -0.200 F 
ENDBRANCH  53  77
BRANCH  65  88
ATOM     88  C   UNL A   1      44.007  28.402  34.571  1.00  0.00     0.064 A 
ATOM     89  C   UNL A   1      45.314  28.887  34.419  1.00  0.00     0.173 A 
ATOM     90  C   UNL A   1      43.824  27.217  35.300  1.00  0.00     0.173 A 
ATOM     91  F   UNL A   1      45.540  30.008  33.717  1.00  0.00    -0.203 F 
ATOM     92  C   UNL A   1      46.397  28.207  34.968  1.00  0.00     0.198 A 
ATOM     93  C   UNL A   1      44.906  26.554  35.869  1.00  0.00     0.198 A 
ATOM     94  F   UNL A   1      42.592  26.717  35.478  1.00  0.00    -0.203 F 
ATOM     95  F   UNL A   1      47.640  28.671  34.783  1.00  0.00    -0.200 F 
ATOM     96  C   UNL A   1      46.192  27.047  35.700  1.00  0.00     0.200 A 
ATOM     97  F   UNL A   1      44.706  25.441  36.588  1.00  0.00    -0.200 F 
ATOM     98  F   UNL A   1      47.234  26.402  36.241  1.00  0.00    -0.200 F 
ENDBRANCH  65  88
ENDBRANCH  39  40
ENDBRANCH  31  34
ENDBRANCH  29  30
ENDBRANCH  28  29
ENDBRANCH   1  28
TORSDOF 13
ENDMDL
MODEL 3
REMARK VINA RESULT:     -13.4      0.296      7.197
REMARK SMILES CN1C=C/C(=C\C=C/C=N\c2ccc(C(=O)NCCCNC(=O)c3ccc(-c4c5nc(c(-c6c(F)c(F)c(F)c(F)c6F)c6ccc([nH]6)c(-c6c(F)c(F)c(F)c(F)c6F)c6nc(c(-c7c(F)c(F)c(F)c(F)c7F)c7ccc4[nH]7)C=C6)C=C5)cc3)cc2)c2ccccc21
REMARK SMILES IDX 18 1 17 2 15 3 16 4 14 6 11 7 12 8 88 9 13 10 87 11 10 12
REMARK SMILES IDX 9 13 8 14 7 15 6 16 1 17 2 18 3 19 94 20 4 21 89 22 93 23
REMARK SMILES IDX 5 24 90 25 92 26 91 27 19 28 20 29 21 30 22 31 23 33 24 34
REMARK SMILES IDX 25 35 86 36 26 37 85 38 27 39 28 40 29 41 79 42 30 43 84 44
REMARK SMILES IDX 78 45 80 46 31 47 83 48 77 49 76 50 32 52 64 53 44 54 63 55
REMARK SMILES IDX 45 56 48 57 62 58 81 59 46 60 47 61 61 63 82 64 49 65 33 66
REMARK SMILES IDX 34 67 42 68 35 69 36 70 40 71 43 72 37 73 38 74 41 75 39 76
REMARK SMILES IDX 65 77 66 78 74 79 67 80 68 81 72 82 75 83 69 84 70 85 73 86
REMARK SMILES IDX 71 87 50 88 51 89 59 90 52 91 53 92 57 93 60 94 54 95 55 96
REMARK SMILES IDX 58 97 56 98
REMARK H PARENT 17 5 21 32 80 51 48 62
REMARK Flexibility Score: inf
ROOT
ATOM      1  C   UNL A   1      31.819  30.579  26.595  1.00  0.00     0.118 C 
ENDROOT
BRANCH   1   2
ATOM      2  N   UNL A   1      33.088  30.099  27.117  1.00  0.00    -0.352 N 
ATOM      3  C   UNL A   1      34.031  29.222  26.647  1.00  0.00     0.251 C 
ATOM      4  O   UNL A   1      34.989  28.984  27.383  1.00  0.00    -0.269 OA
ATOM      5  H   UNL A   1      33.319  30.484  27.992  1.00  0.00     0.163 HD
BRANCH   3   6
ATOM      6  C   UNL A   1      33.929  28.518  25.342  1.00  0.00     0.039 A 
ATOM      7  C   UNL A   1      33.535  27.015  22.987  1.00  0.00     0.063 A 
ATOM      8  C   UNL A   1      33.842  26.378  24.188  1.00  0.00     0.029 A 
ATOM      9  C   UNL A   1      33.577  28.409  22.947  1.00  0.00     0.029 A 
ATOM     10  C   UNL A   1      33.992  27.118  25.364  1.00  0.00     0.016 A 
ATOM     11  C   UNL A   1      33.822  29.155  24.105  1.00  0.00     0.016 A 
BRANCH   7  12
ATOM     12  N   UNL A   1      33.273  26.337  21.792  1.00  0.00    -0.257 NA
ATOM     13  C   UNL A   1      32.119  25.821  21.512  1.00  0.00     0.111 C 
BRANCH  13  14
ATOM     14  C   UNL A   1      30.856  25.795  22.301  1.00  0.00     0.020 C 
ATOM     15  C   UNL A   1      30.467  24.784  23.095  1.00  0.00     0.002 C 
BRANCH  15  16
ATOM     16  C   UNL A   1      31.108  23.490  23.227  1.00  0.00     0.009 C 
ATOM     17  C   UNL A   1      33.871  21.482  27.740  1.00  0.00     0.149 C 
ATOM     18  N   UNL A   1      33.226  22.003  26.537  1.00  0.00    -0.351 N 
ATOM     19  C   UNL A   1      32.866  23.334  26.424  1.00  0.00     0.086 C 
ATOM     20  C   UNL A   1      32.979  21.111  25.453  1.00  0.00     0.048 A 
ATOM     21  C   UNL A   1      32.228  23.874  25.379  1.00  0.00     0.026 C 
ATOM     22  C   UNL A   1      32.328  21.586  24.272  1.00  0.00     0.005 A 
ATOM     23  C   UNL A   1      33.365  19.755  25.499  1.00  0.00     0.027 A 
ATOM     24  C   UNL A   1      31.858  23.025  24.249  1.00  0.00    -0.015 C 
ATOM     25  C   UNL A   1      32.136  20.695  23.196  1.00  0.00     0.011 A 
ATOM     26  C   UNL A   1      33.139  18.890  24.427  1.00  0.00     0.002 A 
ATOM     27  C   UNL A   1      32.531  19.361  23.274  1.00  0.00     0.001 A 
ENDBRANCH  15  16
ENDBRANCH  13  14
ENDBRANCH   7  12
ENDBRANCH   3   6
ENDBRANCH   1   2
BRANCH   1  28
ATOM     28  C   UNL A   1      31.622  32.078  26.769  1.00  0.00     0.042 C 
BRANCH  28  29
ATOM     29  C   UNL A   1      32.833  32.819  27.311  1.00  0.00     0.118 C 
BRANCH  29  30
ATOM     30  N   UNL A   1      32.540  34.184  27.731  1.00  0.00    -0.352 N 
ATOM     31  C   UNL A   1      33.086  34.974  28.719  1.00  0.00     0.251 C 
ATOM     32  H   UNL A   1      31.823  34.620  27.216  1.00  0.00     0.163 HD
ATOM     33  O   UNL A   1      32.567  36.047  28.992  1.00  0.00    -0.269 OA
BRANCH  31  34
ATOM     34  C   UNL A   1      34.266  34.515  29.489  1.00  0.00     0.039 A 
ATOM     35  C   UNL A   1      35.559  34.745  29.030  1.00  0.00     0.014 A 
ATOM     36  C   UNL A   1      34.074  33.840  30.698  1.00  0.00     0.014 A 
ATOM     37  C   UNL A   1      36.629  34.093  29.628  1.00  0.00     0.010 A 
ATOM     38  C   UNL A   1      35.170  33.298  31.378  1.00  0.00     0.010 A 
ATOM     39  C   UNL A   1      36.452  33.360  30.811  1.00  0.00    -0.014 A 
BRANCH  39  40
ATOM     40  C   UNL A   1      37.623  32.675  31.419  1.00  0.00     0.031 A 
ATOM     41  C   UNL A   1      38.077  33.005  32.816  1.00  0.00     0.074 A 
ATOM     42  C   UNL A   1      38.240  31.694  30.730  1.00  0.00     0.049 A 
ATOM     43  N   UNL A   1      39.058  32.482  33.511  1.00  0.00    -0.248 NA
ATOM     44  C   UNL A   1      37.347  34.066  33.525  1.00  0.00     0.031 C 
ATOM     45  C   UNL A   1      37.894  31.280  29.369  1.00  0.00     0.029 A 
ATOM     46  N   UNL A   1      39.256  30.844  31.087  1.00  0.00    -0.354 N 
ATOM     47  C   UNL A   1      39.082  33.171  34.716  1.00  0.00     0.074 A 
ATOM     48  C   UNL A   1      38.036  34.168  34.653  1.00  0.00     0.031 C 
ATOM     49  C   UNL A   1      38.628  30.211  29.035  1.00  0.00     0.029 A 
ATOM     50  C   UNL A   1      39.553  29.913  30.122  1.00  0.00     0.049 A 
ATOM     51  H   UNL A   1      39.726  30.896  31.951  1.00  0.00     0.167 HD
ATOM     52  C   UNL A   1      39.898  32.982  35.781  1.00  0.00     0.037 A 
ATOM     53  C   UNL A   1      40.478  28.935  30.102  1.00  0.00     0.037 A 
ATOM     54  C   UNL A   1      40.910  31.960  35.858  1.00  0.00     0.049 A 
ATOM     55  C   UNL A   1      41.377  28.753  31.287  1.00  0.00     0.074 A 
ATOM     56  C   UNL A   1      41.747  31.654  36.917  1.00  0.00     0.029 A 
ATOM     57  N   UNL A   1      41.222  31.077  34.834  1.00  0.00    -0.354 N 
ATOM     58  N   UNL A   1      41.382  29.405  32.423  1.00  0.00    -0.248 NA
ATOM     59  C   UNL A   1      42.410  27.715  31.182  1.00  0.00     0.031 C 
ATOM     60  C   UNL A   1      42.599  30.619  36.516  1.00  0.00     0.029 A 
ATOM     61  C   UNL A   1      42.261  30.247  35.224  1.00  0.00     0.049 A 
ATOM     62  H   UNL A   1      40.771  31.045  33.958  1.00  0.00     0.167 HD
ATOM     63  C   UNL A   1      42.417  28.862  33.170  1.00  0.00     0.074 A 
ATOM     64  C   UNL A   1      43.002  27.807  32.366  1.00  0.00     0.031 C 
ATOM     65  C   UNL A   1      42.846  29.214  34.406  1.00  0.00     0.037 A 
BRANCH  52  66
ATOM     66  C   UNL A   1      39.748  33.916  36.950  1.00  0.00     0.064 A 
ATOM     67  C   UNL A   1      40.395  35.158  36.997  1.00  0.00     0.173 A 
ATOM     68  C   UNL A   1      38.906  33.575  38.021  1.00  0.00     0.173 A 
ATOM     69  F   UNL A   1      41.220  35.528  36.004  1.00  0.00    -0.203 F 
ATOM     70  C   UNL A   1      40.230  36.012  38.085  1.00  0.00     0.198 A 
ATOM     71  C   UNL A   1      38.720  34.444  39.093  1.00  0.00     0.198 A 
ATOM     72  F   UNL A   1      38.256  32.402  38.023  1.00  0.00    -0.203 F 
ATOM     73  F   UNL A   1      40.898  37.173  38.130  1.00  0.00    -0.200 F 
ATOM     74  C   UNL A   1      39.388  35.658  39.128  1.00  0.00     0.200 A 
ATOM     75  F   UNL A   1      37.895  34.105  40.094  1.00  0.00    -0.200 F 
ATOM     76  F   UNL A   1      39.225  36.484  40.171  1.00  0.00    -0.200 F 
ENDBRANCH  52  66
BRANCH  53  77
ATOM     77  C   UNL A   1      40.576  28.068  28.900  1.00  0.00     0.064 A 
ATOM     78  C   UNL A   1      39.830  26.886  28.804  1.00  0.00     0.173 A 
ATOM     79  C   UNL A   1      41.345  28.451  27.792  1.00  0.00     0.173 A 
ATOM     80  F   UNL A   1      39.093  26.471  29.845  1.00  0.00    -0.203 F 
ATOM     81  C   UNL A   1      39.838  26.127  27.635  1.00  0.00     0.198 A 
ATOM     82  C   UNL A   1      41.331  27.706  26.614  1.00  0.00     0.198 A 
ATOM     83  F   UNL A   1      42.070  29.578  27.835  1.00  0.00    -0.203 F 
ATOM     84  F   UNL A   1      39.122  24.997  27.568  1.00  0.00    -0.200 F 
ATOM     85  C   UNL A   1      40.577  26.546  26.537  1.00  0.00     0.200 A 
ATOM     86  F   UNL A   1      42.028  28.127  25.551  1.00  0.00    -0.200 F 
ATOM     87  F   UNL A   1      40.557  25.834  25.402  1.00  0.00    -0.200 F 
ENDBRANCH  53  77
BRANCH  65  88
ATOM     88  C   UNL A   1      44.015  28.461  34.969  1.00  0.00     0.064 A 
ATOM     89  C   UNL A   1      45.326  28.935  34.818  1.00  0.00     0.173 A 
ATOM     90  C   UNL A   1      43.818  27.294  35.722  1.00  0.00     0.173 A 
ATOM     91  F   UNL A   1      45.566  30.039  34.095  1.00  0.00    -0.203 F 
ATOM     92  C   UNL A   1      46.400  28.260  35.392  1.00  0.00     0.198 A 
ATOM     93  C   UNL A   1      44.891  26.637  36.316  1.00  0.00     0.198 A 
ATOM     94  F   UNL A   1      42.582  26.805  35.900  1.00  0.00    -0.203 F 
ATOM     95  F   UNL A   1      47.648  28.713  35.209  1.00  0.00    -0.200 F 
ATOM     96  C   UNL A   1      46.182  27.118  36.148  1.00  0.00     0.200 A 
ATOM     97  F   UNL A   1      44.677  25.541  37.057  1.00  0.00    -0.200 F 
ATOM     98  F   UNL A   1      47.215  26.478  36.712  1.00  0.00    -0.200 F 
ENDBRANCH  65  88
ENDBRANCH  39  40
ENDBRANCH  31  34
ENDBRANCH  29  30
ENDBRANCH  28  29
ENDBRANCH   1  28
TORSDOF 13
ENDMDL
