MODEL 1
REMARK VINA RESULT:     -13.6      0.000      0.000
REMARK SMILES Cc1ccccc1CNc1ccc(C(=O)NCCCNC(=O)c2ccc(-c3c4nc(c(-c5c(F)c(F)c(F)c(F)c5F)c5ccc([nH]5)c(-c5c(F)c(F)c(F)c(F)c5F)c5nc(c(-c6c(F)c(F)c(F)c(F)c6F)c6ccc3[nH]6)C=C5)C=C4)cc2)c(F)c1F
REMARK SMILES IDX 17 1 16 2 14 3 15 4 13 6 10 7 11 8 88 9 12 10 86 11 89 12
REMARK SMILES IDX 87 13 9 14 8 16 7 17 1 18 2 19 3 20 4 21 6 22 5 23 18 24
REMARK SMILES IDX 19 25 20 26 21 27 22 29 23 30 24 31 85 32 25 33 84 34 26 35
REMARK SMILES IDX 27 36 28 37 78 38 29 39 83 40 77 41 79 42 30 43 82 44 76 45
REMARK SMILES IDX 75 46 31 48 63 49 43 50 62 51 44 52 47 53 61 54 80 55 45 56
REMARK SMILES IDX 46 57 60 59 81 60 48 61 32 62 33 63 41 64 34 65 35 66 39 67
REMARK SMILES IDX 42 68 36 69 37 70 40 71 38 72 64 73 65 74 73 75 66 76 67 77
REMARK SMILES IDX 71 78 74 79 68 80 69 81 72 82 70 83 49 84 50 85 58 86 51 87
REMARK SMILES IDX 52 88 56 89 59 90 53 91 54 92 57 93 55 94
REMARK H PARENT 16 5 9 15 20 28 79 47 47 58
REMARK Flexibility Score: inf
ROOT
ATOM      1  C   UNL A   1      31.876  30.529  26.638  1.00  0.00     0.118 C 
ENDROOT
BRANCH   1   2
ATOM      2  N   UNL A   1      31.534  30.193  25.263  1.00  0.00    -0.352 N 
ATOM      3  C   UNL A   1      31.458  29.012  24.557  1.00  0.00     0.254 C 
ATOM      4  O   UNL A   1      31.086  29.119  23.389  1.00  0.00    -0.269 OA
ATOM      5  H   UNL A   1      31.305  30.981  24.719  1.00  0.00     0.163 HD
BRANCH   3   6
ATOM      6  C   UNL A   1      31.798  27.665  25.109  1.00  0.00     0.078 A 
ATOM      7  C   UNL A   1      32.548  25.098  26.113  1.00  0.00     0.074 A 
ATOM      8  C   UNL A   1      31.217  25.491  26.067  1.00  0.00     0.030 A 
ATOM      9  C   UNL A   1      33.506  26.034  25.703  1.00  0.00     0.182 A 
ATOM     10  C   UNL A   1      30.854  26.745  25.571  1.00  0.00     0.019 A 
ATOM     11  C   UNL A   1      33.144  27.290  25.206  1.00  0.00     0.173 A 
ATOM     12  F   UNL A   1      34.806  25.695  25.745  1.00  0.00    -0.201 F 
ATOM     13  F   UNL A   1      34.131  28.102  24.796  1.00  0.00    -0.203 F 
BRANCH   7  14
ATOM     14  N   UNL A   1      32.914  23.815  26.478  1.00  0.00    -0.379 N 
ATOM     15  H   UNL A   1      33.149  23.630  27.416  1.00  0.00     0.161 HD
BRANCH  14  16
ATOM     16  C   UNL A   1      32.959  22.733  25.504  1.00  0.00     0.149 C 
BRANCH  16  17
ATOM     17  C   UNL A   1      34.364  22.586  24.964  1.00  0.00    -0.026 A 
ATOM     18  C   UNL A   1      33.840  23.661  22.683  1.00  0.00     0.044 C 
ATOM     19  C   UNL A   1      34.761  23.017  23.683  1.00  0.00    -0.046 A 
ATOM     20  C   UNL A   1      36.094  22.809  23.282  1.00  0.00     0.004 A 
ATOM     21  C   UNL A   1      37.028  22.224  24.136  1.00  0.00     0.000 A 
ATOM     22  C   UNL A   1      35.334  22.022  25.824  1.00  0.00     0.006 A 
ATOM     23  C   UNL A   1      36.650  21.837  25.413  1.00  0.00     0.000 A 
ENDBRANCH  16  17
ENDBRANCH  14  16
ENDBRANCH   7  14
ENDBRANCH   3   6
ENDBRANCH   1   2
BRANCH   1  24
ATOM     24  C   UNL A   1      33.362  30.877  26.787  1.00  0.00     0.042 C 
BRANCH  24  25
ATOM     25  C   UNL A   1      33.993  30.332  28.053  1.00  0.00     0.118 C 
BRANCH  25  26
ATOM     26  N   UNL A   1      34.755  31.321  28.807  1.00  0.00    -0.352 N 
ATOM     27  C   UNL A   1      36.028  31.201  29.348  1.00  0.00     0.251 C 
ATOM     28  H   UNL A   1      34.309  32.187  28.952  1.00  0.00     0.163 HD
ATOM     29  O   UNL A   1      36.524  32.099  29.994  1.00  0.00    -0.269 OA
BRANCH  27  30
ATOM     30  C   UNL A   1      36.813  29.992  28.996  1.00  0.00     0.039 A 
ATOM     31  C   UNL A   1      37.185  29.142  30.040  1.00  0.00     0.014 A 
ATOM     32  C   UNL A   1      37.391  29.872  27.736  1.00  0.00     0.014 A 
ATOM     33  C   UNL A   1      38.321  28.350  29.892  1.00  0.00     0.010 A 
ATOM     34  C   UNL A   1      38.571  29.163  27.620  1.00  0.00     0.010 A 
ATOM     35  C   UNL A   1      39.072  28.458  28.720  1.00  0.00    -0.014 A 
BRANCH  35  36
ATOM     36  C   UNL A   1      40.422  27.924  28.594  1.00  0.00     0.031 A 
ATOM     37  C   UNL A   1      40.629  26.495  28.298  1.00  0.00     0.074 A 
ATOM     38  C   UNL A   1      41.502  28.728  28.724  1.00  0.00     0.049 A 
ATOM     39  N   UNL A   1      41.671  25.828  28.670  1.00  0.00    -0.248 NA
ATOM     40  C   UNL A   1      39.652  25.693  27.575  1.00  0.00     0.031 C 
ATOM     41  C   UNL A   1      42.891  28.386  28.426  1.00  0.00     0.029 A 
ATOM     42  N   UNL A   1      41.582  29.978  29.358  1.00  0.00    -0.354 N 
ATOM     43  C   UNL A   1      41.638  24.613  28.031  1.00  0.00     0.074 A 
ATOM     44  C   UNL A   1      40.332  24.554  27.409  1.00  0.00     0.031 C 
ATOM     45  C   UNL A   1      43.695  29.189  29.137  1.00  0.00     0.029 A 
ATOM     46  C   UNL A   1      42.853  30.001  29.992  1.00  0.00     0.049 A 
ATOM     47  H   UNL A   1      40.902  30.689  29.362  1.00  0.00     0.167 HD
ATOM     48  C   UNL A   1      42.762  23.841  27.994  1.00  0.00     0.037 A 
ATOM     49  C   UNL A   1      42.967  30.123  31.346  1.00  0.00     0.037 A 
ATOM     50  C   UNL A   1      43.877  24.462  28.706  1.00  0.00     0.049 A 
ATOM     51  C   UNL A   1      43.632  28.949  32.031  1.00  0.00     0.074 A 
ATOM     52  C   UNL A   1      44.990  25.186  28.311  1.00  0.00     0.029 A 
ATOM     53  N   UNL A   1      43.791  24.623  30.077  1.00  0.00    -0.354 N 
ATOM     54  N   UNL A   1      44.071  27.890  31.412  1.00  0.00    -0.248 NA
ATOM     55  C   UNL A   1      43.745  28.832  33.486  1.00  0.00     0.031 C 
ATOM     56  C   UNL A   1      45.587  25.760  29.468  1.00  0.00     0.029 A 
ATOM     57  C   UNL A   1      44.831  25.392  30.565  1.00  0.00     0.049 A 
ATOM     58  H   UNL A   1      43.078  24.236  30.636  1.00  0.00     0.167 HD
ATOM     59  C   UNL A   1      44.449  26.951  32.335  1.00  0.00     0.074 A 
ATOM     60  C   UNL A   1      44.228  27.585  33.620  1.00  0.00     0.031 C 
ATOM     61  C   UNL A   1      44.870  25.703  31.982  1.00  0.00     0.037 A 
BRANCH  48  62
ATOM     62  C   UNL A   1      42.914  22.636  27.096  1.00  0.00     0.064 A 
ATOM     63  C   UNL A   1      42.182  21.454  27.334  1.00  0.00     0.173 A 
ATOM     64  C   UNL A   1      43.800  22.571  26.005  1.00  0.00     0.173 A 
ATOM     65  F   UNL A   1      41.209  21.405  28.253  1.00  0.00    -0.203 F 
ATOM     66  C   UNL A   1      42.422  20.271  26.633  1.00  0.00     0.198 A 
ATOM     67  C   UNL A   1      44.087  21.372  25.346  1.00  0.00     0.198 A 
ATOM     68  F   UNL A   1      44.376  23.676  25.511  1.00  0.00    -0.203 F 
ATOM     69  F   UNL A   1      41.698  19.176  26.911  1.00  0.00    -0.200 F 
ATOM     70  C   UNL A   1      43.408  20.216  25.671  1.00  0.00     0.200 A 
ATOM     71  F   UNL A   1      45.029  21.347  24.392  1.00  0.00    -0.200 F 
ATOM     72  F   UNL A   1      43.680  19.066  25.041  1.00  0.00    -0.200 F 
ENDBRANCH  48  62
BRANCH  49  73
ATOM     73  C   UNL A   1      41.878  30.956  31.920  1.00  0.00     0.064 A 
ATOM     74  C   UNL A   1      41.984  32.353  31.773  1.00  0.00     0.173 A 
ATOM     75  C   UNL A   1      40.610  30.419  32.163  1.00  0.00     0.173 A 
ATOM     76  F   UNL A   1      43.184  32.916  31.555  1.00  0.00    -0.203 F 
ATOM     77  C   UNL A   1      40.849  33.152  31.680  1.00  0.00     0.198 A 
ATOM     78  C   UNL A   1      39.478  31.231  32.111  1.00  0.00     0.198 A 
ATOM     79  F   UNL A   1      40.448  29.097  32.314  1.00  0.00    -0.203 F 
ATOM     80  F   UNL A   1      40.968  34.449  31.362  1.00  0.00    -0.200 F 
ATOM     81  C   UNL A   1      39.595  32.582  31.813  1.00  0.00     0.200 A 
ATOM     82  F   UNL A   1      38.263  30.682  32.244  1.00  0.00    -0.200 F 
ATOM     83  F   UNL A   1      38.499  33.324  31.601  1.00  0.00    -0.200 F 
ENDBRANCH  49  73
BRANCH  61  84
ATOM     84  C   UNL A   1      45.343  24.671  32.967  1.00  0.00     0.064 A 
ATOM     85  C   UNL A   1      46.645  24.676  33.494  1.00  0.00     0.173 A 
ATOM     86  C   UNL A   1      44.536  23.570  33.327  1.00  0.00     0.173 A 
ATOM     87  F   UNL A   1      47.523  25.629  33.148  1.00  0.00    -0.203 F 
ATOM     88  C   UNL A   1      47.085  23.687  34.376  1.00  0.00     0.198 A 
ATOM     89  C   UNL A   1      44.996  22.555  34.164  1.00  0.00     0.198 A 
ATOM     90  F   UNL A   1      43.272  23.456  32.895  1.00  0.00    -0.203 F 
ATOM     91  F   UNL A   1      48.315  23.766  34.905  1.00  0.00    -0.200 F 
ATOM     92  C   UNL A   1      46.265  22.623  34.705  1.00  0.00     0.200 A 
ATOM     93  F   UNL A   1      44.198  21.516  34.448  1.00  0.00    -0.200 F 
ATOM     94  F   UNL A   1      46.693  21.666  35.537  1.00  0.00    -0.200 F 
ENDBRANCH  61  84
ENDBRANCH  35  36
ENDBRANCH  27  30
ENDBRANCH  25  26
ENDBRANCH  24  25
ENDBRANCH   1  24
TORSDOF 13
ENDMDL
MODEL 2
REMARK VINA RESULT:     -13.5      1.175      1.845
REMARK SMILES Cc1ccccc1CNc1ccc(C(=O)NCCCNC(=O)c2ccc(-c3c4nc(c(-c5c(F)c(F)c(F)c(F)c5F)c5ccc([nH]5)c(-c5c(F)c(F)c(F)c(F)c5F)c5nc(c(-c6c(F)c(F)c(F)c(F)c6F)c6ccc3[nH]6)C=C5)C=C4)cc2)c(F)c1F
REMARK SMILES IDX 17 1 16 2 14 3 15 4 13 6 10 7 11 8 88 9 12 10 86 11 89 12
REMARK SMILES IDX 87 13 9 14 8 16 7 17 1 18 2 19 3 20 4 21 6 22 5 23 18 24
REMARK SMILES IDX 19 25 20 26 21 27 22 29 23 30 24 31 85 32 25 33 84 34 26 35
REMARK SMILES IDX 27 36 28 37 78 38 29 39 83 40 77 41 79 42 30 43 82 44 76 45
REMARK SMILES IDX 75 46 31 48 63 49 43 50 62 51 44 52 47 53 61 54 80 55 45 56
REMARK SMILES IDX 46 57 60 59 81 60 48 61 32 62 33 63 41 64 34 65 35 66 39 67
REMARK SMILES IDX 42 68 36 69 37 70 40 71 38 72 64 73 65 74 73 75 66 76 67 77
REMARK SMILES IDX 71 78 74 79 68 80 69 81 72 82 70 83 49 84 50 85 58 86 51 87
REMARK SMILES IDX 52 88 56 89 59 90 53 91 54 92 57 93 55 94
REMARK H PARENT 16 5 9 15 20 28 79 47 47 58
REMARK Flexibility Score: inf
ROOT
ATOM      1  C   UNL A   1      32.943  29.517  25.845  1.00  0.00     0.118 C 
ENDROOT
BRANCH   1   2
ATOM      2  N   UNL A   1      31.806  29.843  24.994  1.00  0.00    -0.352 N 
ATOM      3  C   UNL A   1      31.151  29.183  23.978  1.00  0.00     0.254 C 
ATOM      4  O   UNL A   1      30.180  29.773  23.506  1.00  0.00    -0.269 OA
ATOM      5  H   UNL A   1      31.420  30.728  25.189  1.00  0.00     0.163 HD
BRANCH   3   6
ATOM      6  C   UNL A   1      31.546  27.847  23.435  1.00  0.00     0.078 A 
ATOM      7  C   UNL A   1      32.226  25.247  22.469  1.00  0.00     0.074 A 
ATOM      8  C   UNL A   1      33.059  26.336  22.249  1.00  0.00     0.030 A 
ATOM      9  C   UNL A   1      31.016  25.490  23.129  1.00  0.00     0.182 A 
ATOM     10  C   UNL A   1      32.726  27.604  22.728  1.00  0.00     0.019 A 
ATOM     11  C   UNL A   1      30.680  26.760  23.609  1.00  0.00     0.173 A 
ATOM     12  F   UNL A   1      30.177  24.463  23.349  1.00  0.00    -0.201 F 
ATOM     13  F   UNL A   1      29.518  26.886  24.269  1.00  0.00    -0.203 F 
BRANCH   7  14
ATOM     14  N   UNL A   1      32.602  23.963  22.117  1.00  0.00    -0.379 N 
ATOM     15  H   UNL A   1      32.689  23.730  21.164  1.00  0.00     0.161 HD
BRANCH  14  16
ATOM     16  C   UNL A   1      32.873  22.948  23.126  1.00  0.00     0.149 C 
BRANCH  16  17
ATOM     17  C   UNL A   1      34.199  23.229  23.796  1.00  0.00    -0.026 A 
ATOM     18  C   UNL A   1      33.163  24.246  25.923  1.00  0.00     0.044 C 
ATOM     19  C   UNL A   1      34.324  23.813  25.071  1.00  0.00    -0.046 A 
ATOM     20  C   UNL A   1      35.615  24.045  25.586  1.00  0.00     0.004 A 
ATOM     21  C   UNL A   1      36.758  23.676  24.878  1.00  0.00     0.000 A 
ATOM     22  C   UNL A   1      35.370  22.836  23.108  1.00  0.00     0.006 A 
ATOM     23  C   UNL A   1      36.636  23.063  23.639  1.00  0.00     0.000 A 
ENDBRANCH  16  17
ENDBRANCH  14  16
ENDBRANCH   7  14
ENDBRANCH   3   6
ENDBRANCH   1   2
BRANCH   1  24
ATOM     24  C   UNL A   1      33.275  30.658  26.814  1.00  0.00     0.042 C 
BRANCH  24  25
ATOM     25  C   UNL A   1      33.964  30.199  28.084  1.00  0.00     0.118 C 
BRANCH  25  26
ATOM     26  N   UNL A   1      34.747  31.240  28.742  1.00  0.00    -0.352 N 
ATOM     27  C   UNL A   1      36.039  31.162  29.240  1.00  0.00     0.251 C 
ATOM     28  H   UNL A   1      34.299  32.111  28.846  1.00  0.00     0.163 HD
ATOM     29  O   UNL A   1      36.552  32.103  29.806  1.00  0.00    -0.269 OA
BRANCH  27  30
ATOM     30  C   UNL A   1      36.820  29.936  28.940  1.00  0.00     0.039 A 
ATOM     31  C   UNL A   1      37.220  29.149  30.022  1.00  0.00     0.014 A 
ATOM     32  C   UNL A   1      37.368  29.745  27.676  1.00  0.00     0.014 A 
ATOM     33  C   UNL A   1      38.354  28.351  29.893  1.00  0.00     0.010 A 
ATOM     34  C   UNL A   1      38.547  29.033  27.572  1.00  0.00     0.010 A 
ATOM     35  C   UNL A   1      39.076  28.393  28.699  1.00  0.00    -0.014 A 
BRANCH  35  36
ATOM     36  C   UNL A   1      40.425  27.856  28.571  1.00  0.00     0.031 A 
ATOM     37  C   UNL A   1      40.628  26.428  28.264  1.00  0.00     0.074 A 
ATOM     38  C   UNL A   1      41.508  28.655  28.710  1.00  0.00     0.049 A 
ATOM     39  N   UNL A   1      41.666  25.755  28.633  1.00  0.00    -0.248 NA
ATOM     40  C   UNL A   1      39.650  25.636  27.532  1.00  0.00     0.031 C 
ATOM     41  C   UNL A   1      42.896  28.310  28.413  1.00  0.00     0.029 A 
ATOM     42  N   UNL A   1      41.591  29.900  29.354  1.00  0.00    -0.354 N 
ATOM     43  C   UNL A   1      41.630  24.545  27.984  1.00  0.00     0.074 A 
ATOM     44  C   UNL A   1      40.326  24.495  27.358  1.00  0.00     0.031 C 
ATOM     45  C   UNL A   1      43.702  29.105  29.131  1.00  0.00     0.029 A 
ATOM     46  C   UNL A   1      42.861  29.912  29.991  1.00  0.00     0.049 A 
ATOM     47  H   UNL A   1      40.913  30.613  29.363  1.00  0.00     0.167 HD
ATOM     48  C   UNL A   1      42.752  23.769  27.943  1.00  0.00     0.037 A 
ATOM     49  C   UNL A   1      42.972  30.023  31.347  1.00  0.00     0.037 A 
ATOM     50  C   UNL A   1      43.868  24.380  28.662  1.00  0.00     0.049 A 
ATOM     51  C   UNL A   1      43.631  28.841  32.024  1.00  0.00     0.074 A 
ATOM     52  C   UNL A   1      44.985  25.104  28.275  1.00  0.00     0.029 A 
ATOM     53  N   UNL A   1      43.779  24.530  30.034  1.00  0.00    -0.354 N 
ATOM     54  N   UNL A   1      44.068  27.786  31.397  1.00  0.00    -0.248 NA
ATOM     55  C   UNL A   1      43.741  28.711  33.478  1.00  0.00     0.031 C 
ATOM     56  C   UNL A   1      45.580  25.667  29.439  1.00  0.00     0.029 A 
ATOM     57  C   UNL A   1      44.821  25.292  30.531  1.00  0.00     0.049 A 
ATOM     58  H   UNL A   1      43.064  24.142  30.589  1.00  0.00     0.167 HD
ATOM     59  C   UNL A   1      44.440  26.838  32.313  1.00  0.00     0.074 A 
ATOM     60  C   UNL A   1      44.219  27.462  33.603  1.00  0.00     0.031 C 
ATOM     61  C   UNL A   1      44.858  25.591  31.950  1.00  0.00     0.037 A 
BRANCH  48  62
ATOM     62  C   UNL A   1      42.902  22.571  27.035  1.00  0.00     0.064 A 
ATOM     63  C   UNL A   1      42.168  21.389  27.264  1.00  0.00     0.173 A 
ATOM     64  C   UNL A   1      43.788  22.513  25.944  1.00  0.00     0.173 A 
ATOM     65  F   UNL A   1      41.196  21.334  28.183  1.00  0.00    -0.203 F 
ATOM     66  C   UNL A   1      42.406  20.210  26.554  1.00  0.00     0.198 A 
ATOM     67  C   UNL A   1      44.073  21.320  25.275  1.00  0.00     0.198 A 
ATOM     68  F   UNL A   1      44.364  23.621  25.458  1.00  0.00    -0.203 F 
ATOM     69  F   UNL A   1      41.681  19.115  26.824  1.00  0.00    -0.200 F 
ATOM     70  C   UNL A   1      43.391  20.162  25.591  1.00  0.00     0.200 A 
ATOM     71  F   UNL A   1      45.014  21.300  24.320  1.00  0.00    -0.200 F 
ATOM     72  F   UNL A   1      43.662  19.017  24.952  1.00  0.00    -0.200 F 
ENDBRANCH  48  62
BRANCH  49  73
ATOM     73  C   UNL A   1      41.885  30.855  31.925  1.00  0.00     0.064 A 
ATOM     74  C   UNL A   1      41.963  32.249  31.735  1.00  0.00     0.173 A 
ATOM     75  C   UNL A   1      40.632  30.305  32.218  1.00  0.00     0.173 A 
ATOM     76  F   UNL A   1      43.147  32.824  31.469  1.00  0.00    -0.203 F 
ATOM     77  C   UNL A   1      40.813  33.026  31.650  1.00  0.00     0.198 A 
ATOM     78  C   UNL A   1      39.486  31.097  32.172  1.00  0.00     0.198 A 
ATOM     79  F   UNL A   1      40.497  28.986  32.412  1.00  0.00    -0.203 F 
ATOM     80  F   UNL A   1      40.902  34.315  31.290  1.00  0.00    -0.200 F 
ATOM     81  C   UNL A   1      39.573  32.440  31.832  1.00  0.00     0.200 A 
ATOM     82  F   UNL A   1      38.284  30.533  32.353  1.00  0.00    -0.200 F 
ATOM     83  F   UNL A   1      38.459  33.158  31.628  1.00  0.00    -0.200 F 
ENDBRANCH  49  73
BRANCH  61  84
ATOM     84  C   UNL A   1      45.326  24.549  32.928  1.00  0.00     0.064 A 
ATOM     85  C   UNL A   1      44.511  23.479  33.333  1.00  0.00     0.173 A 
ATOM     86  C   UNL A   1      46.572  24.658  33.582  1.00  0.00     0.173 A 
ATOM     87  F   UNL A   1      43.273  23.333  32.839  1.00  0.00    -0.203 F 
ATOM     88  C   UNL A   1      44.942  22.542  34.274  1.00  0.00     0.198 A 
ATOM     89  C   UNL A   1      46.977  23.752  34.561  1.00  0.00     0.198 A 
ATOM     90  F   UNL A   1      47.442  25.631  33.278  1.00  0.00    -0.203 F 
ATOM     91  F   UNL A   1      44.156  21.501  34.584  1.00  0.00    -0.200 F 
ATOM     92  C   UNL A   1      46.170  22.683  34.894  1.00  0.00     0.200 A 
ATOM     93  F   UNL A   1      48.158  23.921  35.173  1.00  0.00    -0.200 F 
ATOM     94  F   UNL A   1      46.575  21.793  35.809  1.00  0.00    -0.200 F 
ENDBRANCH  61  84
ENDBRANCH  35  36
ENDBRANCH  27  30
ENDBRANCH  25  26
ENDBRANCH  24  25
ENDBRANCH   1  24
TORSDOF 13
ENDMDL
MODEL 3
REMARK VINA RESULT:     -13.3      3.392     10.120
REMARK SMILES Cc1ccccc1CNc1ccc(C(=O)NCCCNC(=O)c2ccc(-c3c4nc(c(-c5c(F)c(F)c(F)c(F)c5F)c5ccc([nH]5)c(-c5c(F)c(F)c(F)c(F)c5F)c5nc(c(-c6c(F)c(F)c(F)c(F)c6F)c6ccc3[nH]6)C=C5)C=C4)cc2)c(F)c1F
REMARK SMILES IDX 17 1 16 2 14 3 15 4 13 6 10 7 11 8 88 9 12 10 86 11 89 12
REMARK SMILES IDX 87 13 9 14 8 16 7 17 1 18 2 19 3 20 4 21 6 22 5 23 18 24
REMARK SMILES IDX 19 25 20 26 21 27 22 29 23 30 24 31 85 32 25 33 84 34 26 35
REMARK SMILES IDX 27 36 28 37 78 38 29 39 83 40 77 41 79 42 30 43 82 44 76 45
REMARK SMILES IDX 75 46 31 48 63 49 43 50 62 51 44 52 47 53 61 54 80 55 45 56
REMARK SMILES IDX 46 57 60 59 81 60 48 61 32 62 33 63 41 64 34 65 35 66 39 67
REMARK SMILES IDX 42 68 36 69 37 70 40 71 38 72 64 73 65 74 73 75 66 76 67 77
REMARK SMILES IDX 71 78 74 79 68 80 69 81 72 82 70 83 49 84 50 85 58 86 51 87
REMARK SMILES IDX 52 88 56 89 59 90 53 91 54 92 57 93 55 94
REMARK H PARENT 16 5 9 15 20 28 79 47 47 58
REMARK Flexibility Score: inf
ROOT
ATOM      1  C   UNL A   1      37.375  21.365  24.614  1.00  0.00     0.118 C 
ENDROOT
BRANCH   1   2
ATOM      2  N   UNL A   1      36.148  20.682  25.001  1.00  0.00    -0.352 N 
ATOM      3  C   UNL A   1      34.822  21.049  25.047  1.00  0.00     0.254 C 
ATOM      4  O   UNL A   1      34.042  20.166  25.401  1.00  0.00    -0.269 OA
ATOM      5  H   UNL A   1      36.300  19.754  25.293  1.00  0.00     0.163 HD
BRANCH   3   6
ATOM      6  C   UNL A   1      34.301  22.410  24.711  1.00  0.00     0.078 A 
ATOM      7  C   UNL A   1      33.256  25.013  24.171  1.00  0.00     0.074 A 
ATOM      8  C   UNL A   1      33.709  24.193  23.146  1.00  0.00     0.030 A 
ATOM      9  C   UNL A   1      33.390  24.534  25.480  1.00  0.00     0.182 A 
ATOM     10  C   UNL A   1      34.213  22.919  23.413  1.00  0.00     0.019 A 
ATOM     11  C   UNL A   1      33.896  23.258  25.750  1.00  0.00     0.173 A 
ATOM     12  F   UNL A   1      32.976  25.304  26.500  1.00  0.00    -0.201 F 
ATOM     13  F   UNL A   1      33.945  22.869  27.034  1.00  0.00    -0.203 F 
BRANCH   7  14
ATOM     14  N   UNL A   1      32.634  26.221  23.913  1.00  0.00    -0.379 N 
ATOM     15  H   UNL A   1      31.654  26.247  23.816  1.00  0.00     0.161 HD
BRANCH  14  16
ATOM     16  C   UNL A   1      33.396  27.455  23.782  1.00  0.00     0.149 C 
BRANCH  16  17
ATOM     17  C   UNL A   1      33.135  28.350  24.973  1.00  0.00    -0.026 A 
ATOM     18  C   UNL A   1      30.935  29.316  24.047  1.00  0.00     0.044 C 
ATOM     19  C   UNL A   1      32.009  29.188  25.091  1.00  0.00    -0.046 A 
ATOM     20  C   UNL A   1      31.882  29.993  26.240  1.00  0.00     0.004 A 
ATOM     21  C   UNL A   1      32.822  29.946  27.269  1.00  0.00     0.000 A 
ATOM     22  C   UNL A   1      34.060  28.296  26.040  1.00  0.00     0.006 A 
ATOM     23  C   UNL A   1      33.910  29.090  27.173  1.00  0.00     0.000 A 
ENDBRANCH  16  17
ENDBRANCH  14  16
ENDBRANCH   7  14
ENDBRANCH   3   6
ENDBRANCH   1   2
BRANCH   1  24
ATOM     24  C   UNL A   1      38.289  21.622  25.818  1.00  0.00     0.042 C 
BRANCH  24  25
ATOM     25  C   UNL A   1      38.859  23.026  25.865  1.00  0.00     0.118 C 
BRANCH  25  26
ATOM     26  N   UNL A   1      40.264  23.082  26.252  1.00  0.00    -0.352 N 
ATOM     27  C   UNL A   1      40.972  24.154  26.777  1.00  0.00     0.251 C 
ATOM     28  H   UNL A   1      40.776  22.251  26.125  1.00  0.00     0.163 HD
ATOM     29  O   UNL A   1      42.157  24.068  27.014  1.00  0.00    -0.269 OA
BRANCH  27  30
ATOM     30  C   UNL A   1      40.203  25.363  27.162  1.00  0.00     0.039 A 
ATOM     31  C   UNL A   1      40.540  26.565  26.535  1.00  0.00     0.014 A 
ATOM     32  C   UNL A   1      39.395  25.350  28.294  1.00  0.00     0.014 A 
ATOM     33  C   UNL A   1      40.284  27.764  27.195  1.00  0.00     0.010 A 
ATOM     34  C   UNL A   1      39.227  26.528  28.995  1.00  0.00     0.010 A 
ATOM     35  C   UNL A   1      39.733  27.726  28.477  1.00  0.00    -0.014 A 
BRANCH  35  36
ATOM     36  C   UNL A   1      39.719  28.880  29.366  1.00  0.00     0.031 A 
ATOM     37  C   UNL A   1      38.689  29.923  29.210  1.00  0.00     0.074 A 
ATOM     38  C   UNL A   1      40.630  29.004  30.359  1.00  0.00     0.049 A 
ATOM     39  N   UNL A   1      38.866  31.160  29.536  1.00  0.00    -0.248 NA
ATOM     40  C   UNL A   1      37.376  29.653  28.642  1.00  0.00     0.031 C 
ATOM     41  C   UNL A   1      40.619  29.985  31.442  1.00  0.00     0.029 A 
ATOM     42  N   UNL A   1      41.883  28.381  30.469  1.00  0.00    -0.354 N 
ATOM     43  C   UNL A   1      37.644  31.786  29.475  1.00  0.00     0.074 A 
ATOM     44  C   UNL A   1      36.761  30.820  28.856  1.00  0.00     0.031 C 
ATOM     45  C   UNL A   1      41.872  30.146  31.891  1.00  0.00     0.029 A 
ATOM     46  C   UNL A   1      42.742  29.356  31.043  1.00  0.00     0.049 A 
ATOM     47  H   UNL A   1      42.118  27.463  30.204  1.00  0.00     0.167 HD
ATOM     48  C   UNL A   1      37.481  33.005  30.065  1.00  0.00     0.037 A 
ATOM     49  C   UNL A   1      43.842  29.812  30.376  1.00  0.00     0.037 A 
ATOM     50  C   UNL A   1      38.716  33.485  30.682  1.00  0.00     0.049 A 
ATOM     51  C   UNL A   1      43.823  31.294  30.070  1.00  0.00     0.074 A 
ATOM     52  C   UNL A   1      39.205  33.502  31.978  1.00  0.00     0.029 A 
ATOM     53  N   UNL A   1      39.792  33.798  29.870  1.00  0.00    -0.354 N 
ATOM     54  N   UNL A   1      42.854  32.100  30.399  1.00  0.00    -0.248 NA
ATOM     55  C   UNL A   1      44.849  31.956  29.264  1.00  0.00     0.031 C 
ATOM     56  C   UNL A   1      40.582  33.858  31.935  1.00  0.00     0.029 A 
ATOM     57  C   UNL A   1      40.931  34.049  30.612  1.00  0.00     0.049 A 
ATOM     58  H   UNL A   1      39.751  33.839  28.887  1.00  0.00     0.167 HD
ATOM     59  C   UNL A   1      43.067  33.324  29.821  1.00  0.00     0.074 A 
ATOM     60  C   UNL A   1      44.329  33.187  29.121  1.00  0.00     0.031 C 
ATOM     61  C   UNL A   1      42.171  34.347  29.917  1.00  0.00     0.037 A 
BRANCH  48  62
ATOM     62  C   UNL A   1      36.132  33.644  30.296  1.00  0.00     0.064 A 
ATOM     63  C   UNL A   1      35.368  34.139  29.219  1.00  0.00     0.173 A 
ATOM     64  C   UNL A   1      35.555  33.834  31.565  1.00  0.00     0.173 A 
ATOM     65  F   UNL A   1      35.723  33.918  27.947  1.00  0.00    -0.203 F 
ATOM     66  C   UNL A   1      34.203  34.885  29.408  1.00  0.00     0.198 A 
ATOM     67  C   UNL A   1      34.425  34.633  31.760  1.00  0.00     0.198 A 
ATOM     68  F   UNL A   1      36.038  33.209  32.648  1.00  0.00    -0.203 F 
ATOM     69  F   UNL A   1      33.524  35.337  28.344  1.00  0.00    -0.200 F 
ATOM     70  C   UNL A   1      33.757  35.173  30.681  1.00  0.00     0.200 A 
ATOM     71  F   UNL A   1      33.989  34.877  33.005  1.00  0.00    -0.200 F 
ATOM     72  F   UNL A   1      32.673  35.939  30.864  1.00  0.00    -0.200 F 
ENDBRANCH  48  62
BRANCH  49  73
ATOM     73  C   UNL A   1      44.445  28.759  29.519  1.00  0.00     0.064 A 
ATOM     74  C   UNL A   1      45.219  27.769  30.155  1.00  0.00     0.173 A 
ATOM     75  C   UNL A   1      43.917  28.466  28.257  1.00  0.00     0.173 A 
ATOM     76  F   UNL A   1      45.761  28.012  31.360  1.00  0.00    -0.203 F 
ATOM     77  C   UNL A   1      45.299  26.480  29.639  1.00  0.00     0.198 A 
ATOM     78  C   UNL A   1      44.035  27.182  27.725  1.00  0.00     0.198 A 
ATOM     79  F   UNL A   1      43.176  29.369  27.602  1.00  0.00    -0.203 F 
ATOM     80  F   UNL A   1      45.890  25.510  30.351  1.00  0.00    -0.200 F 
ATOM     81  C   UNL A   1      44.674  26.180  28.441  1.00  0.00     0.200 A 
ATOM     82  F   UNL A   1      43.436  26.891  26.562  1.00  0.00    -0.200 F 
ATOM     83  F   UNL A   1      44.643  24.913  28.004  1.00  0.00    -0.200 F 
ENDBRANCH  49  73
BRANCH  61  84
ATOM     84  C   UNL A   1      42.401  35.716  29.342  1.00  0.00     0.064 A 
ATOM     85  C   UNL A   1      41.837  36.124  28.122  1.00  0.00     0.173 A 
ATOM     86  C   UNL A   1      43.295  36.628  29.943  1.00  0.00     0.173 A 
ATOM     87  F   UNL A   1      41.042  35.300  27.423  1.00  0.00    -0.203 F 
ATOM     88  C   UNL A   1      42.094  37.384  27.578  1.00  0.00     0.198 A 
ATOM     89  C   UNL A   1      43.592  37.864  29.370  1.00  0.00     0.198 A 
ATOM     90  F   UNL A   1      43.891  36.359  31.113  1.00  0.00    -0.203 F 
ATOM     91  F   UNL A   1      41.483  37.755  26.443  1.00  0.00    -0.200 F 
ATOM     92  C   UNL A   1      42.977  38.250  28.196  1.00  0.00     0.200 A 
ATOM     93  F   UNL A   1      44.473  38.678  29.968  1.00  0.00    -0.200 F 
ATOM     94  F   UNL A   1      43.235  39.451  27.665  1.00  0.00    -0.200 F 
ENDBRANCH  61  84
ENDBRANCH  35  36
ENDBRANCH  27  30
ENDBRANCH  25  26
ENDBRANCH  24  25
ENDBRANCH   1  24
TORSDOF 13
ENDMDL
