MODEL 1
REMARK VINA RESULT:     -12.1      0.000      0.000
REMARK SMILES CC[NH2+][C@@]1(C(=O)NCCCNC(=O)c2ccc(-c3c4nc(c(-c5c(F)c(F)c(F)c(F)c5F)c5ccc([nH]5)c(-c5c(F)c(F)c(F)c(F)c5F)c5nc(c(-c6c(F)c(F)c(F)c(F)c6F)c6ccc3[nH]6)C=C5)C=C4)cc2)CCC[C@@H](Sc2ncc(C)cn2)C1
REMARK SMILES IDX 9 1 8 2 7 3 5 4 6 5 4 7 77 8 89 9 78 10 80 11 79 12 3 13
REMARK SMILES IDX 2 16 1 17 81 18 82 19 83 20 88 21 84 22 87 23 85 24 86 25
REMARK SMILES IDX 10 26 11 27 12 28 13 30 14 31 15 32 76 33 16 34 75 35 17 36
REMARK SMILES IDX 18 37 19 38 69 39 20 40 74 41 68 42 70 43 21 44 73 45 67 46
REMARK SMILES IDX 66 47 22 49 54 50 34 51 53 52 35 53 38 54 52 55 71 56 36 57
REMARK SMILES IDX 37 58 51 60 72 61 39 62 23 63 24 64 32 65 25 66 26 67 30 68
REMARK SMILES IDX 33 69 27 70 28 71 31 72 29 73 55 74 56 75 64 76 57 77 58 78
REMARK SMILES IDX 62 79 65 80 59 81 60 82 63 83 61 84 40 85 41 86 49 87 42 88
REMARK SMILES IDX 43 89 47 90 50 91 44 92 45 93 48 94 46 95
REMARK H PARENT 7 6 3 14 3 15 11 29 70 48 38 59
REMARK Flexibility Score: inf
ROOT
ATOM      1  C   UNL A   1      38.060  19.575  25.008  1.00  0.00     0.042 C 
ENDROOT
BRANCH   1   2
ATOM      2  C   UNL A   1      36.870  20.527  25.007  1.00  0.00     0.118 C 
BRANCH   2   3
ATOM      3  N   UNL A   1      37.073  21.650  24.123  1.00  0.00    -0.351 N 
ATOM      4  C   UNL A   1      36.383  22.780  23.845  1.00  0.00     0.281 C 
ATOM      5  O   UNL A   1      36.885  23.439  22.914  1.00  0.00    -0.268 OA
ATOM      6  H   UNL A   1      37.905  21.577  23.602  1.00  0.00     0.163 HD
BRANCH   4   7
ATOM      7  C   UNL A   1      35.011  23.286  24.508  1.00  0.00     0.176 C 
ATOM      8  C   UNL A   1      34.981  23.248  26.054  1.00  0.00     0.079 C 
ATOM      9  C   UNL A   1      33.831  22.547  23.846  1.00  0.00     0.094 C 
ATOM     10  C   UNL A   1      34.308  22.065  26.762  1.00  0.00     0.008 C 
ATOM     11  C   UNL A   1      33.539  21.190  24.469  1.00  0.00     0.061 C 
ATOM     12  C   UNL A   1      33.265  21.280  25.969  1.00  0.00     0.015 C 
BRANCH   7  13
ATOM     13  N   UNL A   1      35.011  24.747  24.124  1.00  0.00    -0.334 N 
ATOM     14  H   UNL A   1      35.903  25.135  24.431  1.00  0.00     0.347 HD
ATOM     15  H   UNL A   1      34.837  24.731  23.118  1.00  0.00     0.347 HD
BRANCH  13  16
ATOM     16  C   UNL A   1      33.967  25.623  24.639  1.00  0.00     0.257 C 
ATOM     17  C   UNL A   1      33.322  26.384  23.486  1.00  0.00     0.071 C 
ENDBRANCH  13  16
ENDBRANCH   7  13
BRANCH  11  18
ATOM     18  S   UNL A   1      32.275  20.231  23.540  1.00  0.00    -0.083 SA
BRANCH  18  19
ATOM     19  C   UNL A   1      32.617  18.594  24.114  1.00  0.00     0.187 A 
ATOM     20  N   UNL A   1      33.272  17.764  23.290  1.00  0.00    -0.231 NA
ATOM     21  N   UNL A   1      32.142  18.264  25.325  1.00  0.00    -0.231 NA
ATOM     22  C   UNL A   1      33.441  16.503  23.722  1.00  0.00     0.119 A 
ATOM     23  C   UNL A   1      32.347  16.993  25.713  1.00  0.00     0.119 A 
ATOM     24  C   UNL A   1      32.986  16.048  24.940  1.00  0.00    -0.014 A 
ATOM     25  C   UNL A   1      33.181  14.646  25.400  1.00  0.00     0.048 C 
ENDBRANCH  18  19
ENDBRANCH  11  18
ENDBRANCH   4   7
ENDBRANCH   2   3
ENDBRANCH   1   2
BRANCH   1  26
ATOM     26  C   UNL A   1      39.249  20.101  25.781  1.00  0.00     0.118 C 
BRANCH  26  27
ATOM     27  N   UNL A   1      40.320  19.118  25.878  1.00  0.00    -0.352 N 
ATOM     28  C   UNL A   1      41.669  19.282  26.087  1.00  0.00     0.251 C 
ATOM     29  H   UNL A   1      40.031  18.182  25.776  1.00  0.00     0.163 HD
ATOM     30  O   UNL A   1      42.427  18.333  25.922  1.00  0.00    -0.269 OA
BRANCH  28  31
ATOM     31  C   UNL A   1      42.211  20.599  26.490  1.00  0.00     0.039 A 
ATOM     32  C   UNL A   1      42.661  21.484  25.507  1.00  0.00     0.014 A 
ATOM     33  C   UNL A   1      42.289  20.961  27.834  1.00  0.00     0.014 A 
ATOM     34  C   UNL A   1      43.123  22.751  25.872  1.00  0.00     0.010 A 
ATOM     35  C   UNL A   1      42.616  22.262  28.185  1.00  0.00     0.010 A 
ATOM     36  C   UNL A   1      43.065  23.165  27.213  1.00  0.00    -0.014 A 
BRANCH  36  37
ATOM     37  C   UNL A   1      43.523  24.511  27.642  1.00  0.00     0.031 A 
ATOM     38  C   UNL A   1      42.500  25.565  27.982  1.00  0.00     0.074 A 
ATOM     39  C   UNL A   1      44.837  24.804  27.662  1.00  0.00     0.049 A 
ATOM     40  N   UNL A   1      42.674  26.833  28.257  1.00  0.00    -0.248 NA
ATOM     41  C   UNL A   1      41.086  25.149  27.972  1.00  0.00     0.031 C 
ATOM     42  C   UNL A   1      45.919  23.884  27.309  1.00  0.00     0.029 A 
ATOM     43  N   UNL A   1      45.488  25.969  27.984  1.00  0.00    -0.354 N 
ATOM     44  C   UNL A   1      41.400  27.358  28.435  1.00  0.00     0.074 A 
ATOM     45  C   UNL A   1      40.458  26.299  28.160  1.00  0.00     0.031 C 
ATOM     46  C   UNL A   1      47.098  24.508  27.460  1.00  0.00     0.029 A 
ATOM     47  C   UNL A   1      46.856  25.886  27.873  1.00  0.00     0.049 A 
ATOM     48  H   UNL A   1      45.020  26.787  28.268  1.00  0.00     0.167 HD
ATOM     49  C   UNL A   1      41.046  28.602  28.833  1.00  0.00     0.037 A 
ATOM     50  C   UNL A   1      47.802  26.824  28.072  1.00  0.00     0.037 A 
ATOM     51  C   UNL A   1      41.989  29.643  29.142  1.00  0.00     0.049 A 
ATOM     52  C   UNL A   1      47.376  28.206  28.494  1.00  0.00     0.074 A 
ATOM     53  C   UNL A   1      41.739  30.928  29.586  1.00  0.00     0.029 A 
ATOM     54  N   UNL A   1      43.366  29.508  29.048  1.00  0.00    -0.354 N 
ATOM     55  N   UNL A   1      46.170  28.674  28.713  1.00  0.00    -0.248 NA
ATOM     56  C   UNL A   1      48.445  29.192  28.706  1.00  0.00     0.031 C 
ATOM     57  C   UNL A   1      42.964  31.587  29.723  1.00  0.00     0.029 A 
ATOM     58  C   UNL A   1      43.978  30.693  29.418  1.00  0.00     0.049 A 
ATOM     59  H   UNL A   1      43.836  28.693  28.760  1.00  0.00     0.167 HD
ATOM     60  C   UNL A   1      46.339  29.988  29.129  1.00  0.00     0.074 A 
ATOM     61  C   UNL A   1      47.763  30.239  29.146  1.00  0.00     0.031 C 
ATOM     62  C   UNL A   1      45.401  30.908  29.462  1.00  0.00     0.037 A 
BRANCH  49  63
ATOM     63  C   UNL A   1      39.583  28.898  28.989  1.00  0.00     0.064 A 
ATOM     64  C   UNL A   1      38.941  28.778  30.232  1.00  0.00     0.173 A 
ATOM     65  C   UNL A   1      38.825  29.362  27.903  1.00  0.00     0.173 A 
ATOM     66  F   UNL A   1      39.616  28.324  31.299  1.00  0.00    -0.203 F 
ATOM     67  C   UNL A   1      37.593  29.093  30.378  1.00  0.00     0.198 A 
ATOM     68  C   UNL A   1      37.485  29.708  28.060  1.00  0.00     0.198 A 
ATOM     69  F   UNL A   1      39.389  29.499  26.693  1.00  0.00    -0.203 F 
ATOM     70  F   UNL A   1      36.993  28.928  31.565  1.00  0.00    -0.200 F 
ATOM     71  C   UNL A   1      36.869  29.568  29.295  1.00  0.00     0.200 A 
ATOM     72  F   UNL A   1      36.790  30.181  27.017  1.00  0.00    -0.200 F 
ATOM     73  F   UNL A   1      35.576  29.888  29.441  1.00  0.00    -0.200 F 
ENDBRANCH  49  63
BRANCH  50  74
ATOM     74  C   UNL A   1      49.243  26.500  27.888  1.00  0.00     0.064 A 
ATOM     75  C   UNL A   1      50.076  26.265  28.992  1.00  0.00     0.173 A 
ATOM     76  C   UNL A   1      49.832  26.475  26.615  1.00  0.00     0.173 A 
ATOM     77  F   UNL A   1      49.566  26.295  30.233  1.00  0.00    -0.203 F 
ATOM     78  C   UNL A   1      51.446  26.065  28.835  1.00  0.00     0.198 A 
ATOM     79  C   UNL A   1      51.196  26.238  26.456  1.00  0.00     0.198 A 
ATOM     80  F   UNL A   1      49.084  26.686  25.523  1.00  0.00    -0.203 F 
ATOM     81  F   UNL A   1      52.228  25.922  29.913  1.00  0.00    -0.200 F 
ATOM     82  C   UNL A   1      52.005  26.050  27.566  1.00  0.00     0.200 A 
ATOM     83  F   UNL A   1      51.732  26.208  25.228  1.00  0.00    -0.200 F 
ATOM     84  F   UNL A   1      53.325  25.871  27.416  1.00  0.00    -0.200 F 
ENDBRANCH  50  74
BRANCH  62  85
ATOM     85  C   UNL A   1      45.884  32.246  29.940  1.00  0.00     0.064 A 
ATOM     86  C   UNL A   1      46.075  33.322  29.061  1.00  0.00     0.173 A 
ATOM     87  C   UNL A   1      46.113  32.464  31.308  1.00  0.00     0.173 A 
ATOM     88  F   UNL A   1      45.882  33.160  27.743  1.00  0.00    -0.203 F 
ATOM     89  C   UNL A   1      46.506  34.559  29.531  1.00  0.00     0.198 A 
ATOM     90  C   UNL A   1      46.509  33.712  31.778  1.00  0.00     0.198 A 
ATOM     91  F   UNL A   1      45.934  31.470  32.191  1.00  0.00    -0.203 F 
ATOM     92  F   UNL A   1      46.733  35.558  28.667  1.00  0.00    -0.200 F 
ATOM     93  C   UNL A   1      46.714  34.756  30.889  1.00  0.00     0.200 A 
ATOM     94  F   UNL A   1      46.689  33.905  33.091  1.00  0.00    -0.200 F 
ATOM     95  F   UNL A   1      47.117  35.951  31.339  1.00  0.00    -0.200 F 
ENDBRANCH  62  85
ENDBRANCH  36  37
ENDBRANCH  28  31
ENDBRANCH  26  27
ENDBRANCH   1  26
TORSDOF 14
ENDMDL
MODEL 2
REMARK VINA RESULT:     -12.1      0.975      1.942
REMARK SMILES CC[NH2+][C@@]1(C(=O)NCCCNC(=O)c2ccc(-c3c4nc(c(-c5c(F)c(F)c(F)c(F)c5F)c5ccc([nH]5)c(-c5c(F)c(F)c(F)c(F)c5F)c5nc(c(-c6c(F)c(F)c(F)c(F)c6F)c6ccc3[nH]6)C=C5)C=C4)cc2)CCC[C@@H](Sc2ncc(C)cn2)C1
REMARK SMILES IDX 9 1 8 2 7 3 5 4 6 5 4 7 77 8 89 9 78 10 80 11 79 12 3 13
REMARK SMILES IDX 2 16 1 17 81 18 82 19 83 20 88 21 84 22 87 23 85 24 86 25
REMARK SMILES IDX 10 26 11 27 12 28 13 30 14 31 15 32 76 33 16 34 75 35 17 36
REMARK SMILES IDX 18 37 19 38 69 39 20 40 74 41 68 42 70 43 21 44 73 45 67 46
REMARK SMILES IDX 66 47 22 49 54 50 34 51 53 52 35 53 38 54 52 55 71 56 36 57
REMARK SMILES IDX 37 58 51 60 72 61 39 62 23 63 24 64 32 65 25 66 26 67 30 68
REMARK SMILES IDX 33 69 27 70 28 71 31 72 29 73 55 74 56 75 64 76 57 77 58 78
REMARK SMILES IDX 62 79 65 80 59 81 60 82 63 83 61 84 40 85 41 86 49 87 42 88
REMARK SMILES IDX 43 89 47 90 50 91 44 92 45 93 48 94 46 95
REMARK H PARENT 7 6 3 14 3 15 11 29 70 48 38 59
REMARK Flexibility Score: inf
ROOT
ATOM      1  C   UNL A   1      38.061  19.553  25.000  1.00  0.00     0.042 C 
ENDROOT
BRANCH   1   2
ATOM      2  C   UNL A   1      36.855  20.486  25.001  1.00  0.00     0.118 C 
BRANCH   2   3
ATOM      3  N   UNL A   1      37.027  21.596  24.094  1.00  0.00    -0.351 N 
ATOM      4  C   UNL A   1      36.323  22.719  23.820  1.00  0.00     0.281 C 
ATOM      5  O   UNL A   1      36.794  23.365  22.864  1.00  0.00    -0.268 OA
ATOM      6  H   UNL A   1      37.843  21.518  23.549  1.00  0.00     0.163 HD
BRANCH   4   7
ATOM      7  C   UNL A   1      34.970  23.229  24.517  1.00  0.00     0.176 C 
ATOM      8  C   UNL A   1      34.982  23.201  26.063  1.00  0.00     0.079 C 
ATOM      9  C   UNL A   1      33.772  22.486  23.891  1.00  0.00     0.094 C 
ATOM     10  C   UNL A   1      34.329  22.023  26.797  1.00  0.00     0.008 C 
ATOM     11  C   UNL A   1      33.498  21.133  24.532  1.00  0.00     0.061 C 
ATOM     12  C   UNL A   1      33.264  21.234  26.037  1.00  0.00     0.015 C 
BRANCH   7  13
ATOM     13  N   UNL A   1      34.960  24.688  24.123  1.00  0.00    -0.334 N 
ATOM     14  H   UNL A   1      35.577  25.176  24.773  1.00  0.00     0.347 HD
ATOM     15  H   UNL A   1      35.242  24.674  23.142  1.00  0.00     0.347 HD
BRANCH  13  16
ATOM     16  C   UNL A   1      33.698  25.416  24.107  1.00  0.00     0.257 C 
ATOM     17  C   UNL A   1      33.659  26.397  25.274  1.00  0.00     0.071 C 
ENDBRANCH  13  16
ENDBRANCH   7  13
BRANCH  11  18
ATOM     18  S   UNL A   1      32.209  20.168  23.643  1.00  0.00    -0.083 SA
BRANCH  18  19
ATOM     19  C   UNL A   1      32.598  18.530  24.179  1.00  0.00     0.187 A 
ATOM     20  N   UNL A   1      33.255  17.730  23.326  1.00  0.00    -0.231 NA
ATOM     21  N   UNL A   1      32.154  18.165  25.391  1.00  0.00    -0.231 NA
ATOM     22  C   UNL A   1      33.460  16.465  23.730  1.00  0.00     0.119 A 
ATOM     23  C   UNL A   1      32.394  16.892  25.751  1.00  0.00     0.119 A 
ATOM     24  C   UNL A   1      33.040  15.977  24.947  1.00  0.00    -0.014 A 
ATOM     25  C   UNL A   1      33.274  14.571  25.376  1.00  0.00     0.048 C 
ENDBRANCH  18  19
ENDBRANCH  11  18
ENDBRANCH   4   7
ENDBRANCH   2   3
ENDBRANCH   1   2
BRANCH   1  26
ATOM     26  C   UNL A   1      39.251  20.110  25.750  1.00  0.00     0.118 C 
BRANCH  26  27
ATOM     27  N   UNL A   1      40.294  19.110  25.944  1.00  0.00    -0.352 N 
ATOM     28  C   UNL A   1      41.648  19.256  26.127  1.00  0.00     0.251 C 
ATOM     29  H   UNL A   1      39.977  18.178  25.944  1.00  0.00     0.163 HD
ATOM     30  O   UNL A   1      42.378  18.273  26.059  1.00  0.00    -0.269 OA
BRANCH  28  31
ATOM     31  C   UNL A   1      42.232  20.591  26.385  1.00  0.00     0.039 A 
ATOM     32  C   UNL A   1      42.671  21.366  25.308  1.00  0.00     0.014 A 
ATOM     33  C   UNL A   1      42.360  21.079  27.685  1.00  0.00     0.014 A 
ATOM     34  C   UNL A   1      43.173  22.650  25.536  1.00  0.00     0.010 A 
ATOM     35  C   UNL A   1      42.727  22.399  27.899  1.00  0.00     0.010 A 
ATOM     36  C   UNL A   1      43.166  23.192  26.831  1.00  0.00    -0.014 A 
BRANCH  36  37
ATOM     37  C   UNL A   1      43.666  24.562  27.115  1.00  0.00     0.031 A 
ATOM     38  C   UNL A   1      42.707  25.609  27.618  1.00  0.00     0.074 A 
ATOM     39  C   UNL A   1      44.950  24.878  26.861  1.00  0.00     0.049 A 
ATOM     40  N   UNL A   1      42.901  26.889  27.810  1.00  0.00    -0.248 NA
ATOM     41  C   UNL A   1      41.330  25.168  27.906  1.00  0.00     0.031 C 
ATOM     42  C   UNL A   1      45.962  23.964  26.328  1.00  0.00     0.029 A 
ATOM     43  N   UNL A   1      45.624  26.066  27.006  1.00  0.00    -0.354 N 
ATOM     44  C   UNL A   1      41.676  27.399  28.222  1.00  0.00     0.074 A 
ATOM     45  C   UNL A   1      40.724  26.313  28.178  1.00  0.00     0.031 C 
ATOM     46  C   UNL A   1      47.132  24.615  26.218  1.00  0.00     0.029 A 
ATOM     47  C   UNL A   1      46.944  26.002  26.625  1.00  0.00     0.049 A 
ATOM     48  H   UNL A   1      45.202  26.886  27.351  1.00  0.00     0.167 HD
ATOM     49  C   UNL A   1      41.378  28.650  28.642  1.00  0.00     0.037 A 
ATOM     50  C   UNL A   1      47.886  26.964  26.598  1.00  0.00     0.037 A 
ATOM     51  C   UNL A   1      42.337  29.718  28.720  1.00  0.00     0.049 A 
ATOM     52  C   UNL A   1      47.520  28.353  27.052  1.00  0.00     0.074 A 
ATOM     53  C   UNL A   1      42.149  31.014  29.163  1.00  0.00     0.029 A 
ATOM     54  N   UNL A   1      43.670  29.605  28.356  1.00  0.00    -0.354 N 
ATOM     55  N   UNL A   1      46.370  28.807  27.493  1.00  0.00    -0.248 NA
ATOM     56  C   UNL A   1      48.584  29.366  27.011  1.00  0.00     0.031 C 
ATOM     57  C   UNL A   1      43.360  31.699  29.029  1.00  0.00     0.029 A 
ATOM     58  C   UNL A   1      44.315  30.813  28.556  1.00  0.00     0.049 A 
ATOM     59  H   UNL A   1      44.094  28.788  28.007  1.00  0.00     0.167 HD
ATOM     60  C   UNL A   1      46.587  30.139  27.822  1.00  0.00     0.074 A 
ATOM     61  C   UNL A   1      47.979  30.416  27.544  1.00  0.00     0.031 C 
ATOM     62  C   UNL A   1      45.712  31.054  28.306  1.00  0.00     0.037 A 
BRANCH  49  63
ATOM     63  C   UNL A   1      39.968  28.926  29.079  1.00  0.00     0.064 A 
ATOM     64  C   UNL A   1      38.985  29.328  28.161  1.00  0.00     0.173 A 
ATOM     65  C   UNL A   1      39.579  28.731  30.412  1.00  0.00     0.173 A 
ATOM     66  F   UNL A   1      39.307  29.543  26.876  1.00  0.00    -0.203 F 
ATOM     67  C   UNL A   1      37.670  29.543  28.565  1.00  0.00     0.198 A 
ATOM     68  C   UNL A   1      38.256  28.916  30.807  1.00  0.00     0.198 A 
ATOM     69  F   UNL A   1      40.477  28.345  31.330  1.00  0.00    -0.203 F 
ATOM     70  F   UNL A   1      36.759  29.969  27.679  1.00  0.00    -0.200 F 
ATOM     71  C   UNL A   1      37.304  29.326  29.885  1.00  0.00     0.200 A 
ATOM     72  F   UNL A   1      37.900  28.691  32.079  1.00  0.00    -0.200 F 
ATOM     73  F   UNL A   1      36.035  29.516  30.269  1.00  0.00    -0.200 F 
ENDBRANCH  49  63
BRANCH  50  74
ATOM     74  C   UNL A   1      49.269  26.659  26.140  1.00  0.00     0.064 A 
ATOM     75  C   UNL A   1      50.232  26.165  27.032  1.00  0.00     0.173 A 
ATOM     76  C   UNL A   1      49.675  26.906  24.820  1.00  0.00     0.173 A 
ATOM     77  F   UNL A   1      49.901  25.927  28.310  1.00  0.00    -0.203 F 
ATOM     78  C   UNL A   1      51.555  25.976  26.636  1.00  0.00     0.198 A 
ATOM     79  C   UNL A   1      50.990  26.683  24.415  1.00  0.00     0.198 A 
ATOM     80  F   UNL A   1      48.795  27.373  23.922  1.00  0.00    -0.203 F 
ATOM     81  F   UNL A   1      52.470  25.579  27.531  1.00  0.00    -0.200 F 
ATOM     82  C   UNL A   1      51.933  26.234  25.327  1.00  0.00     0.200 A 
ATOM     83  F   UNL A   1      51.348  26.917  23.145  1.00  0.00    -0.200 F 
ATOM     84  F   UNL A   1      53.208  26.065  24.950  1.00  0.00    -0.200 F 
ENDBRANCH  50  74
BRANCH  62  85
ATOM     85  C   UNL A   1      46.247  32.417  28.632  1.00  0.00     0.064 A 
ATOM     86  C   UNL A   1      46.786  32.719  29.892  1.00  0.00     0.173 A 
ATOM     87  C   UNL A   1      46.264  33.422  27.652  1.00  0.00     0.173 A 
ATOM     88  F   UNL A   1      46.781  31.797  30.867  1.00  0.00    -0.203 F 
ATOM     89  C   UNL A   1      47.293  33.986  30.166  1.00  0.00     0.198 A 
ATOM     90  C   UNL A   1      46.806  34.675  27.918  1.00  0.00     0.198 A 
ATOM     91  F   UNL A   1      45.771  33.180  26.427  1.00  0.00    -0.203 F 
ATOM     92  F   UNL A   1      47.754  34.269  31.392  1.00  0.00    -0.200 F 
ATOM     93  C   UNL A   1      47.312  34.959  29.177  1.00  0.00     0.200 A 
ATOM     94  F   UNL A   1      46.840  35.606  26.956  1.00  0.00    -0.200 F 
ATOM     95  F   UNL A   1      47.812  36.174  29.440  1.00  0.00    -0.200 F 
ENDBRANCH  62  85
ENDBRANCH  36  37
ENDBRANCH  28  31
ENDBRANCH  26  27
ENDBRANCH   1  26
TORSDOF 14
ENDMDL
MODEL 3
REMARK VINA RESULT:     -12.1      1.599      3.989
REMARK SMILES CC[NH2+][C@@]1(C(=O)NCCCNC(=O)c2ccc(-c3c4nc(c(-c5c(F)c(F)c(F)c(F)c5F)c5ccc([nH]5)c(-c5c(F)c(F)c(F)c(F)c5F)c5nc(c(-c6c(F)c(F)c(F)c(F)c6F)c6ccc3[nH]6)C=C5)C=C4)cc2)CCC[C@@H](Sc2ncc(C)cn2)C1
REMARK SMILES IDX 9 1 8 2 7 3 5 4 6 5 4 7 77 8 89 9 78 10 80 11 79 12 3 13
REMARK SMILES IDX 2 16 1 17 81 18 82 19 83 20 88 21 84 22 87 23 85 24 86 25
REMARK SMILES IDX 10 26 11 27 12 28 13 30 14 31 15 32 76 33 16 34 75 35 17 36
REMARK SMILES IDX 18 37 19 38 69 39 20 40 74 41 68 42 70 43 21 44 73 45 67 46
REMARK SMILES IDX 66 47 22 49 54 50 34 51 53 52 35 53 38 54 52 55 71 56 36 57
REMARK SMILES IDX 37 58 51 60 72 61 39 62 23 63 24 64 32 65 25 66 26 67 30 68
REMARK SMILES IDX 33 69 27 70 28 71 31 72 29 73 55 74 56 75 64 76 57 77 58 78
REMARK SMILES IDX 62 79 65 80 59 81 60 82 63 83 61 84 40 85 41 86 49 87 42 88
REMARK SMILES IDX 43 89 47 90 50 91 44 92 45 93 48 94 46 95
REMARK H PARENT 7 6 3 14 3 15 11 29 70 48 38 59
REMARK Flexibility Score: inf
ROOT
ATOM      1  C   UNL A   1      37.605  19.902  25.012  1.00  0.00     0.042 C 
ENDROOT
BRANCH   1   2
ATOM      2  C   UNL A   1      36.524  20.959  24.816  1.00  0.00     0.118 C 
BRANCH   2   3
ATOM      3  N   UNL A   1      35.869  21.302  26.056  1.00  0.00    -0.351 N 
ATOM      4  C   UNL A   1      34.583  21.338  26.475  1.00  0.00     0.281 C 
ATOM      5  O   UNL A   1      34.459  21.806  27.623  1.00  0.00    -0.268 OA
ATOM      6  H   UNL A   1      36.504  21.572  26.759  1.00  0.00     0.163 HD
BRANCH   4   7
ATOM      7  C   UNL A   1      33.266  20.932  25.650  1.00  0.00     0.176 C 
ATOM      8  C   UNL A   1      33.444  20.895  24.115  1.00  0.00     0.079 C 
ATOM      9  C   UNL A   1      32.090  21.812  26.119  1.00  0.00     0.094 C 
ATOM     10  C   UNL A   1      32.993  22.099  23.278  1.00  0.00     0.008 C 
ATOM     11  C   UNL A   1      32.022  23.157  25.411  1.00  0.00     0.061 C 
ATOM     12  C   UNL A   1      31.939  23.018  23.893  1.00  0.00     0.015 C 
BRANCH   7  13
ATOM     13  N   UNL A   1      33.068  19.498  26.085  1.00  0.00    -0.334 N 
ATOM     14  H   UNL A   1      33.970  19.164  26.427  1.00  0.00     0.347 HD
ATOM     15  H   UNL A   1      32.310  19.556  26.766  1.00  0.00     0.347 HD
BRANCH  13  16
ATOM     16  C   UNL A   1      32.589  18.517  25.121  1.00  0.00     0.257 C 
ATOM     17  C   UNL A   1      32.823  17.111  25.662  1.00  0.00     0.071 C 
ENDBRANCH  13  16
ENDBRANCH   7  13
BRANCH  11  18
ATOM     18  S   UNL A   1      30.750  24.278  26.124  1.00  0.00    -0.083 SA
BRANCH  18  19
ATOM     19  C   UNL A   1      31.688  25.764  26.311  1.00  0.00     0.187 A 
ATOM     20  N   UNL A   1      32.963  25.758  25.894  1.00  0.00    -0.231 NA
ATOM     21  N   UNL A   1      31.081  26.793  26.921  1.00  0.00    -0.231 NA
ATOM     22  C   UNL A   1      33.673  26.874  26.128  1.00  0.00     0.119 A 
ATOM     23  C   UNL A   1      31.834  27.889  27.122  1.00  0.00     0.119 A 
ATOM     24  C   UNL A   1      33.159  27.987  26.755  1.00  0.00    -0.014 A 
ATOM     25  C   UNL A   1      33.963  29.213  27.008  1.00  0.00     0.048 C 
ENDBRANCH  18  19
ENDBRANCH  11  18
ENDBRANCH   4   7
ENDBRANCH   2   3
ENDBRANCH   1   2
BRANCH   1  26
ATOM     26  C   UNL A   1      38.817  20.414  25.761  1.00  0.00     0.118 C 
BRANCH  26  27
ATOM     27  N   UNL A   1      39.849  19.395  25.896  1.00  0.00    -0.352 N 
ATOM     28  C   UNL A   1      41.206  19.516  26.080  1.00  0.00     0.251 C 
ATOM     29  H   UNL A   1      39.522  18.467  25.847  1.00  0.00     0.163 HD
ATOM     30  O   UNL A   1      41.924  18.530  25.957  1.00  0.00    -0.269 OA
BRANCH  28  31
ATOM     31  C   UNL A   1      41.805  20.829  26.407  1.00  0.00     0.039 A 
ATOM     32  C   UNL A   1      42.050  21.745  25.381  1.00  0.00     0.014 A 
ATOM     33  C   UNL A   1      42.138  21.158  27.721  1.00  0.00     0.014 A 
ATOM     34  C   UNL A   1      42.564  23.008  25.685  1.00  0.00     0.010 A 
ATOM     35  C   UNL A   1      42.516  22.454  28.038  1.00  0.00     0.010 A 
ATOM     36  C   UNL A   1      42.762  23.387  27.022  1.00  0.00    -0.014 A 
BRANCH  36  37
ATOM     37  C   UNL A   1      43.283  24.728  27.392  1.00  0.00     0.031 A 
ATOM     38  C   UNL A   1      42.346  25.744  27.993  1.00  0.00     0.074 A 
ATOM     39  C   UNL A   1      44.564  25.051  27.131  1.00  0.00     0.049 A 
ATOM     40  N   UNL A   1      42.557  27.005  28.273  1.00  0.00    -0.248 NA
ATOM     41  C   UNL A   1      40.972  25.294  28.282  1.00  0.00     0.031 C 
ATOM     42  C   UNL A   1      45.553  24.170  26.509  1.00  0.00     0.029 A 
ATOM     43  N   UNL A   1      45.252  26.220  27.345  1.00  0.00    -0.354 N 
ATOM     44  C   UNL A   1      41.348  27.493  28.751  1.00  0.00     0.074 A 
ATOM     45  C   UNL A   1      40.384  26.421  28.651  1.00  0.00     0.031 C 
ATOM     46  C   UNL A   1      46.727  24.817  26.418  1.00  0.00     0.029 A 
ATOM     47  C   UNL A   1      46.562  26.173  26.929  1.00  0.00     0.049 A 
ATOM     48  H   UNL A   1      44.847  27.016  27.759  1.00  0.00     0.167 HD
ATOM     49  C   UNL A   1      41.072  28.712  29.268  1.00  0.00     0.037 A 
ATOM     50  C   UNL A   1      47.513  27.126  26.949  1.00  0.00     0.037 A 
ATOM     51  C   UNL A   1      42.043  29.765  29.400  1.00  0.00     0.049 A 
ATOM     52  C   UNL A   1      47.171  28.482  27.511  1.00  0.00     0.074 A 
ATOM     53  C   UNL A   1      41.879  31.027  29.940  1.00  0.00     0.029 A 
ATOM     54  N   UNL A   1      43.366  29.667  28.996  1.00  0.00    -0.354 N 
ATOM     55  N   UNL A   1      46.037  28.912  28.012  1.00  0.00    -0.248 NA
ATOM     56  C   UNL A   1      48.244  29.486  27.518  1.00  0.00     0.031 C 
ATOM     57  C   UNL A   1      43.093  31.709  29.826  1.00  0.00     0.029 A 
ATOM     58  C   UNL A   1      44.028  30.852  29.267  1.00  0.00     0.049 A 
ATOM     59  H   UNL A   1      43.773  28.874  28.579  1.00  0.00     0.167 HD
ATOM     60  C   UNL A   1      46.275  30.214  28.431  1.00  0.00     0.074 A 
ATOM     61  C   UNL A   1      47.663  30.500  28.141  1.00  0.00     0.031 C 
ATOM     62  C   UNL A   1      45.420  31.099  29.001  1.00  0.00     0.037 A 
BRANCH  49  63
ATOM     63  C   UNL A   1      39.676  28.968  29.757  1.00  0.00     0.064 A 
ATOM     64  C   UNL A   1      39.300  28.675  31.078  1.00  0.00     0.173 A 
ATOM     65  C   UNL A   1      38.720  29.563  28.921  1.00  0.00     0.173 A 
ATOM     66  F   UNL A   1      40.172  28.091  31.915  1.00  0.00    -0.203 F 
ATOM     67  C   UNL A   1      38.015  28.951  31.537  1.00  0.00     0.198 A 
ATOM     68  C   UNL A   1      37.446  29.868  29.393  1.00  0.00     0.198 A 
ATOM     69  F   UNL A   1      39.026  29.866  27.651  1.00  0.00    -0.203 F 
ATOM     70  F   UNL A   1      37.668  28.623  32.789  1.00  0.00    -0.200 F 
ATOM     71  C   UNL A   1      37.093  29.558  30.698  1.00  0.00     0.200 A 
ATOM     72  F   UNL A   1      36.560  30.468  28.587  1.00  0.00    -0.200 F 
ATOM     73  F   UNL A   1      35.862  29.840  31.147  1.00  0.00    -0.200 F 
ENDBRANCH  49  63
BRANCH  50  74
ATOM     74  C   UNL A   1      48.882  26.844  26.436  1.00  0.00     0.064 A 
ATOM     75  C   UNL A   1      49.206  27.061  25.089  1.00  0.00     0.173 A 
ATOM     76  C   UNL A   1      49.877  26.300  27.262  1.00  0.00     0.173 A 
ATOM     77  F   UNL A   1      48.285  27.563  24.252  1.00  0.00    -0.203 F 
ATOM     78  C   UNL A   1      50.451  26.701  24.578  1.00  0.00     0.198 A 
ATOM     79  C   UNL A   1      51.134  25.974  26.759  1.00  0.00     0.198 A 
ATOM     80  F   UNL A   1      49.625  26.077  28.561  1.00  0.00    -0.203 F 
ATOM     81  F   UNL A   1      50.704  26.846  23.270  1.00  0.00    -0.200 F 
ATOM     82  C   UNL A   1      51.416  26.159  25.414  1.00  0.00     0.200 A 
ATOM     83  F   UNL A   1      52.070  25.466  27.573  1.00  0.00    -0.200 F 
ATOM     84  F   UNL A   1      52.609  25.801  24.920  1.00  0.00    -0.200 F 
ENDBRANCH  50  74
BRANCH  62  85
ATOM     85  C   UNL A   1      45.977  32.430  29.413  1.00  0.00     0.064 A 
ATOM     86  C   UNL A   1      46.559  32.632  30.673  1.00  0.00     0.173 A 
ATOM     87  C   UNL A   1      45.970  33.507  28.512  1.00  0.00     0.173 A 
ATOM     88  F   UNL A   1      46.579  31.639  31.575  1.00  0.00    -0.203 F 
ATOM     89  C   UNL A   1      47.085  33.872  31.026  1.00  0.00     0.198 A 
ATOM     90  C   UNL A   1      46.530  34.733  28.854  1.00  0.00     0.198 A 
ATOM     91  F   UNL A   1      45.435  33.362  27.289  1.00  0.00    -0.203 F 
ATOM     92  F   UNL A   1      47.588  34.057  32.254  1.00  0.00    -0.200 F 
ATOM     93  C   UNL A   1      47.079  34.917  30.114  1.00  0.00     0.200 A 
ATOM     94  F   UNL A   1      46.540  35.735  27.965  1.00  0.00    -0.200 F 
ATOM     95  F   UNL A   1      47.598  36.106  30.452  1.00  0.00    -0.200 F 
ENDBRANCH  62  85
ENDBRANCH  36  37
ENDBRANCH  28  31
ENDBRANCH  26  27
ENDBRANCH   1  26
TORSDOF 14
ENDMDL
