MODEL 1
REMARK VINA RESULT:     -12.3      0.000      0.000
REMARK SMILES C[C@H]1[C@H](C(=O)NCCCNC(=O)c2ccc(-c3c4nc(c(-c5c(F)c(F)c(F)c(F)c5F)c5ccc([nH]5)c(-c5c(F)c(F)c(F)c(F)c5F)c5nc(c(-c6c(F)c(F)c(F)c(F)c6F)c6ccc3[nH]6)C=C5)C=C4)cc2)CCN1C(=O)Cc1csc(N)n1
REMARK SMILES IDX 7 1 6 2 4 3 5 4 3 6 1 7 2 8 78 9 76 10 77 11 79 12 80 13
REMARK SMILES IDX 81 14 82 15 83 16 87 17 84 18 85 19 86 20 8 23 9 24 10 25
REMARK SMILES IDX 11 26 12 28 13 29 14 30 75 31 15 32 74 33 16 34 17 35 18 36
REMARK SMILES IDX 68 37 19 38 73 39 67 40 69 41 20 42 72 43 66 44 65 45 21 47
REMARK SMILES IDX 53 48 33 49 52 50 34 51 37 52 51 53 70 54 35 55 36 56 50 58
REMARK SMILES IDX 71 59 38 60 22 61 23 62 31 63 24 64 25 65 29 66 32 67 26 68
REMARK SMILES IDX 27 69 30 70 28 71 54 72 55 73 63 74 56 75 57 76 61 77 64 78
REMARK SMILES IDX 58 79 59 80 62 81 60 82 39 83 40 84 48 85 41 86 42 87 46 88
REMARK SMILES IDX 49 89 43 90 44 91 47 92 45 93
REMARK H PARENT 6 5 86 21 86 22 10 27 69 46 37 57
REMARK Flexibility Score: inf
ROOT
ATOM      1  C   UNL A   1      31.600  30.791  25.982  1.00  0.00     0.117 C 
ENDROOT
BRANCH   1   2
ATOM      2  N   UNL A   1      31.532  29.850  27.085  1.00  0.00    -0.356 N 
ATOM      3  C   UNL A   1      31.680  28.503  27.138  1.00  0.00     0.225 C 
ATOM      4  O   UNL A   1      31.515  27.973  28.240  1.00  0.00    -0.275 OA
ATOM      5  H   UNL A   1      31.345  30.268  27.957  1.00  0.00     0.163 HD
BRANCH   3   6
ATOM      6  C   UNL A   1      31.986  27.643  25.925  1.00  0.00     0.102 C 
ATOM      7  C   UNL A   1      33.721  25.851  25.732  1.00  0.00     0.032 C 
ATOM      8  C   UNL A   1      32.337  26.195  26.300  1.00  0.00     0.094 C 
ATOM      9  N   UNL A   1      31.304  25.385  25.663  1.00  0.00    -0.339 N 
ATOM     10  C   UNL A   1      30.890  27.573  24.858  1.00  0.00     0.037 C 
ATOM     11  C   UNL A   1      30.724  26.092  24.538  1.00  0.00     0.120 C 
BRANCH   9  12
ATOM     12  C   UNL A   1      30.924  24.082  25.943  1.00  0.00     0.228 C 
ATOM     13  O   UNL A   1      30.640  23.752  27.100  1.00  0.00    -0.274 OA
BRANCH  12  14
ATOM     14  C   UNL A   1      31.052  23.014  24.867  1.00  0.00     0.157 C 
BRANCH  14  15
ATOM     15  C   UNL A   1      32.149  22.022  25.045  1.00  0.00     0.063 A 
ATOM     16  C   UNL A   1      33.507  22.285  24.970  1.00  0.00     0.093 A 
ATOM     17  N   UNL A   1      31.844  20.715  25.390  1.00  0.00    -0.225 NA
ATOM     18  S   UNL A   1      34.403  20.861  25.280  1.00  0.00    -0.106 S 
ATOM     19  C   UNL A   1      32.937  20.008  25.540  1.00  0.00     0.180 A 
BRANCH  19  20
ATOM     20  N   UNL A   1      32.936  18.715  25.874  1.00  0.00    -0.375 N 
ATOM     21  H   UNL A   1      32.431  18.410  26.662  1.00  0.00     0.159 HD
ATOM     22  H   UNL A   1      33.442  18.067  25.333  1.00  0.00     0.159 HD
ENDBRANCH  19  20
ENDBRANCH  14  15
ENDBRANCH  12  14
ENDBRANCH   9  12
ENDBRANCH   3   6
ENDBRANCH   1   2
BRANCH   1  23
ATOM     23  C   UNL A   1      31.413  32.228  26.448  1.00  0.00     0.042 C 
BRANCH  23  24
ATOM     24  C   UNL A   1      32.617  32.822  27.169  1.00  0.00     0.118 C 
BRANCH  24  25
ATOM     25  N   UNL A   1      32.388  34.181  27.635  1.00  0.00    -0.352 N 
ATOM     26  C   UNL A   1      32.979  34.884  28.653  1.00  0.00     0.251 C 
ATOM     27  H   UNL A   1      31.697  34.677  27.138  1.00  0.00     0.163 HD
ATOM     28  O   UNL A   1      32.511  35.973  28.986  1.00  0.00    -0.269 OA
BRANCH  26  29
ATOM     29  C   UNL A   1      34.153  34.346  29.371  1.00  0.00     0.039 A 
ATOM     30  C   UNL A   1      33.949  33.666  30.576  1.00  0.00     0.014 A 
ATOM     31  C   UNL A   1      35.452  34.532  28.891  1.00  0.00     0.014 A 
ATOM     32  C   UNL A   1      35.036  33.121  31.263  1.00  0.00     0.010 A 
ATOM     33  C   UNL A   1      36.526  33.918  29.532  1.00  0.00     0.010 A 
ATOM     34  C   UNL A   1      36.331  33.212  30.726  1.00  0.00    -0.014 A 
BRANCH  34  35
ATOM     35  C   UNL A   1      37.487  32.572  31.405  1.00  0.00     0.031 A 
ATOM     36  C   UNL A   1      38.217  31.432  30.753  1.00  0.00     0.074 A 
ATOM     37  C   UNL A   1      37.841  32.984  32.638  1.00  0.00     0.049 A 
ATOM     38  N   UNL A   1      39.213  30.715  31.211  1.00  0.00    -0.248 NA
ATOM     39  C   UNL A   1      37.748  31.022  29.421  1.00  0.00     0.031 C 
ATOM     40  C   UNL A   1      37.175  34.040  33.401  1.00  0.00     0.029 A 
ATOM     41  N   UNL A   1      38.844  32.555  33.471  1.00  0.00    -0.354 N 
ATOM     42  C   UNL A   1      39.480  29.767  30.232  1.00  0.00     0.074 A 
ATOM     43  C   UNL A   1      38.505  29.961  29.180  1.00  0.00     0.031 C 
ATOM     44  C   UNL A   1      37.800  34.191  34.579  1.00  0.00     0.029 A 
ATOM     45  C   UNL A   1      38.889  33.225  34.669  1.00  0.00     0.049 A 
ATOM     46  H   UNL A   1      39.473  31.835  33.232  1.00  0.00     0.167 HD
ATOM     47  C   UNL A   1      40.464  28.838  30.201  1.00  0.00     0.037 A 
ATOM     48  C   UNL A   1      39.713  33.074  35.722  1.00  0.00     0.037 A 
ATOM     49  C   UNL A   1      41.448  28.662  31.238  1.00  0.00     0.049 A 
ATOM     50  C   UNL A   1      40.808  32.045  35.657  1.00  0.00     0.074 A 
ATOM     51  C   UNL A   1      42.517  27.785  31.275  1.00  0.00     0.029 A 
ATOM     52  N   UNL A   1      41.478  29.380  32.425  1.00  0.00    -0.354 N 
ATOM     53  N   UNL A   1      41.091  31.199  34.696  1.00  0.00    -0.248 NA
ATOM     54  C   UNL A   1      41.705  31.958  36.816  1.00  0.00     0.031 C 
ATOM     55  C   UNL A   1      43.173  27.945  32.501  1.00  0.00     0.029 A 
ATOM     56  C   UNL A   1      42.540  28.955  33.208  1.00  0.00     0.049 A 
ATOM     57  H   UNL A   1      40.841  30.088  32.673  1.00  0.00     0.167 HD
ATOM     58  C   UNL A   1      42.208  30.495  35.124  1.00  0.00     0.074 A 
ATOM     59  C   UNL A   1      42.564  31.029  36.423  1.00  0.00     0.031 C 
ATOM     60  C   UNL A   1      42.878  29.495  34.500  1.00  0.00     0.037 A 
BRANCH  47  61
ATOM     61  C   UNL A   1      40.531  27.943  28.997  1.00  0.00     0.064 A 
ATOM     62  C   UNL A   1      39.786  26.755  28.923  1.00  0.00     0.173 A 
ATOM     63  C   UNL A   1      41.325  28.286  27.893  1.00  0.00     0.173 A 
ATOM     64  F   UNL A   1      39.020  26.374  29.956  1.00  0.00    -0.203 F 
ATOM     65  C   UNL A   1      39.859  25.931  27.803  1.00  0.00     0.198 A 
ATOM     66  C   UNL A   1      41.371  27.474  26.762  1.00  0.00     0.198 A 
ATOM     67  F   UNL A   1      42.054  29.413  27.908  1.00  0.00    -0.203 F 
ATOM     68  F   UNL A   1      39.178  24.776  27.778  1.00  0.00    -0.200 F 
ATOM     69  C   UNL A   1      40.646  26.294  26.722  1.00  0.00     0.200 A 
ATOM     70  F   UNL A   1      42.124  27.834  25.712  1.00  0.00    -0.200 F 
ATOM     71  F   UNL A   1      40.711  25.502  25.643  1.00  0.00    -0.200 F 
ENDBRANCH  47  61
BRANCH  48  72
ATOM     72  C   UNL A   1      39.550  33.940  36.918  1.00  0.00     0.064 A 
ATOM     73  C   UNL A   1      40.133  35.212  36.970  1.00  0.00     0.173 A 
ATOM     74  C   UNL A   1      38.803  33.518  38.027  1.00  0.00     0.173 A 
ATOM     75  F   UNL A   1      40.872  35.652  35.941  1.00  0.00    -0.203 F 
ATOM     76  C   UNL A   1      39.994  36.023  38.094  1.00  0.00     0.198 A 
ATOM     77  C   UNL A   1      38.641  34.340  39.140  1.00  0.00     0.198 A 
ATOM     78  F   UNL A   1      38.220  32.310  38.023  1.00  0.00    -0.203 F 
ATOM     79  F   UNL A   1      40.598  37.219  38.135  1.00  0.00    -0.200 F 
ATOM     80  C   UNL A   1      39.242  35.589  39.176  1.00  0.00     0.200 A 
ATOM     81  F   UNL A   1      37.903  33.922  40.177  1.00  0.00    -0.200 F 
ATOM     82  F   UNL A   1      39.104  36.371  40.255  1.00  0.00    -0.200 F 
ENDBRANCH  48  72
BRANCH  60  83
ATOM     83  C   UNL A   1      44.075  28.929  35.207  1.00  0.00     0.064 A 
ATOM     84  C   UNL A   1      45.364  29.437  34.991  1.00  0.00     0.173 A 
ATOM     85  C   UNL A   1      43.927  27.881  36.128  1.00  0.00     0.173 A 
ATOM     86  F   UNL A   1      45.560  30.427  34.107  1.00  0.00    -0.203 F 
ATOM     87  C   UNL A   1      46.466  28.897  35.650  1.00  0.00     0.198 A 
ATOM     88  C   UNL A   1      45.026  27.364  36.808  1.00  0.00     0.198 A 
ATOM     89  F   UNL A   1      42.713  27.365  36.376  1.00  0.00    -0.203 F 
ATOM     90  F   UNL A   1      47.695  29.363  35.389  1.00  0.00    -0.200 F 
ATOM     91  C   UNL A   1      46.295  27.866  36.561  1.00  0.00     0.200 A 
ATOM     92  F   UNL A   1      44.858  26.376  37.698  1.00  0.00    -0.200 F 
ATOM     93  F   UNL A   1      47.356  27.350  37.196  1.00  0.00    -0.200 F 
ENDBRANCH  60  83
ENDBRANCH  34  35
ENDBRANCH  26  29
ENDBRANCH  24  25
ENDBRANCH  23  24
ENDBRANCH   1  23
TORSDOF 14
ENDMDL
MODEL 2
REMARK VINA RESULT:     -12.2      2.261      3.674
REMARK SMILES C[C@H]1[C@H](C(=O)NCCCNC(=O)c2ccc(-c3c4nc(c(-c5c(F)c(F)c(F)c(F)c5F)c5ccc([nH]5)c(-c5c(F)c(F)c(F)c(F)c5F)c5nc(c(-c6c(F)c(F)c(F)c(F)c6F)c6ccc3[nH]6)C=C5)C=C4)cc2)CCN1C(=O)Cc1csc(N)n1
REMARK SMILES IDX 7 1 6 2 4 3 5 4 3 6 1 7 2 8 78 9 76 10 77 11 79 12 80 13
REMARK SMILES IDX 81 14 82 15 83 16 87 17 84 18 85 19 86 20 8 23 9 24 10 25
REMARK SMILES IDX 11 26 12 28 13 29 14 30 75 31 15 32 74 33 16 34 17 35 18 36
REMARK SMILES IDX 68 37 19 38 73 39 67 40 69 41 20 42 72 43 66 44 65 45 21 47
REMARK SMILES IDX 53 48 33 49 52 50 34 51 37 52 51 53 70 54 35 55 36 56 50 58
REMARK SMILES IDX 71 59 38 60 22 61 23 62 31 63 24 64 25 65 29 66 32 67 26 68
REMARK SMILES IDX 27 69 30 70 28 71 54 72 55 73 63 74 56 75 57 76 61 77 64 78
REMARK SMILES IDX 58 79 59 80 62 81 60 82 39 83 40 84 48 85 41 86 42 87 46 88
REMARK SMILES IDX 49 89 43 90 44 91 47 92 45 93
REMARK H PARENT 6 5 86 21 86 22 10 27 69 46 37 57
REMARK Flexibility Score: inf
ROOT
ATOM      1  C   UNL A   1      31.565  30.533  25.958  1.00  0.00     0.117 C 
ENDROOT
BRANCH   1   2
ATOM      2  N   UNL A   1      31.536  29.625  27.090  1.00  0.00    -0.356 N 
ATOM      3  C   UNL A   1      31.718  28.284  27.180  1.00  0.00     0.225 C 
ATOM      4  O   UNL A   1      31.584  27.783  28.301  1.00  0.00    -0.275 OA
ATOM      5  H   UNL A   1      31.352  30.063  27.951  1.00  0.00     0.163 HD
BRANCH   3   6
ATOM      6  C   UNL A   1      32.027  27.395  25.989  1.00  0.00     0.102 C 
ATOM      7  C   UNL A   1      30.606  25.564  25.049  1.00  0.00     0.032 C 
ATOM      8  C   UNL A   1      30.782  27.086  25.143  1.00  0.00     0.094 C 
ATOM      9  N   UNL A   1      31.075  27.652  23.830  1.00  0.00    -0.339 N 
ATOM     10  C   UNL A   1      33.101  27.912  25.028  1.00  0.00     0.037 C 
ATOM     11  C   UNL A   1      32.507  27.765  23.631  1.00  0.00     0.120 C 
BRANCH   9  12
ATOM     12  C   UNL A   1      30.198  27.972  22.805  1.00  0.00     0.228 C 
ATOM     13  O   UNL A   1      30.539  27.827  21.627  1.00  0.00    -0.274 OA
BRANCH  12  14
ATOM     14  C   UNL A   1      28.896  28.690  23.128  1.00  0.00     0.157 C 
BRANCH  14  15
ATOM     15  C   UNL A   1      28.747  30.068  22.580  1.00  0.00     0.063 A 
ATOM     16  C   UNL A   1      28.133  30.410  21.387  1.00  0.00     0.093 A 
ATOM     17  N   UNL A   1      29.180  31.153  23.325  1.00  0.00    -0.225 NA
ATOM     18  S   UNL A   1      28.153  32.107  21.176  1.00  0.00    -0.106 S 
ATOM     19  C   UNL A   1      28.928  32.276  22.698  1.00  0.00     0.180 A 
BRANCH  19  20
ATOM     20  N   UNL A   1      29.238  33.478  23.189  1.00  0.00    -0.375 N 
ATOM     21  H   UNL A   1      29.632  34.164  22.602  1.00  0.00     0.159 HD
ATOM     22  H   UNL A   1      29.074  33.679  24.139  1.00  0.00     0.159 HD
ENDBRANCH  19  20
ENDBRANCH  14  15
ENDBRANCH  12  14
ENDBRANCH   9  12
ENDBRANCH   3   6
ENDBRANCH   1   2
BRANCH   1  23
ATOM     23  C   UNL A   1      31.397  31.983  26.389  1.00  0.00     0.042 C 
BRANCH  23  24
ATOM     24  C   UNL A   1      32.603  32.573  27.110  1.00  0.00     0.118 C 
BRANCH  24  25
ATOM     25  N   UNL A   1      32.402  33.953  27.523  1.00  0.00    -0.352 N 
ATOM     26  C   UNL A   1      33.024  34.690  28.498  1.00  0.00     0.251 C 
ATOM     27  H   UNL A   1      31.705  34.436  27.021  1.00  0.00     0.163 HD
ATOM     28  O   UNL A   1      32.576  35.798  28.795  1.00  0.00    -0.269 OA
BRANCH  26  29
ATOM     29  C   UNL A   1      34.209  34.168  29.210  1.00  0.00     0.039 A 
ATOM     30  C   UNL A   1      34.012  33.332  30.314  1.00  0.00     0.014 A 
ATOM     31  C   UNL A   1      35.505  34.518  28.827  1.00  0.00     0.014 A 
ATOM     32  C   UNL A   1      35.112  32.799  30.990  1.00  0.00     0.010 A 
ATOM     33  C   UNL A   1      36.600  33.922  29.448  1.00  0.00     0.010 A 
ATOM     34  C   UNL A   1      36.416  33.062  30.539  1.00  0.00    -0.014 A 
BRANCH  34  35
ATOM     35  C   UNL A   1      37.593  32.442  31.200  1.00  0.00     0.031 A 
ATOM     36  C   UNL A   1      38.350  31.333  30.525  1.00  0.00     0.074 A 
ATOM     37  C   UNL A   1      37.944  32.842  32.439  1.00  0.00     0.049 A 
ATOM     38  N   UNL A   1      39.367  30.636  30.965  1.00  0.00    -0.248 NA
ATOM     39  C   UNL A   1      37.883  30.933  29.188  1.00  0.00     0.031 C 
ATOM     40  C   UNL A   1      37.254  33.866  33.224  1.00  0.00     0.029 A 
ATOM     41  N   UNL A   1      38.963  32.426  33.258  1.00  0.00    -0.354 N 
ATOM     42  C   UNL A   1      39.654  29.713  29.968  1.00  0.00     0.074 A 
ATOM     43  C   UNL A   1      38.667  29.898  28.925  1.00  0.00     0.031 C 
ATOM     44  C   UNL A   1      37.882  34.014  34.400  1.00  0.00     0.029 A 
ATOM     45  C   UNL A   1      38.997  33.076  34.467  1.00  0.00     0.049 A 
ATOM     46  H   UNL A   1      39.610  31.728  33.002  1.00  0.00     0.167 HD
ATOM     47  C   UNL A   1      40.663  28.811  29.915  1.00  0.00     0.037 A 
ATOM     48  C   UNL A   1      39.831  32.929  35.512  1.00  0.00     0.037 A 
ATOM     49  C   UNL A   1      41.657  28.644  30.943  1.00  0.00     0.049 A 
ATOM     50  C   UNL A   1      40.954  31.932  35.423  1.00  0.00     0.074 A 
ATOM     51  C   UNL A   1      42.750  27.796  30.959  1.00  0.00     0.029 A 
ATOM     52  N   UNL A   1      41.676  29.343  32.142  1.00  0.00    -0.354 N 
ATOM     53  N   UNL A   1      41.254  31.110  34.446  1.00  0.00    -0.248 NA
ATOM     54  C   UNL A   1      41.859  31.850  36.576  1.00  0.00     0.031 C 
ATOM     55  C   UNL A   1      43.408  27.952  32.184  1.00  0.00     0.029 A 
ATOM     56  C   UNL A   1      42.753  28.933  32.911  1.00  0.00     0.049 A 
ATOM     57  H   UNL A   1      41.021  30.028  32.406  1.00  0.00     0.167 HD
ATOM     58  C   UNL A   1      42.392  30.430  34.855  1.00  0.00     0.074 A 
ATOM     59  C   UNL A   1      42.741  30.951  36.161  1.00  0.00     0.031 C 
ATOM     60  C   UNL A   1      43.084  29.459  34.210  1.00  0.00     0.037 A 
BRANCH  47  61
ATOM     61  C   UNL A   1      40.746  27.939  28.695  1.00  0.00     0.064 A 
ATOM     62  C   UNL A   1      40.043  26.726  28.610  1.00  0.00     0.173 A 
ATOM     63  C   UNL A   1      41.514  28.328  27.587  1.00  0.00     0.173 A 
ATOM     64  F   UNL A   1      39.304  26.301  29.645  1.00  0.00    -0.203 F 
ATOM     65  C   UNL A   1      40.131  25.924  27.475  1.00  0.00     0.198 A 
ATOM     66  C   UNL A   1      41.574  27.538  26.442  1.00  0.00     0.198 A 
ATOM     67  F   UNL A   1      42.202  29.480  27.613  1.00  0.00    -0.203 F 
ATOM     68  F   UNL A   1      39.492  24.746  27.439  1.00  0.00    -0.200 F 
ATOM     69  C   UNL A   1      40.890  26.333  26.391  1.00  0.00     0.200 A 
ATOM     70  F   UNL A   1      42.301  27.941  25.390  1.00  0.00    -0.200 F 
ATOM     71  F   UNL A   1      40.971  25.561  25.298  1.00  0.00    -0.200 F 
ENDBRANCH  47  61
BRANCH  48  72
ATOM     72  C   UNL A   1      39.652  33.771  36.724  1.00  0.00     0.064 A 
ATOM     73  C   UNL A   1      40.253  35.032  36.819  1.00  0.00     0.173 A 
ATOM     74  C   UNL A   1      38.874  33.334  37.805  1.00  0.00     0.173 A 
ATOM     75  F   UNL A   1      41.022  35.485  35.818  1.00  0.00    -0.203 F 
ATOM     76  C   UNL A   1      40.098  35.819  37.959  1.00  0.00     0.198 A 
ATOM     77  C   UNL A   1      38.697  34.133  38.933  1.00  0.00     0.198 A 
ATOM     78  F   UNL A   1      38.273  32.135  37.760  1.00  0.00    -0.203 F 
ATOM     79  F   UNL A   1      40.718  37.004  38.042  1.00  0.00    -0.200 F 
ATOM     80  C   UNL A   1      39.315  35.371  39.012  1.00  0.00     0.200 A 
ATOM     81  F   UNL A   1      37.928  33.702  39.943  1.00  0.00    -0.200 F 
ATOM     82  F   UNL A   1      39.162  36.130  40.106  1.00  0.00    -0.200 F 
ENDBRANCH  48  72
BRANCH  60  83
ATOM     83  C   UNL A   1      44.301  28.914  34.901  1.00  0.00     0.064 A 
ATOM     84  C   UNL A   1      44.228  27.795  35.744  1.00  0.00     0.173 A 
ATOM     85  C   UNL A   1      45.557  29.505  34.699  1.00  0.00     0.173 A 
ATOM     86  F   UNL A   1      43.047  27.205  35.981  1.00  0.00    -0.203 F 
ATOM     87  C   UNL A   1      45.364  27.305  36.382  1.00  0.00     0.198 A 
ATOM     88  C   UNL A   1      46.696  28.993  35.314  1.00  0.00     0.198 A 
ATOM     89  F   UNL A   1      45.681  30.573  33.896  1.00  0.00    -0.203 F 
ATOM     90  F   UNL A   1      45.262  26.267  37.223  1.00  0.00    -0.200 F 
ATOM     91  C   UNL A   1      46.597  27.901  36.163  1.00  0.00     0.200 A 
ATOM     92  F   UNL A   1      47.889  29.562  35.092  1.00  0.00    -0.200 F 
ATOM     93  F   UNL A   1      47.690  27.426  36.776  1.00  0.00    -0.200 F 
ENDBRANCH  60  83
ENDBRANCH  34  35
ENDBRANCH  26  29
ENDBRANCH  24  25
ENDBRANCH  23  24
ENDBRANCH   1  23
TORSDOF 14
ENDMDL
MODEL 3
REMARK VINA RESULT:     -12.1      2.369      8.119
REMARK SMILES C[C@H]1[C@H](C(=O)NCCCNC(=O)c2ccc(-c3c4nc(c(-c5c(F)c(F)c(F)c(F)c5F)c5ccc([nH]5)c(-c5c(F)c(F)c(F)c(F)c5F)c5nc(c(-c6c(F)c(F)c(F)c(F)c6F)c6ccc3[nH]6)C=C5)C=C4)cc2)CCN1C(=O)Cc1csc(N)n1
REMARK SMILES IDX 7 1 6 2 4 3 5 4 3 6 1 7 2 8 78 9 76 10 77 11 79 12 80 13
REMARK SMILES IDX 81 14 82 15 83 16 87 17 84 18 85 19 86 20 8 23 9 24 10 25
REMARK SMILES IDX 11 26 12 28 13 29 14 30 75 31 15 32 74 33 16 34 17 35 18 36
REMARK SMILES IDX 68 37 19 38 73 39 67 40 69 41 20 42 72 43 66 44 65 45 21 47
REMARK SMILES IDX 53 48 33 49 52 50 34 51 37 52 51 53 70 54 35 55 36 56 50 58
REMARK SMILES IDX 71 59 38 60 22 61 23 62 31 63 24 64 25 65 29 66 32 67 26 68
REMARK SMILES IDX 27 69 30 70 28 71 54 72 55 73 63 74 56 75 57 76 61 77 64 78
REMARK SMILES IDX 58 79 59 80 62 81 60 82 39 83 40 84 48 85 41 86 42 87 46 88
REMARK SMILES IDX 49 89 43 90 44 91 47 92 45 93
REMARK H PARENT 6 5 86 21 86 22 10 27 69 46 37 57
REMARK Flexibility Score: inf
ROOT
ATOM      1  C   UNL A   1      31.506  30.593  26.047  1.00  0.00     0.117 C 
ENDROOT
BRANCH   1   2
ATOM      2  N   UNL A   1      31.444  29.677  27.170  1.00  0.00    -0.356 N 
ATOM      3  C   UNL A   1      31.638  28.338  27.259  1.00  0.00     0.225 C 
ATOM      4  O   UNL A   1      31.464  27.827  28.370  1.00  0.00    -0.275 OA
ATOM      5  H   UNL A   1      31.220  30.107  28.027  1.00  0.00     0.163 HD
BRANCH   3   6
ATOM      6  C   UNL A   1      32.005  27.461  26.075  1.00  0.00     0.102 C 
ATOM      7  C   UNL A   1      30.658  25.600  25.085  1.00  0.00     0.032 C 
ATOM      8  C   UNL A   1      30.795  27.125  25.190  1.00  0.00     0.094 C 
ATOM      9  N   UNL A   1      31.115  27.703  23.888  1.00  0.00    -0.339 N 
ATOM     10  C   UNL A   1      33.096  28.007  25.149  1.00  0.00     0.037 C 
ATOM     11  C   UNL A   1      32.549  27.851  23.735  1.00  0.00     0.120 C 
BRANCH   9  12
ATOM     12  C   UNL A   1      30.263  28.006  22.838  1.00  0.00     0.228 C 
ATOM     13  O   UNL A   1      30.653  27.899  21.670  1.00  0.00    -0.274 OA
BRANCH  12  14
ATOM     14  C   UNL A   1      28.921  28.663  23.124  1.00  0.00     0.157 C 
BRANCH  14  15
ATOM     15  C   UNL A   1      28.719  30.031  22.569  1.00  0.00     0.063 A 
ATOM     16  C   UNL A   1      28.057  30.345  21.394  1.00  0.00     0.093 A 
ATOM     17  N   UNL A   1      29.152  31.134  23.287  1.00  0.00    -0.225 NA
ATOM     18  S   UNL A   1      28.030  32.040  21.166  1.00  0.00    -0.106 S 
ATOM     19  C   UNL A   1      28.852  32.243  22.658  1.00  0.00     0.180 A 
BRANCH  19  20
ATOM     20  N   UNL A   1      29.151  33.458  23.126  1.00  0.00    -0.375 N 
ATOM     21  H   UNL A   1      29.977  33.597  23.643  1.00  0.00     0.159 HD
ATOM     22  H   UNL A   1      28.544  34.214  22.955  1.00  0.00     0.159 HD
ENDBRANCH  19  20
ENDBRANCH  14  15
ENDBRANCH  12  14
ENDBRANCH   9  12
ENDBRANCH   3   6
ENDBRANCH   1   2
BRANCH   1  23
ATOM     23  C   UNL A   1      31.399  32.046  26.491  1.00  0.00     0.042 C 
BRANCH  23  24
ATOM     24  C   UNL A   1      32.696  32.640  27.028  1.00  0.00     0.118 C 
BRANCH  24  25
ATOM     25  N   UNL A   1      32.529  33.984  27.559  1.00  0.00    -0.352 N 
ATOM     26  C   UNL A   1      33.156  34.613  28.603  1.00  0.00     0.251 C 
ATOM     27  H   UNL A   1      31.856  34.532  27.091  1.00  0.00     0.163 HD
ATOM     28  O   UNL A   1      32.737  35.704  28.990  1.00  0.00    -0.269 OA
BRANCH  26  29
ATOM     29  C   UNL A   1      34.312  33.993  29.283  1.00  0.00     0.039 A 
ATOM     30  C   UNL A   1      34.075  32.985  30.224  1.00  0.00     0.014 A 
ATOM     31  C   UNL A   1      35.620  34.414  29.034  1.00  0.00     0.014 A 
ATOM     32  C   UNL A   1      35.148  32.360  30.862  1.00  0.00     0.010 A 
ATOM     33  C   UNL A   1      36.693  33.736  29.608  1.00  0.00     0.010 A 
ATOM     34  C   UNL A   1      36.469  32.706  30.532  1.00  0.00    -0.014 A 
BRANCH  34  35
ATOM     35  C   UNL A   1      37.621  31.998  31.145  1.00  0.00     0.031 A 
ATOM     36  C   UNL A   1      38.082  32.352  32.531  1.00  0.00     0.074 A 
ATOM     37  C   UNL A   1      38.290  31.074  30.427  1.00  0.00     0.049 A 
ATOM     38  N   UNL A   1      39.097  31.882  33.212  1.00  0.00    -0.248 NA
ATOM     39  C   UNL A   1      37.319  33.393  33.236  1.00  0.00     0.031 C 
ATOM     40  C   UNL A   1      37.978  30.685  29.051  1.00  0.00     0.029 A 
ATOM     41  N   UNL A   1      39.377  30.303  30.752  1.00  0.00    -0.354 N 
ATOM     42  C   UNL A   1      39.100  32.576  34.415  1.00  0.00     0.074 A 
ATOM     43  C   UNL A   1      38.023  33.540  34.349  1.00  0.00     0.031 C 
ATOM     44  C   UNL A   1      38.839  29.733  28.658  1.00  0.00     0.029 A 
ATOM     45  C   UNL A   1      39.781  29.467  29.740  1.00  0.00     0.049 A 
ATOM     46  H   UNL A   1      39.824  30.343  31.629  1.00  0.00     0.167 HD
ATOM     47  C   UNL A   1      39.910  32.407  35.487  1.00  0.00     0.037 A 
ATOM     48  C   UNL A   1      40.799  28.589  29.689  1.00  0.00     0.037 A 
ATOM     49  C   UNL A   1      40.967  31.432  35.560  1.00  0.00     0.049 A 
ATOM     50  C   UNL A   1      41.676  28.408  30.898  1.00  0.00     0.074 A 
ATOM     51  C   UNL A   1      41.808  31.145  36.620  1.00  0.00     0.029 A 
ATOM     52  N   UNL A   1      41.328  30.582  34.524  1.00  0.00    -0.354 N 
ATOM     53  N   UNL A   1      41.626  29.025  32.054  1.00  0.00    -0.248 NA
ATOM     54  C   UNL A   1      42.741  27.403  30.798  1.00  0.00     0.031 C 
ATOM     55  C   UNL A   1      42.703  30.150  36.214  1.00  0.00     0.029 A 
ATOM     56  C   UNL A   1      42.390  29.782  34.915  1.00  0.00     0.049 A 
ATOM     57  H   UNL A   1      40.893  30.551  33.641  1.00  0.00     0.167 HD
ATOM     58  C   UNL A   1      42.636  28.468  32.826  1.00  0.00     0.074 A 
ATOM     59  C   UNL A   1      43.269  27.450  32.014  1.00  0.00     0.031 C 
ATOM     60  C   UNL A   1      43.010  28.775  34.093  1.00  0.00     0.037 A 
BRANCH  47  61
ATOM     61  C   UNL A   1      39.677  33.294  36.676  1.00  0.00     0.064 A 
ATOM     62  C   UNL A   1      38.754  32.952  37.678  1.00  0.00     0.173 A 
ATOM     63  C   UNL A   1      40.401  34.485  36.834  1.00  0.00     0.173 A 
ATOM     64  F   UNL A   1      38.028  31.829  37.570  1.00  0.00    -0.203 F 
ATOM     65  C   UNL A   1      38.544  33.784  38.774  1.00  0.00     0.198 A 
ATOM     66  C   UNL A   1      40.209  35.300  37.947  1.00  0.00     0.198 A 
ATOM     67  F   UNL A   1      41.298  34.858  35.908  1.00  0.00    -0.203 F 
ATOM     68  F   UNL A   1      37.620  33.461  39.691  1.00  0.00    -0.200 F 
ATOM     69  C   UNL A   1      39.275  34.953  38.911  1.00  0.00     0.200 A 
ATOM     70  F   UNL A   1      40.926  36.425  38.083  1.00  0.00    -0.200 F 
ATOM     71  F   UNL A   1      39.074  35.751  39.969  1.00  0.00    -0.200 F 
ENDBRANCH  47  61
BRANCH  48  72
ATOM     72  C   UNL A   1      41.027  27.792  28.455  1.00  0.00     0.064 A 
ATOM     73  C   UNL A   1      41.920  28.231  27.469  1.00  0.00     0.173 A 
ATOM     74  C   UNL A   1      40.362  26.577  28.241  1.00  0.00     0.173 A 
ATOM     75  F   UNL A   1      42.565  29.397  27.621  1.00  0.00    -0.203 F 
ATOM     76  C   UNL A   1      42.127  27.493  26.306  1.00  0.00     0.198 A 
ATOM     77  C   UNL A   1      40.589  25.826  27.090  1.00  0.00     0.198 A 
ATOM     78  F   UNL A   1      39.501  26.111  29.158  1.00  0.00    -0.203 F 
ATOM     79  F   UNL A   1      42.955  27.956  25.360  1.00  0.00    -0.200 F 
ATOM     80  C   UNL A   1      41.466  26.288  26.120  1.00  0.00     0.200 A 
ATOM     81  F   UNL A   1      39.960  24.655  26.920  1.00  0.00    -0.200 F 
ATOM     82  F   UNL A   1      41.669  25.576  25.002  1.00  0.00    -0.200 F 
ENDBRANCH  48  72
BRANCH  60  83
ATOM     83  C   UNL A   1      44.141  27.984  34.683  1.00  0.00     0.064 A 
ATOM     84  C   UNL A   1      45.470  28.424  34.595  1.00  0.00     0.173 A 
ATOM     85  C   UNL A   1      43.889  26.783  35.363  1.00  0.00     0.173 A 
ATOM     86  F   UNL A   1      45.763  29.558  33.941  1.00  0.00    -0.203 F 
ATOM     87  C   UNL A   1      46.509  27.675  35.142  1.00  0.00     0.198 A 
ATOM     88  C   UNL A   1      44.927  26.053  35.934  1.00  0.00     0.198 A 
ATOM     89  F   UNL A   1      42.635  26.322  35.480  1.00  0.00    -0.203 F 
ATOM     90  F   UNL A   1      47.775  28.089  35.000  1.00  0.00    -0.200 F 
ATOM     91  C   UNL A   1      46.237  26.494  35.815  1.00  0.00     0.200 A 
ATOM     92  F   UNL A   1      44.662  24.917  36.596  1.00  0.00    -0.200 F 
ATOM     93  F   UNL A   1      47.237  25.777  36.342  1.00  0.00    -0.200 F 
ENDBRANCH  60  83
ENDBRANCH  34  35
ENDBRANCH  26  29
ENDBRANCH  24  25
ENDBRANCH  23  24
ENDBRANCH   1  23
TORSDOF 14
ENDMDL
