MODEL 1
REMARK VINA RESULT:     -10.4      0.000      0.000
REMARK SMILES CC[C@H](Nc1cccc(C(F)(F)F)c1)C(=O)NCCCNC(=O)c1ccc(-c2c3nc(c(-c4c(F)c(F)c(F)c(F)c4F)c4ccc([nH]4)c(-c4c(F)c(F)c(F)c(F)c4F)c4nc(c(-c5c(F)c(F)c(F)c(F)c5F)c5ccc2[nH]5)C=C4)C=C3)cc1
REMARK SMILES IDX 18 1 17 2 15 3 16 4 3 6 2 7 1 8 4 9 5 11 6 12 14 13 7 14
REMARK SMILES IDX 9 15 8 16 10 17 11 18 12 19 13 20 19 21 20 22 21 23 22 24
REMARK SMILES IDX 23 26 24 27 25 28 86 29 26 30 85 31 27 32 28 33 29 34 79 35
REMARK SMILES IDX 30 36 84 37 78 38 80 39 31 40 83 41 77 42 76 43 32 45 64 46
REMARK SMILES IDX 44 47 63 48 45 49 48 50 62 51 81 52 46 53 47 54 61 56 82 57
REMARK SMILES IDX 49 58 33 59 34 60 42 61 35 62 36 63 40 64 43 65 37 66 38 67
REMARK SMILES IDX 41 68 39 69 65 70 66 71 74 72 67 73 68 74 72 75 75 76 69 77
REMARK SMILES IDX 70 78 73 79 71 80 50 81 51 82 59 83 52 84 53 85 57 86 60 87
REMARK SMILES IDX 54 88 55 89 58 90 56 91
REMARK H PARENT 17 5 4 10 21 25 80 44 48 55
REMARK Flexibility Score: inf
ROOT
ATOM      1  C   UNL A   1      34.250  34.987  28.222  1.00  0.00     0.117 C 
ENDROOT
BRANCH   1   2
ATOM      2  N   UNL A   1      33.463  35.980  28.929  1.00  0.00    -0.354 N 
ATOM      3  C   UNL A   1      33.205  36.104  30.266  1.00  0.00     0.242 C 
ATOM      4  O   UNL A   1      32.529  37.073  30.625  1.00  0.00    -0.273 OA
ATOM      5  H   UNL A   1      33.052  36.670  28.359  1.00  0.00     0.163 HD
BRANCH   3   6
ATOM      6  C   UNL A   1      33.764  35.103  31.296  1.00  0.00     0.168 C 
BRANCH   6   7
ATOM      7  C   UNL A   1      33.180  35.491  32.679  1.00  0.00     0.031 C 
ATOM      8  C   UNL A   1      34.028  36.390  33.566  1.00  0.00     0.006 C 
ENDBRANCH   6   7
BRANCH   6   9
ATOM      9  N   UNL A   1      35.236  34.977  31.295  1.00  0.00    -0.374 N 
ATOM     10  H   UNL A   1      35.747  35.694  30.856  1.00  0.00     0.161 HD
BRANCH   9  11
ATOM     11  C   UNL A   1      35.965  33.936  31.860  1.00  0.00     0.035 A 
ATOM     12  C   UNL A   1      35.402  32.649  31.848  1.00  0.00     0.026 A 
ATOM     13  C   UNL A   1      37.181  34.089  32.534  1.00  0.00     0.038 A 
ATOM     14  C   UNL A   1      36.024  31.563  32.473  1.00  0.00     0.003 A 
ATOM     15  C   UNL A   1      37.794  33.022  33.222  1.00  0.00     0.058 A 
ATOM     16  C   UNL A   1      37.213  31.751  33.167  1.00  0.00     0.013 A 
BRANCH  15  17
ATOM     17  C   UNL A   1      39.036  33.247  34.046  1.00  0.00     0.416 C 
ATOM     18  F   UNL A   1      39.947  34.033  33.399  1.00  0.00    -0.166 F 
ATOM     19  F   UNL A   1      38.783  33.867  35.230  1.00  0.00    -0.166 F 
ATOM     20  F   UNL A   1      39.708  32.101  34.353  1.00  0.00    -0.166 F 
ENDBRANCH  15  17
ENDBRANCH   9  11
ENDBRANCH   6   9
ENDBRANCH   3   6
ENDBRANCH   1   2
BRANCH   1  21
ATOM     21  C   UNL A   1      33.517  33.668  28.002  1.00  0.00     0.042 C 
BRANCH  21  22
ATOM     22  C   UNL A   1      34.238  32.437  28.537  1.00  0.00     0.118 C 
BRANCH  22  23
ATOM     23  N   UNL A   1      33.749  31.196  27.951  1.00  0.00    -0.352 N 
ATOM     24  C   UNL A   1      34.399  30.028  27.652  1.00  0.00     0.251 C 
ATOM     25  H   UNL A   1      32.788  31.197  27.734  1.00  0.00     0.163 HD
ATOM     26  O   UNL A   1      33.816  29.170  26.983  1.00  0.00    -0.269 OA
BRANCH  24  27
ATOM     27  C   UNL A   1      35.790  29.784  28.089  1.00  0.00     0.039 A 
ATOM     28  C   UNL A   1      36.012  29.330  29.394  1.00  0.00     0.014 A 
ATOM     29  C   UNL A   1      36.879  30.038  27.251  1.00  0.00     0.014 A 
ATOM     30  C   UNL A   1      37.313  29.062  29.830  1.00  0.00     0.010 A 
ATOM     31  C   UNL A   1      38.169  29.702  27.661  1.00  0.00     0.010 A 
ATOM     32  C   UNL A   1      38.399  29.208  28.954  1.00  0.00    -0.014 A 
BRANCH  32  33
ATOM     33  C   UNL A   1      39.776  28.833  29.366  1.00  0.00     0.031 A 
ATOM     34  C   UNL A   1      40.599  29.763  30.214  1.00  0.00     0.074 A 
ATOM     35  C   UNL A   1      40.314  27.683  28.916  1.00  0.00     0.049 A 
ATOM     36  N   UNL A   1      41.845  29.649  30.599  1.00  0.00    -0.248 NA
ATOM     37  C   UNL A   1      39.941  30.997  30.672  1.00  0.00     0.031 C 
ATOM     38  C   UNL A   1      39.638  26.715  28.050  1.00  0.00     0.029 A 
ATOM     39  N   UNL A   1      41.559  27.137  29.111  1.00  0.00    -0.354 N 
ATOM     40  C   UNL A   1      42.126  30.800  31.324  1.00  0.00     0.074 A 
ATOM     41  C   UNL A   1      40.933  31.619  31.295  1.00  0.00     0.031 C 
ATOM     42  C   UNL A   1      40.468  25.690  27.802  1.00  0.00     0.029 A 
ATOM     43  C   UNL A   1      41.747  25.944  28.458  1.00  0.00     0.049 A 
ATOM     44  H   UNL A   1      42.252  27.561  29.668  1.00  0.00     0.167 HD
ATOM     45  C   UNL A   1      43.269  31.135  31.969  1.00  0.00     0.037 A 
ATOM     46  C   UNL A   1      42.832  25.150  28.384  1.00  0.00     0.037 A 
ATOM     47  C   UNL A   1      44.444  30.305  32.028  1.00  0.00     0.049 A 
ATOM     48  C   UNL A   1      44.085  25.545  29.116  1.00  0.00     0.074 A 
ATOM     49  C   UNL A   1      45.624  30.528  32.715  1.00  0.00     0.029 A 
ATOM     50  N   UNL A   1      44.586  29.091  31.373  1.00  0.00    -0.354 N 
ATOM     51  N   UNL A   1      44.315  26.604  29.851  1.00  0.00    -0.248 NA
ATOM     52  C   UNL A   1      45.230  24.628  29.011  1.00  0.00     0.031 C 
ATOM     53  C   UNL A   1      46.496  29.467  32.446  1.00  0.00     0.029 A 
ATOM     54  C   UNL A   1      45.842  28.563  31.626  1.00  0.00     0.049 A 
ATOM     55  H   UNL A   1      43.896  28.667  30.812  1.00  0.00     0.167 HD
ATOM     56  C   UNL A   1      45.616  26.471  30.316  1.00  0.00     0.074 A 
ATOM     57  C   UNL A   1      46.122  25.220  29.792  1.00  0.00     0.031 C 
ATOM     58  C   UNL A   1      46.327  27.311  31.106  1.00  0.00     0.037 A 
BRANCH  45  59
ATOM     59  C   UNL A   1      43.309  32.457  32.677  1.00  0.00     0.064 A 
ATOM     60  C   UNL A   1      42.970  32.573  34.033  1.00  0.00     0.173 A 
ATOM     61  C   UNL A   1      43.751  33.608  32.008  1.00  0.00     0.173 A 
ATOM     62  F   UNL A   1      42.533  31.503  34.714  1.00  0.00    -0.203 F 
ATOM     63  C   UNL A   1      43.053  33.798  34.689  1.00  0.00     0.198 A 
ATOM     64  C   UNL A   1      43.857  34.827  32.675  1.00  0.00     0.198 A 
ATOM     65  F   UNL A   1      44.095  33.549  30.713  1.00  0.00    -0.203 F 
ATOM     66  F   UNL A   1      42.690  33.893  35.976  1.00  0.00    -0.200 F 
ATOM     67  C   UNL A   1      43.503  34.922  34.013  1.00  0.00     0.200 A 
ATOM     68  F   UNL A   1      44.305  35.909  32.023  1.00  0.00    -0.200 F 
ATOM     69  F   UNL A   1      43.595  36.098  34.649  1.00  0.00    -0.200 F 
ENDBRANCH  45  59
BRANCH  46  70
ATOM     70  C   UNL A   1      42.779  23.890  27.599  1.00  0.00     0.064 A 
ATOM     71  C   UNL A   1      43.164  23.867  26.251  1.00  0.00     0.173 A 
ATOM     72  C   UNL A   1      42.331  22.690  28.171  1.00  0.00     0.173 A 
ATOM     73  F   UNL A   1      43.578  24.995  25.655  1.00  0.00    -0.203 F 
ATOM     74  C   UNL A   1      43.082  22.697  25.499  1.00  0.00     0.198 A 
ATOM     75  C   UNL A   1      42.275  21.515  27.426  1.00  0.00     0.198 A 
ATOM     76  F   UNL A   1      41.954  22.659  29.458  1.00  0.00    -0.203 F 
ATOM     77  F   UNL A   1      43.412  22.715  24.200  1.00  0.00    -0.200 F 
ATOM     78  C   UNL A   1      42.642  21.521  26.088  1.00  0.00     0.200 A 
ATOM     79  F   UNL A   1      41.862  20.378  28.001  1.00  0.00    -0.200 F 
ATOM     80  F   UNL A   1      42.564  20.396  25.364  1.00  0.00    -0.200 F 
ENDBRANCH  46  70
BRANCH  58  81
ATOM     81  C   UNL A   1      47.717  26.889  31.479  1.00  0.00     0.064 A 
ATOM     82  C   UNL A   1      47.957  26.005  32.541  1.00  0.00     0.173 A 
ATOM     83  C   UNL A   1      48.820  27.347  30.741  1.00  0.00     0.173 A 
ATOM     84  F   UNL A   1      46.936  25.553  33.286  1.00  0.00    -0.203 F 
ATOM     85  C   UNL A   1      49.252  25.613  32.865  1.00  0.00     0.198 A 
ATOM     86  C   UNL A   1      50.111  26.931  31.052  1.00  0.00     0.198 A 
ATOM     87  F   UNL A   1      48.642  28.190  29.713  1.00  0.00    -0.203 F 
ATOM     88  F   UNL A   1      49.462  24.802  33.913  1.00  0.00    -0.200 F 
ATOM     89  C   UNL A   1      50.327  26.070  32.117  1.00  0.00     0.200 A 
ATOM     90  F   UNL A   1      51.147  27.366  30.323  1.00  0.00    -0.200 F 
ATOM     91  F   UNL A   1      51.573  25.687  32.429  1.00  0.00    -0.200 F 
ENDBRANCH  58  81
ENDBRANCH  32  33
ENDBRANCH  24  27
ENDBRANCH  22  23
ENDBRANCH  21  22
ENDBRANCH   1  21
TORSDOF 14
ENDMDL
MODEL 2
REMARK VINA RESULT:     -10.4      5.452     10.766
REMARK SMILES CC[C@H](Nc1cccc(C(F)(F)F)c1)C(=O)NCCCNC(=O)c1ccc(-c2c3nc(c(-c4c(F)c(F)c(F)c(F)c4F)c4ccc([nH]4)c(-c4c(F)c(F)c(F)c(F)c4F)c4nc(c(-c5c(F)c(F)c(F)c(F)c5F)c5ccc2[nH]5)C=C4)C=C3)cc1
REMARK SMILES IDX 18 1 17 2 15 3 16 4 3 6 2 7 1 8 4 9 5 11 6 12 14 13 7 14
REMARK SMILES IDX 9 15 8 16 10 17 11 18 12 19 13 20 19 21 20 22 21 23 22 24
REMARK SMILES IDX 23 26 24 27 25 28 86 29 26 30 85 31 27 32 28 33 29 34 79 35
REMARK SMILES IDX 30 36 84 37 78 38 80 39 31 40 83 41 77 42 76 43 32 45 64 46
REMARK SMILES IDX 44 47 63 48 45 49 48 50 62 51 81 52 46 53 47 54 61 56 82 57
REMARK SMILES IDX 49 58 33 59 34 60 42 61 35 62 36 63 40 64 43 65 37 66 38 67
REMARK SMILES IDX 41 68 39 69 65 70 66 71 74 72 67 73 68 74 72 75 75 76 69 77
REMARK SMILES IDX 70 78 73 79 71 80 50 81 51 82 59 83 52 84 53 85 57 86 60 87
REMARK SMILES IDX 54 88 55 89 58 90 56 91
REMARK H PARENT 17 5 4 10 21 25 80 44 48 55
REMARK Flexibility Score: inf
ROOT
ATOM      1  C   UNL A   1      37.643  20.865  24.358  1.00  0.00     0.117 C 
ENDROOT
BRANCH   1   2
ATOM      2  N   UNL A   1      37.731  22.038  25.208  1.00  0.00    -0.354 N 
ATOM      3  C   UNL A   1      36.738  22.810  25.743  1.00  0.00     0.242 C 
ATOM      4  O   UNL A   1      37.079  23.745  26.475  1.00  0.00    -0.273 OA
ATOM      5  H   UNL A   1      38.647  22.322  25.433  1.00  0.00     0.163 HD
BRANCH   3   6
ATOM      6  C   UNL A   1      35.249  22.512  25.482  1.00  0.00     0.168 C 
BRANCH   6   7
ATOM      7  C   UNL A   1      34.424  23.597  26.221  1.00  0.00     0.031 C 
ATOM      8  C   UNL A   1      33.810  24.702  25.375  1.00  0.00     0.006 C 
ENDBRANCH   6   7
BRANCH   6   9
ATOM      9  N   UNL A   1      34.831  21.133  25.811  1.00  0.00    -0.374 N 
ATOM     10  H   UNL A   1      35.039  20.805  26.716  1.00  0.00     0.161 HD
BRANCH   9  11
ATOM     11  C   UNL A   1      34.170  20.256  24.958  1.00  0.00     0.035 A 
ATOM     12  C   UNL A   1      33.001  20.704  24.320  1.00  0.00     0.026 A 
ATOM     13  C   UNL A   1      34.525  18.918  24.761  1.00  0.00     0.038 A 
ATOM     14  C   UNL A   1      32.225  19.862  23.519  1.00  0.00     0.003 A 
ATOM     15  C   UNL A   1      33.724  18.035  24.008  1.00  0.00     0.058 A 
ATOM     16  C   UNL A   1      32.579  18.527  23.370  1.00  0.00     0.013 A 
BRANCH  15  17
ATOM     17  C   UNL A   1      34.064  16.568  23.919  1.00  0.00     0.416 C 
ATOM     18  F   UNL A   1      35.132  16.240  24.703  1.00  0.00    -0.166 F 
ATOM     19  F   UNL A   1      33.045  15.763  24.321  1.00  0.00    -0.166 F 
ATOM     20  F   UNL A   1      34.401  16.157  22.664  1.00  0.00    -0.166 F 
ENDBRANCH  15  17
ENDBRANCH   9  11
ENDBRANCH   6   9
ENDBRANCH   3   6
ENDBRANCH   1   2
BRANCH   1  21
ATOM     21  C   UNL A   1      38.259  19.614  24.975  1.00  0.00     0.042 C 
BRANCH  21  22
ATOM     22  C   UNL A   1      39.308  19.880  26.049  1.00  0.00     0.118 C 
BRANCH  22  23
ATOM     23  N   UNL A   1      40.425  18.946  25.991  1.00  0.00    -0.352 N 
ATOM     24  C   UNL A   1      41.776  19.161  26.049  1.00  0.00     0.251 C 
ATOM     25  H   UNL A   1      40.164  18.002  25.894  1.00  0.00     0.163 HD
ATOM     26  O   UNL A   1      42.545  18.230  25.791  1.00  0.00    -0.269 OA
BRANCH  24  27
ATOM     27  C   UNL A   1      42.335  20.487  26.388  1.00  0.00     0.039 A 
ATOM     28  C   UNL A   1      42.867  21.273  25.359  1.00  0.00     0.014 A 
ATOM     29  C   UNL A   1      42.387  20.949  27.706  1.00  0.00     0.014 A 
ATOM     30  C   UNL A   1      43.378  22.543  25.640  1.00  0.00     0.010 A 
ATOM     31  C   UNL A   1      42.830  22.243  27.975  1.00  0.00     0.010 A 
ATOM     32  C   UNL A   1      43.327  23.055  26.945  1.00  0.00    -0.014 A 
BRANCH  32  33
ATOM     33  C   UNL A   1      43.773  24.440  27.246  1.00  0.00     0.031 A 
ATOM     34  C   UNL A   1      42.801  25.455  27.781  1.00  0.00     0.074 A 
ATOM     35  C   UNL A   1      45.040  24.804  26.969  1.00  0.00     0.049 A 
ATOM     36  N   UNL A   1      42.983  26.730  28.020  1.00  0.00    -0.248 NA
ATOM     37  C   UNL A   1      41.437  24.982  28.065  1.00  0.00     0.031 C 
ATOM     38  C   UNL A   1      46.067  23.927  26.405  1.00  0.00     0.029 A 
ATOM     39  N   UNL A   1      45.677  26.013  27.109  1.00  0.00    -0.354 N 
ATOM     40  C   UNL A   1      41.757  27.212  28.460  1.00  0.00     0.074 A 
ATOM     41  C   UNL A   1      40.828  26.104  28.420  1.00  0.00     0.031 C 
ATOM     42  C   UNL A   1      47.208  24.620  26.263  1.00  0.00     0.029 A 
ATOM     43  C   UNL A   1      46.984  25.999  26.687  1.00  0.00     0.049 A 
ATOM     44  H   UNL A   1      45.239  26.813  27.478  1.00  0.00     0.167 HD
ATOM     45  C   UNL A   1      41.441  28.462  28.876  1.00  0.00     0.037 A 
ATOM     46  C   UNL A   1      47.896  26.988  26.636  1.00  0.00     0.037 A 
ATOM     47  C   UNL A   1      42.373  29.556  28.949  1.00  0.00     0.049 A 
ATOM     48  C   UNL A   1      47.518  28.364  27.110  1.00  0.00     0.074 A 
ATOM     49  C   UNL A   1      42.162  30.840  29.423  1.00  0.00     0.029 A 
ATOM     50  N   UNL A   1      43.695  29.496  28.536  1.00  0.00    -0.354 N 
ATOM     51  N   UNL A   1      46.373  28.790  27.585  1.00  0.00    -0.248 NA
ATOM     52  C   UNL A   1      48.562  29.397  27.045  1.00  0.00     0.031 C 
ATOM     53  C   UNL A   1      43.347  31.567  29.262  1.00  0.00     0.029 A 
ATOM     54  C   UNL A   1      44.306  30.724  28.728  1.00  0.00     0.049 A 
ATOM     55  H   UNL A   1      44.135  28.697  28.162  1.00  0.00     0.167 HD
ATOM     56  C   UNL A   1      46.565  30.129  27.899  1.00  0.00     0.074 A 
ATOM     57  C   UNL A   1      47.941  30.442  27.574  1.00  0.00     0.031 C 
ATOM     58  C   UNL A   1      45.680  31.018  28.409  1.00  0.00     0.037 A 
BRANCH  45  59
ATOM     59  C   UNL A   1      40.024  28.720  29.296  1.00  0.00     0.064 A 
ATOM     60  C   UNL A   1      39.063  29.186  28.385  1.00  0.00     0.173 A 
ATOM     61  C   UNL A   1      39.607  28.439  30.605  1.00  0.00     0.173 A 
ATOM     62  F   UNL A   1      39.414  29.477  27.124  1.00  0.00    -0.203 F 
ATOM     63  C   UNL A   1      37.741  29.380  28.777  1.00  0.00     0.198 A 
ATOM     64  C   UNL A   1      38.278  28.610  30.986  1.00  0.00     0.198 A 
ATOM     65  F   UNL A   1      40.484  27.984  31.512  1.00  0.00    -0.203 F 
ATOM     66  F   UNL A   1      36.848  29.859  27.899  1.00  0.00    -0.200 F 
ATOM     67  C   UNL A   1      37.347  29.085  30.073  1.00  0.00     0.200 A 
ATOM     68  F   UNL A   1      37.897  28.312  32.236  1.00  0.00    -0.200 F 
ATOM     69  F   UNL A   1      36.072  29.260  30.444  1.00  0.00    -0.200 F 
ENDBRANCH  45  59
BRANCH  46  70
ATOM     70  C   UNL A   1      49.265  26.711  26.130  1.00  0.00     0.064 A 
ATOM     71  C   UNL A   1      49.600  26.960  24.792  1.00  0.00     0.173 A 
ATOM     72  C   UNL A   1      50.260  26.182  26.965  1.00  0.00     0.173 A 
ATOM     73  F   UNL A   1      48.674  27.445  23.950  1.00  0.00    -0.203 F 
ATOM     74  C   UNL A   1      50.871  26.669  24.301  1.00  0.00     0.198 A 
ATOM     75  C   UNL A   1      51.539  25.917  26.480  1.00  0.00     0.198 A 
ATOM     76  F   UNL A   1      49.991  25.929  28.254  1.00  0.00    -0.203 F 
ATOM     77  F   UNL A   1      51.149  26.873  23.006  1.00  0.00    -0.200 F 
ATOM     78  C   UNL A   1      51.841  26.152  25.148  1.00  0.00     0.200 A 
ATOM     79  F   UNL A   1      52.477  25.429  27.303  1.00  0.00    -0.200 F 
ATOM     80  F   UNL A   1      53.063  25.873  24.675  1.00  0.00    -0.200 F 
ENDBRANCH  46  70
BRANCH  58  81
ATOM     81  C   UNL A   1      46.181  32.406  28.680  1.00  0.00     0.064 A 
ATOM     82  C   UNL A   1      46.087  33.421  27.718  1.00  0.00     0.173 A 
ATOM     83  C   UNL A   1      46.727  32.732  29.931  1.00  0.00     0.173 A 
ATOM     84  F   UNL A   1      45.587  33.153  26.501  1.00  0.00    -0.203 F 
ATOM     85  C   UNL A   1      46.544  34.707  27.990  1.00  0.00     0.198 A 
ATOM     86  C   UNL A   1      47.158  34.025  30.208  1.00  0.00     0.198 A 
ATOM     87  F   UNL A   1      46.834  31.796  30.886  1.00  0.00    -0.203 F 
ATOM     88  F   UNL A   1      46.486  35.652  27.040  1.00  0.00    -0.200 F 
ATOM     89  C   UNL A   1      47.073  35.010  29.235  1.00  0.00     0.200 A 
ATOM     90  F   UNL A   1      47.659  34.319  31.415  1.00  0.00    -0.200 F 
ATOM     91  F   UNL A   1      47.507  36.251  29.497  1.00  0.00    -0.200 F 
ENDBRANCH  58  81
ENDBRANCH  32  33
ENDBRANCH  24  27
ENDBRANCH  22  23
ENDBRANCH  21  22
ENDBRANCH   1  21
TORSDOF 14
ENDMDL
MODEL 3
REMARK VINA RESULT:     -10.4      4.763     10.396
REMARK SMILES CC[C@H](Nc1cccc(C(F)(F)F)c1)C(=O)NCCCNC(=O)c1ccc(-c2c3nc(c(-c4c(F)c(F)c(F)c(F)c4F)c4ccc([nH]4)c(-c4c(F)c(F)c(F)c(F)c4F)c4nc(c(-c5c(F)c(F)c(F)c(F)c5F)c5ccc2[nH]5)C=C4)C=C3)cc1
REMARK SMILES IDX 18 1 17 2 15 3 16 4 3 6 2 7 1 8 4 9 5 11 6 12 14 13 7 14
REMARK SMILES IDX 9 15 8 16 10 17 11 18 12 19 13 20 19 21 20 22 21 23 22 24
REMARK SMILES IDX 23 26 24 27 25 28 86 29 26 30 85 31 27 32 28 33 29 34 79 35
REMARK SMILES IDX 30 36 84 37 78 38 80 39 31 40 83 41 77 42 76 43 32 45 64 46
REMARK SMILES IDX 44 47 63 48 45 49 48 50 62 51 81 52 46 53 47 54 61 56 82 57
REMARK SMILES IDX 49 58 33 59 34 60 42 61 35 62 36 63 40 64 43 65 37 66 38 67
REMARK SMILES IDX 41 68 39 69 65 70 66 71 74 72 67 73 68 74 72 75 75 76 69 77
REMARK SMILES IDX 70 78 73 79 71 80 50 81 51 82 59 83 52 84 53 85 57 86 60 87
REMARK SMILES IDX 54 88 55 89 58 90 56 91
REMARK H PARENT 17 5 4 10 21 25 80 44 48 55
REMARK Flexibility Score: inf
ROOT
ATOM      1  C   UNL A   1      31.588  30.895  26.196  1.00  0.00     0.117 C 
ENDROOT
BRANCH   1   2
ATOM      2  N   UNL A   1      32.907  30.353  26.463  1.00  0.00    -0.354 N 
ATOM      3  C   UNL A   1      33.376  29.077  26.319  1.00  0.00     0.242 C 
ATOM      4  O   UNL A   1      34.566  28.878  26.582  1.00  0.00    -0.273 OA
ATOM      5  H   UNL A   1      33.565  31.003  26.801  1.00  0.00     0.163 HD
BRANCH   3   6
ATOM      6  C   UNL A   1      32.475  27.934  25.813  1.00  0.00     0.168 C 
BRANCH   6   7
ATOM      7  C   UNL A   1      33.229  26.603  26.070  1.00  0.00     0.031 C 
ATOM      8  C   UNL A   1      32.404  25.326  26.085  1.00  0.00     0.006 C 
ENDBRANCH   6   7
BRANCH   6   9
ATOM      9  N   UNL A   1      32.014  28.086  24.416  1.00  0.00    -0.374 N 
ATOM     10  H   UNL A   1      32.705  28.092  23.715  1.00  0.00     0.161 HD
BRANCH   9  11
ATOM     11  C   UNL A   1      30.694  28.222  24.004  1.00  0.00     0.035 A 
ATOM     12  C   UNL A   1      29.856  27.097  24.078  1.00  0.00     0.026 A 
ATOM     13  C   UNL A   1      30.156  29.374  23.422  1.00  0.00     0.038 A 
ATOM     14  C   UNL A   1      28.542  27.119  23.601  1.00  0.00     0.003 A 
ATOM     15  C   UNL A   1      28.855  29.401  22.879  1.00  0.00     0.058 A 
ATOM     16  C   UNL A   1      28.045  28.265  22.993  1.00  0.00     0.013 A 
BRANCH  15  17
ATOM     17  C   UNL A   1      28.349  30.616  22.144  1.00  0.00     0.416 C 
ATOM     18  F   UNL A   1      27.716  30.286  20.980  1.00  0.00    -0.166 F 
ATOM     19  F   UNL A   1      27.450  31.337  22.867  1.00  0.00    -0.166 F 
ATOM     20  F   UNL A   1      29.332  31.489  21.782  1.00  0.00    -0.166 F 
ENDBRANCH  15  17
ENDBRANCH   9  11
ENDBRANCH   6   9
ENDBRANCH   3   6
ENDBRANCH   1   2
BRANCH   1  21
ATOM     21  C   UNL A   1      31.399  32.322  26.700  1.00  0.00     0.042 C 
BRANCH  21  22
ATOM     22  C   UNL A   1      32.677  33.014  27.157  1.00  0.00     0.118 C 
BRANCH  22  23
ATOM     23  N   UNL A   1      32.437  34.351  27.685  1.00  0.00    -0.352 N 
ATOM     24  C   UNL A   1      33.023  35.023  28.725  1.00  0.00     0.251 C 
ATOM     25  H   UNL A   1      31.735  34.857  27.214  1.00  0.00     0.163 HD
ATOM     26  O   UNL A   1      32.526  36.085  29.111  1.00  0.00    -0.269 OA
BRANCH  24  27
ATOM     27  C   UNL A   1      34.220  34.493  29.412  1.00  0.00     0.039 A 
ATOM     28  C   UNL A   1      34.056  33.851  30.644  1.00  0.00     0.014 A 
ATOM     29  C   UNL A   1      35.504  34.659  28.885  1.00  0.00     0.014 A 
ATOM     30  C   UNL A   1      35.163  33.314  31.308  1.00  0.00     0.010 A 
ATOM     31  C   UNL A   1      36.598  34.061  29.510  1.00  0.00     0.010 A 
ATOM     32  C   UNL A   1      36.438  33.379  30.726  1.00  0.00    -0.014 A 
BRANCH  32  33
ATOM     33  C   UNL A   1      37.610  32.727  31.366  1.00  0.00     0.031 A 
ATOM     34  C   UNL A   1      38.320  31.592  30.682  1.00  0.00     0.074 A 
ATOM     35  C   UNL A   1      37.991  33.112  32.600  1.00  0.00     0.049 A 
ATOM     36  N   UNL A   1      39.302  30.845  31.121  1.00  0.00    -0.248 NA
ATOM     37  C   UNL A   1      37.851  31.233  29.335  1.00  0.00     0.031 C 
ATOM     38  C   UNL A   1      37.358  34.169  33.389  1.00  0.00     0.029 A 
ATOM     39  N   UNL A   1      38.995  32.648  33.414  1.00  0.00    -0.354 N 
ATOM     40  C   UNL A   1      39.552  29.919  30.116  1.00  0.00     0.074 A 
ATOM     41  C   UNL A   1      38.596  30.172  29.061  1.00  0.00     0.031 C 
ATOM     42  C   UNL A   1      37.996  34.283  34.565  1.00  0.00     0.029 A 
ATOM     43  C   UNL A   1      39.057  33.284  34.629  1.00  0.00     0.049 A 
ATOM     44  H   UNL A   1      39.613  31.928  33.151  1.00  0.00     0.167 HD
ATOM     45  C   UNL A   1      40.505  28.957  30.072  1.00  0.00     0.037 A 
ATOM     46  C   UNL A   1      39.870  33.078  35.683  1.00  0.00     0.037 A 
ATOM     47  C   UNL A   1      41.479  28.727  31.107  1.00  0.00     0.049 A 
ATOM     48  C   UNL A   1      40.922  32.006  35.603  1.00  0.00     0.074 A 
ATOM     49  C   UNL A   1      42.526  27.822  31.121  1.00  0.00     0.029 A 
ATOM     50  N   UNL A   1      41.525  29.410  32.313  1.00  0.00    -0.354 N 
ATOM     51  N   UNL A   1      41.190  31.181  34.621  1.00  0.00    -0.248 NA
ATOM     52  C   UNL A   1      41.790  31.840  36.778  1.00  0.00     0.031 C 
ATOM     53  C   UNL A   1      43.184  27.931  32.352  1.00  0.00     0.029 A 
ATOM     54  C   UNL A   1      42.571  28.933  33.086  1.00  0.00     0.049 A 
ATOM     55  H   UNL A   1      40.905  30.128  32.581  1.00  0.00     0.167 HD
ATOM     56  C   UNL A   1      42.269  30.418  35.047  1.00  0.00     0.074 A 
ATOM     57  C   UNL A   1      42.616  30.888  36.371  1.00  0.00     0.031 C 
ATOM     58  C   UNL A   1      42.912  29.418  34.398  1.00  0.00     0.037 A 
BRANCH  45  59
ATOM     59  C   UNL A   1      40.551  28.076  28.859  1.00  0.00     0.064 A 
ATOM     60  C   UNL A   1      41.365  28.386  27.759  1.00  0.00     0.173 A 
ATOM     61  C   UNL A   1      39.822  26.878  28.821  1.00  0.00     0.173 A 
ATOM     62  F   UNL A   1      42.075  29.524  27.744  1.00  0.00    -0.203 F 
ATOM     63  C   UNL A   1      41.433  27.538  26.657  1.00  0.00     0.198 A 
ATOM     64  C   UNL A   1      39.912  26.020  27.727  1.00  0.00     0.198 A 
ATOM     65  F   UNL A   1      39.035  26.532  29.850  1.00  0.00    -0.203 F 
ATOM     66  F   UNL A   1      42.190  27.872  25.602  1.00  0.00    -0.200 F 
ATOM     67  C   UNL A   1      40.713  26.353  26.645  1.00  0.00     0.200 A 
ATOM     68  F   UNL A   1      39.226  24.869  27.723  1.00  0.00    -0.200 F 
ATOM     69  F   UNL A   1      40.789  25.532  25.588  1.00  0.00    -0.200 F 
ENDBRANCH  45  59
BRANCH  46  70
ATOM     70  C   UNL A   1      39.734  33.915  36.903  1.00  0.00     0.064 A 
ATOM     71  C   UNL A   1      38.937  33.493  37.977  1.00  0.00     0.173 A 
ATOM     72  C   UNL A   1      40.381  35.153  37.016  1.00  0.00     0.173 A 
ATOM     73  F   UNL A   1      38.280  32.326  37.905  1.00  0.00    -0.203 F 
ATOM     74  C   UNL A   1      38.775  34.290  39.108  1.00  0.00     0.198 A 
ATOM     75  C   UNL A   1      40.240  35.937  38.159  1.00  0.00     0.198 A 
ATOM     76  F   UNL A   1      41.157  35.599  36.017  1.00  0.00    -0.203 F 
ATOM     77  F   UNL A   1      37.970  33.884  40.100  1.00  0.00    -0.200 F 
ATOM     78  C   UNL A   1      39.431  35.509  39.200  1.00  0.00     0.200 A 
ATOM     79  F   UNL A   1      40.884  37.107  38.250  1.00  0.00    -0.200 F 
ATOM     80  F   UNL A   1      39.274  36.274  40.289  1.00  0.00    -0.200 F 
ENDBRANCH  46  70
BRANCH  58  81
ATOM     81  C   UNL A   1      44.079  28.786  35.098  1.00  0.00     0.064 A 
ATOM     82  C   UNL A   1      45.384  29.269  34.932  1.00  0.00     0.173 A 
ATOM     83  C   UNL A   1      43.881  27.707  35.974  1.00  0.00     0.173 A 
ATOM     84  F   UNL A   1      45.625  30.288  34.092  1.00  0.00    -0.203 F 
ATOM     85  C   UNL A   1      46.454  28.679  35.599  1.00  0.00     0.198 A 
ATOM     86  C   UNL A   1      44.950  27.137  36.660  1.00  0.00     0.198 A 
ATOM     87  F   UNL A   1      42.650  27.212  36.170  1.00  0.00    -0.203 F 
ATOM     88  F   UNL A   1      47.701  29.128  35.391  1.00  0.00    -0.200 F 
ATOM     89  C   UNL A   1      46.235  27.620  36.467  1.00  0.00     0.200 A 
ATOM     90  F   UNL A   1      44.736  26.121  37.505  1.00  0.00    -0.200 F 
ATOM     91  F   UNL A   1      47.267  27.057  37.112  1.00  0.00    -0.200 F 
ENDBRANCH  58  81
ENDBRANCH  32  33
ENDBRANCH  24  27
ENDBRANCH  22  23
ENDBRANCH  21  22
ENDBRANCH   1  21
TORSDOF 14
ENDMDL
