MODEL 1
REMARK VINA RESULT:     -14.4      0.000      0.000
REMARK SMILES Cc1nc2sc3c(c2c2nc(CCC(=O)NCCCNC(=O)c4ccc(-c5c6nc(c(-c7c(F)c(F)c(F)c(F)c7F)c7ccc([nH]7)c(-c7c(F)c(F)c(F)c(F)c7F)c7nc(c(-c8c(F)c(F)c(F)c(F)c8F)c8ccc5[nH]8)C=C7)C=C6)cc4)nn12)[C@@H](C)CCC3
REMARK SMILES IDX 18 1 17 2 16 3 14 4 15 5 13 7 12 8 11 9 1 10 2 11 3 12 87 13
REMARK SMILES IDX 4 14 9 15 86 16 5 17 8 18 10 19 6 20 7 21 92 22 88 23 91 24
REMARK SMILES IDX 89 25 90 26 19 27 20 28 21 29 22 31 23 32 24 33 85 34 25 35
REMARK SMILES IDX 84 36 26 37 27 38 28 39 78 40 29 41 83 42 77 43 79 44 30 45
REMARK SMILES IDX 82 46 76 47 75 48 31 50 63 51 43 52 62 53 44 54 47 55 61 56
REMARK SMILES IDX 80 57 45 58 46 59 60 61 81 62 48 63 32 64 33 65 41 66 34 67
REMARK SMILES IDX 35 68 39 69 42 70 36 71 37 72 40 73 38 74 64 75 65 76 73 77
REMARK SMILES IDX 66 78 67 79 71 80 74 81 68 82 69 83 72 84 70 85 49 86 50 87
REMARK SMILES IDX 58 88 51 89 52 90 56 91 59 92 53 93 54 94 57 95 55 96
REMARK H PARENT 16 6 20 30 79 49 47 60
REMARK Flexibility Score: inf
ROOT
ATOM      1  C   UNL A   1      46.010  21.906  35.431  1.00  0.00     0.042 C 
ENDROOT
BRANCH   1   2
ATOM      2  C   UNL A   1      46.701  20.471  35.394  1.00  0.00     0.117 C 
BRANCH   2   3
ATOM      3  N   UNL A   1      46.002  19.283  35.907  1.00  0.00    -0.356 N 
ATOM      4  C   UNL A   1      45.692  18.824  37.176  1.00  0.00     0.220 C 
ATOM      5  O   UNL A   1      44.737  18.051  37.282  1.00  0.00    -0.275 OA
ATOM      6  H   UNL A   1      45.684  18.685  35.193  1.00  0.00     0.163 HD
BRANCH   4   7
ATOM      7  C   UNL A   1      46.431  19.221  38.452  1.00  0.00     0.108 C 
BRANCH   7   8
ATOM      8  C   UNL A   1      46.770  18.022  39.365  1.00  0.00     0.089 C 
BRANCH   8   9
ATOM      9  C   UNL A   1      46.033  18.138  40.636  1.00  0.00     0.152 A 
ATOM     10  C   UNL A   1      47.242  17.751  44.598  1.00  0.00     0.090 C 
ATOM     11  C   UNL A   1      45.931  17.379  43.977  1.00  0.00     0.131 A 
ATOM     12  N   UNL A   1      45.068  16.640  44.617  1.00  0.00    -0.222 NA
ATOM     13  N   UNL A   1      45.729  17.746  42.642  1.00  0.00    -0.199 N 
ATOM     14  C   UNL A   1      44.082  16.100  43.835  1.00  0.00     0.129 A 
ATOM     15  C   UNL A   1      44.640  17.326  41.913  1.00  0.00     0.168 A 
ATOM     16  N   UNL A   1      46.653  18.278  41.819  1.00  0.00    -0.150 NA
ATOM     17  S   UNL A   1      43.178  14.826  44.405  1.00  0.00    -0.120 S 
ATOM     18  C   UNL A   1      43.774  16.304  42.497  1.00  0.00     0.060 A 
ATOM     19  N   UNL A   1      44.746  17.702  40.676  1.00  0.00    -0.211 NA
ATOM     20  C   UNL A   1      42.712  14.348  42.848  1.00  0.00     0.011 A 
ATOM     21  C   UNL A   1      42.888  15.336  41.903  1.00  0.00    -0.018 A 
ATOM     22  C   UNL A   1      42.208  12.993  42.534  1.00  0.00     0.047 C 
ATOM     23  C   UNL A   1      42.267  15.145  40.517  1.00  0.00     0.018 C 
ATOM     24  C   UNL A   1      41.239  13.009  41.413  1.00  0.00     0.006 C 
ATOM     25  C   UNL A   1      43.140  15.445  39.334  1.00  0.00     0.013 C 
ATOM     26  C   UNL A   1      41.827  13.683  40.224  1.00  0.00     0.008 C 
ENDBRANCH   8   9
ENDBRANCH   7   8
ENDBRANCH   4   7
ENDBRANCH   2   3
ENDBRANCH   1   2
BRANCH   1  27
ATOM     27  C   UNL A   1      45.654  22.618  36.799  1.00  0.00     0.118 C 
BRANCH  27  28
ATOM     28  N   UNL A   1      45.357  24.152  36.781  1.00  0.00    -0.352 N 
ATOM     29  C   UNL A   1      45.200  25.336  35.994  1.00  0.00     0.251 C 
ATOM     30  H   UNL A   1      45.217  24.419  37.717  1.00  0.00     0.163 HD
ATOM     31  O   UNL A   1      44.564  26.237  36.550  1.00  0.00    -0.269 OA
BRANCH  29  32
ATOM     32  C   UNL A   1      45.685  25.714  34.593  1.00  0.00     0.039 A 
ATOM     33  C   UNL A   1      45.247  26.847  33.891  1.00  0.00     0.014 A 
ATOM     34  C   UNL A   1      46.757  25.071  33.963  1.00  0.00     0.014 A 
ATOM     35  C   UNL A   1      45.441  26.967  32.474  1.00  0.00     0.010 A 
ATOM     36  C   UNL A   1      46.900  25.123  32.540  1.00  0.00     0.010 A 
ATOM     37  C   UNL A   1      46.078  25.956  31.746  1.00  0.00    -0.014 A 
BRANCH  37  38
ATOM     38  C   UNL A   1      45.821  25.650  30.281  1.00  0.00     0.031 A 
ATOM     39  C   UNL A   1      46.870  26.084  29.314  1.00  0.00     0.074 A 
ATOM     40  C   UNL A   1      44.886  24.873  29.645  1.00  0.00     0.049 A 
ATOM     41  N   UNL A   1      46.827  27.199  28.666  1.00  0.00    -0.248 NA
ATOM     42  C   UNL A   1      48.054  25.268  29.009  1.00  0.00     0.031 C 
ATOM     43  C   UNL A   1      43.809  24.024  30.170  1.00  0.00     0.029 A 
ATOM     44  N   UNL A   1      44.801  24.586  28.292  1.00  0.00    -0.354 N 
ATOM     45  C   UNL A   1      47.888  27.199  27.778  1.00  0.00     0.074 A 
ATOM     46  C   UNL A   1      48.701  26.061  28.144  1.00  0.00     0.031 C 
ATOM     47  C   UNL A   1      43.387  23.141  29.222  1.00  0.00     0.029 A 
ATOM     48  C   UNL A   1      43.951  23.535  27.945  1.00  0.00     0.049 A 
ATOM     49  H   UNL A   1      45.310  25.092  27.617  1.00  0.00     0.167 HD
ATOM     50  C   UNL A   1      47.906  28.049  26.711  1.00  0.00     0.037 A 
ATOM     51  C   UNL A   1      43.583  23.128  26.698  1.00  0.00     0.037 A 
ATOM     52  C   UNL A   1      46.754  28.928  26.713  1.00  0.00     0.049 A 
ATOM     53  C   UNL A   1      43.650  24.332  25.838  1.00  0.00     0.074 A 
ATOM     54  C   UNL A   1      46.210  29.811  27.630  1.00  0.00     0.029 A 
ATOM     55  N   UNL A   1      45.724  28.657  25.840  1.00  0.00    -0.354 N 
ATOM     56  N   UNL A   1      42.874  25.370  25.985  1.00  0.00    -0.248 NA
ATOM     57  C   UNL A   1      44.857  24.553  25.061  1.00  0.00     0.031 C 
ATOM     58  C   UNL A   1      44.804  29.554  27.592  1.00  0.00     0.029 A 
ATOM     59  C   UNL A   1      44.579  28.600  26.599  1.00  0.00     0.049 A 
ATOM     60  H   UNL A   1      45.793  28.529  24.866  1.00  0.00     0.167 HD
ATOM     61  C   UNL A   1      43.707  26.450  25.755  1.00  0.00     0.074 A 
ATOM     62  C   UNL A   1      44.874  25.887  25.077  1.00  0.00     0.031 C 
ATOM     63  C   UNL A   1      43.512  27.646  26.383  1.00  0.00     0.037 A 
BRANCH  50  64
ATOM     64  C   UNL A   1      48.799  27.947  25.509  1.00  0.00     0.064 A 
ATOM     65  C   UNL A   1      48.378  27.185  24.399  1.00  0.00     0.173 A 
ATOM     66  C   UNL A   1      50.133  28.388  25.480  1.00  0.00     0.173 A 
ATOM     67  F   UNL A   1      47.133  26.686  24.347  1.00  0.00    -0.203 F 
ATOM     68  C   UNL A   1      49.243  26.865  23.353  1.00  0.00     0.198 A 
ATOM     69  C   UNL A   1      50.981  28.116  24.405  1.00  0.00     0.198 A 
ATOM     70  F   UNL A   1      50.690  29.001  26.533  1.00  0.00    -0.203 F 
ATOM     71  F   UNL A   1      48.829  26.054  22.368  1.00  0.00    -0.200 F 
ATOM     72  C   UNL A   1      50.543  27.335  23.353  1.00  0.00     0.200 A 
ATOM     73  F   UNL A   1      52.244  28.561  24.431  1.00  0.00    -0.200 F 
ATOM     74  F   UNL A   1      51.387  27.000  22.368  1.00  0.00    -0.200 F 
ENDBRANCH  50  64
BRANCH  51  75
ATOM     75  C   UNL A   1      43.327  21.780  26.121  1.00  0.00     0.064 A 
ATOM     76  C   UNL A   1      44.379  20.928  25.725  1.00  0.00     0.173 A 
ATOM     77  C   UNL A   1      42.063  21.175  26.254  1.00  0.00     0.173 A 
ATOM     78  F   UNL A   1      45.627  21.404  25.610  1.00  0.00    -0.203 F 
ATOM     79  C   UNL A   1      44.186  19.554  25.516  1.00  0.00     0.198 A 
ATOM     80  C   UNL A   1      41.873  19.802  26.050  1.00  0.00     0.198 A 
ATOM     81  F   UNL A   1      41.015  21.891  26.687  1.00  0.00    -0.203 F 
ATOM     82  F   UNL A   1      45.229  18.769  25.206  1.00  0.00    -0.200 F 
ATOM     83  C   UNL A   1      42.937  18.989  25.696  1.00  0.00     0.200 A 
ATOM     84  F   UNL A   1      40.667  19.256  26.264  1.00  0.00    -0.200 F 
ATOM     85  F   UNL A   1      42.766  17.666  25.569  1.00  0.00    -0.200 F 
ENDBRANCH  51  75
BRANCH  63  86
ATOM     86  C   UNL A   1      42.224  27.881  27.138  1.00  0.00     0.064 A 
ATOM     87  C   UNL A   1      42.049  27.632  28.511  1.00  0.00     0.173 A 
ATOM     88  C   UNL A   1      41.179  28.549  26.488  1.00  0.00     0.173 A 
ATOM     89  F   UNL A   1      43.007  27.061  29.238  1.00  0.00    -0.203 F 
ATOM     90  C   UNL A   1      40.896  28.020  29.194  1.00  0.00     0.198 A 
ATOM     91  C   UNL A   1      40.035  28.961  27.175  1.00  0.00     0.198 A 
ATOM     92  F   UNL A   1      41.284  28.851  25.184  1.00  0.00    -0.203 F 
ATOM     93  F   UNL A   1      40.779  27.773  30.507  1.00  0.00    -0.200 F 
ATOM     94  C   UNL A   1      39.894  28.696  28.526  1.00  0.00     0.200 A 
ATOM     95  F   UNL A   1      39.083  29.650  26.530  1.00  0.00    -0.200 F 
ATOM     96  F   UNL A   1      38.807  29.113  29.190  1.00  0.00    -0.200 F 
ENDBRANCH  63  86
ENDBRANCH  37  38
ENDBRANCH  29  32
ENDBRANCH  27  28
ENDBRANCH   1  27
TORSDOF 12
ENDMDL
MODEL 2
REMARK VINA RESULT:     -14.4     11.061     20.801
REMARK SMILES Cc1nc2sc3c(c2c2nc(CCC(=O)NCCCNC(=O)c4ccc(-c5c6nc(c(-c7c(F)c(F)c(F)c(F)c7F)c7ccc([nH]7)c(-c7c(F)c(F)c(F)c(F)c7F)c7nc(c(-c8c(F)c(F)c(F)c(F)c8F)c8ccc5[nH]8)C=C7)C=C6)cc4)nn12)[C@@H](C)CCC3
REMARK SMILES IDX 18 1 17 2 16 3 14 4 15 5 13 7 12 8 11 9 1 10 2 11 3 12 87 13
REMARK SMILES IDX 4 14 9 15 86 16 5 17 8 18 10 19 6 20 7 21 92 22 88 23 91 24
REMARK SMILES IDX 89 25 90 26 19 27 20 28 21 29 22 31 23 32 24 33 85 34 25 35
REMARK SMILES IDX 84 36 26 37 27 38 28 39 78 40 29 41 83 42 77 43 79 44 30 45
REMARK SMILES IDX 82 46 76 47 75 48 31 50 63 51 43 52 62 53 44 54 47 55 61 56
REMARK SMILES IDX 80 57 45 58 46 59 60 61 81 62 48 63 32 64 33 65 41 66 34 67
REMARK SMILES IDX 35 68 39 69 42 70 36 71 37 72 40 73 38 74 64 75 65 76 73 77
REMARK SMILES IDX 66 78 67 79 71 80 74 81 68 82 69 83 72 84 70 85 49 86 50 87
REMARK SMILES IDX 58 88 51 89 52 90 56 91 59 92 53 93 54 94 57 95 55 96
REMARK H PARENT 16 6 20 30 79 49 47 60
REMARK Flexibility Score: inf
ROOT
ATOM      1  C   UNL A   1      44.430  39.471  26.870  1.00  0.00     0.042 C 
ENDROOT
BRANCH   1   2
ATOM      2  C   UNL A   1      42.926  38.965  26.723  1.00  0.00     0.117 C 
BRANCH   2   3
ATOM      3  N   UNL A   1      41.810  39.923  26.666  1.00  0.00    -0.356 N 
ATOM      4  C   UNL A   1      41.502  40.991  25.842  1.00  0.00     0.220 C 
ATOM      5  O   UNL A   1      40.316  41.318  25.757  1.00  0.00    -0.275 OA
ATOM      6  H   UNL A   1      41.136  39.769  27.367  1.00  0.00     0.163 HD
BRANCH   4   7
ATOM      7  C   UNL A   1      42.518  41.778  25.017  1.00  0.00     0.108 C 
BRANCH   7   8
ATOM      8  C   UNL A   1      42.064  42.034  23.563  1.00  0.00     0.089 C 
BRANCH   8   9
ATOM      9  C   UNL A   1      43.241  42.107  22.678  1.00  0.00     0.152 A 
ATOM     10  C   UNL A   1      46.995  43.830  23.176  1.00  0.00     0.090 C 
ATOM     11  C   UNL A   1      46.177  43.709  21.928  1.00  0.00     0.131 A 
ATOM     12  N   UNL A   1      46.486  44.379  20.852  1.00  0.00    -0.222 NA
ATOM     13  N   UNL A   1      45.002  42.954  22.004  1.00  0.00    -0.199 N 
ATOM     14  C   UNL A   1      45.493  44.444  19.910  1.00  0.00     0.129 A 
ATOM     15  C   UNL A   1      44.086  42.898  20.978  1.00  0.00     0.168 A 
ATOM     16  N   UNL A   1      44.462  42.442  23.127  1.00  0.00    -0.150 NA
ATOM     17  S   UNL A   1      45.571  45.584  18.703  1.00  0.00    -0.120 S 
ATOM     18  C   UNL A   1      44.257  43.816  19.854  1.00  0.00     0.060 A 
ATOM     19  N   UNL A   1      43.034  42.232  21.340  1.00  0.00    -0.211 NA
ATOM     20  C   UNL A   1      43.908  45.498  18.396  1.00  0.00     0.011 A 
ATOM     21  C   UNL A   1      43.323  44.356  18.899  1.00  0.00    -0.018 A 
ATOM     22  C   UNL A   1      43.157  46.563  17.694  1.00  0.00     0.047 C 
ATOM     23  C   UNL A   1      41.894  44.013  18.470  1.00  0.00     0.018 C 
ATOM     24  C   UNL A   1      42.011  46.020  16.928  1.00  0.00     0.006 C 
ATOM     25  C   UNL A   1      40.938  43.607  19.553  1.00  0.00     0.013 C 
ATOM     26  C   UNL A   1      41.138  45.198  17.807  1.00  0.00     0.008 C 
ENDBRANCH   8   9
ENDBRANCH   7   8
ENDBRANCH   4   7
ENDBRANCH   2   3
ENDBRANCH   1   2
BRANCH   1  27
ATOM     27  C   UNL A   1      45.650  38.465  26.816  1.00  0.00     0.118 C 
BRANCH  27  28
ATOM     28  N   UNL A   1      45.357  36.959  26.519  1.00  0.00    -0.352 N 
ATOM     29  C   UNL A   1      44.723  35.752  26.950  1.00  0.00     0.251 C 
ATOM     30  H   UNL A   1      45.801  36.752  25.666  1.00  0.00     0.163 HD
ATOM     31  O   UNL A   1      44.525  34.931  26.048  1.00  0.00    -0.269 OA
BRANCH  29  32
ATOM     32  C   UNL A   1      44.257  35.266  28.323  1.00  0.00     0.039 A 
ATOM     33  C   UNL A   1      44.276  33.922  28.728  1.00  0.00     0.014 A 
ATOM     34  C   UNL A   1      43.950  36.141  29.373  1.00  0.00     0.014 A 
ATOM     35  C   UNL A   1      43.510  33.472  29.856  1.00  0.00     0.010 A 
ATOM     36  C   UNL A   1      43.116  35.713  30.454  1.00  0.00     0.010 A 
ATOM     37  C   UNL A   1      42.719  34.363  30.590  1.00  0.00    -0.014 A 
BRANCH  37  38
ATOM     38  C   UNL A   1      41.458  33.981  31.345  1.00  0.00     0.031 A 
ATOM     39  C   UNL A   1      41.553  33.953  32.834  1.00  0.00     0.074 A 
ATOM     40  C   UNL A   1      40.152  33.825  30.954  1.00  0.00     0.049 A 
ATOM     41  N   UNL A   1      41.794  32.883  33.514  1.00  0.00    -0.248 NA
ATOM     42  C   UNL A   1      41.374  35.154  33.662  1.00  0.00     0.031 C 
ATOM     43  C   UNL A   1      39.501  34.010  29.651  1.00  0.00     0.029 A 
ATOM     44  N   UNL A   1      39.052  33.563  31.755  1.00  0.00    -0.354 N 
ATOM     45  C   UNL A   1      41.679  33.214  34.852  1.00  0.00     0.074 A 
ATOM     46  C   UNL A   1      41.579  34.656  34.890  1.00  0.00     0.031 C 
ATOM     47  C   UNL A   1      38.152  34.130  29.800  1.00  0.00     0.029 A 
ATOM     48  C   UNL A   1      37.806  33.754  31.158  1.00  0.00     0.049 A 
ATOM     49  H   UNL A   1      39.145  33.262  32.688  1.00  0.00     0.167 HD
ATOM     50  C   UNL A   1      41.509  32.247  35.799  1.00  0.00     0.037 A 
ATOM     51  C   UNL A   1      36.577  33.454  31.663  1.00  0.00     0.037 A 
ATOM     52  C   UNL A   1      41.542  30.921  35.216  1.00  0.00     0.049 A 
ATOM     53  C   UNL A   1      36.781  32.313  32.586  1.00  0.00     0.074 A 
ATOM     54  C   UNL A   1      42.445  30.232  34.423  1.00  0.00     0.029 A 
ATOM     55  N   UNL A   1      40.350  30.254  35.042  1.00  0.00    -0.354 N 
ATOM     56  N   UNL A   1      37.172  31.130  32.199  1.00  0.00    -0.248 NA
ATOM     57  C   UNL A   1      36.940  32.597  34.001  1.00  0.00     0.031 C 
ATOM     58  C   UNL A   1      41.642  29.603  33.420  1.00  0.00     0.029 A 
ATOM     59  C   UNL A   1      40.308  29.877  33.720  1.00  0.00     0.049 A 
ATOM     60  H   UNL A   1      39.664  30.082  35.726  1.00  0.00     0.167 HD
ATOM     61  C   UNL A   1      38.051  30.725  33.187  1.00  0.00     0.074 A 
ATOM     62  C   UNL A   1      37.777  31.607  34.320  1.00  0.00     0.031 C 
ATOM     63  C   UNL A   1      39.111  29.911  32.907  1.00  0.00     0.037 A 
BRANCH  50  64
ATOM     64  C   UNL A   1      41.053  32.458  37.213  1.00  0.00     0.064 A 
ATOM     65  C   UNL A   1      39.782  33.021  37.451  1.00  0.00     0.173 A 
ATOM     66  C   UNL A   1      41.887  32.328  38.338  1.00  0.00     0.173 A 
ATOM     67  F   UNL A   1      38.924  33.221  36.439  1.00  0.00    -0.203 F 
ATOM     68  C   UNL A   1      39.391  33.450  38.720  1.00  0.00     0.198 A 
ATOM     69  C   UNL A   1      41.472  32.703  39.616  1.00  0.00     0.198 A 
ATOM     70  F   UNL A   1      43.163  31.936  38.221  1.00  0.00    -0.203 F 
ATOM     71  F   UNL A   1      38.213  34.071  38.881  1.00  0.00    -0.200 F 
ATOM     72  C   UNL A   1      40.234  33.286  39.803  1.00  0.00     0.200 A 
ATOM     73  F   UNL A   1      42.310  32.558  40.652  1.00  0.00    -0.200 F 
ATOM     74  F   UNL A   1      39.876  33.728  41.016  1.00  0.00    -0.200 F 
ENDBRANCH  50  64
BRANCH  51  75
ATOM     75  C   UNL A   1      35.258  34.138  31.562  1.00  0.00     0.064 A 
ATOM     76  C   UNL A   1      34.867  35.140  32.474  1.00  0.00     0.173 A 
ATOM     77  C   UNL A   1      34.501  34.055  30.378  1.00  0.00     0.173 A 
ATOM     78  F   UNL A   1      35.554  35.322  33.612  1.00  0.00    -0.203 F 
ATOM     79  C   UNL A   1      33.815  36.026  32.202  1.00  0.00     0.198 A 
ATOM     80  C   UNL A   1      33.452  34.944  30.105  1.00  0.00     0.198 A 
ATOM     81  F   UNL A   1      34.835  33.176  29.423  1.00  0.00    -0.203 F 
ATOM     82  F   UNL A   1      33.522  37.007  33.069  1.00  0.00    -0.200 F 
ATOM     83  C   UNL A   1      33.119  35.938  31.010  1.00  0.00     0.200 A 
ATOM     84  F   UNL A   1      32.809  34.877  28.931  1.00  0.00    -0.200 F 
ATOM     85  F   UNL A   1      32.163  36.830  30.715  1.00  0.00    -0.200 F 
ENDBRANCH  51  75
BRANCH  63  86
ATOM     86  C   UNL A   1      39.181  29.231  31.559  1.00  0.00     0.064 A 
ATOM     87  C   UNL A   1      39.832  29.762  30.432  1.00  0.00     0.173 A 
ATOM     88  C   UNL A   1      38.726  27.911  31.451  1.00  0.00     0.173 A 
ATOM     89  F   UNL A   1      40.361  30.984  30.451  1.00  0.00    -0.203 F 
ATOM     90  C   UNL A   1      40.012  29.023  29.263  1.00  0.00     0.198 A 
ATOM     91  C   UNL A   1      38.927  27.160  30.291  1.00  0.00     0.198 A 
ATOM     92  F   UNL A   1      38.122  27.321  32.496  1.00  0.00    -0.203 F 
ATOM     93  F   UNL A   1      40.652  29.568  28.216  1.00  0.00    -0.200 F 
ATOM     94  C   UNL A   1      39.569  27.717  29.197  1.00  0.00     0.200 A 
ATOM     95  F   UNL A   1      38.528  25.882  30.248  1.00  0.00    -0.200 F 
ATOM     96  F   UNL A   1      39.783  26.988  28.093  1.00  0.00    -0.200 F 
ENDBRANCH  63  86
ENDBRANCH  37  38
ENDBRANCH  29  32
ENDBRANCH  27  28
ENDBRANCH   1  27
TORSDOF 12
ENDMDL
MODEL 3
REMARK VINA RESULT:     -14.3     10.439     16.319
REMARK SMILES Cc1nc2sc3c(c2c2nc(CCC(=O)NCCCNC(=O)c4ccc(-c5c6nc(c(-c7c(F)c(F)c(F)c(F)c7F)c7ccc([nH]7)c(-c7c(F)c(F)c(F)c(F)c7F)c7nc(c(-c8c(F)c(F)c(F)c(F)c8F)c8ccc5[nH]8)C=C7)C=C6)cc4)nn12)[C@@H](C)CCC3
REMARK SMILES IDX 18 1 17 2 16 3 14 4 15 5 13 7 12 8 11 9 1 10 2 11 3 12 87 13
REMARK SMILES IDX 4 14 9 15 86 16 5 17 8 18 10 19 6 20 7 21 92 22 88 23 91 24
REMARK SMILES IDX 89 25 90 26 19 27 20 28 21 29 22 31 23 32 24 33 85 34 25 35
REMARK SMILES IDX 84 36 26 37 27 38 28 39 78 40 29 41 83 42 77 43 79 44 30 45
REMARK SMILES IDX 82 46 76 47 75 48 31 50 63 51 43 52 62 53 44 54 47 55 61 56
REMARK SMILES IDX 80 57 45 58 46 59 60 61 81 62 48 63 32 64 33 65 41 66 34 67
REMARK SMILES IDX 35 68 39 69 42 70 36 71 37 72 40 73 38 74 64 75 65 76 73 77
REMARK SMILES IDX 66 78 67 79 71 80 74 81 68 82 69 83 72 84 70 85 49 86 50 87
REMARK SMILES IDX 58 88 51 89 52 90 56 91 59 92 53 93 54 94 57 95 55 96
REMARK H PARENT 16 6 20 30 79 49 47 60
REMARK Flexibility Score: inf
ROOT
ATOM      1  C   UNL A   1      40.390  22.683  27.342  1.00  0.00     0.042 C 
ENDROOT
BRANCH   1   2
ATOM      2  C   UNL A   1      39.646  22.190  26.021  1.00  0.00     0.117 C 
BRANCH   2   3
ATOM      3  N   UNL A   1      38.337  21.523  26.097  1.00  0.00    -0.356 N 
ATOM      4  C   UNL A   1      37.141  21.673  25.416  1.00  0.00     0.220 C 
ATOM      5  O   UNL A   1      36.380  20.702  25.386  1.00  0.00    -0.275 OA
ATOM      6  H   UNL A   1      38.304  20.816  26.781  1.00  0.00     0.163 HD
BRANCH   4   7
ATOM      7  C   UNL A   1      36.707  22.939  24.683  1.00  0.00     0.108 C 
BRANCH   7   8
ATOM      8  C   UNL A   1      36.042  23.986  25.603  1.00  0.00     0.089 C 
BRANCH   8   9
ATOM      9  C   UNL A   1      34.577  23.822  25.569  1.00  0.00     0.152 A 
ATOM     10  C   UNL A   1      32.030  22.137  22.745  1.00  0.00     0.090 C 
ATOM     11  C   UNL A   1      31.787  23.308  23.645  1.00  0.00     0.131 A 
ATOM     12  N   UNL A   1      30.771  24.104  23.458  1.00  0.00    -0.222 NA
ATOM     13  N   UNL A   1      32.762  23.585  24.610  1.00  0.00    -0.199 N 
ATOM     14  C   UNL A   1      30.847  25.300  24.121  1.00  0.00     0.129 A 
ATOM     15  C   UNL A   1      32.735  24.720  25.389  1.00  0.00     0.168 A 
ATOM     16  N   UNL A   1      33.964  22.987  24.715  1.00  0.00    -0.150 NA
ATOM     17  S   UNL A   1      29.867  26.563  23.664  1.00  0.00    -0.120 S 
ATOM     18  C   UNL A   1      31.764  25.760  25.055  1.00  0.00     0.060 A 
ATOM     19  N   UNL A   1      33.807  24.801  26.115  1.00  0.00    -0.211 NA
ATOM     20  C   UNL A   1      30.876  27.718  24.383  1.00  0.00     0.011 A 
ATOM     21  C   UNL A   1      31.746  27.178  25.305  1.00  0.00    -0.018 A 
ATOM     22  C   UNL A   1      30.850  29.153  24.021  1.00  0.00     0.047 C 
ATOM     23  C   UNL A   1      32.525  28.126  26.221  1.00  0.00     0.018 C 
ATOM     24  C   UNL A   1      31.211  30.019  25.168  1.00  0.00     0.006 C 
ATOM     25  C   UNL A   1      33.993  27.861  26.382  1.00  0.00     0.013 C 
ATOM     26  C   UNL A   1      32.518  29.605  25.744  1.00  0.00     0.008 C 
ENDBRANCH   8   9
ENDBRANCH   7   8
ENDBRANCH   4   7
ENDBRANCH   2   3
ENDBRANCH   1   2
BRANCH   1  27
ATOM     27  C   UNL A   1      41.419  23.884  27.312  1.00  0.00     0.118 C 
BRANCH  27  28
ATOM     28  N   UNL A   1      40.870  25.326  27.067  1.00  0.00    -0.352 N 
ATOM     29  C   UNL A   1      40.557  26.603  27.631  1.00  0.00     0.251 C 
ATOM     30  H   UNL A   1      40.638  25.378  26.113  1.00  0.00     0.163 HD
ATOM     31  O   UNL A   1      40.488  27.521  26.806  1.00  0.00    -0.269 OA
BRANCH  29  32
ATOM     32  C   UNL A   1      40.271  27.056  29.063  1.00  0.00     0.039 A 
ATOM     33  C   UNL A   1      39.035  26.889  29.707  1.00  0.00     0.014 A 
ATOM     34  C   UNL A   1      41.275  27.503  29.932  1.00  0.00     0.014 A 
ATOM     35  C   UNL A   1      38.703  27.636  30.888  1.00  0.00     0.010 A 
ATOM     36  C   UNL A   1      40.948  28.318  31.062  1.00  0.00     0.010 A 
ATOM     37  C   UNL A   1      39.605  28.554  31.437  1.00  0.00    -0.014 A 
BRANCH  37  38
ATOM     38  C   UNL A   1      39.210  29.785  32.232  1.00  0.00     0.031 A 
ATOM     39  C   UNL A   1      38.060  30.579  31.710  1.00  0.00     0.074 A 
ATOM     40  C   UNL A   1      39.576  30.247  33.472  1.00  0.00     0.049 A 
ATOM     41  N   UNL A   1      38.193  31.614  30.951  1.00  0.00    -0.248 NA
ATOM     42  C   UNL A   1      36.662  30.248  32.021  1.00  0.00     0.031 C 
ATOM     43  C   UNL A   1      40.467  29.683  34.494  1.00  0.00     0.029 A 
ATOM     44  N   UNL A   1      39.075  31.348  34.148  1.00  0.00    -0.354 N 
ATOM     45  C   UNL A   1      36.933  32.158  30.776  1.00  0.00     0.074 A 
ATOM     46  C   UNL A   1      36.011  31.188  31.322  1.00  0.00     0.031 C 
ATOM     47  C   UNL A   1      40.236  30.261  35.705  1.00  0.00     0.029 A 
ATOM     48  C   UNL A   1      39.390  31.423  35.505  1.00  0.00     0.049 A 
ATOM     49  H   UNL A   1      38.531  32.034  33.699  1.00  0.00     0.167 HD
ATOM     50  C   UNL A   1      36.781  33.443  30.344  1.00  0.00     0.037 A 
ATOM     51  C   UNL A   1      39.143  32.445  36.371  1.00  0.00     0.037 A 
ATOM     52  C   UNL A   1      38.059  34.061  30.053  1.00  0.00     0.049 A 
ATOM     53  C   UNL A   1      39.127  33.680  35.552  1.00  0.00     0.074 A 
ATOM     54  C   UNL A   1      39.134  33.731  29.245  1.00  0.00     0.029 A 
ATOM     55  N   UNL A   1      38.573  34.959  30.963  1.00  0.00    -0.354 N 
ATOM     56  N   UNL A   1      40.173  34.148  34.929  1.00  0.00    -0.248 NA
ATOM     57  C   UNL A   1      37.844  34.182  35.094  1.00  0.00     0.031 C 
ATOM     58  C   UNL A   1      40.287  33.980  30.053  1.00  0.00     0.029 A 
ATOM     59  C   UNL A   1      39.843  34.524  31.259  1.00  0.00     0.049 A 
ATOM     60  H   UNL A   1      38.121  35.753  31.329  1.00  0.00     0.167 HD
ATOM     61  C   UNL A   1      39.672  34.599  33.721  1.00  0.00     0.074 A 
ATOM     62  C   UNL A   1      38.229  34.705  33.928  1.00  0.00     0.031 C 
ATOM     63  C   UNL A   1      40.426  34.572  32.583  1.00  0.00     0.037 A 
BRANCH  50  64
ATOM     64  C   UNL A   1      35.525  34.262  30.417  1.00  0.00     0.064 A 
ATOM     65  C   UNL A   1      34.987  34.589  31.679  1.00  0.00     0.173 A 
ATOM     66  C   UNL A   1      34.715  34.562  29.308  1.00  0.00     0.173 A 
ATOM     67  F   UNL A   1      35.666  34.311  32.803  1.00  0.00    -0.203 F 
ATOM     68  C   UNL A   1      33.716  35.147  31.817  1.00  0.00     0.198 A 
ATOM     69  C   UNL A   1      33.468  35.174  29.445  1.00  0.00     0.198 A 
ATOM     70  F   UNL A   1      35.054  34.178  28.070  1.00  0.00    -0.203 F 
ATOM     71  F   UNL A   1      33.204  35.347  33.040  1.00  0.00    -0.200 F 
ATOM     72  C   UNL A   1      32.959  35.445  30.699  1.00  0.00     0.200 A 
ATOM     73  F   UNL A   1      32.738  35.437  28.352  1.00  0.00    -0.200 F 
ATOM     74  F   UNL A   1      31.724  35.948  30.829  1.00  0.00    -0.200 F 
ENDBRANCH  50  64
BRANCH  51  75
ATOM     75  C   UNL A   1      38.761  32.468  37.810  1.00  0.00     0.064 A 
ATOM     76  C   UNL A   1      39.154  33.517  38.667  1.00  0.00     0.173 A 
ATOM     77  C   UNL A   1      37.733  31.636  38.289  1.00  0.00     0.173 A 
ATOM     78  F   UNL A   1      40.099  34.387  38.281  1.00  0.00    -0.203 F 
ATOM     79  C   UNL A   1      38.530  33.743  39.903  1.00  0.00     0.198 A 
ATOM     80  C   UNL A   1      37.107  31.865  39.522  1.00  0.00     0.198 A 
ATOM     81  F   UNL A   1      37.249  30.650  37.520  1.00  0.00    -0.203 F 
ATOM     82  F   UNL A   1      38.891  34.794  40.655  1.00  0.00    -0.200 F 
ATOM     83  C   UNL A   1      37.496  32.927  40.322  1.00  0.00     0.200 A 
ATOM     84  F   UNL A   1      36.079  31.093  39.902  1.00  0.00    -0.200 F 
ATOM     85  F   UNL A   1      36.849  33.184  41.467  1.00  0.00    -0.200 F 
ENDBRANCH  51  75
BRANCH  63  86
ATOM     86  C   UNL A   1      41.908  34.292  32.687  1.00  0.00     0.064 A 
ATOM     87  C   UNL A   1      42.871  35.236  33.085  1.00  0.00     0.173 A 
ATOM     88  C   UNL A   1      42.351  32.970  32.549  1.00  0.00     0.173 A 
ATOM     89  F   UNL A   1      42.542  36.506  33.308  1.00  0.00    -0.203 F 
ATOM     90  C   UNL A   1      44.199  34.884  33.326  1.00  0.00     0.198 A 
ATOM     91  C   UNL A   1      43.674  32.611  32.815  1.00  0.00     0.198 A 
ATOM     92  F   UNL A   1      41.484  32.005  32.203  1.00  0.00    -0.203 F 
ATOM     93  F   UNL A   1      45.080  35.817  33.718  1.00  0.00    -0.200 F 
ATOM     94  C   UNL A   1      44.597  33.568  33.201  1.00  0.00     0.200 A 
ATOM     95  F   UNL A   1      44.044  31.326  32.728  1.00  0.00    -0.200 F 
ATOM     96  F   UNL A   1      45.861  33.218  33.478  1.00  0.00    -0.200 F 
ENDBRANCH  63  86
ENDBRANCH  37  38
ENDBRANCH  29  32
ENDBRANCH  27  28
ENDBRANCH   1  27
TORSDOF 12
ENDMDL
