MODEL 1
REMARK VINA RESULT:     -11.0      0.000      0.000
REMARK SMILES C#CCN(CC(=O)NCCCNC(=O)c1ccc(-c2c3nc(c(-c4c(F)c(F)c(F)c(F)c4F)c4ccc([nH]4)c(-c4c(F)c(F)c(F)c(F)c4F)c4nc(c(-c5c(F)c(F)c(F)c(F)c5F)c5ccc2[nH]5)C=C4)C=C3)cc1)C(=O)/C=C/c1ccnn1C
REMARK SMILES IDX 9 1 8 2 6 3 7 4 5 6 4 7 3 8 2 9 1 10 78 11 79 12 80 13 81 14
REMARK SMILES IDX 82 15 83 16 86 17 84 18 85 19 87 20 10 21 11 22 12 23 13 24
REMARK SMILES IDX 14 26 15 27 16 28 77 29 17 30 76 31 18 32 19 33 20 34 70 35
REMARK SMILES IDX 21 36 75 37 69 38 71 39 22 40 74 41 68 42 67 43 23 45 55 46
REMARK SMILES IDX 35 47 54 48 36 49 39 50 53 51 72 52 37 53 38 54 52 56 73 57
REMARK SMILES IDX 40 58 24 59 25 60 33 61 26 62 27 63 31 64 34 65 28 66 29 67
REMARK SMILES IDX 32 68 30 69 56 70 57 71 65 72 58 73 59 74 63 75 66 76 60 77
REMARK SMILES IDX 61 78 64 79 62 80 41 81 42 82 50 83 43 84 44 85 48 86 51 87
REMARK SMILES IDX 45 88 46 89 49 90 47 91
REMARK H PARENT 8 5 12 25 71 44 39 55
REMARK Flexibility Score: inf
ROOT
ATOM      1  C   UNL A   1      31.433  30.715  26.332  1.00  0.00     0.117 C 
ENDROOT
BRANCH   1   2
ATOM      2  N   UNL A   1      31.140  30.270  24.985  1.00  0.00    -0.354 N 
ATOM      3  C   UNL A   1      31.772  29.332  24.223  1.00  0.00     0.239 C 
ATOM      4  O   UNL A   1      31.135  28.858  23.278  1.00  0.00    -0.273 OA
ATOM      5  H   UNL A   1      30.370  30.709  24.556  1.00  0.00     0.163 HD
BRANCH   3   6
ATOM      6  C   UNL A   1      33.163  28.782  24.581  1.00  0.00     0.220 C 
BRANCH   6   7
ATOM      7  N   UNL A   1      33.155  27.590  25.427  1.00  0.00    -0.319 N 
BRANCH   7   8
ATOM      8  C   UNL A   1      33.261  27.814  26.864  1.00  0.00     0.210 C 
BRANCH   8   9
ATOM      9  C   UNL A   1      34.247  28.903  27.254  1.00  0.00    -0.085 C 
ATOM     10  C   UNL A   1      35.092  29.837  27.589  1.00  0.00     0.006 C 
ENDBRANCH   8   9
ENDBRANCH   7   8
BRANCH   7  11
ATOM     11  C   UNL A   1      33.081  26.275  25.002  1.00  0.00     0.247 C 
ATOM     12  O   UNL A   1      32.050  25.838  24.478  1.00  0.00    -0.270 OA
BRANCH  11  13
ATOM     13  C   UNL A   1      34.164  25.261  25.198  1.00  0.00     0.073 C 
ATOM     14  C   UNL A   1      34.893  24.519  24.354  1.00  0.00     0.033 C 
BRANCH  14  15
ATOM     15  C   UNL A   1      35.854  23.603  24.853  1.00  0.00     0.061 A 
ATOM     16  C   UNL A   1      37.142  23.746  25.323  1.00  0.00     0.050 A 
ATOM     17  N   UNL A   1      35.558  22.265  24.994  1.00  0.00    -0.269 N 
ATOM     18  C   UNL A   1      37.516  22.464  25.763  1.00  0.00     0.136 A 
ATOM     19  N   UNL A   1      36.560  21.558  25.560  1.00  0.00    -0.181 NA
ATOM     20  C   UNL A   1      34.366  21.561  24.579  1.00  0.00     0.174 C 
ENDBRANCH  14  15
ENDBRANCH  11  13
ENDBRANCH   7  11
ENDBRANCH   6   7
ENDBRANCH   3   6
ENDBRANCH   1   2
BRANCH   1  21
ATOM     21  C   UNL A   1      31.404  32.232  26.497  1.00  0.00     0.042 C 
BRANCH  21  22
ATOM     22  C   UNL A   1      32.626  32.822  27.197  1.00  0.00     0.118 C 
BRANCH  22  23
ATOM     23  N   UNL A   1      32.423  34.201  27.624  1.00  0.00    -0.352 N 
ATOM     24  C   UNL A   1      33.019  34.938  28.614  1.00  0.00     0.251 C 
ATOM     25  H   UNL A   1      31.739  34.688  27.111  1.00  0.00     0.163 HD
ATOM     26  O   UNL A   1      32.526  36.026  28.927  1.00  0.00    -0.269 OA
BRANCH  24  27
ATOM     27  C   UNL A   1      34.220  34.456  29.326  1.00  0.00     0.039 A 
ATOM     28  C   UNL A   1      34.065  33.882  30.594  1.00  0.00     0.014 A 
ATOM     29  C   UNL A   1      35.500  34.612  28.788  1.00  0.00     0.014 A 
ATOM     30  C   UNL A   1      35.178  33.389  31.279  1.00  0.00     0.010 A 
ATOM     31  C   UNL A   1      36.601  34.063  29.442  1.00  0.00     0.010 A 
ATOM     32  C   UNL A   1      36.450  33.433  30.686  1.00  0.00    -0.014 A 
BRANCH  32  33
ATOM     33  C   UNL A   1      37.623  32.781  31.323  1.00  0.00     0.031 A 
ATOM     34  C   UNL A   1      38.288  31.600  30.677  1.00  0.00     0.074 A 
ATOM     35  C   UNL A   1      38.027  33.202  32.538  1.00  0.00     0.049 A 
ATOM     36  N   UNL A   1      39.241  30.831  31.141  1.00  0.00    -0.248 NA
ATOM     37  C   UNL A   1      37.803  31.217  29.343  1.00  0.00     0.031 C 
ATOM     38  C   UNL A   1      37.434  34.312  33.284  1.00  0.00     0.029 A 
ATOM     39  N   UNL A   1      39.013  32.732  33.368  1.00  0.00    -0.354 N 
ATOM     40  C   UNL A   1      39.460  29.868  30.167  1.00  0.00     0.074 A 
ATOM     41  C   UNL A   1      38.515  30.124  29.100  1.00  0.00     0.031 C 
ATOM     42  C   UNL A   1      38.070  34.442  34.459  1.00  0.00     0.029 A 
ATOM     43  C   UNL A   1      39.083  33.397  34.567  1.00  0.00     0.049 A 
ATOM     44  H   UNL A   1      39.612  31.989  33.128  1.00  0.00     0.167 HD
ATOM     45  C   UNL A   1      40.376  28.869  30.158  1.00  0.00     0.037 A 
ATOM     46  C   UNL A   1      39.860  33.177  35.644  1.00  0.00     0.037 A 
ATOM     47  C   UNL A   1      41.328  28.630  31.213  1.00  0.00     0.049 A 
ATOM     48  C   UNL A   1      40.849  32.045  35.619  1.00  0.00     0.074 A 
ATOM     49  C   UNL A   1      42.348  27.696  31.259  1.00  0.00     0.029 A 
ATOM     50  N   UNL A   1      41.370  29.326  32.412  1.00  0.00    -0.354 N 
ATOM     51  N   UNL A   1      41.095  31.184  34.663  1.00  0.00    -0.248 NA
ATOM     52  C   UNL A   1      41.665  31.852  36.826  1.00  0.00     0.031 C 
ATOM     53  C   UNL A   1      42.975  27.792  32.507  1.00  0.00     0.029 A 
ATOM     54  C   UNL A   1      42.375  28.818  33.219  1.00  0.00     0.049 A 
ATOM     55  H   UNL A   1      40.773  30.071  32.654  1.00  0.00     0.167 HD
ATOM     56  C   UNL A   1      42.100  30.357  35.144  1.00  0.00     0.074 A 
ATOM     57  C   UNL A   1      42.435  30.833  36.470  1.00  0.00     0.031 C 
ATOM     58  C   UNL A   1      42.689  29.295  34.542  1.00  0.00     0.037 A 
BRANCH  45  59
ATOM     59  C   UNL A   1      40.396  27.953  28.970  1.00  0.00     0.064 A 
ATOM     60  C   UNL A   1      41.172  28.236  27.836  1.00  0.00     0.173 A 
ATOM     61  C   UNL A   1      39.669  26.753  28.983  1.00  0.00     0.173 A 
ATOM     62  F   UNL A   1      41.880  29.374  27.768  1.00  0.00    -0.203 F 
ATOM     63  C   UNL A   1      41.199  27.364  26.749  1.00  0.00     0.198 A 
ATOM     64  C   UNL A   1      39.719  25.870  27.907  1.00  0.00     0.198 A 
ATOM     65  F   UNL A   1      38.917  26.430  30.046  1.00  0.00    -0.203 F 
ATOM     66  F   UNL A   1      41.915  27.676  25.659  1.00  0.00    -0.200 F 
ATOM     67  C   UNL A   1      40.479  26.180  26.789  1.00  0.00     0.200 A 
ATOM     68  F   UNL A   1      39.033  24.720  27.952  1.00  0.00    -0.200 F 
ATOM     69  F   UNL A   1      40.513  25.339  25.746  1.00  0.00    -0.200 F 
ENDBRANCH  45  59
BRANCH  46  70
ATOM     70  C   UNL A   1      39.729  34.049  36.840  1.00  0.00     0.064 A 
ATOM     71  C   UNL A   1      38.914  33.672  37.916  1.00  0.00     0.173 A 
ATOM     72  C   UNL A   1      40.417  35.267  36.936  1.00  0.00     0.173 A 
ATOM     73  F   UNL A   1      38.220  32.527  37.861  1.00  0.00    -0.203 F 
ATOM     74  C   UNL A   1      38.782  34.488  39.038  1.00  0.00     0.198 A 
ATOM     75  C   UNL A   1      40.305  36.070  38.069  1.00  0.00     0.198 A 
ATOM     76  F   UNL A   1      41.211  35.670  35.932  1.00  0.00    -0.203 F 
ATOM     77  F   UNL A   1      37.966  34.123  40.036  1.00  0.00    -0.200 F 
ATOM     78  C   UNL A   1      39.482  35.683  39.116  1.00  0.00     0.200 A 
ATOM     79  F   UNL A   1      40.994  37.216  38.147  1.00  0.00    -0.200 F 
ATOM     80  F   UNL A   1      39.360  36.464  40.197  1.00  0.00    -0.200 F 
ENDBRANCH  46  70
BRANCH  58  81
ATOM     81  C   UNL A   1      43.760  28.580  35.311  1.00  0.00     0.064 A 
ATOM     82  C   UNL A   1      45.103  28.978  35.236  1.00  0.00     0.173 A 
ATOM     83  C   UNL A   1      43.438  27.508  36.158  1.00  0.00     0.173 A 
ATOM     84  F   UNL A   1      45.463  29.986  34.426  1.00  0.00    -0.203 F 
ATOM     85  C   UNL A   1      46.087  28.317  35.964  1.00  0.00     0.198 A 
ATOM     86  C   UNL A   1      44.421  26.867  36.907  1.00  0.00     0.198 A 
ATOM     87  F   UNL A   1      42.168  27.091  36.268  1.00  0.00    -0.203 F 
ATOM     88  F   UNL A   1      47.370  28.687  35.843  1.00  0.00    -0.200 F 
ATOM     89  C   UNL A   1      45.746  27.268  36.805  1.00  0.00     0.200 A 
ATOM     90  F   UNL A   1      44.088  25.861  37.726  1.00  0.00    -0.200 F 
ATOM     91  F   UNL A   1      46.694  26.637  37.511  1.00  0.00    -0.200 F 
ENDBRANCH  58  81
ENDBRANCH  32  33
ENDBRANCH  24  27
ENDBRANCH  22  23
ENDBRANCH  21  22
ENDBRANCH   1  21
TORSDOF 16
ENDMDL
MODEL 2
REMARK VINA RESULT:     -11.0      1.542      3.902
REMARK SMILES C#CCN(CC(=O)NCCCNC(=O)c1ccc(-c2c3nc(c(-c4c(F)c(F)c(F)c(F)c4F)c4ccc([nH]4)c(-c4c(F)c(F)c(F)c(F)c4F)c4nc(c(-c5c(F)c(F)c(F)c(F)c5F)c5ccc2[nH]5)C=C4)C=C3)cc1)C(=O)/C=C/c1ccnn1C
REMARK SMILES IDX 9 1 8 2 6 3 7 4 5 6 4 7 3 8 2 9 1 10 78 11 79 12 80 13 81 14
REMARK SMILES IDX 82 15 83 16 86 17 84 18 85 19 87 20 10 21 11 22 12 23 13 24
REMARK SMILES IDX 14 26 15 27 16 28 77 29 17 30 76 31 18 32 19 33 20 34 70 35
REMARK SMILES IDX 21 36 75 37 69 38 71 39 22 40 74 41 68 42 67 43 23 45 55 46
REMARK SMILES IDX 35 47 54 48 36 49 39 50 53 51 72 52 37 53 38 54 52 56 73 57
REMARK SMILES IDX 40 58 24 59 25 60 33 61 26 62 27 63 31 64 34 65 28 66 29 67
REMARK SMILES IDX 32 68 30 69 56 70 57 71 65 72 58 73 59 74 63 75 66 76 60 77
REMARK SMILES IDX 61 78 64 79 62 80 41 81 42 82 50 83 43 84 44 85 48 86 51 87
REMARK SMILES IDX 45 88 46 89 49 90 47 91
REMARK H PARENT 8 5 12 25 71 44 39 55
REMARK Flexibility Score: inf
ROOT
ATOM      1  C   UNL A   1      31.349  30.778  26.312  1.00  0.00     0.117 C 
ENDROOT
BRANCH   1   2
ATOM      2  N   UNL A   1      32.653  30.217  26.020  1.00  0.00    -0.354 N 
ATOM      3  C   UNL A   1      32.977  29.044  25.408  1.00  0.00     0.239 C 
ATOM      4  O   UNL A   1      34.116  28.954  24.937  1.00  0.00    -0.273 OA
ATOM      5  H   UNL A   1      33.419  30.766  26.307  1.00  0.00     0.163 HD
BRANCH   3   6
ATOM      6  C   UNL A   1      31.951  27.919  25.186  1.00  0.00     0.220 C 
BRANCH   6   7
ATOM      7  N   UNL A   1      31.828  27.461  23.803  1.00  0.00    -0.319 N 
BRANCH   7   8
ATOM      8  C   UNL A   1      32.739  26.401  23.387  1.00  0.00     0.210 C 
BRANCH   8   9
ATOM      9  C   UNL A   1      33.161  25.466  24.509  1.00  0.00    -0.085 C 
ATOM     10  C   UNL A   1      33.523  24.664  25.472  1.00  0.00     0.006 C 
ENDBRANCH   8   9
ENDBRANCH   7   8
BRANCH   7  11
ATOM     11  C   UNL A   1      30.954  27.946  22.847  1.00  0.00     0.247 C 
ATOM     12  O   UNL A   1      30.700  27.288  21.832  1.00  0.00    -0.270 OA
BRANCH  11  13
ATOM     13  C   UNL A   1      30.314  29.299  22.895  1.00  0.00     0.073 C 
ATOM     14  C   UNL A   1      29.381  29.902  22.147  1.00  0.00     0.033 C 
BRANCH  14  15
ATOM     15  C   UNL A   1      28.987  31.234  22.430  1.00  0.00     0.061 A 
ATOM     16  C   UNL A   1      29.126  32.047  23.536  1.00  0.00     0.050 A 
ATOM     17  N   UNL A   1      28.365  32.012  21.478  1.00  0.00    -0.269 N 
ATOM     18  C   UNL A   1      28.607  33.292  23.142  1.00  0.00     0.136 A 
ATOM     19  N   UNL A   1      28.138  33.276  21.894  1.00  0.00    -0.181 NA
ATOM     20  C   UNL A   1      27.910  31.627  20.162  1.00  0.00     0.174 C 
ENDBRANCH  14  15
ENDBRANCH  11  13
ENDBRANCH   7  11
ENDBRANCH   6   7
ENDBRANCH   3   6
ENDBRANCH   1   2
BRANCH   1  21
ATOM     21  C   UNL A   1      31.357  32.294  26.481  1.00  0.00     0.042 C 
BRANCH  21  22
ATOM     22  C   UNL A   1      32.560  32.845  27.245  1.00  0.00     0.118 C 
BRANCH  22  23
ATOM     23  N   UNL A   1      32.387  34.236  27.646  1.00  0.00    -0.352 N 
ATOM     24  C   UNL A   1      33.005  34.981  28.615  1.00  0.00     0.251 C 
ATOM     25  H   UNL A   1      31.708  34.726  27.129  1.00  0.00     0.163 HD
ATOM     26  O   UNL A   1      32.536  36.085  28.910  1.00  0.00    -0.269 OA
BRANCH  24  27
ATOM     27  C   UNL A   1      34.202  34.491  29.328  1.00  0.00     0.039 A 
ATOM     28  C   UNL A   1      34.046  33.934  30.603  1.00  0.00     0.014 A 
ATOM     29  C   UNL A   1      35.482  34.623  28.782  1.00  0.00     0.014 A 
ATOM     30  C   UNL A   1      35.155  33.433  31.288  1.00  0.00     0.010 A 
ATOM     31  C   UNL A   1      36.579  34.065  29.437  1.00  0.00     0.010 A 
ATOM     32  C   UNL A   1      36.425  33.452  30.689  1.00  0.00    -0.014 A 
BRANCH  32  33
ATOM     33  C   UNL A   1      37.591  32.790  31.328  1.00  0.00     0.031 A 
ATOM     34  C   UNL A   1      38.254  31.610  30.679  1.00  0.00     0.074 A 
ATOM     35  C   UNL A   1      37.991  33.203  32.547  1.00  0.00     0.049 A 
ATOM     36  N   UNL A   1      39.201  30.834  31.143  1.00  0.00    -0.248 NA
ATOM     37  C   UNL A   1      37.774  31.236  29.340  1.00  0.00     0.031 C 
ATOM     38  C   UNL A   1      37.400  34.312  33.297  1.00  0.00     0.029 A 
ATOM     39  N   UNL A   1      38.970  32.723  33.379  1.00  0.00    -0.354 N 
ATOM     40  C   UNL A   1      39.420  29.875  30.165  1.00  0.00     0.074 A 
ATOM     41  C   UNL A   1      38.481  30.142  29.095  1.00  0.00     0.031 C 
ATOM     42  C   UNL A   1      38.030  34.432  34.476  1.00  0.00     0.029 A 
ATOM     43  C   UNL A   1      39.038  33.381  34.583  1.00  0.00     0.049 A 
ATOM     44  H   UNL A   1      39.568  31.978  33.138  1.00  0.00     0.167 HD
ATOM     45  C   UNL A   1      40.331  28.872  30.155  1.00  0.00     0.037 A 
ATOM     46  C   UNL A   1      39.808  33.152  35.663  1.00  0.00     0.037 A 
ATOM     47  C   UNL A   1      41.277  28.623  31.213  1.00  0.00     0.049 A 
ATOM     48  C   UNL A   1      40.792  32.015  35.636  1.00  0.00     0.074 A 
ATOM     49  C   UNL A   1      42.292  27.683  31.259  1.00  0.00     0.029 A 
ATOM     50  N   UNL A   1      41.316  29.312  32.416  1.00  0.00    -0.354 N 
ATOM     51  N   UNL A   1      41.039  31.158  34.677  1.00  0.00    -0.248 NA
ATOM     52  C   UNL A   1      41.601  31.812  36.846  1.00  0.00     0.031 C 
ATOM     53  C   UNL A   1      42.913  27.770  32.510  1.00  0.00     0.029 A 
ATOM     54  C   UNL A   1      42.315  28.794  33.225  1.00  0.00     0.049 A 
ATOM     55  H   UNL A   1      40.721  30.058  32.660  1.00  0.00     0.167 HD
ATOM     56  C   UNL A   1      42.037  30.324  35.158  1.00  0.00     0.074 A 
ATOM     57  C   UNL A   1      42.368  30.791  36.488  1.00  0.00     0.031 C 
ATOM     58  C   UNL A   1      42.624  29.262  34.553  1.00  0.00     0.037 A 
BRANCH  45  59
ATOM     59  C   UNL A   1      40.353  27.962  28.962  1.00  0.00     0.064 A 
ATOM     60  C   UNL A   1      41.122  28.257  27.826  1.00  0.00     0.173 A 
ATOM     61  C   UNL A   1      39.634  26.757  28.972  1.00  0.00     0.173 A 
ATOM     62  F   UNL A   1      41.821  29.400  27.761  1.00  0.00    -0.203 F 
ATOM     63  C   UNL A   1      41.150  27.391  26.735  1.00  0.00     0.198 A 
ATOM     64  C   UNL A   1      39.686  25.881  27.891  1.00  0.00     0.198 A 
ATOM     65  F   UNL A   1      38.889  26.424  30.036  1.00  0.00    -0.203 F 
ATOM     66  F   UNL A   1      41.859  27.714  25.644  1.00  0.00    -0.200 F 
ATOM     67  C   UNL A   1      40.439  26.201  26.771  1.00  0.00     0.200 A 
ATOM     68  F   UNL A   1      39.008  24.725  27.932  1.00  0.00    -0.200 F 
ATOM     69  F   UNL A   1      40.474  25.366  25.724  1.00  0.00    -0.200 F 
ENDBRANCH  45  59
BRANCH  46  70
ATOM     70  C   UNL A   1      39.675  34.018  36.863  1.00  0.00     0.064 A 
ATOM     71  C   UNL A   1      40.355  35.240  36.944  1.00  0.00     0.173 A 
ATOM     72  C   UNL A   1      38.865  33.646  37.945  1.00  0.00     0.173 A 
ATOM     73  F   UNL A   1      41.158  35.627  35.944  1.00  0.00    -0.203 F 
ATOM     74  C   UNL A   1      40.239  36.053  38.070  1.00  0.00     0.198 A 
ATOM     75  C   UNL A   1      38.729  34.472  39.059  1.00  0.00     0.198 A 
ATOM     76  F   UNL A   1      38.192  32.485  37.913  1.00  0.00    -0.203 F 
ATOM     77  F   UNL A   1      40.931  37.199  38.139  1.00  0.00    -0.200 F 
ATOM     78  C   UNL A   1      39.422  35.671  39.124  1.00  0.00     0.200 A 
ATOM     79  F   UNL A   1      37.927  34.106  40.068  1.00  0.00    -0.200 F 
ATOM     80  F   UNL A   1      39.306  36.456  40.202  1.00  0.00    -0.200 F 
ENDBRANCH  46  70
BRANCH  58  81
ATOM     81  C   UNL A   1      43.688  28.538  35.323  1.00  0.00     0.064 A 
ATOM     82  C   UNL A   1      45.045  28.865  35.180  1.00  0.00     0.173 A 
ATOM     83  C   UNL A   1      43.348  27.530  36.239  1.00  0.00     0.173 A 
ATOM     84  F   UNL A   1      45.422  29.809  34.303  1.00  0.00    -0.203 F 
ATOM     85  C   UNL A   1      46.023  28.197  35.909  1.00  0.00     0.198 A 
ATOM     86  C   UNL A   1      44.326  26.883  36.988  1.00  0.00     0.198 A 
ATOM     87  F   UNL A   1      42.064  27.183  36.415  1.00  0.00    -0.203 F 
ATOM     88  F   UNL A   1      47.316  28.495  35.724  1.00  0.00    -0.200 F 
ATOM     89  C   UNL A   1      45.663  27.212  36.818  1.00  0.00     0.200 A 
ATOM     90  F   UNL A   1      43.977  25.940  37.872  1.00  0.00    -0.200 F 
ATOM     91  F   UNL A   1      46.607  26.574  37.525  1.00  0.00    -0.200 F 
ENDBRANCH  58  81
ENDBRANCH  32  33
ENDBRANCH  24  27
ENDBRANCH  22  23
ENDBRANCH  21  22
ENDBRANCH   1  21
TORSDOF 16
ENDMDL
MODEL 3
REMARK VINA RESULT:     -11.0      5.949     11.334
REMARK SMILES C#CCN(CC(=O)NCCCNC(=O)c1ccc(-c2c3nc(c(-c4c(F)c(F)c(F)c(F)c4F)c4ccc([nH]4)c(-c4c(F)c(F)c(F)c(F)c4F)c4nc(c(-c5c(F)c(F)c(F)c(F)c5F)c5ccc2[nH]5)C=C4)C=C3)cc1)C(=O)/C=C/c1ccnn1C
REMARK SMILES IDX 9 1 8 2 6 3 7 4 5 6 4 7 3 8 2 9 1 10 78 11 79 12 80 13 81 14
REMARK SMILES IDX 82 15 83 16 86 17 84 18 85 19 87 20 10 21 11 22 12 23 13 24
REMARK SMILES IDX 14 26 15 27 16 28 77 29 17 30 76 31 18 32 19 33 20 34 70 35
REMARK SMILES IDX 21 36 75 37 69 38 71 39 22 40 74 41 68 42 67 43 23 45 55 46
REMARK SMILES IDX 35 47 54 48 36 49 39 50 53 51 72 52 37 53 38 54 52 56 73 57
REMARK SMILES IDX 40 58 24 59 25 60 33 61 26 62 27 63 31 64 34 65 28 66 29 67
REMARK SMILES IDX 32 68 30 69 56 70 57 71 65 72 58 73 59 74 63 75 66 76 60 77
REMARK SMILES IDX 61 78 64 79 62 80 41 81 42 82 50 83 43 84 44 85 48 86 51 87
REMARK SMILES IDX 45 88 46 89 49 90 47 91
REMARK H PARENT 8 5 12 25 71 44 39 55
REMARK Flexibility Score: inf
ROOT
ATOM      1  C   UNL A   1      36.781  20.655  24.950  1.00  0.00     0.117 C 
ENDROOT
BRANCH   1   2
ATOM      2  N   UNL A   1      37.163  22.052  24.913  1.00  0.00    -0.354 N 
ATOM      3  C   UNL A   1      36.603  23.124  25.543  1.00  0.00     0.239 C 
ATOM      4  O   UNL A   1      37.307  24.131  25.665  1.00  0.00    -0.273 OA
ATOM      5  H   UNL A   1      37.943  22.259  24.349  1.00  0.00     0.163 HD
BRANCH   3   6
ATOM      6  C   UNL A   1      35.210  23.062  26.192  1.00  0.00     0.220 C 
BRANCH   6   7
ATOM      7  N   UNL A   1      34.090  23.136  25.254  1.00  0.00    -0.319 N 
BRANCH   7   8
ATOM      8  C   UNL A   1      33.939  24.388  24.521  1.00  0.00     0.210 C 
BRANCH   8   9
ATOM      9  C   UNL A   1      33.597  25.584  25.395  1.00  0.00    -0.085 C 
ATOM     10  C   UNL A   1      33.303  26.610  26.144  1.00  0.00     0.006 C 
ENDBRANCH   8   9
ENDBRANCH   7   8
BRANCH   7  11
ATOM     11  C   UNL A   1      33.150  22.151  25.011  1.00  0.00     0.247 C 
ATOM     12  O   UNL A   1      31.947  22.366  25.194  1.00  0.00    -0.270 OA
BRANCH  11  13
ATOM     13  C   UNL A   1      33.481  20.751  24.596  1.00  0.00     0.073 C 
ATOM     14  C   UNL A   1      32.825  19.586  24.685  1.00  0.00     0.033 C 
BRANCH  14  15
ATOM     15  C   UNL A   1      33.423  18.390  24.214  1.00  0.00     0.061 A 
ATOM     16  C   UNL A   1      34.364  17.530  24.742  1.00  0.00     0.050 A 
ATOM     17  N   UNL A   1      33.049  17.831  23.011  1.00  0.00    -0.269 N 
ATOM     18  C   UNL A   1      34.453  16.473  23.820  1.00  0.00     0.136 A 
ATOM     19  N   UNL A   1      33.661  16.653  22.763  1.00  0.00    -0.181 NA
ATOM     20  C   UNL A   1      32.151  18.365  22.014  1.00  0.00     0.174 C 
ENDBRANCH  14  15
ENDBRANCH  11  13
ENDBRANCH   7  11
ENDBRANCH   6   7
ENDBRANCH   3   6
ENDBRANCH   1   2
BRANCH   1  21
ATOM     21  C   UNL A   1      37.966  19.697  25.005  1.00  0.00     0.042 C 
BRANCH  21  22
ATOM     22  C   UNL A   1      39.145  20.185  25.844  1.00  0.00     0.118 C 
BRANCH  22  23
ATOM     23  N   UNL A   1      40.215  19.201  25.947  1.00  0.00    -0.352 N 
ATOM     24  C   UNL A   1      41.569  19.348  26.094  1.00  0.00     0.251 C 
ATOM     25  H   UNL A   1      39.911  18.265  25.902  1.00  0.00     0.163 HD
ATOM     26  O   UNL A   1      42.297  18.363  25.941  1.00  0.00    -0.269 OA
BRANCH  24  27
ATOM     27  C   UNL A   1      42.178  20.656  26.411  1.00  0.00     0.039 A 
ATOM     28  C   UNL A   1      42.607  21.472  25.357  1.00  0.00     0.014 A 
ATOM     29  C   UNL A   1      42.384  21.065  27.731  1.00  0.00     0.014 A 
ATOM     30  C   UNL A   1      43.159  22.727  25.624  1.00  0.00     0.010 A 
ATOM     31  C   UNL A   1      42.874  22.343  27.995  1.00  0.00     0.010 A 
ATOM     32  C   UNL A   1      43.252  23.193  26.945  1.00  0.00    -0.014 A 
BRANCH  32  33
ATOM     33  C   UNL A   1      43.691  24.579  27.248  1.00  0.00     0.031 A 
ATOM     34  C   UNL A   1      42.709  25.605  27.733  1.00  0.00     0.074 A 
ATOM     35  C   UNL A   1      44.966  24.933  26.991  1.00  0.00     0.049 A 
ATOM     36  N   UNL A   1      42.883  26.888  27.931  1.00  0.00    -0.248 NA
ATOM     37  C   UNL A   1      41.344  25.134  28.009  1.00  0.00     0.031 C 
ATOM     38  C   UNL A   1      46.003  24.036  26.479  1.00  0.00     0.029 A 
ATOM     39  N   UNL A   1      45.600  26.144  27.102  1.00  0.00    -0.354 N 
ATOM     40  C   UNL A   1      41.651  27.379  28.340  1.00  0.00     0.074 A 
ATOM     41  C   UNL A   1      40.727  26.265  28.326  1.00  0.00     0.031 C 
ATOM     42  C   UNL A   1      47.144  24.725  26.324  1.00  0.00     0.029 A 
ATOM     43  C   UNL A   1      46.908  26.120  26.683  1.00  0.00     0.049 A 
ATOM     44  H   UNL A   1      45.160  26.955  27.447  1.00  0.00     0.167 HD
ATOM     45  C   UNL A   1      41.326  28.642  28.708  1.00  0.00     0.037 A 
ATOM     46  C   UNL A   1      47.810  27.112  26.576  1.00  0.00     0.037 A 
ATOM     47  C   UNL A   1      42.255  29.744  28.740  1.00  0.00     0.049 A 
ATOM     48  C   UNL A   1      47.415  28.511  26.964  1.00  0.00     0.074 A 
ATOM     49  C   UNL A   1      42.040  31.040  29.174  1.00  0.00     0.029 A 
ATOM     50  N   UNL A   1      43.572  29.679  28.309  1.00  0.00    -0.354 N 
ATOM     51  N   UNL A   1      46.267  28.949  27.417  1.00  0.00    -0.248 NA
ATOM     52  C   UNL A   1      48.442  29.551  26.821  1.00  0.00     0.031 C 
ATOM     53  C   UNL A   1      43.213  31.774  28.961  1.00  0.00     0.029 A 
ATOM     54  C   UNL A   1      44.171  30.923  28.436  1.00  0.00     0.049 A 
ATOM     55  H   UNL A   1      44.015  28.870  27.965  1.00  0.00     0.167 HD
ATOM     56  C   UNL A   1      46.434  30.310  27.626  1.00  0.00     0.074 A 
ATOM     57  C   UNL A   1      47.804  30.623  27.271  1.00  0.00     0.031 C 
ATOM     58  C   UNL A   1      45.532  31.221  28.067  1.00  0.00     0.037 A 
BRANCH  45  59
ATOM     59  C   UNL A   1      39.904  28.908  29.106  1.00  0.00     0.064 A 
ATOM     60  C   UNL A   1      38.944  29.325  28.172  1.00  0.00     0.173 A 
ATOM     61  C   UNL A   1      39.484  28.698  30.428  1.00  0.00     0.173 A 
ATOM     62  F   UNL A   1      39.294  29.548  26.897  1.00  0.00    -0.203 F 
ATOM     63  C   UNL A   1      37.622  29.546  28.553  1.00  0.00     0.198 A 
ATOM     64  C   UNL A   1      38.156  28.893  30.800  1.00  0.00     0.198 A 
ATOM     65  F   UNL A   1      40.361  28.292  31.360  1.00  0.00    -0.203 F 
ATOM     66  F   UNL A   1      36.731  29.984  27.652  1.00  0.00    -0.200 F 
ATOM     67  C   UNL A   1      37.228  29.322  29.864  1.00  0.00     0.200 A 
ATOM     68  F   UNL A   1      37.774  28.665  32.065  1.00  0.00    -0.200 F 
ATOM     69  F   UNL A   1      35.954  29.527  30.226  1.00  0.00    -0.200 F 
ENDBRANCH  45  59
BRANCH  46  70
ATOM     70  C   UNL A   1      49.178  26.817  26.075  1.00  0.00     0.064 A 
ATOM     71  C   UNL A   1      49.490  26.960  24.717  1.00  0.00     0.173 A 
ATOM     72  C   UNL A   1      50.198  26.396  26.941  1.00  0.00     0.173 A 
ATOM     73  F   UNL A   1      48.542  27.339  23.849  1.00  0.00    -0.203 F 
ATOM     74  C   UNL A   1      50.769  26.679  24.240  1.00  0.00     0.198 A 
ATOM     75  C   UNL A   1      51.483  26.140  26.468  1.00  0.00     0.198 A 
ATOM     76  F   UNL A   1      49.948  26.247  28.251  1.00  0.00    -0.203 F 
ATOM     77  F   UNL A   1      51.030  26.785  22.930  1.00  0.00    -0.200 F 
ATOM     78  C   UNL A   1      51.765  26.275  25.117  1.00  0.00     0.200 A 
ATOM     79  F   UNL A   1      52.446  25.765  27.319  1.00  0.00    -0.200 F 
ATOM     80  F   UNL A   1      52.996  26.012  24.659  1.00  0.00    -0.200 F 
ENDBRANCH  46  70
BRANCH  58  81
ATOM     81  C   UNL A   1      46.000  32.640  28.197  1.00  0.00     0.064 A 
ATOM     82  C   UNL A   1      45.826  33.565  27.156  1.00  0.00     0.173 A 
ATOM     83  C   UNL A   1      46.598  33.091  29.383  1.00  0.00     0.173 A 
ATOM     84  F   UNL A   1      45.276  33.177  25.994  1.00  0.00    -0.203 F 
ATOM     85  C   UNL A   1      46.251  34.883  27.291  1.00  0.00     0.198 A 
ATOM     86  C   UNL A   1      46.997  34.417  29.526  1.00  0.00     0.198 A 
ATOM     87  F   UNL A   1      46.784  32.246  30.409  1.00  0.00    -0.203 F 
ATOM     88  F   UNL A   1      46.114  35.737  26.268  1.00  0.00    -0.200 F 
ATOM     89  C   UNL A   1      46.829  35.310  28.478  1.00  0.00     0.200 A 
ATOM     90  F   UNL A   1      47.545  34.831  30.676  1.00  0.00    -0.200 F 
ATOM     91  F   UNL A   1      47.231  36.582  28.608  1.00  0.00    -0.200 F 
ENDBRANCH  58  81
ENDBRANCH  32  33
ENDBRANCH  24  27
ENDBRANCH  22  23
ENDBRANCH  21  22
ENDBRANCH   1  21
TORSDOF 16
ENDMDL
