MODEL 1
REMARK VINA RESULT:     -12.1      0.000      0.000
REMARK SMILES CC[NH2+][C@]1(C(=O)NCCCNC(=O)c2ccc(-c3c4nc(c(-c5c(F)c(F)c(F)c(F)c5F)c5ccc([nH]5)c(-c5c(F)c(F)c(F)c(F)c5F)c5nc(c(-c6c(F)c(F)c(F)c(F)c6F)c6ccc3[nH]6)C=C5)C=C4)cc2)CCC[C@@H]([N@@H+](C)CC2CCCC2)C1
REMARK SMILES IDX 8 1 7 2 5 3 6 4 4 6 77 7 89 8 78 9 80 10 79 11 3 12 2 15
REMARK SMILES IDX 1 16 81 17 82 18 83 20 84 21 85 22 88 23 86 24 87 25 9 26
REMARK SMILES IDX 10 27 11 28 12 29 13 31 14 32 15 33 76 34 16 35 75 36 17 37
REMARK SMILES IDX 18 38 19 39 69 40 20 41 74 42 68 43 70 44 21 45 73 46 67 47
REMARK SMILES IDX 66 48 22 50 54 51 34 52 53 53 35 54 38 55 52 56 71 57 36 58
REMARK SMILES IDX 37 59 51 61 72 62 39 63 23 64 24 65 32 66 25 67 26 68 30 69
REMARK SMILES IDX 33 70 27 71 28 72 31 73 29 74 55 75 56 76 64 77 57 78 58 79
REMARK SMILES IDX 62 80 65 81 59 82 60 83 63 84 61 85 40 86 41 87 49 88 42 89
REMARK SMILES IDX 43 90 47 91 50 92 44 93 45 94 48 95 46 96
REMARK H PARENT 7 5 3 13 3 14 81 19 11 30 70 49 38 60
REMARK Flexibility Score: inf
ROOT
ATOM      1  C   UNL A   1      31.762  30.785  26.059  1.00  0.00     0.118 C 
ENDROOT
BRANCH   1   2
ATOM      2  N   UNL A   1      31.630  29.696  27.007  1.00  0.00    -0.351 N 
ATOM      3  C   UNL A   1      31.751  28.346  26.950  1.00  0.00     0.281 C 
ATOM      4  O   UNL A   1      31.536  27.787  28.036  1.00  0.00    -0.268 OA
ATOM      5  H   UNL A   1      31.396  30.013  27.909  1.00  0.00     0.163 HD
BRANCH   3   6
ATOM      6  C   UNL A   1      32.020  27.492  25.636  1.00  0.00     0.181 C 
ATOM      7  C   UNL A   1      33.188  28.027  24.787  1.00  0.00     0.079 C 
ATOM      8  C   UNL A   1      32.415  26.086  26.209  1.00  0.00     0.144 C 
ATOM      9  C   UNL A   1      33.788  27.077  23.758  1.00  0.00     0.013 C 
ATOM     10  C   UNL A   1      33.042  25.097  25.213  1.00  0.00     0.190 C 
ATOM     11  C   UNL A   1      34.163  25.761  24.398  1.00  0.00     0.065 C 
BRANCH   6  12
ATOM     12  N   UNL A   1      30.705  27.427  24.929  1.00  0.00    -0.334 N 
ATOM     13  H   UNL A   1      30.627  26.495  24.523  1.00  0.00     0.347 HD
ATOM     14  H   UNL A   1      30.023  27.662  25.650  1.00  0.00     0.347 HD
BRANCH  12  15
ATOM     15  C   UNL A   1      30.442  28.383  23.864  1.00  0.00     0.257 C 
ATOM     16  C   UNL A   1      30.319  27.700  22.511  1.00  0.00     0.071 C 
ENDBRANCH  12  15
ENDBRANCH   6  12
BRANCH  10  17
ATOM     17  N   UNL A   1      33.412  23.814  25.872  1.00  0.00    -0.334 N 
ATOM     18  C   UNL A   1      32.474  23.426  26.922  1.00  0.00     0.332 C 
ATOM     19  H   UNL A   1      34.305  24.086  26.282  1.00  0.00     0.348 HD
BRANCH  17  20
ATOM     20  C   UNL A   1      33.829  22.657  25.051  1.00  0.00     0.265 C 
BRANCH  20  21
ATOM     21  C   UNL A   1      35.338  22.442  24.882  1.00  0.00     0.044 C 
ATOM     22  C   UNL A   1      36.171  23.187  25.931  1.00  0.00     0.009 C 
ATOM     23  C   UNL A   1      35.895  21.031  25.030  1.00  0.00     0.009 C 
ATOM     24  C   UNL A   1      37.584  22.691  25.658  1.00  0.00     0.001 C 
ATOM     25  C   UNL A   1      37.407  21.292  25.055  1.00  0.00     0.001 C 
ENDBRANCH  20  21
ENDBRANCH  17  20
ENDBRANCH  10  17
ENDBRANCH   3   6
ENDBRANCH   1   2
BRANCH   1  26
ATOM     26  C   UNL A   1      31.454  32.133  26.695  1.00  0.00     0.042 C 
BRANCH  26  27
ATOM     27  C   UNL A   1      32.686  32.751  27.351  1.00  0.00     0.118 C 
BRANCH  27  28
ATOM     28  N   UNL A   1      32.490  34.170  27.642  1.00  0.00    -0.352 N 
ATOM     29  C   UNL A   1      33.021  34.956  28.633  1.00  0.00     0.251 C 
ATOM     30  H   UNL A   1      31.879  34.637  27.027  1.00  0.00     0.163 HD
ATOM     31  O   UNL A   1      32.510  36.038  28.899  1.00  0.00    -0.269 OA
BRANCH  29  32
ATOM     32  C   UNL A   1      34.206  34.498  29.381  1.00  0.00     0.039 A 
ATOM     33  C   UNL A   1      34.046  33.963  30.662  1.00  0.00     0.014 A 
ATOM     34  C   UNL A   1      35.480  34.618  28.823  1.00  0.00     0.014 A 
ATOM     35  C   UNL A   1      35.156  33.465  31.346  1.00  0.00     0.010 A 
ATOM     36  C   UNL A   1      36.571  34.048  29.465  1.00  0.00     0.010 A 
ATOM     37  C   UNL A   1      36.417  33.459  30.729  1.00  0.00    -0.014 A 
BRANCH  37  38
ATOM     38  C   UNL A   1      37.592  32.813  31.363  1.00  0.00     0.031 A 
ATOM     39  C   UNL A   1      38.237  31.622  30.712  1.00  0.00     0.074 A 
ATOM     40  C   UNL A   1      38.000  33.234  32.574  1.00  0.00     0.049 A 
ATOM     41  N   UNL A   1      39.175  30.836  31.174  1.00  0.00    -0.248 NA
ATOM     42  C   UNL A   1      37.740  31.249  29.379  1.00  0.00     0.031 C 
ATOM     43  C   UNL A   1      37.418  34.351  33.320  1.00  0.00     0.029 A 
ATOM     44  N   UNL A   1      38.984  32.759  33.405  1.00  0.00    -0.354 N 
ATOM     45  C   UNL A   1      39.369  29.869  30.198  1.00  0.00     0.074 A 
ATOM     46  C   UNL A   1      38.416  30.135  29.142  1.00  0.00     0.031 C 
ATOM     47  C   UNL A   1      38.062  34.484  34.490  1.00  0.00     0.029 A 
ATOM     48  C   UNL A   1      39.065  33.430  34.600  1.00  0.00     0.049 A 
ATOM     49  H   UNL A   1      39.574  32.008  33.166  1.00  0.00     0.167 HD
ATOM     50  C   UNL A   1      40.274  28.861  30.178  1.00  0.00     0.037 A 
ATOM     51  C   UNL A   1      39.847  33.206  35.673  1.00  0.00     0.037 A 
ATOM     52  C   UNL A   1      41.230  28.618  31.227  1.00  0.00     0.049 A 
ATOM     53  C   UNL A   1      40.821  32.060  35.639  1.00  0.00     0.074 A 
ATOM     54  C   UNL A   1      42.237  27.671  31.273  1.00  0.00     0.029 A 
ATOM     55  N   UNL A   1      41.288  29.325  32.420  1.00  0.00    -0.354 N 
ATOM     56  N   UNL A   1      41.049  31.197  34.679  1.00  0.00    -0.248 NA
ATOM     57  C   UNL A   1      41.643  31.855  36.839  1.00  0.00     0.031 C 
ATOM     58  C   UNL A   1      42.869  27.767  32.517  1.00  0.00     0.029 A 
ATOM     59  C   UNL A   1      42.292  28.809  33.225  1.00  0.00     0.049 A 
ATOM     60  H   UNL A   1      40.704  30.080  32.659  1.00  0.00     0.167 HD
ATOM     61  C   UNL A   1      42.050  30.359  35.149  1.00  0.00     0.074 A 
ATOM     62  C   UNL A   1      42.402  30.831  36.472  1.00  0.00     0.031 C 
ATOM     63  C   UNL A   1      42.625  29.292  34.542  1.00  0.00     0.037 A 
BRANCH  50  64
ATOM     64  C   UNL A   1      40.275  27.947  28.988  1.00  0.00     0.064 A 
ATOM     65  C   UNL A   1      41.017  28.240  27.833  1.00  0.00     0.173 A 
ATOM     66  C   UNL A   1      39.557  26.740  29.016  1.00  0.00     0.173 A 
ATOM     67  F   UNL A   1      41.712  29.384  27.750  1.00  0.00    -0.203 F 
ATOM     68  C   UNL A   1      41.018  27.376  26.742  1.00  0.00     0.198 A 
ATOM     69  C   UNL A   1      39.586  25.864  27.935  1.00  0.00     0.198 A 
ATOM     70  F   UNL A   1      38.835  26.407  30.097  1.00  0.00    -0.203 F 
ATOM     71  F   UNL A   1      41.695  27.701  25.632  1.00  0.00    -0.200 F 
ATOM     72  C   UNL A   1      40.308  26.185  26.796  1.00  0.00     0.200 A 
ATOM     73  F   UNL A   1      38.911  24.707  27.995  1.00  0.00    -0.200 F 
ATOM     74  F   UNL A   1      40.317  25.350  25.749  1.00  0.00    -0.200 F 
ENDBRANCH  50  64
BRANCH  51  75
ATOM     75  C   UNL A   1      39.741  34.086  36.866  1.00  0.00     0.064 A 
ATOM     76  C   UNL A   1      40.453  35.291  36.936  1.00  0.00     0.173 A 
ATOM     77  C   UNL A   1      38.929  33.745  37.958  1.00  0.00     0.173 A 
ATOM     78  F   UNL A   1      41.258  35.652  35.926  1.00  0.00    -0.203 F 
ATOM     79  C   UNL A   1      40.373  36.112  38.060  1.00  0.00     0.198 A 
ATOM     80  C   UNL A   1      38.825  34.580  39.069  1.00  0.00     0.198 A 
ATOM     81  F   UNL A   1      38.221  32.606  37.939  1.00  0.00    -0.203 F 
ATOM     82  F   UNL A   1      41.099  37.236  38.118  1.00  0.00    -0.200 F 
ATOM     83  C   UNL A   1      39.554  35.758  39.122  1.00  0.00     0.200 A 
ATOM     84  F   UNL A   1      38.020  34.244  40.085  1.00  0.00    -0.200 F 
ATOM     85  F   UNL A   1      39.473  36.550  40.200  1.00  0.00    -0.200 F 
ENDBRANCH  51  75
BRANCH  63  86
ATOM     86  C   UNL A   1      43.702  28.570  35.296  1.00  0.00     0.064 A 
ATOM     87  C   UNL A   1      45.048  28.950  35.193  1.00  0.00     0.173 A 
ATOM     88  C   UNL A   1      43.378  27.522  36.172  1.00  0.00     0.173 A 
ATOM     89  F   UNL A   1      45.410  29.933  34.355  1.00  0.00    -0.203 F 
ATOM     90  C   UNL A   1      46.033  28.295  35.927  1.00  0.00     0.198 A 
ATOM     91  C   UNL A   1      44.363  26.891  36.927  1.00  0.00     0.198 A 
ATOM     92  F   UNL A   1      42.105  27.125  36.309  1.00  0.00    -0.203 F 
ATOM     93  F   UNL A   1      47.318  28.646  35.782  1.00  0.00    -0.200 F 
ATOM     94  C   UNL A   1      45.688  27.274  36.800  1.00  0.00     0.200 A 
ATOM     95  F   UNL A   1      44.026  25.914  37.781  1.00  0.00    -0.200 F 
ATOM     96  F   UNL A   1      46.637  26.654  37.516  1.00  0.00    -0.200 F 
ENDBRANCH  63  86
ENDBRANCH  37  38
ENDBRANCH  29  32
ENDBRANCH  27  28
ENDBRANCH  26  27
ENDBRANCH   1  26
TORSDOF 15
ENDMDL
MODEL 2
REMARK VINA RESULT:     -12.0      0.275      1.971
REMARK SMILES CC[NH2+][C@]1(C(=O)NCCCNC(=O)c2ccc(-c3c4nc(c(-c5c(F)c(F)c(F)c(F)c5F)c5ccc([nH]5)c(-c5c(F)c(F)c(F)c(F)c5F)c5nc(c(-c6c(F)c(F)c(F)c(F)c6F)c6ccc3[nH]6)C=C5)C=C4)cc2)CCC[C@@H]([N@@H+](C)CC2CCCC2)C1
REMARK SMILES IDX 8 1 7 2 5 3 6 4 4 6 77 7 89 8 78 9 80 10 79 11 3 12 2 15
REMARK SMILES IDX 1 16 81 17 82 18 83 20 84 21 85 22 88 23 86 24 87 25 9 26
REMARK SMILES IDX 10 27 11 28 12 29 13 31 14 32 15 33 76 34 16 35 75 36 17 37
REMARK SMILES IDX 18 38 19 39 69 40 20 41 74 42 68 43 70 44 21 45 73 46 67 47
REMARK SMILES IDX 66 48 22 50 54 51 34 52 53 53 35 54 38 55 52 56 71 57 36 58
REMARK SMILES IDX 37 59 51 61 72 62 39 63 23 64 24 65 32 66 25 67 26 68 30 69
REMARK SMILES IDX 33 70 27 71 28 72 31 73 29 74 55 75 56 76 64 77 57 78 58 79
REMARK SMILES IDX 62 80 65 81 59 82 60 83 63 84 61 85 40 86 41 87 49 88 42 89
REMARK SMILES IDX 43 90 47 91 50 92 44 93 45 94 48 95 46 96
REMARK H PARENT 7 5 3 13 3 14 81 19 11 30 70 49 38 60
REMARK Flexibility Score: inf
ROOT
ATOM      1  C   UNL A   1      31.784  30.789  26.039  1.00  0.00     0.118 C 
ENDROOT
BRANCH   1   2
ATOM      2  N   UNL A   1      31.652  29.691  26.977  1.00  0.00    -0.351 N 
ATOM      3  C   UNL A   1      31.762  28.341  26.906  1.00  0.00     0.281 C 
ATOM      4  O   UNL A   1      31.552  27.773  27.988  1.00  0.00    -0.268 OA
ATOM      5  H   UNL A   1      31.429  30.001  27.884  1.00  0.00     0.163 HD
BRANCH   3   6
ATOM      6  C   UNL A   1      32.012  27.497  25.581  1.00  0.00     0.181 C 
ATOM      7  C   UNL A   1      33.237  27.971  24.777  1.00  0.00     0.079 C 
ATOM      8  C   UNL A   1      32.296  26.057  26.134  1.00  0.00     0.144 C 
ATOM      9  C   UNL A   1      33.803  27.004  23.745  1.00  0.00     0.013 C 
ATOM     10  C   UNL A   1      32.885  25.048  25.134  1.00  0.00     0.190 C 
ATOM     11  C   UNL A   1      34.071  25.653  24.365  1.00  0.00     0.065 C 
BRANCH   6  12
ATOM     12  N   UNL A   1      30.717  27.536  24.836  1.00  0.00    -0.334 N 
ATOM     13  H   UNL A   1      30.419  26.570  24.701  1.00  0.00     0.347 HD
ATOM     14  H   UNL A   1      30.112  28.116  25.418  1.00  0.00     0.347 HD
BRANCH  12  15
ATOM     15  C   UNL A   1      30.685  28.182  23.533  1.00  0.00     0.257 C 
ATOM     16  C   UNL A   1      29.295  28.692  23.191  1.00  0.00     0.071 C 
ENDBRANCH  12  15
ENDBRANCH   6  12
BRANCH  10  17
ATOM     17  N   UNL A   1      33.149  23.731  25.774  1.00  0.00    -0.334 N 
ATOM     18  C   UNL A   1      32.221  23.434  26.862  1.00  0.00     0.332 C 
ATOM     19  H   UNL A   1      34.082  23.908  26.146  1.00  0.00     0.348 HD
BRANCH  17  20
ATOM     20  C   UNL A   1      33.411  22.543  24.934  1.00  0.00     0.265 C 
BRANCH  20  21
ATOM     21  C   UNL A   1      34.876  22.114  24.786  1.00  0.00     0.044 C 
ATOM     22  C   UNL A   1      35.803  22.786  25.805  1.00  0.00     0.009 C 
ATOM     23  C   UNL A   1      35.233  20.648  25.004  1.00  0.00     0.009 C 
ATOM     24  C   UNL A   1      37.135  22.088  25.565  1.00  0.00     0.001 C 
ATOM     25  C   UNL A   1      36.768  20.700  25.027  1.00  0.00     0.001 C 
ENDBRANCH  20  21
ENDBRANCH  17  20
ENDBRANCH  10  17
ENDBRANCH   3   6
ENDBRANCH   1   2
BRANCH   1  26
ATOM     26  C   UNL A   1      31.464  32.129  26.683  1.00  0.00     0.042 C 
BRANCH  26  27
ATOM     27  C   UNL A   1      32.685  32.747  27.358  1.00  0.00     0.118 C 
BRANCH  27  28
ATOM     28  N   UNL A   1      32.491  34.170  27.632  1.00  0.00    -0.352 N 
ATOM     29  C   UNL A   1      33.021  34.966  28.615  1.00  0.00     0.251 C 
ATOM     30  H   UNL A   1      31.880  34.631  27.012  1.00  0.00     0.163 HD
ATOM     31  O   UNL A   1      32.512  36.052  28.868  1.00  0.00    -0.269 OA
BRANCH  29  32
ATOM     32  C   UNL A   1      34.207  34.515  29.369  1.00  0.00     0.039 A 
ATOM     33  C   UNL A   1      34.053  34.058  30.680  1.00  0.00     0.014 A 
ATOM     34  C   UNL A   1      35.474  34.566  28.784  1.00  0.00     0.014 A 
ATOM     35  C   UNL A   1      35.161  33.566  31.372  1.00  0.00     0.010 A 
ATOM     36  C   UNL A   1      36.558  34.001  29.440  1.00  0.00     0.010 A 
ATOM     37  C   UNL A   1      36.410  33.488  30.737  1.00  0.00    -0.014 A 
BRANCH  37  38
ATOM     38  C   UNL A   1      37.577  32.843  31.387  1.00  0.00     0.031 A 
ATOM     39  C   UNL A   1      38.246  31.667  30.735  1.00  0.00     0.074 A 
ATOM     40  C   UNL A   1      37.955  33.253  32.612  1.00  0.00     0.049 A 
ATOM     41  N   UNL A   1      39.181  30.883  31.206  1.00  0.00    -0.248 NA
ATOM     42  C   UNL A   1      37.781  31.307  29.387  1.00  0.00     0.031 C 
ATOM     43  C   UNL A   1      37.347  34.354  33.360  1.00  0.00     0.029 A 
ATOM     44  N   UNL A   1      38.925  32.774  33.457  1.00  0.00    -0.354 N 
ATOM     45  C   UNL A   1      39.403  29.930  30.222  1.00  0.00     0.074 A 
ATOM     46  C   UNL A   1      38.471  30.202  29.149  1.00  0.00     0.031 C 
ATOM     47  C   UNL A   1      37.966  34.477  34.545  1.00  0.00     0.029 A 
ATOM     48  C   UNL A   1      38.976  33.431  34.662  1.00  0.00     0.049 A 
ATOM     49  H   UNL A   1      39.527  32.031  33.222  1.00  0.00     0.167 HD
ATOM     50  C   UNL A   1      40.318  28.931  30.209  1.00  0.00     0.037 A 
ATOM     51  C   UNL A   1      39.737  33.199  35.749  1.00  0.00     0.037 A 
ATOM     52  C   UNL A   1      41.253  28.682  31.274  1.00  0.00     0.049 A 
ATOM     53  C   UNL A   1      40.720  32.062  35.721  1.00  0.00     0.074 A 
ATOM     54  C   UNL A   1      42.267  27.743  31.329  1.00  0.00     0.029 A 
ATOM     55  N   UNL A   1      41.280  29.373  32.477  1.00  0.00    -0.354 N 
ATOM     56  N   UNL A   1      40.976  31.213  34.754  1.00  0.00    -0.248 NA
ATOM     57  C   UNL A   1      41.519  31.847  36.935  1.00  0.00     0.031 C 
ATOM     58  C   UNL A   1      42.872  27.828  32.588  1.00  0.00     0.029 A 
ATOM     59  C   UNL A   1      42.271  28.855  33.297  1.00  0.00     0.049 A 
ATOM     60  H   UNL A   1      40.684  30.120  32.713  1.00  0.00     0.167 HD
ATOM     61  C   UNL A   1      41.975  30.378  35.235  1.00  0.00     0.074 A 
ATOM     62  C   UNL A   1      42.294  30.835  36.572  1.00  0.00     0.031 C 
ATOM     63  C   UNL A   1      42.572  29.323  34.626  1.00  0.00     0.037 A 
BRANCH  50  64
ATOM     64  C   UNL A   1      40.352  28.032  29.007  1.00  0.00     0.064 A 
ATOM     65  C   UNL A   1      39.620  26.834  28.962  1.00  0.00     0.173 A 
ATOM     66  C   UNL A   1      41.092  28.390  27.870  1.00  0.00     0.173 A 
ATOM     67  F   UNL A   1      38.903  26.440  30.025  1.00  0.00    -0.203 F 
ATOM     68  C   UNL A   1      39.652  26.016  27.835  1.00  0.00     0.198 A 
ATOM     69  C   UNL A   1      41.097  27.585  26.734  1.00  0.00     0.198 A 
ATOM     70  F   UNL A   1      41.806  29.526  27.857  1.00  0.00    -0.203 F 
ATOM     71  F   UNL A   1      38.984  24.854  27.834  1.00  0.00    -0.200 F 
ATOM     72  C   UNL A   1      40.384  26.395  26.720  1.00  0.00     0.200 A 
ATOM     73  F   UNL A   1      41.793  27.960  25.653  1.00  0.00    -0.200 F 
ATOM     74  F   UNL A   1      40.407  25.613  25.634  1.00  0.00    -0.200 F 
ENDBRANCH  50  64
BRANCH  51  75
ATOM     75  C   UNL A   1      39.597  34.062  36.951  1.00  0.00     0.064 A 
ATOM     76  C   UNL A   1      38.797  33.664  38.031  1.00  0.00     0.173 A 
ATOM     77  C   UNL A   1      40.256  35.296  37.048  1.00  0.00     0.173 A 
ATOM     78  F   UNL A   1      38.132  32.501  37.979  1.00  0.00    -0.203 F 
ATOM     79  C   UNL A   1      38.646  34.476  39.154  1.00  0.00     0.198 A 
ATOM     80  C   UNL A   1      40.128  36.095  38.184  1.00  0.00     0.198 A 
ATOM     81  F   UNL A   1      41.039  35.721  36.046  1.00  0.00    -0.203 F 
ATOM     82  F   UNL A   1      37.840  34.091  40.152  1.00  0.00    -0.200 F 
ATOM     83  C   UNL A   1      39.317  35.688  39.231  1.00  0.00     0.200 A 
ATOM     84  F   UNL A   1      40.792  37.256  38.263  1.00  0.00    -0.200 F 
ATOM     85  F   UNL A   1      39.176  36.466  40.313  1.00  0.00    -0.200 F 
ENDBRANCH  51  75
BRANCH  63  86
ATOM     86  C   UNL A   1      43.639  28.601  35.394  1.00  0.00     0.064 A 
ATOM     87  C   UNL A   1      43.327  27.556  36.275  1.00  0.00     0.173 A 
ATOM     88  C   UNL A   1      44.992  28.920  35.203  1.00  0.00     0.173 A 
ATOM     89  F   UNL A   1      42.047  27.225  36.503  1.00  0.00    -0.203 F 
ATOM     90  C   UNL A   1      44.330  26.869  36.953  1.00  0.00     0.198 A 
ATOM     91  C   UNL A   1      45.994  28.210  35.860  1.00  0.00     0.198 A 
ATOM     92  F   UNL A   1      45.344  29.908  34.367  1.00  0.00    -0.203 F 
ATOM     93  F   UNL A   1      44.007  25.902  37.822  1.00  0.00    -0.200 F 
ATOM     94  C   UNL A   1      45.663  27.189  36.737  1.00  0.00     0.200 A 
ATOM     95  F   UNL A   1      47.281  28.512  35.639  1.00  0.00    -0.200 F 
ATOM     96  F   UNL A   1      46.627  26.518  37.379  1.00  0.00    -0.200 F 
ENDBRANCH  63  86
ENDBRANCH  37  38
ENDBRANCH  29  32
ENDBRANCH  27  28
ENDBRANCH  26  27
ENDBRANCH   1  26
TORSDOF 15
ENDMDL
MODEL 3
REMARK VINA RESULT:     -12.0      5.832     11.380
REMARK SMILES CC[NH2+][C@]1(C(=O)NCCCNC(=O)c2ccc(-c3c4nc(c(-c5c(F)c(F)c(F)c(F)c5F)c5ccc([nH]5)c(-c5c(F)c(F)c(F)c(F)c5F)c5nc(c(-c6c(F)c(F)c(F)c(F)c6F)c6ccc3[nH]6)C=C5)C=C4)cc2)CCC[C@@H]([N@@H+](C)CC2CCCC2)C1
REMARK SMILES IDX 8 1 7 2 5 3 6 4 4 6 77 7 89 8 78 9 80 10 79 11 3 12 2 15
REMARK SMILES IDX 1 16 81 17 82 18 83 20 84 21 85 22 88 23 86 24 87 25 9 26
REMARK SMILES IDX 10 27 11 28 12 29 13 31 14 32 15 33 76 34 16 35 75 36 17 37
REMARK SMILES IDX 18 38 19 39 69 40 20 41 74 42 68 43 70 44 21 45 73 46 67 47
REMARK SMILES IDX 66 48 22 50 54 51 34 52 53 53 35 54 38 55 52 56 71 57 36 58
REMARK SMILES IDX 37 59 51 61 72 62 39 63 23 64 24 65 32 66 25 67 26 68 30 69
REMARK SMILES IDX 33 70 27 71 28 72 31 73 29 74 55 75 56 76 64 77 57 78 58 79
REMARK SMILES IDX 62 80 65 81 59 82 60 83 63 84 61 85 40 86 41 87 49 88 42 89
REMARK SMILES IDX 43 90 47 91 50 92 44 93 45 94 48 95 46 96
REMARK H PARENT 7 5 3 13 3 14 81 19 11 30 70 49 38 60
REMARK Flexibility Score: inf
ROOT
ATOM      1  C   UNL A   1      36.863  20.712  25.071  1.00  0.00     0.118 C 
ENDROOT
BRANCH   1   2
ATOM      2  N   UNL A   1      36.937  21.699  24.012  1.00  0.00    -0.351 N 
ATOM      3  C   UNL A   1      36.173  22.744  23.610  1.00  0.00     0.281 C 
ATOM      4  O   UNL A   1      36.625  23.331  22.614  1.00  0.00    -0.268 OA
ATOM      5  H   UNL A   1      37.735  21.581  23.447  1.00  0.00     0.163 HD
BRANCH   3   6
ATOM      6  C   UNL A   1      34.768  23.160  24.227  1.00  0.00     0.181 C 
ATOM      7  C   UNL A   1      34.794  23.313  25.759  1.00  0.00     0.079 C 
ATOM      8  C   UNL A   1      34.505  24.566  23.582  1.00  0.00     0.144 C 
ATOM      9  C   UNL A   1      33.650  24.092  26.397  1.00  0.00     0.013 C 
ATOM     10  C   UNL A   1      33.371  25.398  24.204  1.00  0.00     0.190 C 
ATOM     11  C   UNL A   1      33.484  25.439  25.736  1.00  0.00     0.065 C 
BRANCH   6  12
ATOM     12  N   UNL A   1      33.794  22.149  23.713  1.00  0.00    -0.334 N 
ATOM     13  H   UNL A   1      32.912  22.636  23.550  1.00  0.00     0.347 HD
ATOM     14  H   UNL A   1      34.251  21.760  22.888  1.00  0.00     0.347 HD
BRANCH  12  15
ATOM     15  C   UNL A   1      33.498  20.988  24.538  1.00  0.00     0.257 C 
ATOM     16  C   UNL A   1      32.045  20.968  24.984  1.00  0.00     0.071 C 
ENDBRANCH  12  15
ENDBRANCH   6  12
BRANCH  10  17
ATOM     17  N   UNL A   1      33.238  26.725  23.541  1.00  0.00    -0.334 N 
ATOM     18  C   UNL A   1      33.252  26.633  22.083  1.00  0.00     0.332 C 
ATOM     19  H   UNL A   1      34.094  27.167  23.874  1.00  0.00     0.348 HD
BRANCH  17  20
ATOM     20  C   UNL A   1      32.227  27.690  24.022  1.00  0.00     0.265 C 
BRANCH  20  21
ATOM     21  C   UNL A   1      30.788  27.481  23.533  1.00  0.00     0.044 C 
ATOM     22  C   UNL A   1      29.950  26.622  24.486  1.00  0.00     0.009 C 
ATOM     23  C   UNL A   1      29.885  28.699  23.382  1.00  0.00     0.009 C 
ATOM     24  C   UNL A   1      28.557  26.700  23.878  1.00  0.00     0.001 C 
ATOM     25  C   UNL A   1      28.516  28.045  23.143  1.00  0.00     0.001 C 
ENDBRANCH  20  21
ENDBRANCH  17  20
ENDBRANCH  10  17
ENDBRANCH   3   6
ENDBRANCH   1   2
BRANCH   1  26
ATOM     26  C   UNL A   1      38.026  19.733  25.020  1.00  0.00     0.042 C 
BRANCH  26  27
ATOM     27  C   UNL A   1      39.224  20.224  25.827  1.00  0.00     0.118 C 
BRANCH  27  28
ATOM     28  N   UNL A   1      40.226  19.173  26.003  1.00  0.00    -0.352 N 
ATOM     29  C   UNL A   1      41.591  19.255  26.110  1.00  0.00     0.251 C 
ATOM     30  H   UNL A   1      39.861  18.259  26.053  1.00  0.00     0.163 HD
ATOM     31  O   UNL A   1      42.281  18.254  25.948  1.00  0.00    -0.269 OA
BRANCH  29  32
ATOM     32  C   UNL A   1      42.229  20.548  26.418  1.00  0.00     0.039 A 
ATOM     33  C   UNL A   1      42.752  21.321  25.378  1.00  0.00     0.014 A 
ATOM     34  C   UNL A   1      42.330  20.985  27.740  1.00  0.00     0.014 A 
ATOM     35  C   UNL A   1      43.295  22.576  25.658  1.00  0.00     0.010 A 
ATOM     36  C   UNL A   1      42.793  22.266  28.009  1.00  0.00     0.010 A 
ATOM     37  C   UNL A   1      43.272  23.077  26.969  1.00  0.00    -0.014 A 
BRANCH  37  38
ATOM     38  C   UNL A   1      43.709  24.458  27.285  1.00  0.00     0.031 A 
ATOM     39  C   UNL A   1      42.708  25.473  27.761  1.00  0.00     0.074 A 
ATOM     40  C   UNL A   1      44.981  24.818  27.035  1.00  0.00     0.049 A 
ATOM     41  N   UNL A   1      42.862  26.757  27.952  1.00  0.00    -0.248 NA
ATOM     42  C   UNL A   1      41.347  24.982  28.029  1.00  0.00     0.031 C 
ATOM     43  C   UNL A   1      46.027  23.928  26.528  1.00  0.00     0.029 A 
ATOM     44  N   UNL A   1      45.608  26.034  27.148  1.00  0.00    -0.354 N 
ATOM     45  C   UNL A   1      41.618  27.231  28.345  1.00  0.00     0.074 A 
ATOM     46  C   UNL A   1      40.708  26.106  28.316  1.00  0.00     0.031 C 
ATOM     47  C   UNL A   1      47.167  24.622  26.387  1.00  0.00     0.029 A 
ATOM     48  C   UNL A   1      46.920  26.015  26.742  1.00  0.00     0.049 A 
ATOM     49  H   UNL A   1      45.160  26.842  27.488  1.00  0.00     0.167 HD
ATOM     50  C   UNL A   1      41.273  28.487  28.714  1.00  0.00     0.037 A 
ATOM     51  C   UNL A   1      47.816  27.016  26.646  1.00  0.00     0.037 A 
ATOM     52  C   UNL A   1      42.192  29.595  28.757  1.00  0.00     0.049 A 
ATOM     53  C   UNL A   1      47.398  28.409  27.030  1.00  0.00     0.074 A 
ATOM     54  C   UNL A   1      41.963  30.889  29.185  1.00  0.00     0.029 A 
ATOM     55  N   UNL A   1      43.516  29.536  28.346  1.00  0.00    -0.354 N 
ATOM     56  N   UNL A   1      46.238  28.831  27.474  1.00  0.00    -0.248 NA
ATOM     57  C   UNL A   1      48.410  29.464  26.898  1.00  0.00     0.031 C 
ATOM     58  C   UNL A   1      43.132  31.629  28.981  1.00  0.00     0.029 A 
ATOM     59  C   UNL A   1      44.106  30.784  28.475  1.00  0.00     0.049 A 
ATOM     60  H   UNL A   1      43.969  28.729  28.011  1.00  0.00     0.167 HD
ATOM     61  C   UNL A   1      46.386  30.193  27.691  1.00  0.00     0.074 A 
ATOM     62  C   UNL A   1      47.755  30.524  27.351  1.00  0.00     0.031 C 
ATOM     63  C   UNL A   1      45.471  31.093  28.129  1.00  0.00     0.037 A 
BRANCH  50  64
ATOM     64  C   UNL A   1      39.844  28.733  29.102  1.00  0.00     0.064 A 
ATOM     65  C   UNL A   1      39.400  28.571  30.424  1.00  0.00     0.173 A 
ATOM     66  C   UNL A   1      38.913  29.176  28.149  1.00  0.00     0.173 A 
ATOM     67  F   UNL A   1      40.246  28.140  31.372  1.00  0.00    -0.203 F 
ATOM     68  C   UNL A   1      38.074  28.815  30.771  1.00  0.00     0.198 A 
ATOM     69  C   UNL A   1      37.596  29.449  28.506  1.00  0.00     0.198 A 
ATOM     70  F   UNL A   1      39.285  29.353  26.872  1.00  0.00    -0.203 F 
ATOM     71  F   UNL A   1      37.663  28.606  32.029  1.00  0.00    -0.200 F 
ATOM     72  C   UNL A   1      37.175  29.261  29.813  1.00  0.00     0.200 A 
ATOM     73  F   UNL A   1      36.732  29.893  27.582  1.00  0.00    -0.200 F 
ATOM     74  F   UNL A   1      35.901  29.504  30.150  1.00  0.00    -0.200 F 
ENDBRANCH  50  64
BRANCH  51  75
ATOM     75  C   UNL A   1      49.194  26.735  26.165  1.00  0.00     0.064 A 
ATOM     76  C   UNL A   1      49.529  26.894  24.814  1.00  0.00     0.173 A 
ATOM     77  C   UNL A   1      50.202  26.304  27.040  1.00  0.00     0.173 A 
ATOM     78  F   UNL A   1      48.596  27.287  23.934  1.00  0.00    -0.203 F 
ATOM     79  C   UNL A   1      50.814  26.615  24.352  1.00  0.00     0.198 A 
ATOM     80  C   UNL A   1      51.494  26.053  26.583  1.00  0.00     0.198 A 
ATOM     81  F   UNL A   1      49.936  26.141  28.344  1.00  0.00    -0.203 F 
ATOM     82  F   UNL A   1      51.095  26.734  23.047  1.00  0.00    -0.200 F 
ATOM     83  C   UNL A   1      51.797  26.200  25.238  1.00  0.00     0.200 A 
ATOM     84  F   UNL A   1      52.446  25.670  27.446  1.00  0.00    -0.200 F 
ATOM     85  F   UNL A   1      53.034  25.937  24.795  1.00  0.00    -0.200 F 
ENDBRANCH  51  75
BRANCH  63  86
ATOM     86  C   UNL A   1      45.921  32.516  28.277  1.00  0.00     0.064 A 
ATOM     87  C   UNL A   1      45.764  33.446  27.239  1.00  0.00     0.173 A 
ATOM     88  C   UNL A   1      46.465  32.967  29.490  1.00  0.00     0.173 A 
ATOM     89  F   UNL A   1      45.266  33.058  26.056  1.00  0.00    -0.203 F 
ATOM     90  C   UNL A   1      46.153  34.772  27.404  1.00  0.00     0.198 A 
ATOM     91  C   UNL A   1      46.824  34.301  29.660  1.00  0.00     0.198 A 
ATOM     92  F   UNL A   1      46.631  32.119  30.515  1.00  0.00    -0.203 F 
ATOM     93  F   UNL A   1      46.033  35.634  26.385  1.00  0.00    -0.200 F 
ATOM     94  C   UNL A   1      46.672  35.201  28.617  1.00  0.00     0.200 A 
ATOM     95  F   UNL A   1      47.311  34.717  30.837  1.00  0.00    -0.200 F 
ATOM     96  F   UNL A   1      47.032  36.481  28.777  1.00  0.00    -0.200 F 
ENDBRANCH  63  86
ENDBRANCH  37  38
ENDBRANCH  29  32
ENDBRANCH  27  28
ENDBRANCH  26  27
ENDBRANCH   1  26
TORSDOF 15
ENDMDL
