MODEL 1
REMARK VINA RESULT:     -10.7      0.000      0.000
REMARK SMILES CC(=O)N[C@H](CC(=O)NCC(=O)NCCCNC(=O)c1ccc(-c2c3nc(c(-c4c(F)c(F)c(F)c(F)c4F)c4ccc([nH]4)c(-c4c(F)c(F)c(F)c(F)c4F)c4nc(c(-c5c(F)c(F)c(F)c(F)c5F)c5ccc2[nH]5)C=C4)C=C3)cc1)c1cccs1
REMARK SMILES IDX 14 1 13 2 11 3 12 4 10 6 9 7 7 8 8 9 6 11 5 12 4 13 1 14
REMARK SMILES IDX 2 15 3 16 83 18 84 19 87 20 85 21 86 22 15 23 16 24 17 25
REMARK SMILES IDX 18 26 19 28 20 29 21 30 82 31 22 32 81 33 23 34 24 35 25 36
REMARK SMILES IDX 75 37 26 38 80 39 74 40 76 41 27 42 79 43 73 44 72 45 28 47
REMARK SMILES IDX 60 48 40 49 59 50 41 51 44 52 58 53 77 54 42 55 43 56 57 58
REMARK SMILES IDX 78 59 45 60 29 61 30 62 38 63 31 64 32 65 36 66 39 67 33 68
REMARK SMILES IDX 34 69 37 70 35 71 61 72 62 73 70 74 63 75 64 76 68 77 71 78
REMARK SMILES IDX 65 79 66 80 69 81 67 82 46 83 47 84 55 85 48 86 49 87 53 88
REMARK SMILES IDX 56 89 50 90 51 91 54 92 52 93
REMARK H PARENT 13 5 9 10 4 17 17 27 76 46 44 57
REMARK Flexibility Score: inf
ROOT
ATOM      1  C   UNL A   1      40.708  19.482  25.967  1.00  0.00     0.117 C 
ENDROOT
BRANCH   1   2
ATOM      2  N   UNL A   1      41.772  18.613  26.457  1.00  0.00    -0.355 N 
ATOM      3  C   UNL A   1      43.078  18.458  26.118  1.00  0.00     0.239 C 
ATOM      4  O   UNL A   1      43.735  17.650  26.786  1.00  0.00    -0.273 OA
ATOM      5  H   UNL A   1      41.484  18.014  27.184  1.00  0.00     0.163 HD
BRANCH   3   6
ATOM      6  C   UNL A   1      43.794  19.303  25.054  1.00  0.00     0.216 C 
BRANCH   6   7
ATOM      7  N   UNL A   1      44.943  20.075  25.476  1.00  0.00    -0.347 N 
ATOM      8  C   UNL A   1      45.137  21.423  25.447  1.00  0.00     0.222 C 
ATOM      9  O   UNL A   1      46.286  21.855  25.545  1.00  0.00    -0.275 OA
ATOM     10  H   UNL A   1      45.695  19.550  25.835  1.00  0.00     0.164 HD
BRANCH   8  11
ATOM     11  C   UNL A   1      43.956  22.354  25.339  1.00  0.00     0.130 C 
BRANCH  11  12
ATOM     12  C   UNL A   1      44.189  23.758  25.920  1.00  0.00     0.131 C 
BRANCH  12  13
ATOM     13  N   UNL A   1      43.328  24.795  25.358  1.00  0.00    -0.348 N 
ATOM     14  C   UNL A   1      44.714  26.760  25.952  1.00  0.00     0.114 C 
ATOM     15  C   UNL A   1      43.547  26.136  25.246  1.00  0.00     0.217 C 
ATOM     16  O   UNL A   1      42.784  26.807  24.549  1.00  0.00    -0.275 OA
ATOM     17  H   UNL A   1      42.463  24.480  25.010  1.00  0.00     0.164 HD
ENDBRANCH  12  13
BRANCH  12  18
ATOM     18  C   UNL A   1      43.965  23.714  27.414  1.00  0.00     0.027 A 
ATOM     19  C   UNL A   1      42.763  23.593  28.086  1.00  0.00     0.017 A 
ATOM     20  S   UNL A   1      45.285  23.827  28.515  1.00  0.00    -0.147 S 
ATOM     21  C   UNL A   1      42.940  23.512  29.497  1.00  0.00     0.012 A 
ATOM     22  C   UNL A   1      44.263  23.606  29.861  1.00  0.00     0.065 A 
ENDBRANCH  12  18
ENDBRANCH  11  12
ENDBRANCH   8  11
ENDBRANCH   6   7
ENDBRANCH   3   6
ENDBRANCH   1   2
BRANCH   1  23
ATOM     23  C   UNL A   1      40.477  20.711  26.834  1.00  0.00     0.042 C 
BRANCH  23  24
ATOM     24  C   UNL A   1      40.422  22.030  26.076  1.00  0.00     0.118 C 
BRANCH  24  25
ATOM     25  N   UNL A   1      39.077  22.546  25.851  1.00  0.00    -0.352 N 
ATOM     26  C   UNL A   1      38.463  23.708  26.263  1.00  0.00     0.251 C 
ATOM     27  H   UNL A   1      38.506  21.957  25.308  1.00  0.00     0.163 HD
ATOM     28  O   UNL A   1      37.268  23.883  26.033  1.00  0.00    -0.269 OA
BRANCH  26  29
ATOM     29  C   UNL A   1      39.209  24.729  27.040  1.00  0.00     0.039 A 
ATOM     30  C   UNL A   1      39.988  25.672  26.362  1.00  0.00     0.014 A 
ATOM     31  C   UNL A   1      39.132  24.787  28.429  1.00  0.00     0.014 A 
ATOM     32  C   UNL A   1      40.556  26.743  27.064  1.00  0.00     0.010 A 
ATOM     33  C   UNL A   1      39.568  25.923  29.102  1.00  0.00     0.010 A 
ATOM     34  C   UNL A   1      40.275  26.927  28.427  1.00  0.00    -0.014 A 
BRANCH  34  35
ATOM     35  C   UNL A   1      40.671  28.162  29.163  1.00  0.00     0.031 A 
ATOM     36  C   UNL A   1      42.051  28.288  29.756  1.00  0.00     0.074 A 
ATOM     37  C   UNL A   1      39.752  29.119  29.407  1.00  0.00     0.049 A 
ATOM     38  N   UNL A   1      42.525  29.198  30.569  1.00  0.00    -0.248 NA
ATOM     39  C   UNL A   1      43.010  27.221  29.431  1.00  0.00     0.031 C 
ATOM     40  C   UNL A   1      38.357  29.093  28.960  1.00  0.00     0.029 A 
ATOM     41  N   UNL A   1      39.846  30.296  30.112  1.00  0.00    -0.354 N 
ATOM     42  C   UNL A   1      43.816  28.791  30.883  1.00  0.00     0.074 A 
ATOM     43  C   UNL A   1      44.032  27.525  30.219  1.00  0.00     0.031 C 
ATOM     44  C   UNL A   1      37.740  30.213  29.368  1.00  0.00     0.029 A 
ATOM     45  C   UNL A   1      38.674  31.013  30.149  1.00  0.00     0.049 A 
ATOM     46  H   UNL A   1      40.677  30.596  30.547  1.00  0.00     0.167 HD
ATOM     47  C   UNL A   1      44.748  29.426  31.632  1.00  0.00     0.037 A 
ATOM     48  C   UNL A   1      38.380  32.178  30.756  1.00  0.00     0.037 A 
ATOM     49  C   UNL A   1      44.557  30.716  32.242  1.00  0.00     0.049 A 
ATOM     50  C   UNL A   1      39.444  32.883  31.550  1.00  0.00     0.074 A 
ATOM     51  C   UNL A   1      45.471  31.485  32.940  1.00  0.00     0.029 A 
ATOM     52  N   UNL A   1      43.369  31.431  32.216  1.00  0.00    -0.354 N 
ATOM     53  N   UNL A   1      40.681  32.519  31.783  1.00  0.00    -0.248 NA
ATOM     54  C   UNL A   1      39.070  34.164  32.169  1.00  0.00     0.031 C 
ATOM     55  C   UNL A   1      44.826  32.650  33.368  1.00  0.00     0.029 A 
ATOM     56  C   UNL A   1      43.521  32.626  32.900  1.00  0.00     0.049 A 
ATOM     57  H   UNL A   1      42.539  31.134  31.776  1.00  0.00     0.167 HD
ATOM     58  C   UNL A   1      41.239  33.529  32.552  1.00  0.00     0.074 A 
ATOM     59  C   UNL A   1      40.211  34.533  32.734  1.00  0.00     0.031 C 
ATOM     60  C   UNL A   1      42.490  33.616  33.067  1.00  0.00     0.037 A 
BRANCH  47  61
ATOM     61  C   UNL A   1      46.072  28.743  31.820  1.00  0.00     0.064 A 
ATOM     62  C   UNL A   1      46.312  27.886  32.906  1.00  0.00     0.173 A 
ATOM     63  C   UNL A   1      47.106  28.921  30.887  1.00  0.00     0.173 A 
ATOM     64  F   UNL A   1      45.361  27.689  33.831  1.00  0.00    -0.203 F 
ATOM     65  C   UNL A   1      47.546  27.264  33.071  1.00  0.00     0.198 A 
ATOM     66  C   UNL A   1      48.328  28.270  31.038  1.00  0.00     0.198 A 
ATOM     67  F   UNL A   1      46.929  29.722  29.825  1.00  0.00    -0.203 F 
ATOM     68  F   UNL A   1      47.767  26.494  34.146  1.00  0.00    -0.200 F 
ATOM     69  C   UNL A   1      48.550  27.449  32.134  1.00  0.00     0.200 A 
ATOM     70  F   UNL A   1      49.294  28.440  30.124  1.00  0.00    -0.200 F 
ATOM     71  F   UNL A   1      49.736  26.844  32.292  1.00  0.00    -0.200 F 
ENDBRANCH  47  61
BRANCH  48  72
ATOM     72  C   UNL A   1      37.022  32.768  30.614  1.00  0.00     0.064 A 
ATOM     73  C   UNL A   1      36.692  33.539  29.490  1.00  0.00     0.173 A 
ATOM     74  C   UNL A   1      36.033  32.580  31.589  1.00  0.00     0.173 A 
ATOM     75  F   UNL A   1      37.612  33.767  28.542  1.00  0.00    -0.203 F 
ATOM     76  C   UNL A   1      35.430  34.114  29.356  1.00  0.00     0.198 A 
ATOM     77  C   UNL A   1      34.763  33.132  31.441  1.00  0.00     0.198 A 
ATOM     78  F   UNL A   1      36.296  31.847  32.681  1.00  0.00    -0.203 F 
ATOM     79  F   UNL A   1      35.157  34.883  28.294  1.00  0.00    -0.200 F 
ATOM     80  C   UNL A   1      34.464  33.906  30.328  1.00  0.00     0.200 A 
ATOM     81  F   UNL A   1      33.827  32.918  32.376  1.00  0.00    -0.200 F 
ATOM     82  F   UNL A   1      33.250  34.455  30.198  1.00  0.00    -0.200 F 
ENDBRANCH  48  72
BRANCH  60  83
ATOM     83  C   UNL A   1      42.824  34.848  33.854  1.00  0.00     0.064 A 
ATOM     84  C   UNL A   1      42.760  34.863  35.255  1.00  0.00     0.173 A 
ATOM     85  C   UNL A   1      43.249  36.015  33.201  1.00  0.00     0.173 A 
ATOM     86  F   UNL A   1      42.341  33.777  35.923  1.00  0.00    -0.203 F 
ATOM     87  C   UNL A   1      43.089  36.009  35.973  1.00  0.00     0.198 A 
ATOM     88  C   UNL A   1      43.606  37.150  33.924  1.00  0.00     0.198 A 
ATOM     89  F   UNL A   1      43.333  36.049  31.863  1.00  0.00    -0.203 F 
ATOM     90  F   UNL A   1      42.978  36.016  37.309  1.00  0.00    -0.200 F 
ATOM     91  C   UNL A   1      43.519  37.148  35.308  1.00  0.00     0.200 A 
ATOM     92  F   UNL A   1      44.032  38.245  33.280  1.00  0.00    -0.200 F 
ATOM     93  F   UNL A   1      43.843  38.248  36.001  1.00  0.00    -0.200 F 
ENDBRANCH  60  83
ENDBRANCH  34  35
ENDBRANCH  26  29
ENDBRANCH  24  25
ENDBRANCH  23  24
ENDBRANCH   1  23
TORSDOF 15
ENDMDL
MODEL 2
REMARK VINA RESULT:     -10.6      4.438      7.128
REMARK SMILES CC(=O)N[C@H](CC(=O)NCC(=O)NCCCNC(=O)c1ccc(-c2c3nc(c(-c4c(F)c(F)c(F)c(F)c4F)c4ccc([nH]4)c(-c4c(F)c(F)c(F)c(F)c4F)c4nc(c(-c5c(F)c(F)c(F)c(F)c5F)c5ccc2[nH]5)C=C4)C=C3)cc1)c1cccs1
REMARK SMILES IDX 14 1 13 2 11 3 12 4 10 6 9 7 7 8 8 9 6 11 5 12 4 13 1 14
REMARK SMILES IDX 2 15 3 16 83 18 84 19 87 20 85 21 86 22 15 23 16 24 17 25
REMARK SMILES IDX 18 26 19 28 20 29 21 30 82 31 22 32 81 33 23 34 24 35 25 36
REMARK SMILES IDX 75 37 26 38 80 39 74 40 76 41 27 42 79 43 73 44 72 45 28 47
REMARK SMILES IDX 60 48 40 49 59 50 41 51 44 52 58 53 77 54 42 55 43 56 57 58
REMARK SMILES IDX 78 59 45 60 29 61 30 62 38 63 31 64 32 65 36 66 39 67 33 68
REMARK SMILES IDX 34 69 37 70 35 71 61 72 62 73 70 74 63 75 64 76 68 77 71 78
REMARK SMILES IDX 65 79 66 80 69 81 67 82 46 83 47 84 55 85 48 86 49 87 53 88
REMARK SMILES IDX 56 89 50 90 51 91 54 92 52 93
REMARK H PARENT 13 5 9 10 4 17 17 27 76 46 44 57
REMARK Flexibility Score: inf
ROOT
ATOM      1  C   UNL A   1      35.334  20.810  25.162  1.00  0.00     0.117 C 
ENDROOT
BRANCH   1   2
ATOM      2  N   UNL A   1      34.238  19.849  25.181  1.00  0.00    -0.355 N 
ATOM      3  C   UNL A   1      32.886  19.977  25.145  1.00  0.00     0.239 C 
ATOM      4  O   UNL A   1      32.228  18.931  25.120  1.00  0.00    -0.273 OA
ATOM      5  H   UNL A   1      34.540  18.912  25.232  1.00  0.00     0.163 HD
BRANCH   3   6
ATOM      6  C   UNL A   1      32.156  21.322  25.011  1.00  0.00     0.216 C 
BRANCH   6   7
ATOM      7  N   UNL A   1      31.448  21.816  26.173  1.00  0.00    -0.347 N 
ATOM      8  C   UNL A   1      30.932  23.055  26.408  1.00  0.00     0.222 C 
ATOM      9  O   UNL A   1      30.657  23.368  27.566  1.00  0.00    -0.275 OA
ATOM     10  H   UNL A   1      31.322  21.164  26.899  1.00  0.00     0.164 HD
BRANCH   8  11
ATOM     11  C   UNL A   1      30.669  23.994  25.258  1.00  0.00     0.130 C 
BRANCH  11  12
ATOM     12  C   UNL A   1      31.492  25.292  25.288  1.00  0.00     0.131 C 
BRANCH  12  13
ATOM     13  N   UNL A   1      31.417  26.027  26.548  1.00  0.00    -0.348 N 
ATOM     14  C   UNL A   1      31.756  28.308  25.643  1.00  0.00     0.114 C 
ATOM     15  C   UNL A   1      31.422  27.373  26.768  1.00  0.00     0.217 C 
ATOM     16  O   UNL A   1      31.136  27.794  27.889  1.00  0.00    -0.275 OA
ATOM     17  H   UNL A   1      31.352  25.470  27.357  1.00  0.00     0.164 HD
ENDBRANCH  12  13
BRANCH  12  18
ATOM     18  C   UNL A   1      32.943  24.960  25.020  1.00  0.00     0.027 A 
ATOM     19  C   UNL A   1      33.959  24.805  25.944  1.00  0.00     0.017 A 
ATOM     20  S   UNL A   1      33.519  24.728  23.414  1.00  0.00    -0.147 S 
ATOM     21  C   UNL A   1      35.187  24.420  25.334  1.00  0.00     0.012 A 
ATOM     22  C   UNL A   1      35.080  24.322  23.967  1.00  0.00     0.065 A 
ENDBRANCH  12  18
ENDBRANCH  11  12
ENDBRANCH   8  11
ENDBRANCH   6   7
ENDBRANCH   3   6
ENDBRANCH   1   2
BRANCH   1  23
ATOM     23  C   UNL A   1      36.692  20.182  24.880  1.00  0.00     0.042 C 
BRANCH  23  24
ATOM     24  C   UNL A   1      37.887  20.998  25.352  1.00  0.00     0.118 C 
BRANCH  24  25
ATOM     25  N   UNL A   1      39.022  20.205  25.809  1.00  0.00    -0.352 N 
ATOM     26  C   UNL A   1      40.168  20.556  26.488  1.00  0.00     0.251 C 
ATOM     27  H   UNL A   1      38.959  19.248  25.590  1.00  0.00     0.163 HD
ATOM     28  O   UNL A   1      41.048  19.718  26.677  1.00  0.00    -0.269 OA
BRANCH  26  29
ATOM     29  C   UNL A   1      40.386  21.952  26.942  1.00  0.00     0.039 A 
ATOM     30  C   UNL A   1      41.302  22.203  27.969  1.00  0.00     0.014 A 
ATOM     31  C   UNL A   1      39.719  23.022  26.353  1.00  0.00     0.014 A 
ATOM     32  C   UNL A   1      41.648  23.522  28.289  1.00  0.00     0.010 A 
ATOM     33  C   UNL A   1      40.167  24.322  26.566  1.00  0.00     0.010 A 
ATOM     34  C   UNL A   1      41.150  24.591  27.528  1.00  0.00    -0.014 A 
BRANCH  34  35
ATOM     35  C   UNL A   1      41.655  25.985  27.685  1.00  0.00     0.031 A 
ATOM     36  C   UNL A   1      43.019  26.366  27.168  1.00  0.00     0.074 A 
ATOM     37  C   UNL A   1      40.943  26.879  28.402  1.00  0.00     0.049 A 
ATOM     38  N   UNL A   1      43.701  27.467  27.357  1.00  0.00    -0.248 NA
ATOM     39  C   UNL A   1      43.731  25.352  26.374  1.00  0.00     0.031 C 
ATOM     40  C   UNL A   1      39.642  26.625  29.027  1.00  0.00     0.029 A 
ATOM     41  N   UNL A   1      41.220  28.180  28.746  1.00  0.00    -0.354 N 
ATOM     42  C   UNL A   1      44.931  27.261  26.745  1.00  0.00     0.074 A 
ATOM     43  C   UNL A   1      44.924  25.911  26.227  1.00  0.00     0.031 C 
ATOM     44  C   UNL A   1      39.221  27.740  29.643  1.00  0.00     0.029 A 
ATOM     45  C   UNL A   1      40.240  28.772  29.505  1.00  0.00     0.049 A 
ATOM     46  H   UNL A   1      42.045  28.644  28.472  1.00  0.00     0.167 HD
ATOM     47  C   UNL A   1      45.963  28.126  26.600  1.00  0.00     0.037 A 
ATOM     48  C   UNL A   1      40.174  30.005  30.043  1.00  0.00     0.037 A 
ATOM     49  C   UNL A   1      45.947  29.491  27.059  1.00  0.00     0.049 A 
ATOM     50  C   UNL A   1      41.316  30.960  29.836  1.00  0.00     0.074 A 
ATOM     51  C   UNL A   1      46.903  30.474  26.878  1.00  0.00     0.029 A 
ATOM     52  N   UNL A   1      44.914  30.066  27.784  1.00  0.00    -0.354 N 
ATOM     53  N   UNL A   1      42.445  30.774  29.197  1.00  0.00    -0.248 NA
ATOM     54  C   UNL A   1      41.176  32.299  30.426  1.00  0.00     0.031 C 
ATOM     55  C   UNL A   1      46.466  31.635  27.524  1.00  0.00     0.029 A 
ATOM     56  C   UNL A   1      45.217  31.387  28.072  1.00  0.00     0.049 A 
ATOM     57  H   UNL A   1      44.087  29.605  28.053  1.00  0.00     0.167 HD
ATOM     58  C   UNL A   1      43.138  31.972  29.288  1.00  0.00     0.074 A 
ATOM     59  C   UNL A   1      42.295  32.888  30.029  1.00  0.00     0.031 C 
ATOM     60  C   UNL A   1      44.365  32.285  28.806  1.00  0.00     0.037 A 
BRANCH  47  61
ATOM     61  C   UNL A   1      47.194  27.629  25.899  1.00  0.00     0.064 A 
ATOM     62  C   UNL A   1      48.274  27.079  26.606  1.00  0.00     0.173 A 
ATOM     63  C   UNL A   1      47.285  27.674  24.498  1.00  0.00     0.173 A 
ATOM     64  F   UNL A   1      48.242  27.021  27.946  1.00  0.00    -0.203 F 
ATOM     65  C   UNL A   1      49.411  26.626  25.943  1.00  0.00     0.198 A 
ATOM     66  C   UNL A   1      48.411  27.190  23.837  1.00  0.00     0.198 A 
ATOM     67  F   UNL A   1      46.278  28.182  23.771  1.00  0.00    -0.203 F 
ATOM     68  F   UNL A   1      50.451  26.156  26.647  1.00  0.00    -0.200 F 
ATOM     69  C   UNL A   1      49.476  26.675  24.560  1.00  0.00     0.200 A 
ATOM     70  F   UNL A   1      48.467  27.225  22.498  1.00  0.00    -0.200 F 
ATOM     71  F   UNL A   1      50.570  26.234  23.923  1.00  0.00    -0.200 F 
ENDBRANCH  47  61
BRANCH  48  72
ATOM     72  C   UNL A   1      38.968  30.418  30.809  1.00  0.00     0.064 A 
ATOM     73  C   UNL A   1      38.929  30.289  32.205  1.00  0.00     0.173 A 
ATOM     74  C   UNL A   1      37.836  30.944  30.171  1.00  0.00     0.173 A 
ATOM     75  F   UNL A   1      39.979  29.769  32.858  1.00  0.00    -0.203 F 
ATOM     76  C   UNL A   1      37.797  30.652  32.931  1.00  0.00     0.198 A 
ATOM     77  C   UNL A   1      36.715  31.333  30.902  1.00  0.00     0.198 A 
ATOM     78  F   UNL A   1      37.824  31.093  28.839  1.00  0.00    -0.203 F 
ATOM     79  F   UNL A   1      37.772  30.477  34.259  1.00  0.00    -0.200 F 
ATOM     80  C   UNL A   1      36.693  31.180  32.280  1.00  0.00     0.200 A 
ATOM     81  F   UNL A   1      35.654  31.855  30.270  1.00  0.00    -0.200 F 
ATOM     82  F   UNL A   1      35.606  31.534  32.979  1.00  0.00    -0.200 F 
ENDBRANCH  48  72
BRANCH  60  83
ATOM     83  C   UNL A   1      44.859  33.682  29.042  1.00  0.00     0.064 A 
ATOM     84  C   UNL A   1      45.672  33.995  30.142  1.00  0.00     0.173 A 
ATOM     85  C   UNL A   1      44.548  34.708  28.138  1.00  0.00     0.173 A 
ATOM     86  F   UNL A   1      45.981  33.051  31.043  1.00  0.00    -0.203 F 
ATOM     87  C   UNL A   1      46.137  35.292  30.339  1.00  0.00     0.198 A 
ATOM     88  C   UNL A   1      45.040  35.997  28.323  1.00  0.00     0.198 A 
ATOM     89  F   UNL A   1      43.779  34.457  27.068  1.00  0.00    -0.203 F 
ATOM     90  F   UNL A   1      46.875  35.581  31.420  1.00  0.00    -0.200 F 
ATOM     91  C   UNL A   1      45.827  36.290  29.425  1.00  0.00     0.200 A 
ATOM     92  F   UNL A   1      44.749  36.957  27.433  1.00  0.00    -0.200 F 
ATOM     93  F   UNL A   1      46.282  37.536  29.613  1.00  0.00    -0.200 F 
ENDBRANCH  60  83
ENDBRANCH  34  35
ENDBRANCH  26  29
ENDBRANCH  24  25
ENDBRANCH  23  24
ENDBRANCH   1  23
TORSDOF 15
ENDMDL
MODEL 3
REMARK VINA RESULT:     -10.5      5.381     10.719
REMARK SMILES CC(=O)N[C@H](CC(=O)NCC(=O)NCCCNC(=O)c1ccc(-c2c3nc(c(-c4c(F)c(F)c(F)c(F)c4F)c4ccc([nH]4)c(-c4c(F)c(F)c(F)c(F)c4F)c4nc(c(-c5c(F)c(F)c(F)c(F)c5F)c5ccc2[nH]5)C=C4)C=C3)cc1)c1cccs1
REMARK SMILES IDX 14 1 13 2 11 3 12 4 10 6 9 7 7 8 8 9 6 11 5 12 4 13 1 14
REMARK SMILES IDX 2 15 3 16 83 18 84 19 87 20 85 21 86 22 15 23 16 24 17 25
REMARK SMILES IDX 18 26 19 28 20 29 21 30 82 31 22 32 81 33 23 34 24 35 25 36
REMARK SMILES IDX 75 37 26 38 80 39 74 40 76 41 27 42 79 43 73 44 72 45 28 47
REMARK SMILES IDX 60 48 40 49 59 50 41 51 44 52 58 53 77 54 42 55 43 56 57 58
REMARK SMILES IDX 78 59 45 60 29 61 30 62 38 63 31 64 32 65 36 66 39 67 33 68
REMARK SMILES IDX 34 69 37 70 35 71 61 72 62 73 70 74 63 75 64 76 68 77 71 78
REMARK SMILES IDX 65 79 66 80 69 81 67 82 46 83 47 84 55 85 48 86 49 87 53 88
REMARK SMILES IDX 56 89 50 90 51 91 54 92 52 93
REMARK H PARENT 13 5 9 10 4 17 17 27 76 46 44 57
REMARK Flexibility Score: inf
ROOT
ATOM      1  C   UNL A   1      31.794  30.726  26.103  1.00  0.00     0.117 C 
ENDROOT
BRANCH   1   2
ATOM      2  N   UNL A   1      33.149  30.256  26.372  1.00  0.00    -0.355 N 
ATOM      3  C   UNL A   1      33.652  29.084  26.839  1.00  0.00     0.239 C 
ATOM      4  O   UNL A   1      34.884  28.991  26.898  1.00  0.00    -0.273 OA
ATOM      5  H   UNL A   1      33.842  30.927  26.174  1.00  0.00     0.163 HD
BRANCH   3   6
ATOM      6  C   UNL A   1      32.794  27.854  27.172  1.00  0.00     0.216 C 
BRANCH   6   7
ATOM      7  N   UNL A   1      32.903  26.706  26.297  1.00  0.00    -0.347 N 
ATOM      8  C   UNL A   1      31.995  26.203  25.414  1.00  0.00     0.222 C 
ATOM      9  O   UNL A   1      32.146  25.052  25.007  1.00  0.00    -0.275 OA
ATOM     10  H   UNL A   1      33.756  26.218  26.347  1.00  0.00     0.164 HD
BRANCH   8  11
ATOM     11  C   UNL A   1      30.859  27.066  24.925  1.00  0.00     0.130 C 
BRANCH  11  12
ATOM     12  C   UNL A   1      31.205  27.962  23.725  1.00  0.00     0.131 C 
BRANCH  12  13
ATOM     13  N   UNL A   1      31.947  27.290  22.662  1.00  0.00    -0.348 N 
ATOM     14  C   UNL A   1      34.089  28.510  22.907  1.00  0.00     0.114 C 
ATOM     15  C   UNL A   1      33.260  27.410  22.312  1.00  0.00     0.217 C 
ATOM     16  O   UNL A   1      33.742  26.597  21.523  1.00  0.00    -0.275 OA
ATOM     17  H   UNL A   1      31.424  26.657  22.118  1.00  0.00     0.164 HD
ENDBRANCH  12  13
BRANCH  12  18
ATOM     18  C   UNL A   1      29.924  28.507  23.135  1.00  0.00     0.027 A 
ATOM     19  C   UNL A   1      28.634  28.063  23.357  1.00  0.00     0.017 A 
ATOM     20  S   UNL A   1      29.945  29.834  22.038  1.00  0.00    -0.147 S 
ATOM     21  C   UNL A   1      27.665  28.864  22.689  1.00  0.00     0.012 A 
ATOM     22  C   UNL A   1      28.243  29.873  21.954  1.00  0.00     0.065 A 
ENDBRANCH  12  18
ENDBRANCH  11  12
ENDBRANCH   8  11
ENDBRANCH   6   7
ENDBRANCH   3   6
ENDBRANCH   1   2
BRANCH   1  23
ATOM     23  C   UNL A   1      31.463  32.050  26.775  1.00  0.00     0.042 C 
BRANCH  23  24
ATOM     24  C   UNL A   1      32.667  32.830  27.285  1.00  0.00     0.118 C 
BRANCH  24  25
ATOM     25  N   UNL A   1      32.383  34.209  27.661  1.00  0.00    -0.352 N 
ATOM     26  C   UNL A   1      32.963  35.041  28.593  1.00  0.00     0.251 C 
ATOM     27  H   UNL A   1      31.641  34.619  27.160  1.00  0.00     0.163 HD
ATOM     28  O   UNL A   1      32.478  36.150  28.810  1.00  0.00    -0.269 OA
BRANCH  26  29
ATOM     29  C   UNL A   1      34.131  34.592  29.391  1.00  0.00     0.039 A 
ATOM     30  C   UNL A   1      33.931  34.119  30.692  1.00  0.00     0.014 A 
ATOM     31  C   UNL A   1      35.420  34.608  28.867  1.00  0.00     0.014 A 
ATOM     32  C   UNL A   1      34.992  33.531  31.392  1.00  0.00     0.010 A 
ATOM     33  C   UNL A   1      36.436  33.897  29.499  1.00  0.00     0.010 A 
ATOM     34  C   UNL A   1      36.233  33.334  30.766  1.00  0.00    -0.014 A 
BRANCH  34  35
ATOM     35  C   UNL A   1      37.319  32.522  31.386  1.00  0.00     0.031 A 
ATOM     36  C   UNL A   1      37.837  32.862  32.760  1.00  0.00     0.074 A 
ATOM     37  C   UNL A   1      37.928  31.557  30.666  1.00  0.00     0.049 A 
ATOM     38  N   UNL A   1      38.880  32.390  33.395  1.00  0.00    -0.248 NA
ATOM     39  C   UNL A   1      37.112  33.908  33.500  1.00  0.00     0.031 C 
ATOM     40  C   UNL A   1      37.583  31.173  29.295  1.00  0.00     0.029 A 
ATOM     41  N   UNL A   1      38.982  30.733  30.979  1.00  0.00    -0.354 N 
ATOM     42  C   UNL A   1      38.960  33.109  34.582  1.00  0.00     0.074 A 
ATOM     43  C   UNL A   1      37.894  34.086  34.555  1.00  0.00     0.031 C 
ATOM     44  C   UNL A   1      38.382  30.169  28.902  1.00  0.00     0.029 A 
ATOM     45  C   UNL A   1      39.331  29.872  29.967  1.00  0.00     0.049 A 
ATOM     46  H   UNL A   1      39.444  30.758  31.849  1.00  0.00     0.167 HD
ATOM     47  C   UNL A   1      39.823  32.952  35.613  1.00  0.00     0.037 A 
ATOM     48  C   UNL A   1      40.313  28.953  29.897  1.00  0.00     0.037 A 
ATOM     49  C   UNL A   1      40.844  31.938  35.668  1.00  0.00     0.049 A 
ATOM     50  C   UNL A   1      41.235  28.772  31.072  1.00  0.00     0.074 A 
ATOM     51  C   UNL A   1      41.705  31.637  36.708  1.00  0.00     0.029 A 
ATOM     52  N   UNL A   1      41.132  31.055  34.640  1.00  0.00    -0.354 N 
ATOM     53  N   UNL A   1      41.255  29.413  32.214  1.00  0.00    -0.248 NA
ATOM     54  C   UNL A   1      42.272  27.737  30.946  1.00  0.00     0.031 C 
ATOM     55  C   UNL A   1      42.541  30.594  36.296  1.00  0.00     0.029 A 
ATOM     56  C   UNL A   1      42.172  30.218  35.014  1.00  0.00     0.049 A 
ATOM     57  H   UNL A   1      40.669  31.025  33.772  1.00  0.00     0.167 HD
ATOM     58  C   UNL A   1      42.287  28.849  32.950  1.00  0.00     0.074 A 
ATOM     59  C   UNL A   1      42.859  27.799  32.132  1.00  0.00     0.031 C 
ATOM     60  C   UNL A   1      42.725  29.175  34.190  1.00  0.00     0.037 A 
BRANCH  47  61
ATOM     61  C   UNL A   1      39.689  33.887  36.780  1.00  0.00     0.064 A 
ATOM     62  C   UNL A   1      40.314  35.144  36.793  1.00  0.00     0.173 A 
ATOM     63  C   UNL A   1      38.900  33.538  37.888  1.00  0.00     0.173 A 
ATOM     64  F   UNL A   1      41.087  35.523  35.764  1.00  0.00    -0.203 F 
ATOM     65  C   UNL A   1      40.186  35.999  37.884  1.00  0.00     0.198 A 
ATOM     66  C   UNL A   1      38.748  34.410  38.963  1.00  0.00     0.198 A 
ATOM     67  F   UNL A   1      38.272  32.353  37.925  1.00  0.00    -0.203 F 
ATOM     68  F   UNL A   1      40.838  37.170  37.895  1.00  0.00    -0.200 F 
ATOM     69  C   UNL A   1      39.397  35.635  38.964  1.00  0.00     0.200 A 
ATOM     70  F   UNL A   1      37.974  34.063  40.002  1.00  0.00    -0.200 F 
ATOM     71  F   UNL A   1      39.270  36.463  40.011  1.00  0.00    -0.200 F 
ENDBRANCH  47  61
BRANCH  48  72
ATOM     72  C   UNL A   1      40.461  28.114  28.679  1.00  0.00     0.064 A 
ATOM     73  C   UNL A   1      39.816  26.872  28.585  1.00  0.00     0.173 A 
ATOM     74  C   UNL A   1      41.244  28.526  27.592  1.00  0.00     0.173 A 
ATOM     75  F   UNL A   1      39.074  26.424  29.608  1.00  0.00    -0.203 F 
ATOM     76  C   UNL A   1      39.964  26.067  27.457  1.00  0.00     0.198 A 
ATOM     77  C   UNL A   1      41.369  27.733  26.453  1.00  0.00     0.198 A 
ATOM     78  F   UNL A   1      41.878  29.707  27.630  1.00  0.00    -0.203 F 
ATOM     79  F   UNL A   1      39.372  24.867  27.412  1.00  0.00    -0.200 F 
ATOM     80  C   UNL A   1      40.735  26.500  26.390  1.00  0.00     0.200 A 
ATOM     81  F   UNL A   1      42.104  28.160  25.418  1.00  0.00    -0.200 F 
ATOM     82  F   UNL A   1      40.874  25.728  25.304  1.00  0.00    -0.200 F 
ENDBRANCH  48  72
BRANCH  60  83
ATOM     83  C   UNL A   1      43.862  28.371  34.749  1.00  0.00     0.064 A 
ATOM     84  C   UNL A   1      45.194  28.782  34.595  1.00  0.00     0.173 A 
ATOM     85  C   UNL A   1      43.613  27.200  35.479  1.00  0.00     0.173 A 
ATOM     86  F   UNL A   1      45.484  29.885  33.890  1.00  0.00    -0.203 F 
ATOM     87  C   UNL A   1      46.238  28.035  35.134  1.00  0.00     0.198 A 
ATOM     88  C   UNL A   1      44.657  26.471  36.041  1.00  0.00     0.198 A 
ATOM     89  F   UNL A   1      42.355  26.769  35.659  1.00  0.00    -0.203 F 
ATOM     90  F   UNL A   1      47.507  28.420  34.937  1.00  0.00    -0.200 F 
ATOM     91  C   UNL A   1      45.968  26.885  35.863  1.00  0.00     0.200 A 
ATOM     92  F   UNL A   1      44.394  25.368  36.755  1.00  0.00    -0.200 F 
ATOM     93  F   UNL A   1      46.975  26.172  36.387  1.00  0.00    -0.200 F 
ENDBRANCH  60  83
ENDBRANCH  34  35
ENDBRANCH  26  29
ENDBRANCH  24  25
ENDBRANCH  23  24
ENDBRANCH   1  23
TORSDOF 15
ENDMDL
