MODEL 1
REMARK VINA RESULT:     -13.0      0.000      0.000
REMARK SMILES CS(=O)(=O)[C@@H]1CCC[C@@H](Sc2ccc(C(=O)NCCCNC(=O)c3ccc(-c4c5nc(c(-c6c(F)c(F)c(F)c(F)c6F)c6ccc([nH]6)c(-c6c(F)c(F)c(F)c(F)c6F)c6nc(c(-c7c(F)c(F)c(F)c(F)c7F)c7ccc4[nH]7)C=C6)C=C5)cc3)cn2)C1
REMARK SMILES IDX 18 1 17 2 15 3 16 4 14 6 11 7 12 8 88 9 13 10 87 11 10 12
REMARK SMILES IDX 9 13 5 14 6 15 89 16 7 17 8 18 2 19 1 20 3 21 4 22 19 23
REMARK SMILES IDX 20 24 21 25 22 26 23 28 24 29 25 30 86 31 26 32 85 33 27 34
REMARK SMILES IDX 28 35 29 36 79 37 30 38 84 39 78 40 80 41 31 42 83 43 77 44
REMARK SMILES IDX 76 45 32 47 64 48 44 49 63 50 45 51 48 52 62 53 81 54 46 55
REMARK SMILES IDX 47 56 61 58 82 59 49 60 33 61 34 62 42 63 35 64 36 65 40 66
REMARK SMILES IDX 43 67 37 68 38 69 41 70 39 71 65 72 66 73 74 74 67 75 68 76
REMARK SMILES IDX 72 77 75 78 69 79 70 80 73 81 71 82 50 83 51 84 59 85 52 86
REMARK SMILES IDX 53 87 57 88 60 89 54 90 55 91 58 92 56 93
REMARK H PARENT 17 5 21 27 80 46 48 57
REMARK Flexibility Score: inf
ROOT
ATOM      1  C   UNL A   1      31.657  30.705  26.335  1.00  0.00     0.118 C 
ENDROOT
BRANCH   1   2
ATOM      2  N   UNL A   1      33.028  30.283  26.619  1.00  0.00    -0.352 N 
ATOM      3  C   UNL A   1      33.665  29.060  26.697  1.00  0.00     0.252 C 
ATOM      4  O   UNL A   1      34.884  29.057  26.870  1.00  0.00    -0.269 OA
ATOM      5  H   UNL A   1      33.633  31.041  26.793  1.00  0.00     0.163 HD
BRANCH   3   6
ATOM      6  C   UNL A   1      32.968  27.762  26.555  1.00  0.00     0.058 A 
ATOM      7  C   UNL A   1      31.628  25.311  26.393  1.00  0.00     0.096 A 
ATOM      8  C   UNL A   1      32.955  25.431  26.115  1.00  0.00     0.036 A 
ATOM      9  N   UNL A   1      30.947  26.388  26.833  1.00  0.00    -0.249 NA
ATOM     10  C   UNL A   1      33.585  26.652  26.045  1.00  0.00     0.018 A 
ATOM     11  C   UNL A   1      31.642  27.576  26.947  1.00  0.00     0.126 A 
BRANCH   7  12
ATOM     12  S   UNL A   1      30.809  23.758  26.093  1.00  0.00    -0.103 SA
BRANCH  12  13
ATOM     13  C   UNL A   1      31.159  23.189  24.306  1.00  0.00     0.054 C 
ATOM     14  C   UNL A   1      32.504  24.836  22.847  1.00  0.00     0.109 C 
ATOM     15  C   UNL A   1      33.592  23.779  22.607  1.00  0.00     0.020 C 
ATOM     16  C   UNL A   1      31.141  24.231  23.165  1.00  0.00     0.034 C 
ATOM     17  C   UNL A   1      33.609  22.567  23.551  1.00  0.00     0.002 C 
ATOM     18  C   UNL A   1      32.257  22.122  24.119  1.00  0.00     0.015 C 
BRANCH  14  19
ATOM     19  S   UNL A   1      32.497  26.110  21.581  1.00  0.00     0.150 S 
ATOM     20  C   UNL A   1      33.532  27.425  22.169  1.00  0.00     0.158 C 
ATOM     21  O   UNL A   1      31.142  26.622  21.511  1.00  0.00    -0.229 OA
ATOM     22  O   UNL A   1      33.125  25.559  20.393  1.00  0.00    -0.229 OA
ENDBRANCH  14  19
ENDBRANCH  12  13
ENDBRANCH   7  12
ENDBRANCH   3   6
ENDBRANCH   1   2
BRANCH   1  23
ATOM     23  C   UNL A   1      31.411  32.172  26.710  1.00  0.00     0.042 C 
BRANCH  23  24
ATOM     24  C   UNL A   1      32.697  32.894  27.099  1.00  0.00     0.118 C 
BRANCH  24  25
ATOM     25  N   UNL A   1      32.431  34.237  27.603  1.00  0.00    -0.352 N 
ATOM     26  C   UNL A   1      32.995  34.914  28.653  1.00  0.00     0.251 C 
ATOM     27  H   UNL A   1      31.739  34.737  27.111  1.00  0.00     0.163 HD
ATOM     28  O   UNL A   1      32.498  35.970  29.035  1.00  0.00    -0.269 OA
BRANCH  26  29
ATOM     29  C   UNL A   1      34.188  34.375  29.335  1.00  0.00     0.039 A 
ATOM     30  C   UNL A   1      34.020  33.642  30.515  1.00  0.00     0.014 A 
ATOM     31  C   UNL A   1      35.469  34.616  28.835  1.00  0.00     0.014 A 
ATOM     32  C   UNL A   1      35.135  33.105  31.163  1.00  0.00     0.010 A 
ATOM     33  C   UNL A   1      36.569  34.016  29.436  1.00  0.00     0.010 A 
ATOM     34  C   UNL A   1      36.415  33.263  30.610  1.00  0.00    -0.014 A 
BRANCH  34  35
ATOM     35  C   UNL A   1      37.621  32.680  31.247  1.00  0.00     0.031 A 
ATOM     36  C   UNL A   1      38.344  31.550  30.571  1.00  0.00     0.074 A 
ATOM     37  C   UNL A   1      38.003  33.097  32.469  1.00  0.00     0.049 A 
ATOM     38  N   UNL A   1      39.315  30.797  31.020  1.00  0.00    -0.248 NA
ATOM     39  C   UNL A   1      37.887  31.198  29.216  1.00  0.00     0.031 C 
ATOM     40  C   UNL A   1      37.362  34.163  33.238  1.00  0.00     0.029 A 
ATOM     41  N   UNL A   1      39.010  32.653  33.290  1.00  0.00    -0.354 N 
ATOM     42  C   UNL A   1      39.564  29.868  30.018  1.00  0.00     0.074 A 
ATOM     43  C   UNL A   1      38.608  30.118  28.961  1.00  0.00     0.031 C 
ATOM     44  C   UNL A   1      37.996  34.297  34.415  1.00  0.00     0.029 A 
ATOM     45  C   UNL A   1      39.053  33.294  34.502  1.00  0.00     0.049 A 
ATOM     46  H   UNL A   1      39.642  31.943  33.033  1.00  0.00     0.167 HD
ATOM     47  C   UNL A   1      40.516  28.905  29.978  1.00  0.00     0.037 A 
ATOM     48  C   UNL A   1      39.841  33.082  35.573  1.00  0.00     0.037 A 
ATOM     49  C   UNL A   1      41.475  28.678  31.027  1.00  0.00     0.049 A 
ATOM     50  C   UNL A   1      40.880  31.993  35.514  1.00  0.00     0.074 A 
ATOM     51  C   UNL A   1      42.514  27.767  31.065  1.00  0.00     0.029 A 
ATOM     52  N   UNL A   1      41.504  29.370  32.231  1.00  0.00    -0.354 N 
ATOM     53  N   UNL A   1      41.147  31.155  34.541  1.00  0.00    -0.248 NA
ATOM     54  C   UNL A   1      41.732  31.824  36.699  1.00  0.00     0.031 C 
ATOM     55  C   UNL A   1      43.137  27.867  32.312  1.00  0.00     0.029 A 
ATOM     56  C   UNL A   1      42.532  28.888  33.026  1.00  0.00     0.049 A 
ATOM     57  H   UNL A   1      40.887  30.095  32.482  1.00  0.00     0.167 HD
ATOM     58  C   UNL A   1      42.219  30.389  34.979  1.00  0.00     0.074 A 
ATOM     59  C   UNL A   1      42.555  30.863  36.304  1.00  0.00     0.031 C 
ATOM     60  C   UNL A   1      42.868  29.387  34.336  1.00  0.00     0.037 A 
BRANCH  47  61
ATOM     61  C   UNL A   1      40.557  28.019  28.765  1.00  0.00     0.064 A 
ATOM     62  C   UNL A   1      39.845  26.810  28.706  1.00  0.00     0.173 A 
ATOM     63  C   UNL A   1      41.306  28.390  27.638  1.00  0.00     0.173 A 
ATOM     64  F   UNL A   1      39.121  26.401  29.759  1.00  0.00    -0.203 F 
ATOM     65  C   UNL A   1      39.916  25.989  27.584  1.00  0.00     0.198 A 
ATOM     66  C   UNL A   1      41.343  27.585  26.502  1.00  0.00     0.198 A 
ATOM     67  F   UNL A   1      42.000  29.538  27.633  1.00  0.00    -0.203 F 
ATOM     68  F   UNL A   1      39.279  24.809  27.578  1.00  0.00    -0.200 F 
ATOM     69  C   UNL A   1      40.659  26.380  26.481  1.00  0.00     0.200 A 
ATOM     70  F   UNL A   1      42.049  27.973  25.431  1.00  0.00    -0.200 F 
ATOM     71  F   UNL A   1      40.722  25.591  25.400  1.00  0.00    -0.200 F 
ENDBRANCH  47  61
BRANCH  48  72
ATOM     72  C   UNL A   1      39.691  33.931  36.784  1.00  0.00     0.064 A 
ATOM     73  C   UNL A   1      38.883  33.522  37.854  1.00  0.00     0.173 A 
ATOM     74  C   UNL A   1      40.354  35.162  36.903  1.00  0.00     0.173 A 
ATOM     75  F   UNL A   1      38.214  32.362  37.780  1.00  0.00    -0.203 F 
ATOM     76  C   UNL A   1      38.729  34.318  38.987  1.00  0.00     0.198 A 
ATOM     77  C   UNL A   1      40.225  35.942  38.050  1.00  0.00     0.198 A 
ATOM     78  F   UNL A   1      41.145  35.598  35.911  1.00  0.00    -0.203 F 
ATOM     79  F   UNL A   1      37.916  33.921  39.976  1.00  0.00    -0.200 F 
ATOM     80  C   UNL A   1      39.406  35.523  39.088  1.00  0.00     0.200 A 
ATOM     81  F   UNL A   1      40.895  37.098  38.152  1.00  0.00    -0.200 F 
ATOM     82  F   UNL A   1      39.265  36.284  40.182  1.00  0.00    -0.200 F 
ENDBRANCH  48  72
BRANCH  60  83
ATOM     83  C   UNL A   1      44.054  28.774  35.025  1.00  0.00     0.064 A 
ATOM     84  C   UNL A   1      43.931  27.662  35.870  1.00  0.00     0.173 A 
ATOM     85  C   UNL A   1      45.344  29.271  34.776  1.00  0.00     0.173 A 
ATOM     86  F   UNL A   1      42.721  27.158  36.151  1.00  0.00    -0.203 F 
ATOM     87  C   UNL A   1      45.054  27.083  36.457  1.00  0.00     0.198 A 
ATOM     88  C   UNL A   1      46.466  28.669  35.336  1.00  0.00     0.198 A 
ATOM     89  F   UNL A   1      45.517  30.328  33.968  1.00  0.00    -0.203 F 
ATOM     90  F   UNL A   1      44.911  26.048  37.295  1.00  0.00    -0.200 F 
ATOM     91  C   UNL A   1      46.320  27.579  36.181  1.00  0.00     0.200 A 
ATOM     92  F   UNL A   1      47.688  29.140  35.054  1.00  0.00    -0.200 F 
ATOM     93  F   UNL A   1      47.400  27.010  36.734  1.00  0.00    -0.200 F 
ENDBRANCH  60  83
ENDBRANCH  34  35
ENDBRANCH  26  29
ENDBRANCH  24  25
ENDBRANCH  23  24
ENDBRANCH   1  23
TORSDOF 13
ENDMDL
MODEL 2
REMARK VINA RESULT:     -13.0      0.091      1.594
REMARK SMILES CS(=O)(=O)[C@@H]1CCC[C@@H](Sc2ccc(C(=O)NCCCNC(=O)c3ccc(-c4c5nc(c(-c6c(F)c(F)c(F)c(F)c6F)c6ccc([nH]6)c(-c6c(F)c(F)c(F)c(F)c6F)c6nc(c(-c7c(F)c(F)c(F)c(F)c7F)c7ccc4[nH]7)C=C6)C=C5)cc3)cn2)C1
REMARK SMILES IDX 18 1 17 2 15 3 16 4 14 6 11 7 12 8 88 9 13 10 87 11 10 12
REMARK SMILES IDX 9 13 5 14 6 15 89 16 7 17 8 18 2 19 1 20 3 21 4 22 19 23
REMARK SMILES IDX 20 24 21 25 22 26 23 28 24 29 25 30 86 31 26 32 85 33 27 34
REMARK SMILES IDX 28 35 29 36 79 37 30 38 84 39 78 40 80 41 31 42 83 43 77 44
REMARK SMILES IDX 76 45 32 47 64 48 44 49 63 50 45 51 48 52 62 53 81 54 46 55
REMARK SMILES IDX 47 56 61 58 82 59 49 60 33 61 34 62 42 63 35 64 36 65 40 66
REMARK SMILES IDX 43 67 37 68 38 69 41 70 39 71 65 72 66 73 74 74 67 75 68 76
REMARK SMILES IDX 72 77 75 78 69 79 70 80 73 81 71 82 50 83 51 84 59 85 52 86
REMARK SMILES IDX 53 87 57 88 60 89 54 90 55 91 58 92 56 93
REMARK H PARENT 17 5 21 27 80 46 48 57
REMARK Flexibility Score: inf
ROOT
ATOM      1  C   UNL A   1      31.708  30.699  26.275  1.00  0.00     0.118 C 
ENDROOT
BRANCH   1   2
ATOM      2  N   UNL A   1      33.072  30.273  26.583  1.00  0.00    -0.352 N 
ATOM      3  C   UNL A   1      33.700  29.047  26.685  1.00  0.00     0.252 C 
ATOM      4  O   UNL A   1      34.916  29.038  26.876  1.00  0.00    -0.269 OA
ATOM      5  H   UNL A   1      33.680  31.029  26.756  1.00  0.00     0.163 HD
BRANCH   3   6
ATOM      6  C   UNL A   1      32.997  27.751  26.550  1.00  0.00     0.058 A 
ATOM      7  C   UNL A   1      31.646  25.306  26.401  1.00  0.00     0.096 A 
ATOM      8  C   UNL A   1      32.968  25.422  26.101  1.00  0.00     0.036 A 
ATOM      9  N   UNL A   1      30.976  26.383  26.855  1.00  0.00    -0.249 NA
ATOM     10  C   UNL A   1      33.602  26.641  26.026  1.00  0.00     0.018 A 
ATOM     11  C   UNL A   1      31.676  27.568  26.962  1.00  0.00     0.126 A 
BRANCH   7  12
ATOM     12  S   UNL A   1      30.817  23.756  26.108  1.00  0.00    -0.103 SA
BRANCH  12  13
ATOM     13  C   UNL A   1      31.087  23.223  24.296  1.00  0.00     0.054 C 
ATOM     14  C   UNL A   1      32.467  24.844  22.842  1.00  0.00     0.109 C 
ATOM     15  C   UNL A   1      33.495  23.744  22.540  1.00  0.00     0.020 C 
ATOM     16  C   UNL A   1      31.086  24.296  23.185  1.00  0.00     0.034 C 
ATOM     17  C   UNL A   1      33.481  22.506  23.449  1.00  0.00     0.002 C 
ATOM     18  C   UNL A   1      32.125  22.110  24.046  1.00  0.00     0.015 C 
BRANCH  14  19
ATOM     19  S   UNL A   1      32.485  26.153  21.612  1.00  0.00     0.150 S 
ATOM     20  C   UNL A   1      33.560  27.422  22.228  1.00  0.00     0.158 C 
ATOM     21  O   UNL A   1      31.144  26.704  21.568  1.00  0.00    -0.229 OA
ATOM     22  O   UNL A   1      33.088  25.619  20.403  1.00  0.00    -0.229 OA
ENDBRANCH  14  19
ENDBRANCH  12  13
ENDBRANCH   7  12
ENDBRANCH   3   6
ENDBRANCH   1   2
BRANCH   1  23
ATOM     23  C   UNL A   1      31.440  32.146  26.710  1.00  0.00     0.042 C 
BRANCH  23  24
ATOM     24  C   UNL A   1      32.720  32.885  27.084  1.00  0.00     0.118 C 
BRANCH  24  25
ATOM     25  N   UNL A   1      32.442  34.221  27.601  1.00  0.00    -0.352 N 
ATOM     26  C   UNL A   1      32.997  34.893  28.659  1.00  0.00     0.251 C 
ATOM     27  H   UNL A   1      31.747  34.720  27.112  1.00  0.00     0.163 HD
ATOM     28  O   UNL A   1      32.490  35.941  29.049  1.00  0.00    -0.269 OA
BRANCH  26  29
ATOM     29  C   UNL A   1      34.193  34.357  29.339  1.00  0.00     0.039 A 
ATOM     30  C   UNL A   1      34.027  33.584  30.492  1.00  0.00     0.014 A 
ATOM     31  C   UNL A   1      35.475  34.642  28.862  1.00  0.00     0.014 A 
ATOM     32  C   UNL A   1      35.145  33.050  31.137  1.00  0.00     0.010 A 
ATOM     33  C   UNL A   1      36.580  34.047  29.458  1.00  0.00     0.010 A 
ATOM     34  C   UNL A   1      36.428  33.253  30.606  1.00  0.00    -0.014 A 
BRANCH  34  35
ATOM     35  C   UNL A   1      37.639  32.676  31.240  1.00  0.00     0.031 A 
ATOM     36  C   UNL A   1      38.365  31.549  30.561  1.00  0.00     0.074 A 
ATOM     37  C   UNL A   1      38.022  33.095  32.460  1.00  0.00     0.049 A 
ATOM     38  N   UNL A   1      39.340  30.800  31.008  1.00  0.00    -0.248 NA
ATOM     39  C   UNL A   1      37.905  31.194  29.208  1.00  0.00     0.031 C 
ATOM     40  C   UNL A   1      37.379  34.159  33.231  1.00  0.00     0.029 A 
ATOM     41  N   UNL A   1      39.034  32.656  33.278  1.00  0.00    -0.354 N 
ATOM     42  C   UNL A   1      39.590  29.872  30.006  1.00  0.00     0.074 A 
ATOM     43  C   UNL A   1      38.630  30.117  28.951  1.00  0.00     0.031 C 
ATOM     44  C   UNL A   1      38.016  34.296  34.405  1.00  0.00     0.029 A 
ATOM     45  C   UNL A   1      39.078  33.298  34.490  1.00  0.00     0.049 A 
ATOM     46  H   UNL A   1      39.668  31.948  33.019  1.00  0.00     0.167 HD
ATOM     47  C   UNL A   1      40.546  28.913  29.963  1.00  0.00     0.037 A 
ATOM     48  C   UNL A   1      39.870  33.089  35.559  1.00  0.00     0.037 A 
ATOM     49  C   UNL A   1      41.509  28.691  31.009  1.00  0.00     0.049 A 
ATOM     50  C   UNL A   1      40.914  32.005  35.496  1.00  0.00     0.074 A 
ATOM     51  C   UNL A   1      42.553  27.785  31.044  1.00  0.00     0.029 A 
ATOM     52  N   UNL A   1      41.540  29.383  32.213  1.00  0.00    -0.354 N 
ATOM     53  N   UNL A   1      41.181  31.168  34.523  1.00  0.00    -0.248 NA
ATOM     54  C   UNL A   1      41.770  31.840  36.679  1.00  0.00     0.031 C 
ATOM     55  C   UNL A   1      43.179  27.887  32.289  1.00  0.00     0.029 A 
ATOM     56  C   UNL A   1      42.571  28.906  33.005  1.00  0.00     0.049 A 
ATOM     57  H   UNL A   1      40.920  30.106  32.465  1.00  0.00     0.167 HD
ATOM     58  C   UNL A   1      42.258  30.406  34.958  1.00  0.00     0.074 A 
ATOM     59  C   UNL A   1      42.596  30.883  36.282  1.00  0.00     0.031 C 
ATOM     60  C   UNL A   1      42.909  29.408  34.314  1.00  0.00     0.037 A 
BRANCH  47  61
ATOM     61  C   UNL A   1      40.588  28.027  28.750  1.00  0.00     0.064 A 
ATOM     62  C   UNL A   1      39.874  26.819  28.691  1.00  0.00     0.173 A 
ATOM     63  C   UNL A   1      41.338  28.397  27.623  1.00  0.00     0.173 A 
ATOM     64  F   UNL A   1      39.149  26.410  29.743  1.00  0.00    -0.203 F 
ATOM     65  C   UNL A   1      39.946  25.997  27.569  1.00  0.00     0.198 A 
ATOM     66  C   UNL A   1      41.375  27.592  26.488  1.00  0.00     0.198 A 
ATOM     67  F   UNL A   1      42.033  29.545  27.619  1.00  0.00    -0.203 F 
ATOM     68  F   UNL A   1      39.308  24.817  27.563  1.00  0.00    -0.200 F 
ATOM     69  C   UNL A   1      40.690  26.387  26.466  1.00  0.00     0.200 A 
ATOM     70  F   UNL A   1      42.082  27.979  25.417  1.00  0.00    -0.200 F 
ATOM     71  F   UNL A   1      40.753  25.597  25.386  1.00  0.00    -0.200 F 
ENDBRANCH  47  61
BRANCH  48  72
ATOM     72  C   UNL A   1      39.720  33.939  36.770  1.00  0.00     0.064 A 
ATOM     73  C   UNL A   1      40.387  35.167  36.874  1.00  0.00     0.173 A 
ATOM     74  C   UNL A   1      38.904  33.548  37.842  1.00  0.00     0.173 A 
ATOM     75  F   UNL A   1      41.194  35.575  35.882  1.00  0.00    -0.203 F 
ATOM     76  C   UNL A   1      40.260  35.963  38.009  1.00  0.00     0.198 A 
ATOM     77  C   UNL A   1      38.752  34.360  38.964  1.00  0.00     0.198 A 
ATOM     78  F   UNL A   1      38.237  32.386  37.791  1.00  0.00    -0.203 F 
ATOM     79  F   UNL A   1      40.944  37.111  38.100  1.00  0.00    -0.200 F 
ATOM     80  C   UNL A   1      39.437  35.563  39.051  1.00  0.00     0.200 A 
ATOM     81  F   UNL A   1      37.941  33.980  39.960  1.00  0.00    -0.200 F 
ATOM     82  F   UNL A   1      39.307  36.334  40.139  1.00  0.00    -0.200 F 
ENDBRANCH  48  72
BRANCH  60  83
ATOM     83  C   UNL A   1      44.101  28.800  34.999  1.00  0.00     0.064 A 
ATOM     84  C   UNL A   1      45.390  29.334  34.864  1.00  0.00     0.173 A 
ATOM     85  C   UNL A   1      43.931  27.702  35.858  1.00  0.00     0.173 A 
ATOM     86  F   UNL A   1      45.608  30.373  34.044  1.00  0.00    -0.203 F 
ATOM     87  C   UNL A   1      46.469  28.779  35.548  1.00  0.00     0.198 A 
ATOM     88  C   UNL A   1      45.005  27.172  36.567  1.00  0.00     0.198 A 
ATOM     89  F   UNL A   1      42.717  27.158  36.029  1.00  0.00    -0.203 F 
ATOM     90  F   UNL A   1      47.699  29.279  35.372  1.00  0.00    -0.200 F 
ATOM     91  C   UNL A   1      46.274  27.708  36.407  1.00  0.00     0.200 A 
ATOM     92  F   UNL A   1      44.810  26.148  37.409  1.00  0.00    -0.200 F 
ATOM     93  F   UNL A   1      47.310  27.186  37.077  1.00  0.00    -0.200 F 
ENDBRANCH  60  83
ENDBRANCH  34  35
ENDBRANCH  26  29
ENDBRANCH  24  25
ENDBRANCH  23  24
ENDBRANCH   1  23
TORSDOF 13
ENDMDL
MODEL 3
REMARK VINA RESULT:     -12.8      5.842     11.056
REMARK SMILES CS(=O)(=O)[C@@H]1CCC[C@@H](Sc2ccc(C(=O)NCCCNC(=O)c3ccc(-c4c5nc(c(-c6c(F)c(F)c(F)c(F)c6F)c6ccc([nH]6)c(-c6c(F)c(F)c(F)c(F)c6F)c6nc(c(-c7c(F)c(F)c(F)c(F)c7F)c7ccc4[nH]7)C=C6)C=C5)cc3)cn2)C1
REMARK SMILES IDX 18 1 17 2 15 3 16 4 14 6 11 7 12 8 88 9 13 10 87 11 10 12
REMARK SMILES IDX 9 13 5 14 6 15 89 16 7 17 8 18 2 19 1 20 3 21 4 22 19 23
REMARK SMILES IDX 20 24 21 25 22 26 23 28 24 29 25 30 86 31 26 32 85 33 27 34
REMARK SMILES IDX 28 35 29 36 79 37 30 38 84 39 78 40 80 41 31 42 83 43 77 44
REMARK SMILES IDX 76 45 32 47 64 48 44 49 63 50 45 51 48 52 62 53 81 54 46 55
REMARK SMILES IDX 47 56 61 58 82 59 49 60 33 61 34 62 42 63 35 64 36 65 40 66
REMARK SMILES IDX 43 67 37 68 38 69 41 70 39 71 65 72 66 73 74 74 67 75 68 76
REMARK SMILES IDX 72 77 75 78 69 79 70 80 73 81 71 82 50 83 51 84 59 85 52 86
REMARK SMILES IDX 53 87 57 88 60 89 54 90 55 91 58 92 56 93
REMARK H PARENT 17 5 21 27 80 46 48 57
REMARK Flexibility Score: inf
ROOT
ATOM      1  C   UNL A   1      37.002  20.706  24.971  1.00  0.00     0.118 C 
ENDROOT
BRANCH   1   2
ATOM      2  N   UNL A   1      37.366  21.923  25.695  1.00  0.00    -0.352 N 
ATOM      3  C   UNL A   1      36.897  23.222  25.697  1.00  0.00     0.252 C 
ATOM      4  O   UNL A   1      37.376  24.005  26.516  1.00  0.00    -0.269 OA
ATOM      5  H   UNL A   1      38.113  21.786  26.323  1.00  0.00     0.163 HD
BRANCH   3   6
ATOM      6  C   UNL A   1      35.833  23.711  24.791  1.00  0.00     0.058 A 
ATOM      7  C   UNL A   1      33.900  24.658  23.004  1.00  0.00     0.096 A 
ATOM      8  C   UNL A   1      34.110  25.237  24.218  1.00  0.00     0.036 A 
ATOM      9  N   UNL A   1      34.693  23.642  22.612  1.00  0.00    -0.249 NA
ATOM     10  C   UNL A   1      34.949  24.688  25.160  1.00  0.00     0.018 A 
ATOM     11  C   UNL A   1      35.669  23.222  23.494  1.00  0.00     0.126 A 
BRANCH   7  12
ATOM     12  S   UNL A   1      32.531  25.203  22.001  1.00  0.00    -0.103 SA
BRANCH  12  13
ATOM     13  C   UNL A   1      30.943  25.241  23.058  1.00  0.00     0.054 C 
ATOM     14  C   UNL A   1      31.161  24.296  25.447  1.00  0.00     0.109 C 
ATOM     15  C   UNL A   1      30.705  25.634  26.048  1.00  0.00     0.020 C 
ATOM     16  C   UNL A   1      30.653  24.073  24.027  1.00  0.00     0.034 C 
ATOM     17  C   UNL A   1      30.747  26.864  25.129  1.00  0.00     0.002 C 
ATOM     18  C   UNL A   1      30.524  26.609  23.633  1.00  0.00     0.015 C 
BRANCH  14  19
ATOM     19  S   UNL A   1      30.911  22.919  26.572  1.00  0.00     0.150 S 
ATOM     20  C   UNL A   1      32.449  22.656  27.414  1.00  0.00     0.158 C 
ATOM     21  O   UNL A   1      30.659  21.750  25.752  1.00  0.00    -0.229 OA
ATOM     22  O   UNL A   1      29.934  23.330  27.566  1.00  0.00    -0.229 OA
ENDBRANCH  14  19
ENDBRANCH  12  13
ENDBRANCH   7  12
ENDBRANCH   3   6
ENDBRANCH   1   2
BRANCH   1  23
ATOM     23  C   UNL A   1      38.105  19.641  25.034  1.00  0.00     0.042 C 
BRANCH  23  24
ATOM     24  C   UNL A   1      39.218  20.016  26.007  1.00  0.00     0.118 C 
BRANCH  24  25
ATOM     25  N   UNL A   1      40.321  19.062  25.961  1.00  0.00    -0.352 N 
ATOM     26  C   UNL A   1      41.674  19.273  25.994  1.00  0.00     0.251 C 
ATOM     27  H   UNL A   1      40.051  18.117  25.896  1.00  0.00     0.163 HD
ATOM     28  O   UNL A   1      42.442  18.347  25.752  1.00  0.00    -0.269 OA
BRANCH  26  29
ATOM     29  C   UNL A   1      42.213  20.612  26.308  1.00  0.00     0.039 A 
ATOM     30  C   UNL A   1      42.582  21.457  25.257  1.00  0.00     0.014 A 
ATOM     31  C   UNL A   1      42.385  21.022  27.632  1.00  0.00     0.014 A 
ATOM     32  C   UNL A   1      43.073  22.735  25.533  1.00  0.00     0.010 A 
ATOM     33  C   UNL A   1      42.799  22.320  27.904  1.00  0.00     0.010 A 
ATOM     34  C   UNL A   1      43.157  23.186  26.859  1.00  0.00    -0.014 A 
BRANCH  34  35
ATOM     35  C   UNL A   1      43.639  24.548  27.195  1.00  0.00     0.031 A 
ATOM     36  C   UNL A   1      42.671  25.571  27.716  1.00  0.00     0.074 A 
ATOM     37  C   UNL A   1      44.916  24.889  26.939  1.00  0.00     0.049 A 
ATOM     38  N   UNL A   1      42.844  26.852  27.922  1.00  0.00    -0.248 NA
ATOM     39  C   UNL A   1      41.311  25.093  28.014  1.00  0.00     0.031 C 
ATOM     40  C   UNL A   1      45.941  23.993  26.404  1.00  0.00     0.029 A 
ATOM     41  N   UNL A   1      45.563  26.094  27.071  1.00  0.00    -0.354 N 
ATOM     42  C   UNL A   1      41.612  27.334  28.344  1.00  0.00     0.074 A 
ATOM     43  C   UNL A   1      40.688  26.222  28.314  1.00  0.00     0.031 C 
ATOM     44  C   UNL A   1      47.089  24.675  26.261  1.00  0.00     0.029 A 
ATOM     45  C   UNL A   1      46.868  26.065  26.647  1.00  0.00     0.049 A 
ATOM     46  H   UNL A   1      45.132  26.899  27.437  1.00  0.00     0.167 HD
ATOM     47  C   UNL A   1      41.287  28.589  28.737  1.00  0.00     0.037 A 
ATOM     48  C   UNL A   1      47.776  27.056  26.557  1.00  0.00     0.037 A 
ATOM     49  C   UNL A   1      42.220  29.684  28.782  1.00  0.00     0.049 A 
ATOM     50  C   UNL A   1      47.387  28.447  26.981  1.00  0.00     0.074 A 
ATOM     51  C   UNL A   1      42.010  30.981  29.215  1.00  0.00     0.029 A 
ATOM     52  N   UNL A   1      43.544  29.609  28.370  1.00  0.00    -0.354 N 
ATOM     53  N   UNL A   1      46.236  28.884  27.432  1.00  0.00    -0.248 NA
ATOM     54  C   UNL A   1      48.426  29.483  26.890  1.00  0.00     0.031 C 
ATOM     55  C   UNL A   1      43.188  31.705  29.012  1.00  0.00     0.029 A 
ATOM     56  C   UNL A   1      44.155  30.844  28.519  1.00  0.00     0.049 A 
ATOM     57  H   UNL A   1      43.984  28.799  28.024  1.00  0.00     0.167 HD
ATOM     58  C   UNL A   1      46.422  30.231  27.715  1.00  0.00     0.074 A 
ATOM     59  C   UNL A   1      47.798  30.539  27.387  1.00  0.00     0.031 C 
ATOM     60  C   UNL A   1      45.534  31.128  28.208  1.00  0.00     0.037 A 
BRANCH  47  61
ATOM     61  C   UNL A   1      39.862  28.844  29.138  1.00  0.00     0.064 A 
ATOM     62  C   UNL A   1      39.427  28.692  30.465  1.00  0.00     0.173 A 
ATOM     63  C   UNL A   1      38.919  29.263  28.187  1.00  0.00     0.173 A 
ATOM     64  F   UNL A   1      40.283  28.284  31.414  1.00  0.00    -0.203 F 
ATOM     65  C   UNL A   1      38.096  28.908  30.813  1.00  0.00     0.198 A 
ATOM     66  C   UNL A   1      37.598  29.515  28.546  1.00  0.00     0.198 A 
ATOM     67  F   UNL A   1      39.280  29.433  26.905  1.00  0.00    -0.203 F 
ATOM     68  F   UNL A   1      37.692  28.693  32.074  1.00  0.00    -0.200 F 
ATOM     69  C   UNL A   1      37.185  29.326  29.856  1.00  0.00     0.200 A 
ATOM     70  F   UNL A   1      36.722  29.935  27.623  1.00  0.00    -0.200 F 
ATOM     71  F   UNL A   1      35.906  29.538  30.194  1.00  0.00    -0.200 F 
ENDBRANCH  47  61
BRANCH  48  72
ATOM     72  C   UNL A   1      49.147  26.761  26.063  1.00  0.00     0.064 A 
ATOM     73  C   UNL A   1      49.490  26.978  24.721  1.00  0.00     0.173 A 
ATOM     74  C   UNL A   1      50.143  26.265  26.918  1.00  0.00     0.173 A 
ATOM     75  F   UNL A   1      48.567  27.433  23.861  1.00  0.00    -0.203 F 
ATOM     76  C   UNL A   1      50.769  26.694  24.249  1.00  0.00     0.198 A 
ATOM     77  C   UNL A   1      51.431  26.011  26.451  1.00  0.00     0.198 A 
ATOM     78  F   UNL A   1      49.870  26.046  28.212  1.00  0.00    -0.203 F 
ATOM     79  F   UNL A   1      51.056  26.869  22.952  1.00  0.00    -0.200 F 
ATOM     80  C   UNL A   1      51.741  26.218  25.115  1.00  0.00     0.200 A 
ATOM     81  F   UNL A   1      52.373  25.569  27.295  1.00  0.00    -0.200 F 
ATOM     82  F   UNL A   1      52.974  25.953  24.662  1.00  0.00    -0.200 F 
ENDBRANCH  48  72
BRANCH  60  83
ATOM     83  C   UNL A   1      46.032  32.518  28.489  1.00  0.00     0.064 A 
ATOM     84  C   UNL A   1      46.590  32.872  29.726  1.00  0.00     0.173 A 
ATOM     85  C   UNL A   1      46.009  33.490  27.476  1.00  0.00     0.173 A 
ATOM     86  F   UNL A   1      46.623  31.985  30.731  1.00  0.00    -0.203 F 
ATOM     87  C   UNL A   1      47.088  34.155  29.943  1.00  0.00     0.198 A 
ATOM     88  C   UNL A   1      46.538  34.759  27.686  1.00  0.00     0.198 A 
ATOM     89  F   UNL A   1      45.493  33.199  26.272  1.00  0.00    -0.203 F 
ATOM     90  F   UNL A   1      47.577  34.486  31.146  1.00  0.00    -0.200 F 
ATOM     91  C   UNL A   1      47.072  35.092  28.921  1.00  0.00     0.200 A 
ATOM     92  F   UNL A   1      46.538  35.656  26.691  1.00  0.00    -0.200 F 
ATOM     93  F   UNL A   1      47.567  36.320  29.128  1.00  0.00    -0.200 F 
ENDBRANCH  60  83
ENDBRANCH  34  35
ENDBRANCH  26  29
ENDBRANCH  24  25
ENDBRANCH  23  24
ENDBRANCH   1  23
TORSDOF 13
ENDMDL
