MODEL 1
REMARK VINA RESULT:     -13.5      0.000      0.000
REMARK SMILES CC(=O)N1C[C@@H]2C[N@H+](CC(=O)NCc3ccccc3)C[C@]2(C(=O)NCCCNC(=O)c2ccc(-c3c4nc(c(-c5c(F)c(F)c(F)c(F)c5F)c5ccc([nH]5)c(-c5c(F)c(F)c(F)c(F)c5F)c5nc(c(-c6c(F)c(F)c(F)c(F)c6F)c6ccc3[nH]6)C=C5)C=C4)cc2)C1
REMARK SMILES IDX 25 1 24 2 22 3 23 4 21 6 4 7 5 8 94 9 6 10 7 11 20 12 8 13
REMARK SMILES IDX 2 15 1 16 3 17 9 18 10 19 11 20 12 21 13 23 14 24 15 25
REMARK SMILES IDX 19 26 16 27 18 28 17 29 26 30 27 31 28 32 29 33 30 35 31 36
REMARK SMILES IDX 32 37 93 38 33 39 92 40 34 41 35 42 36 43 86 44 37 45 91 46
REMARK SMILES IDX 85 47 87 48 38 49 90 50 84 51 83 52 39 54 71 55 51 56 70 57
REMARK SMILES IDX 52 58 55 59 69 60 88 61 53 62 54 63 68 65 89 66 56 67 40 68
REMARK SMILES IDX 41 69 49 70 42 71 43 72 47 73 50 74 44 75 45 76 48 77 46 78
REMARK SMILES IDX 72 79 73 80 81 81 74 82 75 83 79 84 82 85 76 86 77 87 80 88
REMARK SMILES IDX 78 89 57 90 58 91 66 92 59 93 60 94 64 95 67 96 61 97 62 98
REMARK SMILES IDX 65 99 63 100
REMARK H PARENT 24 5 8 14 12 22 28 34 87 53 55 64
REMARK Flexibility Score: inf
ROOT
ATOM      1  C   UNL A   1      32.432  26.979  26.069  1.00  0.00     0.117 C 
ENDROOT
BRANCH   1   2
ATOM      2  N   UNL A   1      31.771  25.870  26.757  1.00  0.00    -0.355 N 
ATOM      3  C   UNL A   1      31.725  24.506  26.487  1.00  0.00     0.234 C 
ATOM      4  O   UNL A   1      30.987  23.836  27.213  1.00  0.00    -0.274 OA
ATOM      5  H   UNL A   1      31.265  26.138  27.559  1.00  0.00     0.163 HD
BRANCH   3   6
ATOM      6  C   UNL A   1      32.566  23.894  25.292  1.00  0.00     0.125 C 
ATOM      7  N   UNL A   1      34.667  22.509  25.567  1.00  0.00    -0.341 N 
ATOM      8  C   UNL A   1      34.063  21.883  24.460  1.00  0.00     0.130 C 
ATOM      9  C   UNL A   1      33.656  23.261  26.299  1.00  0.00     0.143 C 
ATOM     10  C   UNL A   1      32.638  22.376  24.536  1.00  0.00     0.087 C 
ATOM     11  C   UNL A   1      32.149  22.463  23.080  1.00  0.00     0.269 C 
ATOM     12  C   UNL A   1      31.289  24.006  24.399  1.00  0.00     0.282 C 
ATOM     13  N   UNL A   1      31.661  23.817  23.007  1.00  0.00    -0.326 N 
ATOM     14  H   UNL A   1      30.915  23.940  22.322  1.00  0.00     0.348 HD
BRANCH   7  15
ATOM     15  C   UNL A   1      36.033  22.469  25.680  1.00  0.00     0.219 C 
ATOM     16  C   UNL A   1      36.775  23.765  25.799  1.00  0.00     0.114 C 
ATOM     17  O   UNL A   1      36.649  21.408  25.811  1.00  0.00    -0.275 OA
ENDBRANCH   7  15
BRANCH  13  18
ATOM     18  C   UNL A   1      32.603  24.858  22.471  1.00  0.00     0.363 C 
BRANCH  18  19
ATOM     19  C   UNL A   1      32.039  25.931  21.522  1.00  0.00     0.275 C 
ATOM     20  O   UNL A   1      32.269  25.827  20.310  1.00  0.00    -0.268 OA
ATOM     21  N   UNL A   1      31.320  27.031  21.892  1.00  0.00    -0.347 N 
ATOM     22  H   UNL A   1      31.482  27.801  21.300  1.00  0.00     0.164 HD
BRANCH  21  23
ATOM     23  C   UNL A   1      30.366  27.339  22.960  1.00  0.00     0.151 C 
BRANCH  23  24
ATOM     24  C   UNL A   1      29.494  28.560  22.689  1.00  0.00    -0.029 A 
ATOM     25  C   UNL A   1      29.979  29.677  21.998  1.00  0.00     0.005 A 
ATOM     26  C   UNL A   1      28.139  28.605  23.058  1.00  0.00     0.005 A 
ATOM     27  C   UNL A   1      29.187  30.826  21.828  1.00  0.00     0.000 A 
ATOM     28  C   UNL A   1      27.371  29.773  22.962  1.00  0.00     0.000 A 
ATOM     29  C   UNL A   1      27.907  30.899  22.363  1.00  0.00     0.000 A 
ENDBRANCH  23  24
ENDBRANCH  21  23
ENDBRANCH  18  19
ENDBRANCH  13  18
ENDBRANCH   3   6
ENDBRANCH   1   2
BRANCH   1  30
ATOM     30  C   UNL A   1      31.801  28.359  26.236  1.00  0.00     0.042 C 
BRANCH  30  31
ATOM     31  C   UNL A   1      32.799  29.485  25.965  1.00  0.00     0.118 C 
BRANCH  31  32
ATOM     32  N   UNL A   1      32.430  30.796  26.505  1.00  0.00    -0.352 N 
ATOM     33  C   UNL A   1      33.188  31.661  27.272  1.00  0.00     0.251 C 
ATOM     34  H   UNL A   1      31.519  31.102  26.294  1.00  0.00     0.163 HD
ATOM     35  O   UNL A   1      32.714  32.723  27.664  1.00  0.00    -0.269 OA
BRANCH  33  36
ATOM     36  C   UNL A   1      34.558  31.268  27.664  1.00  0.00     0.039 A 
ATOM     37  C   UNL A   1      35.554  32.243  27.759  1.00  0.00     0.014 A 
ATOM     38  C   UNL A   1      34.817  29.956  28.057  1.00  0.00     0.014 A 
ATOM     39  C   UNL A   1      36.767  31.927  28.378  1.00  0.00     0.010 A 
ATOM     40  C   UNL A   1      35.966  29.681  28.782  1.00  0.00     0.010 A 
ATOM     41  C   UNL A   1      36.952  30.664  28.961  1.00  0.00    -0.014 A 
BRANCH  41  42
ATOM     42  C   UNL A   1      38.153  30.328  29.771  1.00  0.00     0.031 A 
ATOM     43  C   UNL A   1      39.168  29.360  29.222  1.00  0.00     0.074 A 
ATOM     44  C   UNL A   1      38.269  30.786  31.034  1.00  0.00     0.049 A 
ATOM     45  N   UNL A   1      40.183  28.792  29.821  1.00  0.00    -0.248 NA
ATOM     46  C   UNL A   1      38.978  28.930  27.827  1.00  0.00     0.031 C 
ATOM     47  C   UNL A   1      37.316  31.669  31.710  1.00  0.00     0.029 A 
ATOM     48  N   UNL A   1      39.233  30.555  31.985  1.00  0.00    -0.354 N 
ATOM     49  C   UNL A   1      40.720  27.911  28.891  1.00  0.00     0.074 A 
ATOM     50  C   UNL A   1      39.878  27.965  27.717  1.00  0.00     0.031 C 
ATOM     51  C   UNL A   1      37.759  31.931  32.951  1.00  0.00     0.029 A 
ATOM     52  C   UNL A   1      39.001  31.200  33.176  1.00  0.00     0.049 A 
ATOM     53  H   UNL A   1      40.016  29.980  31.827  1.00  0.00     0.167 HD
ATOM     54  C   UNL A   1      41.834  27.150  28.992  1.00  0.00     0.037 A 
ATOM     55  C   UNL A   1      39.710  31.196  34.321  1.00  0.00     0.037 A 
ATOM     56  C   UNL A   1      42.704  27.152  30.137  1.00  0.00     0.049 A 
ATOM     57  C   UNL A   1      40.971  30.378  34.394  1.00  0.00     0.074 A 
ATOM     58  C   UNL A   1      43.904  26.489  30.311  1.00  0.00     0.029 A 
ATOM     59  N   UNL A   1      42.466  27.868  31.302  1.00  0.00    -0.354 N 
ATOM     60  N   UNL A   1      41.507  29.602  33.483  1.00  0.00    -0.248 NA
ATOM     61  C   UNL A   1      41.729  30.439  35.652  1.00  0.00     0.031 C 
ATOM     62  C   UNL A   1      44.378  26.775  31.595  1.00  0.00     0.029 A 
ATOM     63  C   UNL A   1      43.494  27.653  32.204  1.00  0.00     0.049 A 
ATOM     64  H   UNL A   1      41.684  28.443  31.463  1.00  0.00     0.167 HD
ATOM     65  C   UNL A   1      42.676  29.105  34.045  1.00  0.00     0.074 A 
ATOM     66  C   UNL A   1      42.779  29.680  35.370  1.00  0.00     0.031 C 
ATOM     67  C   UNL A   1      43.581  28.248  33.513  1.00  0.00     0.037 A 
BRANCH  54  68
ATOM     68  C   UNL A   1      42.183  26.272  27.825  1.00  0.00     0.064 A 
ATOM     69  C   UNL A   1      41.568  25.026  27.629  1.00  0.00     0.173 A 
ATOM     70  C   UNL A   1      43.136  26.687  26.881  1.00  0.00     0.173 A 
ATOM     71  F   UNL A   1      40.661  24.575  28.509  1.00  0.00    -0.203 F 
ATOM     72  C   UNL A   1      41.921  24.211  26.557  1.00  0.00     0.198 A 
ATOM     73  C   UNL A   1      43.461  25.884  25.791  1.00  0.00     0.198 A 
ATOM     74  F   UNL A   1      43.752  27.871  27.016  1.00  0.00    -0.203 F 
ATOM     75  F   UNL A   1      41.367  22.998  26.430  1.00  0.00    -0.200 F 
ATOM     76  C   UNL A   1      42.863  24.643  25.636  1.00  0.00     0.200 A 
ATOM     77  F   UNL A   1      44.362  26.308  24.893  1.00  0.00    -0.200 F 
ATOM     78  F   UNL A   1      43.200  23.858  24.603  1.00  0.00    -0.200 F 
ENDBRANCH  54  68
BRANCH  55  79
ATOM     79  C   UNL A   1      39.269  32.022  35.477  1.00  0.00     0.064 A 
ATOM     80  C   UNL A   1      38.466  31.470  36.487  1.00  0.00     0.173 A 
ATOM     81  C   UNL A   1      39.630  33.372  35.598  1.00  0.00     0.173 A 
ATOM     82  F   UNL A   1      38.078  30.189  36.406  1.00  0.00    -0.203 F 
ATOM     83  C   UNL A   1      38.026  32.240  37.562  1.00  0.00     0.198 A 
ATOM     84  C   UNL A   1      39.210  34.134  36.688  1.00  0.00     0.198 A 
ATOM     85  F   UNL A   1      40.400  33.947  34.664  1.00  0.00    -0.203 F 
ATOM     86  F   UNL A   1      37.222  31.698  38.487  1.00  0.00    -0.200 F 
ATOM     87  C   UNL A   1      38.403  33.571  37.665  1.00  0.00     0.200 A 
ATOM     88  F   UNL A   1      39.588  35.416  36.792  1.00  0.00    -0.200 F 
ATOM     89  F   UNL A   1      37.981  34.310  38.698  1.00  0.00    -0.200 F 
ENDBRANCH  55  79
BRANCH  67  90
ATOM     90  C   UNL A   1      44.781  27.910  34.347  1.00  0.00     0.064 A 
ATOM     91  C   UNL A   1      44.800  26.785  35.182  1.00  0.00     0.173 A 
ATOM     92  C   UNL A   1      45.943  28.691  34.264  1.00  0.00     0.173 A 
ATOM     93  F   UNL A   1      43.708  26.016  35.305  1.00  0.00    -0.203 F 
ATOM     94  C   UNL A   1      45.936  26.464  35.921  1.00  0.00     0.198 A 
ATOM     95  C   UNL A   1      47.086  28.352  34.982  1.00  0.00     0.198 A 
ATOM     96  F   UNL A   1      45.976  29.774  33.472  1.00  0.00    -0.203 F 
ATOM     97  F   UNL A   1      45.920  25.407  36.744  1.00  0.00    -0.200 F 
ATOM     98  C   UNL A   1      47.080  27.242  35.814  1.00  0.00     0.200 A 
ATOM     99  F   UNL A   1      48.195  29.095  34.865  1.00  0.00    -0.200 F 
ATOM    100  F   UNL A   1      48.175  26.924  36.516  1.00  0.00    -0.200 F 
ENDBRANCH  67  90
ENDBRANCH  41  42
ENDBRANCH  33  36
ENDBRANCH  31  32
ENDBRANCH  30  31
ENDBRANCH   1  30
TORSDOF 15
ENDMDL
MODEL 2
REMARK VINA RESULT:     -13.3      0.425      7.149
REMARK SMILES CC(=O)N1C[C@@H]2C[N@H+](CC(=O)NCc3ccccc3)C[C@]2(C(=O)NCCCNC(=O)c2ccc(-c3c4nc(c(-c5c(F)c(F)c(F)c(F)c5F)c5ccc([nH]5)c(-c5c(F)c(F)c(F)c(F)c5F)c5nc(c(-c6c(F)c(F)c(F)c(F)c6F)c6ccc3[nH]6)C=C5)C=C4)cc2)C1
REMARK SMILES IDX 25 1 24 2 22 3 23 4 21 6 4 7 5 8 94 9 6 10 7 11 20 12 8 13
REMARK SMILES IDX 2 15 1 16 3 17 9 18 10 19 11 20 12 21 13 23 14 24 15 25
REMARK SMILES IDX 19 26 16 27 18 28 17 29 26 30 27 31 28 32 29 33 30 35 31 36
REMARK SMILES IDX 32 37 93 38 33 39 92 40 34 41 35 42 36 43 86 44 37 45 91 46
REMARK SMILES IDX 85 47 87 48 38 49 90 50 84 51 83 52 39 54 71 55 51 56 70 57
REMARK SMILES IDX 52 58 55 59 69 60 88 61 53 62 54 63 68 65 89 66 56 67 40 68
REMARK SMILES IDX 41 69 49 70 42 71 43 72 47 73 50 74 44 75 45 76 48 77 46 78
REMARK SMILES IDX 72 79 73 80 81 81 74 82 75 83 79 84 82 85 76 86 77 87 80 88
REMARK SMILES IDX 78 89 57 90 58 91 66 92 59 93 60 94 64 95 67 96 61 97 62 98
REMARK SMILES IDX 65 99 63 100
REMARK H PARENT 24 5 8 14 12 22 28 34 87 53 55 64
REMARK Flexibility Score: inf
ROOT
ATOM      1  C   UNL A   1      32.452  26.996  26.148  1.00  0.00     0.117 C 
ENDROOT
BRANCH   1   2
ATOM      2  N   UNL A   1      31.766  25.891  26.819  1.00  0.00    -0.355 N 
ATOM      3  C   UNL A   1      31.706  24.529  26.538  1.00  0.00     0.234 C 
ATOM      4  O   UNL A   1      30.949  23.864  27.249  1.00  0.00    -0.274 OA
ATOM      5  H   UNL A   1      31.254  26.159  27.616  1.00  0.00     0.163 HD
BRANCH   3   6
ATOM      6  C   UNL A   1      32.554  23.916  25.349  1.00  0.00     0.125 C 
ATOM      7  N   UNL A   1      34.637  22.507  25.641  1.00  0.00    -0.341 N 
ATOM      8  C   UNL A   1      34.039  21.893  24.523  1.00  0.00     0.130 C 
ATOM      9  C   UNL A   1      33.625  23.265  26.366  1.00  0.00     0.143 C 
ATOM     10  C   UNL A   1      32.618  22.401  24.586  1.00  0.00     0.087 C 
ATOM     11  C   UNL A   1      32.148  22.501  23.125  1.00  0.00     0.269 C 
ATOM     12  C   UNL A   1      31.288  24.047  24.442  1.00  0.00     0.282 C 
ATOM     13  N   UNL A   1      31.675  23.861  23.054  1.00  0.00    -0.326 N 
ATOM     14  H   UNL A   1      30.939  23.996  22.361  1.00  0.00     0.348 HD
BRANCH   7  15
ATOM     15  C   UNL A   1      36.001  22.451  25.770  1.00  0.00     0.219 C 
ATOM     16  C   UNL A   1      36.739  23.719  26.071  1.00  0.00     0.114 C 
ATOM     17  O   UNL A   1      36.616  21.382  25.769  1.00  0.00    -0.275 OA
ENDBRANCH   7  15
BRANCH  13  18
ATOM     18  C   UNL A   1      32.634  24.895  22.535  1.00  0.00     0.363 C 
BRANCH  18  19
ATOM     19  C   UNL A   1      32.094  25.977  21.583  1.00  0.00     0.275 C 
ATOM     20  O   UNL A   1      32.364  25.892  20.378  1.00  0.00    -0.268 OA
ATOM     21  N   UNL A   1      31.354  27.066  21.944  1.00  0.00    -0.347 N 
ATOM     22  H   UNL A   1      31.529  27.846  21.369  1.00  0.00     0.164 HD
BRANCH  21  23
ATOM     23  C   UNL A   1      30.362  27.351  22.984  1.00  0.00     0.151 C 
BRANCH  23  24
ATOM     24  C   UNL A   1      29.501  28.579  22.709  1.00  0.00    -0.029 A 
ATOM     25  C   UNL A   1      28.191  28.687  23.190  1.00  0.00     0.005 A 
ATOM     26  C   UNL A   1      29.996  29.697  22.017  1.00  0.00     0.005 A 
ATOM     27  C   UNL A   1      27.384  29.790  22.859  1.00  0.00     0.000 A 
ATOM     28  C   UNL A   1      29.176  30.760  21.618  1.00  0.00     0.000 A 
ATOM     29  C   UNL A   1      27.853  30.795  22.022  1.00  0.00     0.000 A 
ENDBRANCH  23  24
ENDBRANCH  21  23
ENDBRANCH  18  19
ENDBRANCH  13  18
ENDBRANCH   3   6
ENDBRANCH   1   2
BRANCH   1  30
ATOM     30  C   UNL A   1      31.833  28.382  26.312  1.00  0.00     0.042 C 
BRANCH  30  31
ATOM     31  C   UNL A   1      32.797  29.495  25.899  1.00  0.00     0.118 C 
BRANCH  31  32
ATOM     32  N   UNL A   1      32.514  30.815  26.468  1.00  0.00    -0.352 N 
ATOM     33  C   UNL A   1      33.329  31.614  27.249  1.00  0.00     0.251 C 
ATOM     34  H   UNL A   1      31.623  31.182  26.269  1.00  0.00     0.163 HD
ATOM     35  O   UNL A   1      32.925  32.695  27.666  1.00  0.00    -0.269 OA
BRANCH  33  36
ATOM     36  C   UNL A   1      34.672  31.125  27.626  1.00  0.00     0.039 A 
ATOM     37  C   UNL A   1      35.677  32.045  27.937  1.00  0.00     0.014 A 
ATOM     38  C   UNL A   1      34.893  29.759  27.789  1.00  0.00     0.014 A 
ATOM     39  C   UNL A   1      36.855  31.597  28.543  1.00  0.00     0.010 A 
ATOM     40  C   UNL A   1      36.003  29.333  28.504  1.00  0.00     0.010 A 
ATOM     41  C   UNL A   1      36.992  30.246  28.899  1.00  0.00    -0.014 A 
BRANCH  41  42
ATOM     42  C   UNL A   1      38.149  29.744  29.689  1.00  0.00     0.031 A 
ATOM     43  C   UNL A   1      38.361  30.249  31.091  1.00  0.00     0.074 A 
ATOM     44  C   UNL A   1      39.068  28.946  29.111  1.00  0.00     0.049 A 
ATOM     45  N   UNL A   1      39.388  30.090  31.886  1.00  0.00    -0.248 NA
ATOM     46  C   UNL A   1      37.296  31.097  31.653  1.00  0.00     0.031 C 
ATOM     47  C   UNL A   1      39.020  28.448  27.734  1.00  0.00     0.029 A 
ATOM     48  N   UNL A   1      40.240  28.426  29.605  1.00  0.00    -0.354 N 
ATOM     49  C   UNL A   1      39.109  30.849  33.015  1.00  0.00     0.074 A 
ATOM     50  C   UNL A   1      37.854  31.525  32.774  1.00  0.00     0.031 C 
ATOM     51  C   UNL A   1      40.091  27.670  27.507  1.00  0.00     0.029 A 
ATOM     52  C   UNL A   1      40.926  27.650  28.702  1.00  0.00     0.049 A 
ATOM     53  H   UNL A   1      40.558  28.594  30.522  1.00  0.00     0.167 HD
ATOM     54  C   UNL A   1      39.817  30.948  34.164  1.00  0.00     0.037 A 
ATOM     55  C   UNL A   1      42.100  27.000  28.826  1.00  0.00     0.037 A 
ATOM     56  C   UNL A   1      41.029  30.219  34.422  1.00  0.00     0.049 A 
ATOM     57  C   UNL A   1      42.846  27.087  30.130  1.00  0.00     0.074 A 
ATOM     58  C   UNL A   1      41.780  30.176  35.582  1.00  0.00     0.029 A 
ATOM     59  N   UNL A   1      41.660  29.394  33.502  1.00  0.00    -0.354 N 
ATOM     60  N   UNL A   1      42.538  27.754  31.217  1.00  0.00    -0.248 NA
ATOM     61  C   UNL A   1      44.101  26.328  30.228  1.00  0.00     0.031 C 
ATOM     62  C   UNL A   1      42.886  29.351  35.355  1.00  0.00     0.029 A 
ATOM     63  C   UNL A   1      42.799  28.845  34.067  1.00  0.00     0.049 A 
ATOM     64  H   UNL A   1      41.346  29.224  32.585  1.00  0.00     0.167 HD
ATOM     65  C   UNL A   1      43.542  27.474  32.133  1.00  0.00     0.074 A 
ATOM     66  C   UNL A   1      44.461  26.565  31.481  1.00  0.00     0.031 C 
ATOM     67  C   UNL A   1      43.691  27.930  33.401  1.00  0.00     0.037 A 
BRANCH  54  68
ATOM     68  C   UNL A   1      39.283  31.859  35.232  1.00  0.00     0.064 A 
ATOM     69  C   UNL A   1      38.477  31.377  36.276  1.00  0.00     0.173 A 
ATOM     70  C   UNL A   1      39.591  33.228  35.220  1.00  0.00     0.173 A 
ATOM     71  F   UNL A   1      38.141  30.079  36.325  1.00  0.00    -0.203 F 
ATOM     72  C   UNL A   1      37.966  32.237  37.244  1.00  0.00     0.198 A 
ATOM     73  C   UNL A   1      39.106  34.078  36.211  1.00  0.00     0.198 A 
ATOM     74  F   UNL A   1      40.360  33.741  34.250  1.00  0.00    -0.203 F 
ATOM     75  F   UNL A   1      37.146  31.763  38.191  1.00  0.00    -0.200 F 
ATOM     76  C   UNL A   1      38.286  33.585  37.214  1.00  0.00     0.200 A 
ATOM     77  F   UNL A   1      39.426  35.380  36.189  1.00  0.00    -0.200 F 
ATOM     78  F   UNL A   1      37.796  34.411  38.149  1.00  0.00    -0.200 F 
ENDBRANCH  54  68
BRANCH  55  79
ATOM     79  C   UNL A   1      42.622  26.178  27.701  1.00  0.00     0.064 A 
ATOM     80  C   UNL A   1      42.224  24.842  27.546  1.00  0.00     0.173 A 
ATOM     81  C   UNL A   1      43.527  26.700  26.766  1.00  0.00     0.173 A 
ATOM     82  F   UNL A   1      41.376  24.291  28.427  1.00  0.00    -0.203 F 
ATOM     83  C   UNL A   1      42.725  24.055  26.512  1.00  0.00     0.198 A 
ATOM     84  C   UNL A   1      44.007  25.918  25.716  1.00  0.00     0.198 A 
ATOM     85  F   UNL A   1      43.936  27.974  26.865  1.00  0.00    -0.203 F 
ATOM     86  F   UNL A   1      42.363  22.768  26.415  1.00  0.00    -0.200 F 
ATOM     87  C   UNL A   1      43.613  24.595  25.594  1.00  0.00     0.200 A 
ATOM     88  F   UNL A   1      44.854  26.448  24.822  1.00  0.00    -0.200 F 
ATOM     89  F   UNL A   1      44.094  23.839  24.598  1.00  0.00    -0.200 F 
ENDBRANCH  55  79
BRANCH  67  90
ATOM     90  C   UNL A   1      44.870  27.425  34.179  1.00  0.00     0.064 A 
ATOM     91  C   UNL A   1      46.085  28.122  34.205  1.00  0.00     0.173 A 
ATOM     92  C   UNL A   1      44.759  26.261  34.954  1.00  0.00     0.173 A 
ATOM     93  F   UNL A   1      46.243  29.232  33.469  1.00  0.00    -0.203 F 
ATOM     94  C   UNL A   1      47.158  27.658  34.963  1.00  0.00     0.198 A 
ATOM     95  C   UNL A   1      45.823  25.816  35.733  1.00  0.00     0.198 A 
ATOM     96  F   UNL A   1      43.613  25.564  34.969  1.00  0.00    -0.203 F 
ATOM     97  F   UNL A   1      48.324  28.317  34.941  1.00  0.00    -0.200 F 
ATOM     98  C   UNL A   1      47.023  26.512  35.733  1.00  0.00     0.200 A 
ATOM     99  F   UNL A   1      45.686  24.718  36.489  1.00  0.00    -0.200 F 
ATOM    100  F   UNL A   1      48.051  26.075  36.471  1.00  0.00    -0.200 F 
ENDBRANCH  67  90
ENDBRANCH  41  42
ENDBRANCH  33  36
ENDBRANCH  31  32
ENDBRANCH  30  31
ENDBRANCH   1  30
TORSDOF 15
ENDMDL
MODEL 3
REMARK VINA RESULT:     -13.1      4.008      9.638
REMARK SMILES CC(=O)N1C[C@@H]2C[N@H+](CC(=O)NCc3ccccc3)C[C@]2(C(=O)NCCCNC(=O)c2ccc(-c3c4nc(c(-c5c(F)c(F)c(F)c(F)c5F)c5ccc([nH]5)c(-c5c(F)c(F)c(F)c(F)c5F)c5nc(c(-c6c(F)c(F)c(F)c(F)c6F)c6ccc3[nH]6)C=C5)C=C4)cc2)C1
REMARK SMILES IDX 25 1 24 2 22 3 23 4 21 6 4 7 5 8 94 9 6 10 7 11 20 12 8 13
REMARK SMILES IDX 2 15 1 16 3 17 9 18 10 19 11 20 12 21 13 23 14 24 15 25
REMARK SMILES IDX 19 26 16 27 18 28 17 29 26 30 27 31 28 32 29 33 30 35 31 36
REMARK SMILES IDX 32 37 93 38 33 39 92 40 34 41 35 42 36 43 86 44 37 45 91 46
REMARK SMILES IDX 85 47 87 48 38 49 90 50 84 51 83 52 39 54 71 55 51 56 70 57
REMARK SMILES IDX 52 58 55 59 69 60 88 61 53 62 54 63 68 65 89 66 56 67 40 68
REMARK SMILES IDX 41 69 49 70 42 71 43 72 47 73 50 74 44 75 45 76 48 77 46 78
REMARK SMILES IDX 72 79 73 80 81 81 74 82 75 83 79 84 82 85 76 86 77 87 80 88
REMARK SMILES IDX 78 89 57 90 58 91 66 92 59 93 60 94 64 95 67 96 61 97 62 98
REMARK SMILES IDX 65 99 63 100
REMARK H PARENT 24 5 8 14 12 22 28 34 87 53 55 64
REMARK Flexibility Score: inf
ROOT
ATOM      1  C   UNL A   1      35.040  23.922  24.300  1.00  0.00     0.117 C 
ENDROOT
BRANCH   1   2
ATOM      2  N   UNL A   1      34.617  24.571  23.059  1.00  0.00    -0.355 N 
ATOM      3  C   UNL A   1      33.525  25.381  22.761  1.00  0.00     0.234 C 
ATOM      4  O   UNL A   1      33.394  25.696  21.576  1.00  0.00    -0.274 OA
ATOM      5  H   UNL A   1      35.214  24.405  22.293  1.00  0.00     0.163 HD
BRANCH   3   6
ATOM      6  C   UNL A   1      32.521  25.829  23.902  1.00  0.00     0.125 C 
ATOM      7  N   UNL A   1      32.615  28.047  25.117  1.00  0.00    -0.341 N 
ATOM      8  C   UNL A   1      31.225  27.837  25.027  1.00  0.00     0.130 C 
ATOM      9  C   UNL A   1      33.286  27.234  24.111  1.00  0.00     0.143 C 
ATOM     10  C   UNL A   1      31.119  26.782  23.951  1.00  0.00     0.087 C 
ATOM     11  C   UNL A   1      29.890  25.934  24.321  1.00  0.00     0.269 C 
ATOM     12  C   UNL A   1      31.499  24.786  23.344  1.00  0.00     0.282 C 
ATOM     13  N   UNL A   1      30.433  24.599  24.313  1.00  0.00    -0.326 N 
ATOM     14  H   UNL A   1      29.740  23.884  24.087  1.00  0.00     0.348 HD
BRANCH   7  15
ATOM     15  C   UNL A   1      33.101  28.785  26.165  1.00  0.00     0.219 C 
ATOM     16  C   UNL A   1      32.418  30.075  26.503  1.00  0.00     0.114 C 
ATOM     17  O   UNL A   1      33.993  28.364  26.906  1.00  0.00    -0.275 OA
ENDBRANCH   7  15
BRANCH  13  18
ATOM     18  C   UNL A   1      30.885  24.034  25.630  1.00  0.00     0.363 C 
BRANCH  18  19
ATOM     19  C   UNL A   1      30.758  22.517  25.854  1.00  0.00     0.275 C 
ATOM     20  O   UNL A   1      29.799  22.095  26.514  1.00  0.00    -0.268 OA
ATOM     21  N   UNL A   1      31.632  21.565  25.415  1.00  0.00    -0.347 N 
ATOM     22  H   UNL A   1      31.689  20.796  26.027  1.00  0.00     0.164 HD
BRANCH  21  23
ATOM     23  C   UNL A   1      32.508  21.416  24.249  1.00  0.00     0.151 C 
BRANCH  23  24
ATOM     24  C   UNL A   1      32.932  19.979  23.964  1.00  0.00    -0.029 A 
ATOM     25  C   UNL A   1      32.284  19.192  23.006  1.00  0.00     0.005 A 
ATOM     26  C   UNL A   1      34.039  19.390  24.598  1.00  0.00     0.005 A 
ATOM     27  C   UNL A   1      32.635  17.844  22.814  1.00  0.00     0.000 A 
ATOM     28  C   UNL A   1      34.344  18.028  24.469  1.00  0.00     0.000 A 
ATOM     29  C   UNL A   1      33.621  17.245  23.587  1.00  0.00     0.000 A 
ENDBRANCH  23  24
ENDBRANCH  21  23
ENDBRANCH  18  19
ENDBRANCH  13  18
ENDBRANCH   3   6
ENDBRANCH   1   2
BRANCH   1  30
ATOM     30  C   UNL A   1      35.956  22.709  24.157  1.00  0.00     0.042 C 
BRANCH  30  31
ATOM     31  C   UNL A   1      36.579  22.298  25.491  1.00  0.00     0.118 C 
BRANCH  31  32
ATOM     32  N   UNL A   1      37.631  21.282  25.407  1.00  0.00    -0.352 N 
ATOM     33  C   UNL A   1      38.923  21.330  25.899  1.00  0.00     0.251 C 
ATOM     34  H   UNL A   1      37.386  20.453  24.936  1.00  0.00     0.163 HD
ATOM     35  O   UNL A   1      39.691  20.389  25.722  1.00  0.00    -0.269 OA
BRANCH  33  36
ATOM     36  C   UNL A   1      39.387  22.550  26.592  1.00  0.00     0.039 A 
ATOM     37  C   UNL A   1      40.367  22.450  27.582  1.00  0.00     0.014 A 
ATOM     38  C   UNL A   1      38.939  23.800  26.169  1.00  0.00     0.014 A 
ATOM     39  C   UNL A   1      40.995  23.609  28.048  1.00  0.00     0.010 A 
ATOM     40  C   UNL A   1      39.649  24.934  26.537  1.00  0.00     0.010 A 
ATOM     41  C   UNL A   1      40.691  24.853  27.472  1.00  0.00    -0.014 A 
BRANCH  41  42
ATOM     42  C   UNL A   1      41.441  26.092  27.813  1.00  0.00     0.031 A 
ATOM     43  C   UNL A   1      40.739  27.201  28.550  1.00  0.00     0.074 A 
ATOM     44  C   UNL A   1      42.696  26.272  27.354  1.00  0.00     0.049 A 
ATOM     45  N   UNL A   1      41.138  28.425  28.786  1.00  0.00    -0.248 NA
ATOM     46  C   UNL A   1      39.379  26.911  29.035  1.00  0.00     0.031 C 
ATOM     47  C   UNL A   1      43.461  25.305  26.563  1.00  0.00     0.029 A 
ATOM     48  N   UNL A   1      43.546  27.344  27.472  1.00  0.00    -0.354 N 
ATOM     49  C   UNL A   1      40.066  29.055  29.405  1.00  0.00     0.074 A 
ATOM     50  C   UNL A   1      38.977  28.104  29.442  1.00  0.00     0.031 C 
ATOM     51  C   UNL A   1      44.675  25.814  26.297  1.00  0.00     0.029 A 
ATOM     52  C   UNL A   1      44.761  27.158  26.856  1.00  0.00     0.049 A 
ATOM     53  H   UNL A   1      43.307  28.169  27.953  1.00  0.00     0.167 HD
ATOM     54  C   UNL A   1      40.004  30.302  29.927  1.00  0.00     0.037 A 
ATOM     55  C   UNL A   1      45.820  27.982  26.752  1.00  0.00     0.037 A 
ATOM     56  C   UNL A   1      41.113  31.217  29.946  1.00  0.00     0.049 A 
ATOM     57  C   UNL A   1      45.745  29.348  27.381  1.00  0.00     0.074 A 
ATOM     58  C   UNL A   1      41.189  32.470  30.526  1.00  0.00     0.029 A 
ATOM     59  N   UNL A   1      42.348  30.966  29.365  1.00  0.00    -0.354 N 
ATOM     60  N   UNL A   1      44.749  29.908  28.025  1.00  0.00    -0.248 NA
ATOM     61  C   UNL A   1      46.942  30.194  27.274  1.00  0.00     0.031 C 
ATOM     62  C   UNL A   1      42.459  32.993  30.268  1.00  0.00     0.029 A 
ATOM     63  C   UNL A   1      43.189  32.048  29.564  1.00  0.00     0.049 A 
ATOM     64  H   UNL A   1      42.590  30.143  28.884  1.00  0.00     0.167 HD
ATOM     65  C   UNL A   1      45.207  31.157  28.423  1.00  0.00     0.074 A 
ATOM     66  C   UNL A   1      46.575  31.267  27.961  1.00  0.00     0.031 C 
ATOM     67  C   UNL A   1      44.553  32.128  29.107  1.00  0.00     0.037 A 
BRANCH  54  68
ATOM     68  C   UNL A   1      38.702  30.734  30.538  1.00  0.00     0.064 A 
ATOM     69  C   UNL A   1      37.656  31.249  29.756  1.00  0.00     0.173 A 
ATOM     70  C   UNL A   1      38.492  30.622  31.921  1.00  0.00     0.173 A 
ATOM     71  F   UNL A   1      37.810  31.391  28.431  1.00  0.00    -0.203 F 
ATOM     72  C   UNL A   1      36.465  31.671  30.340  1.00  0.00     0.198 A 
ATOM     73  C   UNL A   1      37.285  31.013  32.496  1.00  0.00     0.198 A 
ATOM     74  F   UNL A   1      39.456  30.133  32.715  1.00  0.00    -0.203 F 
ATOM     75  F   UNL A   1      35.507  32.220  29.580  1.00  0.00    -0.200 F 
ATOM     76  C   UNL A   1      36.278  31.548  31.708  1.00  0.00     0.200 A 
ATOM     77  F   UNL A   1      37.101  30.881  33.818  1.00  0.00    -0.200 F 
ATOM     78  F   UNL A   1      35.130  31.953  32.267  1.00  0.00    -0.200 F 
ENDBRANCH  54  68
BRANCH  55  79
ATOM     79  C   UNL A   1      47.057  27.529  26.060  1.00  0.00     0.064 A 
ATOM     80  C   UNL A   1      47.180  27.641  24.668  1.00  0.00     0.173 A 
ATOM     81  C   UNL A   1      48.133  26.971  26.766  1.00  0.00     0.173 A 
ATOM     82  F   UNL A   1      46.170  28.149  23.946  1.00  0.00    -0.203 F 
ATOM     83  C   UNL A   1      48.323  27.197  24.005  1.00  0.00     0.198 A 
ATOM     84  C   UNL A   1      49.287  26.552  26.104  1.00  0.00     0.198 A 
ATOM     85  F   UNL A   1      48.069  26.846  28.099  1.00  0.00    -0.203 F 
ATOM     86  F   UNL A   1      48.394  27.275  22.669  1.00  0.00    -0.200 F 
ATOM     87  C   UNL A   1      49.378  26.657  24.725  1.00  0.00     0.200 A 
ATOM     88  F   UNL A   1      50.310  26.043  26.805  1.00  0.00    -0.200 F 
ATOM     89  F   UNL A   1      50.477  26.231  24.089  1.00  0.00    -0.200 F 
ENDBRANCH  55  79
BRANCH  67  90
ATOM     90  C   UNL A   1      45.318  33.376  29.430  1.00  0.00     0.064 A 
ATOM     91  C   UNL A   1      46.087  33.484  30.597  1.00  0.00     0.173 A 
ATOM     92  C   UNL A   1      45.327  34.453  28.531  1.00  0.00     0.173 A 
ATOM     93  F   UNL A   1      46.098  32.486  31.493  1.00  0.00    -0.203 F 
ATOM     94  C   UNL A   1      46.821  34.636  30.864  1.00  0.00     0.198 A 
ATOM     95  C   UNL A   1      46.085  35.591  28.786  1.00  0.00     0.198 A 
ATOM     96  F   UNL A   1      44.614  34.393  27.396  1.00  0.00    -0.203 F 
ATOM     97  F   UNL A   1      47.517  34.736  32.004  1.00  0.00    -0.200 F 
ATOM     98  C   UNL A   1      46.828  35.685  29.954  1.00  0.00     0.200 A 
ATOM     99  F   UNL A   1      46.103  36.597  27.900  1.00  0.00    -0.200 F 
ATOM    100  F   UNL A   1      47.545  36.787  30.207  1.00  0.00    -0.200 F 
ENDBRANCH  67  90
ENDBRANCH  41  42
ENDBRANCH  33  36
ENDBRANCH  31  32
ENDBRANCH  30  31
ENDBRANCH   1  30
TORSDOF 15
ENDMDL
