MODEL 1
REMARK VINA RESULT:     -12.8      0.000      0.000
REMARK SMILES O=C(NCCCNC(=O)c1cccc(-c2ccc(/C=N\O)o2)c1)c1ccc(-c2c3nc(c(-c4c(F)c(F)c(F)c(F)c4F)c4ccc([nH]4)c(-c4c(F)c(F)c(F)c(F)c4F)c4nc(c(-c5c(F)c(F)c(F)c(F)c5F)c5ccc2[nH]5)C=C4)C=C3)cc1
REMARK SMILES IDX 5 1 4 2 3 3 1 4 2 5 24 7 25 8 86 9 26 10 85 11 27 12 28 13
REMARK SMILES IDX 29 14 79 15 30 16 84 17 78 18 80 19 31 20 83 21 77 22 76 23
REMARK SMILES IDX 32 25 64 26 44 27 63 28 45 29 48 30 62 31 81 32 46 33 47 34
REMARK SMILES IDX 61 36 82 37 49 38 33 39 34 40 42 41 35 42 36 43 40 44 43 45
REMARK SMILES IDX 37 46 38 47 41 48 39 49 65 50 66 51 74 52 67 53 68 54 72 55
REMARK SMILES IDX 75 56 69 57 70 58 73 59 71 60 50 61 51 62 59 63 52 64 53 65
REMARK SMILES IDX 57 66 60 67 54 68 55 69 58 70 56 71 6 72 7 73 8 74 9 76
REMARK SMILES IDX 10 77 11 78 23 79 12 80 14 81 13 82 15 83 16 84 22 85 17 86
REMARK SMILES IDX 18 87 19 88 20 89 21 90
REMARK H PARENT 3 6 80 24 48 35 7 75 21 91
REMARK Flexibility Score: inf
ROOT
ATOM      1  C   UNL A   1      33.507  29.024  24.516  1.00  0.00     0.042 C 
ENDROOT
BRANCH   1   2
ATOM      2  C   UNL A   1      32.818  29.153  25.866  1.00  0.00     0.118 C 
BRANCH   2   3
ATOM      3  N   UNL A   1      32.514  30.532  26.230  1.00  0.00    -0.352 N 
ATOM      4  O   UNL A   1      32.662  32.483  27.345  1.00  0.00    -0.269 OA
ATOM      5  C   UNL A   1      33.176  31.405  27.060  1.00  0.00     0.251 C 
ATOM      6  H   UNL A   1      31.701  30.897  25.813  1.00  0.00     0.163 HD
BRANCH   5   7
ATOM      7  C   UNL A   1      34.487  31.044  27.644  1.00  0.00     0.039 A 
ATOM      8  C   UNL A   1      34.765  29.737  28.043  1.00  0.00     0.014 A 
ATOM      9  C   UNL A   1      35.464  32.034  27.790  1.00  0.00     0.014 A 
ATOM     10  C   UNL A   1      35.920  29.463  28.764  1.00  0.00     0.010 A 
ATOM     11  C   UNL A   1      36.678  31.732  28.417  1.00  0.00     0.010 A 
ATOM     12  C   UNL A   1      36.894  30.456  28.958  1.00  0.00    -0.014 A 
BRANCH  12  13
ATOM     13  C   UNL A   1      38.132  30.122  29.712  1.00  0.00     0.031 A 
ATOM     14  C   UNL A   1      38.326  30.583  31.131  1.00  0.00     0.074 A 
ATOM     15  C   UNL A   1      39.068  29.355  29.122  1.00  0.00     0.049 A 
ATOM     16  N   UNL A   1      39.322  30.345  31.949  1.00  0.00    -0.248 NA
ATOM     17  C   UNL A   1      37.272  31.431  31.708  1.00  0.00     0.031 C 
ATOM     18  C   UNL A   1      39.000  28.853  27.748  1.00  0.00     0.029 A 
ATOM     19  N   UNL A   1      40.244  28.839  29.605  1.00  0.00    -0.354 N 
ATOM     20  C   UNL A   1      39.029  31.034  33.119  1.00  0.00     0.074 A 
ATOM     21  C   UNL A   1      37.775  31.721  32.899  1.00  0.00     0.031 C 
ATOM     22  C   UNL A   1      40.051  28.053  27.518  1.00  0.00     0.029 A 
ATOM     23  C   UNL A   1      40.901  28.037  28.704  1.00  0.00     0.049 A 
ATOM     24  H   UNL A   1      40.585  29.026  30.509  1.00  0.00     0.167 HD
ATOM     25  C   UNL A   1      39.738  31.081  34.274  1.00  0.00     0.037 A 
ATOM     26  C   UNL A   1      42.060  27.365  28.816  1.00  0.00     0.037 A 
ATOM     27  C   UNL A   1      40.972  30.371  34.500  1.00  0.00     0.049 A 
ATOM     28  C   UNL A   1      42.828  27.442  30.104  1.00  0.00     0.074 A 
ATOM     29  C   UNL A   1      41.740  30.317  35.651  1.00  0.00     0.029 A 
ATOM     30  N   UNL A   1      41.621  29.591  33.553  1.00  0.00    -0.354 N 
ATOM     31  N   UNL A   1      42.521  28.065  31.215  1.00  0.00    -0.248 NA
ATOM     32  C   UNL A   1      44.107  26.721  30.152  1.00  0.00     0.031 C 
ATOM     33  C   UNL A   1      42.877  29.546  35.385  1.00  0.00     0.029 A 
ATOM     34  C   UNL A   1      42.791  29.072  34.086  1.00  0.00     0.049 A 
ATOM     35  H   UNL A   1      41.297  29.430  32.637  1.00  0.00     0.167 HD
ATOM     36  C   UNL A   1      43.551  27.789  32.103  1.00  0.00     0.074 A 
ATOM     37  C   UNL A   1      44.486  26.931  31.405  1.00  0.00     0.031 C 
ATOM     38  C   UNL A   1      43.706  28.209  33.383  1.00  0.00     0.037 A 
BRANCH  25  39
ATOM     39  C   UNL A   1      39.212  31.951  35.380  1.00  0.00     0.064 A 
ATOM     40  C   UNL A   1      38.421  31.436  36.419  1.00  0.00     0.173 A 
ATOM     41  C   UNL A   1      39.533  33.317  35.419  1.00  0.00     0.173 A 
ATOM     42  F   UNL A   1      38.076  30.140  36.425  1.00  0.00    -0.203 F 
ATOM     43  C   UNL A   1      37.947  32.261  37.436  1.00  0.00     0.198 A 
ATOM     44  C   UNL A   1      39.082  34.133  36.454  1.00  0.00     0.198 A 
ATOM     45  F   UNL A   1      40.292  33.861  34.456  1.00  0.00    -0.203 F 
ATOM     46  F   UNL A   1      37.152  31.757  38.391  1.00  0.00    -0.200 F 
ATOM     47  C   UNL A   1      38.282  33.607  37.456  1.00  0.00     0.200 A 
ATOM     48  F   UNL A   1      39.419  35.430  36.478  1.00  0.00    -0.200 F 
ATOM     49  F   UNL A   1      37.829  34.398  38.439  1.00  0.00    -0.200 F 
ENDBRANCH  25  39
BRANCH  26  50
ATOM     50  C   UNL A   1      42.551  26.545  27.679  1.00  0.00     0.064 A 
ATOM     51  C   UNL A   1      42.091  25.237  27.484  1.00  0.00     0.173 A 
ATOM     52  C   UNL A   1      43.475  27.058  26.756  1.00  0.00     0.173 A 
ATOM     53  F   UNL A   1      41.220  24.697  28.351  1.00  0.00    -0.203 F 
ATOM     54  C   UNL A   1      42.546  24.466  26.418  1.00  0.00     0.198 A 
ATOM     55  C   UNL A   1      43.906  26.296  25.673  1.00  0.00     0.198 A 
ATOM     56  F   UNL A   1      43.942  28.307  26.895  1.00  0.00    -0.203 F 
ATOM     57  F   UNL A   1      42.119  23.203  26.277  1.00  0.00    -0.200 F 
ATOM     58  C   UNL A   1      43.447  24.998  25.509  1.00  0.00     0.200 A 
ATOM     59  F   UNL A   1      44.764  26.821  24.788  1.00  0.00    -0.200 F 
ATOM     60  F   UNL A   1      43.877  24.259  24.477  1.00  0.00    -0.200 F 
ENDBRANCH  26  50
BRANCH  38  61
ATOM     61  C   UNL A   1      44.909  27.706  34.126  1.00  0.00     0.064 A 
ATOM     62  C   UNL A   1      44.897  26.482  34.811  1.00  0.00     0.173 A 
ATOM     63  C   UNL A   1      46.096  28.455  34.138  1.00  0.00     0.173 A 
ATOM     64  F   UNL A   1      43.782  25.738  34.845  1.00  0.00    -0.203 F 
ATOM     65  C   UNL A   1      46.020  26.042  35.506  1.00  0.00     0.198 A 
ATOM     66  C   UNL A   1      47.227  27.997  34.808  1.00  0.00     0.198 A 
ATOM     67  F   UNL A   1      46.161  29.629  33.493  1.00  0.00    -0.203 F 
ATOM     68  F   UNL A   1      45.969  24.896  36.201  1.00  0.00    -0.200 F 
ATOM     69  C   UNL A   1      47.185  26.795  35.499  1.00  0.00     0.200 A 
ATOM     70  F   UNL A   1      48.354  28.720  34.789  1.00  0.00    -0.200 F 
ATOM     71  F   UNL A   1      48.266  26.368  36.168  1.00  0.00    -0.200 F 
ENDBRANCH  38  61
ENDBRANCH  12  13
ENDBRANCH   5   7
ENDBRANCH   2   3
ENDBRANCH   1   2
BRANCH   1  72
ATOM     72  C   UNL A   1      34.070  27.641  24.230  1.00  0.00     0.118 C 
BRANCH  72  73
ATOM     73  N   UNL A   1      34.033  27.309  22.810  1.00  0.00    -0.352 N 
ATOM     74  C   UNL A   1      33.024  26.762  22.057  1.00  0.00     0.251 C 
ATOM     75  H   UNL A   1      34.861  27.508  22.315  1.00  0.00     0.163 HD
ATOM     76  O   UNL A   1      33.259  26.359  20.922  1.00  0.00    -0.269 OA
BRANCH  74  77
ATOM     77  C   UNL A   1      31.657  26.658  22.607  1.00  0.00     0.040 A 
ATOM     78  C   UNL A   1      31.210  25.434  23.110  1.00  0.00     0.014 A 
ATOM     79  C   UNL A   1      30.805  27.765  22.594  1.00  0.00     0.025 A 
ATOM     80  C   UNL A   1      29.938  25.347  23.676  1.00  0.00     0.002 A 
ATOM     81  C   UNL A   1      29.546  27.698  23.198  1.00  0.00     0.018 A 
ATOM     82  C   UNL A   1      29.120  26.481  23.743  1.00  0.00     0.012 A 
BRANCH  81  83
ATOM     83  C   UNL A   1      28.733  28.901  23.262  1.00  0.00     0.134 A 
ATOM     84  C   UNL A   1      27.383  29.141  23.126  1.00  0.00     0.051 A 
ATOM     85  O   UNL A   1      29.403  30.080  23.397  1.00  0.00    -0.455 OA
ATOM     86  C   UNL A   1      27.221  30.544  23.174  1.00  0.00     0.053 A 
ATOM     87  C   UNL A   1      28.484  31.090  23.319  1.00  0.00     0.149 A 
BRANCH  87  88
ATOM     88  C   UNL A   1      28.876  32.478  23.385  1.00  0.00     0.200 C 
ATOM     89  N   UNL A   1      28.667  33.454  22.549  1.00  0.00    -0.094 NA
BRANCH  89  90
ATOM     90  O   UNL A   1      27.935  33.066  21.426  1.00  0.00    -0.411 OA
ATOM     91  H   UNL A   1      27.170  32.534  21.526  1.00  0.00     0.330 HD
ENDBRANCH  89  90
ENDBRANCH  87  88
ENDBRANCH  81  83
ENDBRANCH  74  77
ENDBRANCH  72  73
ENDBRANCH   1  72
TORSDOF 13
ENDMDL
MODEL 2
REMARK VINA RESULT:     -12.7      2.736      4.139
REMARK SMILES O=C(NCCCNC(=O)c1cccc(-c2ccc(/C=N\O)o2)c1)c1ccc(-c2c3nc(c(-c4c(F)c(F)c(F)c(F)c4F)c4ccc([nH]4)c(-c4c(F)c(F)c(F)c(F)c4F)c4nc(c(-c5c(F)c(F)c(F)c(F)c5F)c5ccc2[nH]5)C=C4)C=C3)cc1
REMARK SMILES IDX 5 1 4 2 3 3 1 4 2 5 24 7 25 8 86 9 26 10 85 11 27 12 28 13
REMARK SMILES IDX 29 14 79 15 30 16 84 17 78 18 80 19 31 20 83 21 77 22 76 23
REMARK SMILES IDX 32 25 64 26 44 27 63 28 45 29 48 30 62 31 81 32 46 33 47 34
REMARK SMILES IDX 61 36 82 37 49 38 33 39 34 40 42 41 35 42 36 43 40 44 43 45
REMARK SMILES IDX 37 46 38 47 41 48 39 49 65 50 66 51 74 52 67 53 68 54 72 55
REMARK SMILES IDX 75 56 69 57 70 58 73 59 71 60 50 61 51 62 59 63 52 64 53 65
REMARK SMILES IDX 57 66 60 67 54 68 55 69 58 70 56 71 6 72 7 73 8 74 9 76
REMARK SMILES IDX 10 77 11 78 23 79 12 80 14 81 13 82 15 83 16 84 22 85 17 86
REMARK SMILES IDX 18 87 19 88 20 89 21 90
REMARK H PARENT 3 6 80 24 48 35 7 75 21 91
REMARK Flexibility Score: inf
ROOT
ATOM      1  C   UNL A   1      31.557  32.010  26.880  1.00  0.00     0.042 C 
ENDROOT
BRANCH   1   2
ATOM      2  C   UNL A   1      32.785  32.888  27.073  1.00  0.00     0.118 C 
BRANCH   2   3
ATOM      3  N   UNL A   1      32.474  34.200  27.627  1.00  0.00    -0.352 N 
ATOM      4  O   UNL A   1      32.512  35.921  29.079  1.00  0.00    -0.269 OA
ATOM      5  C   UNL A   1      33.029  34.879  28.685  1.00  0.00     0.251 C 
ATOM      6  H   UNL A   1      31.747  34.678  27.167  1.00  0.00     0.163 HD
BRANCH   5   7
ATOM      7  C   UNL A   1      34.223  34.347  29.380  1.00  0.00     0.039 A 
ATOM      8  C   UNL A   1      35.509  34.611  28.911  1.00  0.00     0.014 A 
ATOM      9  C   UNL A   1      34.052  33.572  30.532  1.00  0.00     0.014 A 
ATOM     10  C   UNL A   1      36.597  33.944  29.460  1.00  0.00     0.010 A 
ATOM     11  C   UNL A   1      35.161  32.991  31.155  1.00  0.00     0.010 A 
ATOM     12  C   UNL A   1      36.439  33.127  30.592  1.00  0.00    -0.014 A 
BRANCH  12  13
ATOM     13  C   UNL A   1      37.630  32.450  31.171  1.00  0.00     0.031 A 
ATOM     14  C   UNL A   1      38.111  32.778  32.558  1.00  0.00     0.074 A 
ATOM     15  C   UNL A   1      38.252  31.497  30.452  1.00  0.00     0.049 A 
ATOM     16  N   UNL A   1      39.103  32.251  33.235  1.00  0.00    -0.248 NA
ATOM     17  C   UNL A   1      37.396  33.839  33.281  1.00  0.00     0.031 C 
ATOM     18  C   UNL A   1      37.886  31.096  29.092  1.00  0.00     0.029 A 
ATOM     19  N   UNL A   1      39.302  30.673  30.768  1.00  0.00    -0.354 N 
ATOM     20  C   UNL A   1      39.147  32.935  34.443  1.00  0.00     0.074 A 
ATOM     21  C   UNL A   1      38.100  33.932  34.400  1.00  0.00     0.031 C 
ATOM     22  C   UNL A   1      38.654  30.064  28.715  1.00  0.00     0.029 A 
ATOM     23  C   UNL A   1      39.609  29.772  29.778  1.00  0.00     0.049 A 
ATOM     24  H   UNL A   1      39.789  30.722  31.623  1.00  0.00     0.167 HD
ATOM     25  C   UNL A   1      39.982  32.742  35.495  1.00  0.00     0.037 A 
ATOM     26  C   UNL A   1      40.557  28.820  29.727  1.00  0.00     0.037 A 
ATOM     27  C   UNL A   1      41.005  31.729  35.546  1.00  0.00     0.049 A 
ATOM     28  C   UNL A   1      41.471  28.634  30.903  1.00  0.00     0.074 A 
ATOM     29  C   UNL A   1      41.867  31.424  36.585  1.00  0.00     0.029 A 
ATOM     30  N   UNL A   1      41.304  30.854  34.511  1.00  0.00    -0.354 N 
ATOM     31  N   UNL A   1      41.478  29.261  32.054  1.00  0.00    -0.248 NA
ATOM     32  C   UNL A   1      42.513  27.607  30.772  1.00  0.00     0.031 C 
ATOM     33  C   UNL A   1      42.721  30.399  36.160  1.00  0.00     0.029 A 
ATOM     34  C   UNL A   1      42.354  30.026  34.878  1.00  0.00     0.049 A 
ATOM     35  H   UNL A   1      40.839  30.827  33.643  1.00  0.00     0.167 HD
ATOM     36  C   UNL A   1      42.501  28.687  32.795  1.00  0.00     0.074 A 
ATOM     37  C   UNL A   1      43.084  27.652  31.967  1.00  0.00     0.031 C 
ATOM     38  C   UNL A   1      42.918  28.991  34.048  1.00  0.00     0.037 A 
BRANCH  25  39
ATOM     39  C   UNL A   1      39.842  33.665  36.673  1.00  0.00     0.064 A 
ATOM     40  C   UNL A   1      40.551  34.873  36.759  1.00  0.00     0.173 A 
ATOM     41  C   UNL A   1      38.958  33.350  37.717  1.00  0.00     0.173 A 
ATOM     42  F   UNL A   1      41.417  35.217  35.795  1.00  0.00    -0.203 F 
ATOM     43  C   UNL A   1      40.403  35.714  37.860  1.00  0.00     0.198 A 
ATOM     44  C   UNL A   1      38.790  34.207  38.801  1.00  0.00     0.198 A 
ATOM     45  F   UNL A   1      38.249  32.212  37.682  1.00  0.00    -0.203 F 
ATOM     46  F   UNL A   1      41.128  36.838  37.945  1.00  0.00    -0.200 F 
ATOM     47  C   UNL A   1      39.519  35.384  38.877  1.00  0.00     0.200 A 
ATOM     48  F   UNL A   1      37.924  33.893  39.775  1.00  0.00    -0.200 F 
ATOM     49  F   UNL A   1      39.375  36.197  39.932  1.00  0.00    -0.200 F 
ENDBRANCH  25  39
BRANCH  26  50
ATOM     50  C   UNL A   1      40.671  27.957  28.523  1.00  0.00     0.064 A 
ATOM     51  C   UNL A   1      40.014  26.722  28.458  1.00  0.00     0.173 A 
ATOM     52  C   UNL A   1      41.426  28.356  27.410  1.00  0.00     0.173 A 
ATOM     53  F   UNL A   1      39.295  26.290  29.506  1.00  0.00    -0.203 F 
ATOM     54  C   UNL A   1      40.116  25.911  27.331  1.00  0.00     0.198 A 
ATOM     55  C   UNL A   1      41.503  27.557  26.271  1.00  0.00     0.198 A 
ATOM     56  F   UNL A   1      42.070  29.532  27.420  1.00  0.00    -0.203 F 
ATOM     57  F   UNL A   1      39.507  24.717  27.310  1.00  0.00    -0.200 F 
ATOM     58  C   UNL A   1      40.854  26.332  26.235  1.00  0.00     0.200 A 
ATOM     59  F   UNL A   1      42.204  27.976  25.209  1.00  0.00    -0.200 F 
ATOM     60  F   UNL A   1      40.944  25.556  25.147  1.00  0.00    -0.200 F 
ENDBRANCH  26  50
BRANCH  38  61
ATOM     61  C   UNL A   1      44.029  28.160  34.619  1.00  0.00     0.064 A 
ATOM     62  C   UNL A   1      43.781  26.956  35.296  1.00  0.00     0.173 A 
ATOM     63  C   UNL A   1      45.364  28.568  34.472  1.00  0.00     0.173 A 
ATOM     64  F   UNL A   1      42.521  26.532  35.479  1.00  0.00    -0.203 F 
ATOM     65  C   UNL A   1      44.826  26.209  35.830  1.00  0.00     0.198 A 
ATOM     66  C   UNL A   1      46.408  27.802  34.981  1.00  0.00     0.198 A 
ATOM     67  F   UNL A   1      45.655  29.708  33.829  1.00  0.00    -0.203 F 
ATOM     68  F   UNL A   1      44.562  25.090  36.521  1.00  0.00    -0.200 F 
ATOM     69  C   UNL A   1      46.139  26.628  35.667  1.00  0.00     0.200 A 
ATOM     70  F   UNL A   1      47.676  28.203  34.812  1.00  0.00    -0.200 F 
ATOM     71  F   UNL A   1      47.143  25.905  36.182  1.00  0.00    -0.200 F 
ENDBRANCH  38  61
ENDBRANCH  12  13
ENDBRANCH   5   7
ENDBRANCH   2   3
ENDBRANCH   1   2
BRANCH   1  72
ATOM     72  C   UNL A   1      31.843  30.516  26.914  1.00  0.00     0.118 C 
BRANCH  72  73
ATOM     73  N   UNL A   1      33.182  30.219  27.408  1.00  0.00    -0.352 N 
ATOM     74  C   UNL A   1      34.048  29.212  27.060  1.00  0.00     0.251 C 
ATOM     75  H   UNL A   1      33.517  30.836  28.099  1.00  0.00     0.163 HD
ATOM     76  O   UNL A   1      35.046  29.003  27.743  1.00  0.00    -0.269 OA
BRANCH  74  77
ATOM     77  C   UNL A   1      33.785  28.381  25.868  1.00  0.00     0.040 A 
ATOM     78  C   UNL A   1      34.002  28.916  24.597  1.00  0.00     0.014 A 
ATOM     79  C   UNL A   1      33.293  27.082  26.008  1.00  0.00     0.025 A 
ATOM     80  C   UNL A   1      33.802  28.116  23.471  1.00  0.00     0.002 A 
ATOM     81  C   UNL A   1      33.131  26.259  24.890  1.00  0.00     0.018 A 
ATOM     82  C   UNL A   1      33.394  26.785  23.619  1.00  0.00     0.012 A 
BRANCH  81  83
ATOM     83  C   UNL A   1      32.722  24.879  25.084  1.00  0.00     0.134 A 
ATOM     84  C   UNL A   1      32.943  23.716  24.379  1.00  0.00     0.051 A 
ATOM     85  O   UNL A   1      31.866  24.640  26.118  1.00  0.00    -0.455 OA
ATOM     86  C   UNL A   1      32.175  22.713  25.013  1.00  0.00     0.053 A 
ATOM     87  C   UNL A   1      31.509  23.320  26.063  1.00  0.00     0.149 A 
BRANCH  87  88
ATOM     88  C   UNL A   1      30.573  22.750  27.002  1.00  0.00     0.200 C 
ATOM     89  N   UNL A   1      29.448  23.218  27.462  1.00  0.00    -0.094 NA
BRANCH  89  90
ATOM     90  O   UNL A   1      29.118  24.468  26.933  1.00  0.00    -0.411 OA
ATOM     91  H   UNL A   1      28.495  24.531  26.236  1.00  0.00     0.330 HD
ENDBRANCH  89  90
ENDBRANCH  87  88
ENDBRANCH  81  83
ENDBRANCH  74  77
ENDBRANCH  72  73
ENDBRANCH   1  72
TORSDOF 13
ENDMDL
MODEL 3
REMARK VINA RESULT:     -12.7      2.710      4.423
REMARK SMILES O=C(NCCCNC(=O)c1cccc(-c2ccc(/C=N\O)o2)c1)c1ccc(-c2c3nc(c(-c4c(F)c(F)c(F)c(F)c4F)c4ccc([nH]4)c(-c4c(F)c(F)c(F)c(F)c4F)c4nc(c(-c5c(F)c(F)c(F)c(F)c5F)c5ccc2[nH]5)C=C4)C=C3)cc1
REMARK SMILES IDX 5 1 4 2 3 3 1 4 2 5 24 7 25 8 86 9 26 10 85 11 27 12 28 13
REMARK SMILES IDX 29 14 79 15 30 16 84 17 78 18 80 19 31 20 83 21 77 22 76 23
REMARK SMILES IDX 32 25 64 26 44 27 63 28 45 29 48 30 62 31 81 32 46 33 47 34
REMARK SMILES IDX 61 36 82 37 49 38 33 39 34 40 42 41 35 42 36 43 40 44 43 45
REMARK SMILES IDX 37 46 38 47 41 48 39 49 65 50 66 51 74 52 67 53 68 54 72 55
REMARK SMILES IDX 75 56 69 57 70 58 73 59 71 60 50 61 51 62 59 63 52 64 53 65
REMARK SMILES IDX 57 66 60 67 54 68 55 69 58 70 56 71 6 72 7 73 8 74 9 76
REMARK SMILES IDX 10 77 11 78 23 79 12 80 14 81 13 82 15 83 16 84 22 85 17 86
REMARK SMILES IDX 18 87 19 88 20 89 21 90
REMARK H PARENT 3 6 80 24 48 35 7 75 21 91
REMARK Flexibility Score: inf
ROOT
ATOM      1  C   UNL A   1      31.576  32.070  26.735  1.00  0.00     0.042 C 
ENDROOT
BRANCH   1   2
ATOM      2  C   UNL A   1      32.806  32.916  27.031  1.00  0.00     0.118 C 
BRANCH   2   3
ATOM      3  N   UNL A   1      32.485  34.223  27.592  1.00  0.00    -0.352 N 
ATOM      4  O   UNL A   1      32.502  35.932  29.058  1.00  0.00    -0.269 OA
ATOM      5  C   UNL A   1      33.027  34.895  28.662  1.00  0.00     0.251 C 
ATOM      6  H   UNL A   1      31.760  34.702  27.129  1.00  0.00     0.163 HD
BRANCH   5   7
ATOM      7  C   UNL A   1      34.215  34.362  29.364  1.00  0.00     0.039 A 
ATOM      8  C   UNL A   1      35.505  34.646  28.919  1.00  0.00     0.014 A 
ATOM      9  C   UNL A   1      34.035  33.564  30.499  1.00  0.00     0.014 A 
ATOM     10  C   UNL A   1      36.592  33.980  29.472  1.00  0.00     0.010 A 
ATOM     11  C   UNL A   1      35.141  32.981  31.127  1.00  0.00     0.010 A 
ATOM     12  C   UNL A   1      36.426  33.141  30.586  1.00  0.00    -0.014 A 
BRANCH  12  13
ATOM     13  C   UNL A   1      37.614  32.464  31.169  1.00  0.00     0.031 A 
ATOM     14  C   UNL A   1      38.091  32.792  32.559  1.00  0.00     0.074 A 
ATOM     15  C   UNL A   1      38.239  31.510  30.454  1.00  0.00     0.049 A 
ATOM     16  N   UNL A   1      39.080  32.267  33.239  1.00  0.00    -0.248 NA
ATOM     17  C   UNL A   1      37.372  33.854  33.278  1.00  0.00     0.031 C 
ATOM     18  C   UNL A   1      37.878  31.108  29.093  1.00  0.00     0.029 A 
ATOM     19  N   UNL A   1      39.288  30.687  30.775  1.00  0.00    -0.354 N 
ATOM     20  C   UNL A   1      39.120  32.952  34.447  1.00  0.00     0.074 A 
ATOM     21  C   UNL A   1      38.072  33.949  34.399  1.00  0.00     0.031 C 
ATOM     22  C   UNL A   1      38.648  30.076  28.719  1.00  0.00     0.029 A 
ATOM     23  C   UNL A   1      39.599  29.785  29.786  1.00  0.00     0.049 A 
ATOM     24  H   UNL A   1      39.772  30.737  31.631  1.00  0.00     0.167 HD
ATOM     25  C   UNL A   1      39.950  32.760  35.502  1.00  0.00     0.037 A 
ATOM     26  C   UNL A   1      40.547  28.833  29.739  1.00  0.00     0.037 A 
ATOM     27  C   UNL A   1      40.973  31.746  35.557  1.00  0.00     0.049 A 
ATOM     28  C   UNL A   1      41.457  28.648  30.919  1.00  0.00     0.074 A 
ATOM     29  C   UNL A   1      41.832  31.442  36.600  1.00  0.00     0.029 A 
ATOM     30  N   UNL A   1      41.277  30.871  34.524  1.00  0.00    -0.354 N 
ATOM     31  N   UNL A   1      41.460  29.276  32.069  1.00  0.00    -0.248 NA
ATOM     32  C   UNL A   1      42.499  27.621  30.792  1.00  0.00     0.031 C 
ATOM     33  C   UNL A   1      42.688  30.417  36.179  1.00  0.00     0.029 A 
ATOM     34  C   UNL A   1      42.325  30.043  34.896  1.00  0.00     0.049 A 
ATOM     35  H   UNL A   1      40.815  30.843  33.655  1.00  0.00     0.167 HD
ATOM     36  C   UNL A   1      42.480  28.703  32.814  1.00  0.00     0.074 A 
ATOM     37  C   UNL A   1      43.067  27.667  31.990  1.00  0.00     0.031 C 
ATOM     38  C   UNL A   1      42.892  29.008  34.069  1.00  0.00     0.037 A 
BRANCH  25  39
ATOM     39  C   UNL A   1      39.806  33.684  36.679  1.00  0.00     0.064 A 
ATOM     40  C   UNL A   1      40.525  34.886  36.773  1.00  0.00     0.173 A 
ATOM     41  C   UNL A   1      38.909  33.376  37.713  1.00  0.00     0.173 A 
ATOM     42  F   UNL A   1      41.404  35.222  35.817  1.00  0.00    -0.203 F 
ATOM     43  C   UNL A   1      40.372  35.727  37.872  1.00  0.00     0.198 A 
ATOM     44  C   UNL A   1      38.736  34.235  38.796  1.00  0.00     0.198 A 
ATOM     45  F   UNL A   1      38.190  32.244  37.670  1.00  0.00    -0.203 F 
ATOM     46  F   UNL A   1      41.106  36.846  37.965  1.00  0.00    -0.200 F 
ATOM     47  C   UNL A   1      39.475  35.405  38.879  1.00  0.00     0.200 A 
ATOM     48  F   UNL A   1      37.858  33.928  39.761  1.00  0.00    -0.200 F 
ATOM     49  F   UNL A   1      39.326  36.219  39.933  1.00  0.00    -0.200 F 
ENDBRANCH  25  39
BRANCH  26  50
ATOM     50  C   UNL A   1      40.666  27.969  28.537  1.00  0.00     0.064 A 
ATOM     51  C   UNL A   1      41.427  28.374  27.433  1.00  0.00     0.173 A 
ATOM     52  C   UNL A   1      40.036  26.717  28.473  1.00  0.00     0.173 A 
ATOM     53  F   UNL A   1      42.034  29.571  27.440  1.00  0.00    -0.203 F 
ATOM     54  C   UNL A   1      41.544  27.566  26.305  1.00  0.00     0.198 A 
ATOM     55  C   UNL A   1      40.177  25.898  27.357  1.00  0.00     0.198 A 
ATOM     56  F   UNL A   1      39.300  26.282  29.507  1.00  0.00    -0.203 F 
ATOM     57  F   UNL A   1      42.246  27.994  25.247  1.00  0.00    -0.200 F 
ATOM     58  C   UNL A   1      40.925  26.325  26.270  1.00  0.00     0.200 A 
ATOM     59  F   UNL A   1      39.591  24.693  27.335  1.00  0.00    -0.200 F 
ATOM     60  F   UNL A   1      41.045  25.544  25.188  1.00  0.00    -0.200 F 
ENDBRANCH  26  50
BRANCH  38  61
ATOM     61  C   UNL A   1      44.001  28.177  34.645  1.00  0.00     0.064 A 
ATOM     62  C   UNL A   1      45.346  28.563  34.542  1.00  0.00     0.173 A 
ATOM     63  C   UNL A   1      43.710  26.983  35.323  1.00  0.00     0.173 A 
ATOM     64  F   UNL A   1      45.677  29.687  33.888  1.00  0.00    -0.203 F 
ATOM     65  C   UNL A   1      46.359  27.770  35.070  1.00  0.00     0.198 A 
ATOM     66  C   UNL A   1      44.725  26.207  35.877  1.00  0.00     0.198 A 
ATOM     67  F   UNL A   1      42.440  26.572  35.453  1.00  0.00    -0.203 F 
ATOM     68  F   UNL A   1      47.642  28.130  34.913  1.00  0.00    -0.200 F 
ATOM     69  C   UNL A   1      46.048  26.596  35.743  1.00  0.00     0.200 A 
ATOM     70  F   UNL A   1      44.420  25.081  36.536  1.00  0.00    -0.200 F 
ATOM     71  F   UNL A   1      47.027  25.834  36.252  1.00  0.00    -0.200 F 
ENDBRANCH  38  61
ENDBRANCH  12  13
ENDBRANCH   5   7
ENDBRANCH   2   3
ENDBRANCH   1   2
BRANCH   1  72
ATOM     72  C   UNL A   1      31.790  30.573  26.902  1.00  0.00     0.118 C 
BRANCH  72  73
ATOM     73  N   UNL A   1      33.126  30.255  27.392  1.00  0.00    -0.352 N 
ATOM     74  C   UNL A   1      33.986  29.251  27.022  1.00  0.00     0.251 C 
ATOM     75  H   UNL A   1      33.463  30.854  28.098  1.00  0.00     0.163 HD
ATOM     76  O   UNL A   1      34.981  29.019  27.702  1.00  0.00    -0.269 OA
BRANCH  74  77
ATOM     77  C   UNL A   1      33.721  28.451  25.809  1.00  0.00     0.040 A 
ATOM     78  C   UNL A   1      33.936  29.018  24.552  1.00  0.00     0.014 A 
ATOM     79  C   UNL A   1      33.229  27.149  25.917  1.00  0.00     0.025 A 
ATOM     80  C   UNL A   1      33.734  28.248  23.407  1.00  0.00     0.002 A 
ATOM     81  C   UNL A   1      33.066  26.355  24.779  1.00  0.00     0.018 A 
ATOM     82  C   UNL A   1      33.326  26.913  23.521  1.00  0.00     0.012 A 
BRANCH  81  83
ATOM     83  C   UNL A   1      32.657  24.970  24.939  1.00  0.00     0.134 A 
ATOM     84  C   UNL A   1      32.821  23.838  24.171  1.00  0.00     0.051 A 
ATOM     85  O   UNL A   1      31.866  24.691  26.014  1.00  0.00    -0.455 OA
ATOM     86  C   UNL A   1      32.085  22.813  24.809  1.00  0.00     0.053 A 
ATOM     87  C   UNL A   1      31.494  23.378  25.925  1.00  0.00     0.149 A 
BRANCH  87  88
ATOM     88  C   UNL A   1      30.614  22.773  26.896  1.00  0.00     0.200 C 
ATOM     89  N   UNL A   1      29.510  23.217  27.426  1.00  0.00    -0.094 NA
BRANCH  89  90
ATOM     90  O   UNL A   1      29.141  24.476  26.949  1.00  0.00    -0.411 OA
ATOM     91  H   UNL A   1      28.444  24.947  27.361  1.00  0.00     0.330 HD
ENDBRANCH  89  90
ENDBRANCH  87  88
ENDBRANCH  81  83
ENDBRANCH  74  77
ENDBRANCH  72  73
ENDBRANCH   1  72
TORSDOF 13
ENDMDL
