MODEL 1
REMARK VINA RESULT:     -12.7      0.000      0.000
REMARK SMILES CC(C)(C[NH+]1C[C@@H]2C[NH2+]C[C@H]2C1(C)C)C(=O)NCCCNC(=O)c1ccc(-c2c3nc(c(-c4c(F)c(F)c(F)c(F)c4F)c4ccc([nH]4)c(-c4c(F)c(F)c(F)c(F)c4F)c4nc(c(-c5c(F)c(F)c(F)c(F)c5F)c5ccc2[nH]5)C=C4)C=C3)cc1
REMARK SMILES IDX 19 1 18 2 17 3 15 4 16 5 2 7 1 8 3 9 4 10 5 11 6 12 12 13
REMARK SMILES IDX 7 15 11 16 13 17 14 18 8 19 10 20 9 21 20 24 21 25 22 26
REMARK SMILES IDX 23 28 24 29 25 30 86 31 26 32 85 33 27 34 28 35 29 36 79 37
REMARK SMILES IDX 30 38 84 39 78 40 80 41 31 42 83 43 77 44 76 45 32 47 64 48
REMARK SMILES IDX 44 49 63 50 45 51 48 52 62 53 81 54 46 55 47 56 61 58 82 59
REMARK SMILES IDX 49 60 33 61 34 62 42 63 35 64 36 65 40 66 43 67 37 68 38 69
REMARK SMILES IDX 41 70 39 71 65 72 66 73 74 74 67 75 68 76 72 77 75 78 69 79
REMARK SMILES IDX 70 80 73 81 71 82 50 83 51 84 59 85 52 86 53 87 57 88 60 89
REMARK SMILES IDX 54 90 55 91 58 92 56 93
REMARK H PARENT 17 6 5 14 9 22 9 23 21 27 80 46 48 57
REMARK Flexibility Score: inf
ROOT
ATOM      1  C   UNL A   1      32.286  28.072  25.191  1.00  0.00     0.042 C 
ENDROOT
BRANCH   1   2
ATOM      2  C   UNL A   1      31.545  27.792  23.887  1.00  0.00     0.117 C 
BRANCH   2   3
ATOM      3  N   UNL A   1      32.414  27.414  22.787  1.00  0.00    -0.355 N 
ATOM      4  C   UNL A   1      32.958  26.252  22.341  1.00  0.00     0.231 C 
ATOM      5  O   UNL A   1      33.629  26.374  21.308  1.00  0.00    -0.274 OA
ATOM      6  H   UNL A   1      32.672  28.184  22.231  1.00  0.00     0.163 HD
BRANCH   4   7
ATOM      7  C   UNL A   1      32.764  24.872  23.006  1.00  0.00     0.092 C 
ATOM      8  C   UNL A   1      33.207  23.795  21.985  1.00  0.00     0.027 C 
ATOM      9  C   UNL A   1      31.252  24.621  23.213  1.00  0.00     0.027 C 
BRANCH   7  10
ATOM     10  C   UNL A   1      33.522  24.712  24.365  1.00  0.00     0.279 C 
BRANCH  10  11
ATOM     11  N   UNL A   1      33.995  23.403  24.779  1.00  0.00    -0.329 N 
ATOM     12  C   UNL A   1      33.047  22.334  25.115  1.00  0.00     0.272 C 
ATOM     13  C   UNL A   1      35.401  22.961  24.886  1.00  0.00     0.101 C 
ATOM     14  H   UNL A   1      34.148  24.403  24.644  1.00  0.00     0.348 HD
ATOM     15  C   UNL A   1      33.867  21.148  24.684  1.00  0.00     0.114 C 
ATOM     16  C   UNL A   1      35.210  21.491  25.282  1.00  0.00     0.119 C 
ATOM     17  C   UNL A   1      36.189  23.112  23.588  1.00  0.00     0.079 C 
ATOM     18  C   UNL A   1      36.139  23.685  26.024  1.00  0.00     0.079 C 
ATOM     19  C   UNL A   1      33.697  19.738  25.176  1.00  0.00     0.270 C 
ATOM     20  C   UNL A   1      36.013  20.303  24.819  1.00  0.00     0.271 C 
ATOM     21  N   UNL A   1      35.064  19.168  25.004  1.00  0.00    -0.345 N 
ATOM     22  H   UNL A   1      35.086  18.561  24.184  1.00  0.00     0.346 HD
ATOM     23  H   UNL A   1      35.325  18.617  25.821  1.00  0.00     0.346 HD
ENDBRANCH  10  11
ENDBRANCH   7  10
ENDBRANCH   4   7
ENDBRANCH   2   3
ENDBRANCH   1   2
BRANCH   1  24
ATOM     24  C   UNL A   1      33.316  29.194  25.138  1.00  0.00     0.118 C 
BRANCH  24  25
ATOM     25  N   UNL A   1      32.801  30.450  25.653  1.00  0.00    -0.352 N 
ATOM     26  C   UNL A   1      33.185  31.202  26.734  1.00  0.00     0.251 C 
ATOM     27  H   UNL A   1      32.048  30.824  25.140  1.00  0.00     0.163 HD
ATOM     28  O   UNL A   1      32.471  32.137  27.092  1.00  0.00    -0.269 OA
BRANCH  26  29
ATOM     29  C   UNL A   1      34.425  30.909  27.493  1.00  0.00     0.039 A 
ATOM     30  C   UNL A   1      34.579  29.629  28.039  1.00  0.00     0.014 A 
ATOM     31  C   UNL A   1      35.391  31.885  27.753  1.00  0.00     0.014 A 
ATOM     32  C   UNL A   1      35.711  29.318  28.801  1.00  0.00     0.010 A 
ATOM     33  C   UNL A   1      36.555  31.555  28.452  1.00  0.00     0.010 A 
ATOM     34  C   UNL A   1      36.720  30.272  28.996  1.00  0.00    -0.014 A 
BRANCH  34  35
ATOM     35  C   UNL A   1      37.933  29.952  29.795  1.00  0.00     0.031 A 
ATOM     36  C   UNL A   1      38.984  29.027  29.244  1.00  0.00     0.074 A 
ATOM     37  C   UNL A   1      38.077  30.463  31.032  1.00  0.00     0.049 A 
ATOM     38  N   UNL A   1      40.085  28.591  29.807  1.00  0.00    -0.248 NA
ATOM     39  C   UNL A   1      38.759  28.507  27.887  1.00  0.00     0.031 C 
ATOM     40  C   UNL A   1      37.125  31.353  31.696  1.00  0.00     0.029 A 
ATOM     41  N   UNL A   1      39.084  30.305  31.953  1.00  0.00    -0.354 N 
ATOM     42  C   UNL A   1      40.670  27.737  28.881  1.00  0.00     0.074 A 
ATOM     43  C   UNL A   1      39.781  27.678  27.740  1.00  0.00     0.031 C 
ATOM     44  C   UNL A   1      37.605  31.686  32.904  1.00  0.00     0.029 A 
ATOM     45  C   UNL A   1      38.881  31.007  33.116  1.00  0.00     0.049 A 
ATOM     46  H   UNL A   1      39.876  29.741  31.796  1.00  0.00     0.167 HD
ATOM     47  C   UNL A   1      41.851  27.078  28.963  1.00  0.00     0.037 A 
ATOM     48  C   UNL A   1      39.637  31.093  34.227  1.00  0.00     0.037 A 
ATOM     49  C   UNL A   1      42.752  27.153  30.083  1.00  0.00     0.049 A 
ATOM     50  C   UNL A   1      40.934  30.337  34.302  1.00  0.00     0.074 A 
ATOM     51  C   UNL A   1      43.993  26.560  30.238  1.00  0.00     0.029 A 
ATOM     52  N   UNL A   1      42.505  27.870  31.245  1.00  0.00    -0.354 N 
ATOM     53  N   UNL A   1      41.498  29.568  33.404  1.00  0.00    -0.248 NA
ATOM     54  C   UNL A   1      41.702  30.464  35.550  1.00  0.00     0.031 C 
ATOM     55  C   UNL A   1      44.482  26.888  31.507  1.00  0.00     0.029 A 
ATOM     56  C   UNL A   1      43.564  27.720  32.128  1.00  0.00     0.049 A 
ATOM     57  H   UNL A   1      41.699  28.407  31.417  1.00  0.00     0.167 HD
ATOM     58  C   UNL A   1      42.696  29.145  33.962  1.00  0.00     0.074 A 
ATOM     59  C   UNL A   1      42.782  29.747  35.276  1.00  0.00     0.031 C 
ATOM     60  C   UNL A   1      43.641  28.331  33.430  1.00  0.00     0.037 A 
BRANCH  47  61
ATOM     61  C   UNL A   1      42.235  26.211  27.799  1.00  0.00     0.064 A 
ATOM     62  C   UNL A   1      41.720  24.914  27.647  1.00  0.00     0.173 A 
ATOM     63  C   UNL A   1      43.117  26.685  26.816  1.00  0.00     0.173 A 
ATOM     64  F   UNL A   1      40.882  24.410  28.565  1.00  0.00    -0.203 F 
ATOM     65  C   UNL A   1      42.104  24.111  26.577  1.00  0.00     0.198 A 
ATOM     66  C   UNL A   1      43.477  25.889  25.731  1.00  0.00     0.198 A 
ATOM     67  F   UNL A   1      43.633  27.920  26.909  1.00  0.00    -0.203 F 
ATOM     68  F   UNL A   1      41.644  22.856  26.484  1.00  0.00    -0.200 F 
ATOM     69  C   UNL A   1      42.978  24.600  25.617  1.00  0.00     0.200 A 
ATOM     70  F   UNL A   1      44.313  26.367  24.799  1.00  0.00    -0.200 F 
ATOM     71  F   UNL A   1      43.348  23.825  24.589  1.00  0.00    -0.200 F 
ENDBRANCH  47  61
BRANCH  48  72
ATOM     72  C   UNL A   1      39.202  31.967  35.346  1.00  0.00     0.064 A 
ATOM     73  C   UNL A   1      39.559  33.322  35.371  1.00  0.00     0.173 A 
ATOM     74  C   UNL A   1      38.419  31.476  36.399  1.00  0.00     0.173 A 
ATOM     75  F   UNL A   1      40.327  33.829  34.396  1.00  0.00    -0.203 F 
ATOM     76  C   UNL A   1      39.155  34.152  36.414  1.00  0.00     0.198 A 
ATOM     77  C   UNL A   1      37.996  32.312  37.429  1.00  0.00     0.198 A 
ATOM     78  F   UNL A   1      38.050  30.186  36.417  1.00  0.00    -0.203 F 
ATOM     79  F   UNL A   1      39.537  35.437  36.431  1.00  0.00    -0.200 F 
ATOM     80  C   UNL A   1      38.368  33.648  37.439  1.00  0.00     0.200 A 
ATOM     81  F   UNL A   1      37.227  31.825  38.412  1.00  0.00    -0.200 F 
ATOM     82  F   UNL A   1      37.974  34.449  38.438  1.00  0.00    -0.200 F 
ENDBRANCH  48  72
BRANCH  60  83
ATOM     83  C   UNL A   1      44.869  28.075  34.253  1.00  0.00     0.064 A 
ATOM     84  C   UNL A   1      44.953  26.980  35.126  1.00  0.00     0.173 A 
ATOM     85  C   UNL A   1      45.987  28.916  34.142  1.00  0.00     0.173 A 
ATOM     86  F   UNL A   1      43.904  26.158  35.280  1.00  0.00    -0.203 F 
ATOM     87  C   UNL A   1      46.104  26.749  35.874  1.00  0.00     0.198 A 
ATOM     88  C   UNL A   1      47.145  28.667  34.873  1.00  0.00     0.198 A 
ATOM     89  F   UNL A   1      45.957  29.973  33.317  1.00  0.00    -0.203 F 
ATOM     90  F   UNL A   1      46.148  25.723  36.734  1.00  0.00    -0.200 F 
ATOM     91  C   UNL A   1      47.201  27.589  35.742  1.00  0.00     0.200 A 
ATOM     92  F   UNL A   1      48.206  29.475  34.737  1.00  0.00    -0.200 F 
ATOM     93  F   UNL A   1      48.309  27.363  36.460  1.00  0.00    -0.200 F 
ENDBRANCH  60  83
ENDBRANCH  34  35
ENDBRANCH  26  29
ENDBRANCH  24  25
ENDBRANCH   1  24
TORSDOF 12
ENDMDL
MODEL 2
REMARK VINA RESULT:     -12.7      0.302      1.652
REMARK SMILES CC(C)(C[NH+]1C[C@@H]2C[NH2+]C[C@H]2C1(C)C)C(=O)NCCCNC(=O)c1ccc(-c2c3nc(c(-c4c(F)c(F)c(F)c(F)c4F)c4ccc([nH]4)c(-c4c(F)c(F)c(F)c(F)c4F)c4nc(c(-c5c(F)c(F)c(F)c(F)c5F)c5ccc2[nH]5)C=C4)C=C3)cc1
REMARK SMILES IDX 19 1 18 2 17 3 15 4 16 5 2 7 1 8 3 9 4 10 5 11 6 12 12 13
REMARK SMILES IDX 7 15 11 16 13 17 14 18 8 19 10 20 9 21 20 24 21 25 22 26
REMARK SMILES IDX 23 28 24 29 25 30 86 31 26 32 85 33 27 34 28 35 29 36 79 37
REMARK SMILES IDX 30 38 84 39 78 40 80 41 31 42 83 43 77 44 76 45 32 47 64 48
REMARK SMILES IDX 44 49 63 50 45 51 48 52 62 53 81 54 46 55 47 56 61 58 82 59
REMARK SMILES IDX 49 60 33 61 34 62 42 63 35 64 36 65 40 66 43 67 37 68 38 69
REMARK SMILES IDX 41 70 39 71 65 72 66 73 74 74 67 75 68 76 72 77 75 78 69 79
REMARK SMILES IDX 70 80 73 81 71 82 50 83 51 84 59 85 52 86 53 87 57 88 60 89
REMARK SMILES IDX 54 90 55 91 58 92 56 93
REMARK H PARENT 17 6 5 14 9 22 9 23 21 27 80 46 48 57
REMARK Flexibility Score: inf
ROOT
ATOM      1  C   UNL A   1      33.243  28.935  23.919  1.00  0.00     0.042 C 
ENDROOT
BRANCH   1   2
ATOM      2  C   UNL A   1      32.249  27.950  23.311  1.00  0.00     0.117 C 
BRANCH   2   3
ATOM      3  N   UNL A   1      32.725  27.310  22.097  1.00  0.00    -0.355 N 
ATOM      4  C   UNL A   1      32.946  26.030  21.703  1.00  0.00     0.231 C 
ATOM      5  O   UNL A   1      33.327  25.923  20.529  1.00  0.00    -0.274 OA
ATOM      6  H   UNL A   1      32.938  27.961  21.390  1.00  0.00     0.163 HD
BRANCH   4   7
ATOM      7  C   UNL A   1      32.729  24.782  22.586  1.00  0.00     0.092 C 
ATOM      8  C   UNL A   1      33.029  23.536  21.715  1.00  0.00     0.027 C 
ATOM      9  C   UNL A   1      31.227  24.667  22.935  1.00  0.00     0.027 C 
BRANCH   7  10
ATOM     10  C   UNL A   1      33.584  24.778  23.896  1.00  0.00     0.279 C 
BRANCH  10  11
ATOM     11  N   UNL A   1      34.061  23.521  24.443  1.00  0.00    -0.329 N 
ATOM     12  C   UNL A   1      33.117  22.483  24.878  1.00  0.00     0.272 C 
ATOM     13  C   UNL A   1      35.470  23.102  24.605  1.00  0.00     0.101 C 
ATOM     14  H   UNL A   1      34.209  24.503  24.210  1.00  0.00     0.348 HD
ATOM     15  C   UNL A   1      33.949  21.267  24.574  1.00  0.00     0.114 C 
ATOM     16  C   UNL A   1      35.284  21.678  25.146  1.00  0.00     0.119 C 
ATOM     17  C   UNL A   1      36.268  23.127  23.305  1.00  0.00     0.079 C 
ATOM     18  C   UNL A   1      36.193  23.942  25.670  1.00  0.00     0.079 C 
ATOM     19  C   UNL A   1      33.783  19.912  25.204  1.00  0.00     0.270 C 
ATOM     20  C   UNL A   1      36.100  20.455  24.811  1.00  0.00     0.271 C 
ATOM     21  N   UNL A   1      35.156  19.338  25.101  1.00  0.00    -0.345 N 
ATOM     22  H   UNL A   1      35.189  18.651  24.347  1.00  0.00     0.346 HD
ATOM     23  H   UNL A   1      35.414  18.873  25.972  1.00  0.00     0.346 HD
ENDBRANCH  10  11
ENDBRANCH   7  10
ENDBRANCH   4   7
ENDBRANCH   2   3
ENDBRANCH   1   2
BRANCH   1  24
ATOM     24  C   UNL A   1      33.186  29.080  25.435  1.00  0.00     0.118 C 
BRANCH  24  25
ATOM     25  N   UNL A   1      32.734  30.394  25.855  1.00  0.00    -0.352 N 
ATOM     26  C   UNL A   1      33.177  31.217  26.859  1.00  0.00     0.251 C 
ATOM     27  H   UNL A   1      31.983  30.754  25.330  1.00  0.00     0.163 HD
ATOM     28  O   UNL A   1      32.510  32.207  27.154  1.00  0.00    -0.269 OA
BRANCH  26  29
ATOM     29  C   UNL A   1      34.425  30.938  27.609  1.00  0.00     0.039 A 
ATOM     30  C   UNL A   1      34.608  29.653  28.134  1.00  0.00     0.014 A 
ATOM     31  C   UNL A   1      35.371  31.930  27.883  1.00  0.00     0.014 A 
ATOM     32  C   UNL A   1      35.748  29.353  28.887  1.00  0.00     0.010 A 
ATOM     33  C   UNL A   1      36.544  31.614  28.573  1.00  0.00     0.010 A 
ATOM     34  C   UNL A   1      36.738  30.326  29.095  1.00  0.00    -0.014 A 
BRANCH  34  35
ATOM     35  C   UNL A   1      37.960  30.019  29.885  1.00  0.00     0.031 A 
ATOM     36  C   UNL A   1      39.020  29.110  29.324  1.00  0.00     0.074 A 
ATOM     37  C   UNL A   1      38.105  30.527  31.124  1.00  0.00     0.049 A 
ATOM     38  N   UNL A   1      40.129  28.686  29.878  1.00  0.00    -0.248 NA
ATOM     39  C   UNL A   1      38.793  28.592  27.967  1.00  0.00     0.031 C 
ATOM     40  C   UNL A   1      37.145  31.402  31.796  1.00  0.00     0.029 A 
ATOM     41  N   UNL A   1      39.119  30.378  32.038  1.00  0.00    -0.354 N 
ATOM     42  C   UNL A   1      40.720  27.843  28.946  1.00  0.00     0.074 A 
ATOM     43  C   UNL A   1      39.825  27.778  27.810  1.00  0.00     0.031 C 
ATOM     44  C   UNL A   1      37.628  31.736  33.004  1.00  0.00     0.029 A 
ATOM     45  C   UNL A   1      38.914  31.073  33.205  1.00  0.00     0.049 A 
ATOM     46  H   UNL A   1      39.918  29.826  31.873  1.00  0.00     0.167 HD
ATOM     47  C   UNL A   1      41.910  27.199  29.018  1.00  0.00     0.037 A 
ATOM     48  C   UNL A   1      39.676  31.165  34.311  1.00  0.00     0.037 A 
ATOM     49  C   UNL A   1      42.817  27.282  30.133  1.00  0.00     0.049 A 
ATOM     50  C   UNL A   1      40.984  30.425  34.376  1.00  0.00     0.074 A 
ATOM     51  C   UNL A   1      44.066  26.705  30.277  1.00  0.00     0.029 A 
ATOM     52  N   UNL A   1      42.568  27.991  31.299  1.00  0.00    -0.354 N 
ATOM     53  N   UNL A   1      41.552  29.668  33.471  1.00  0.00    -0.248 NA
ATOM     54  C   UNL A   1      41.757  30.558  35.619  1.00  0.00     0.031 C 
ATOM     55  C   UNL A   1      44.559  27.035  31.545  1.00  0.00     0.029 A 
ATOM     56  C   UNL A   1      43.634  27.852  32.175  1.00  0.00     0.049 A 
ATOM     57  H   UNL A   1      41.756  28.517  31.478  1.00  0.00     0.167 HD
ATOM     58  C   UNL A   1      42.759  29.258  34.020  1.00  0.00     0.074 A 
ATOM     59  C   UNL A   1      42.845  29.856  35.335  1.00  0.00     0.031 C 
ATOM     60  C   UNL A   1      43.711  28.459  33.479  1.00  0.00     0.037 A 
BRANCH  47  61
ATOM     61  C   UNL A   1      42.298  26.342  27.848  1.00  0.00     0.064 A 
ATOM     62  C   UNL A   1      41.808  25.035  27.700  1.00  0.00     0.173 A 
ATOM     63  C   UNL A   1      43.159  26.836  26.856  1.00  0.00     0.173 A 
ATOM     64  F   UNL A   1      40.991  24.513  28.626  1.00  0.00    -0.203 F 
ATOM     65  C   UNL A   1      42.196  24.242  26.624  1.00  0.00     0.198 A 
ATOM     66  C   UNL A   1      43.523  26.049  25.766  1.00  0.00     0.198 A 
ATOM     67  F   UNL A   1      43.651  28.081  26.945  1.00  0.00    -0.203 F 
ATOM     68  F   UNL A   1      41.760  22.978  26.534  1.00  0.00    -0.200 F 
ATOM     69  C   UNL A   1      43.049  24.750  25.655  1.00  0.00     0.200 A 
ATOM     70  F   UNL A   1      44.338  26.545  24.825  1.00  0.00    -0.200 F 
ATOM     71  F   UNL A   1      43.423  23.985  24.622  1.00  0.00    -0.200 F 
ENDBRANCH  47  61
BRANCH  48  72
ATOM     72  C   UNL A   1      39.237  32.029  35.436  1.00  0.00     0.064 A 
ATOM     73  C   UNL A   1      38.454  31.504  36.474  1.00  0.00     0.173 A 
ATOM     74  C   UNL A   1      39.594  33.382  35.505  1.00  0.00     0.173 A 
ATOM     75  F   UNL A   1      38.069  30.220  36.437  1.00  0.00    -0.203 F 
ATOM     76  C   UNL A   1      38.038  32.304  37.535  1.00  0.00     0.198 A 
ATOM     77  C   UNL A   1      39.197  34.175  36.579  1.00  0.00     0.198 A 
ATOM     78  F   UNL A   1      40.344  33.928  34.538  1.00  0.00    -0.203 F 
ATOM     79  F   UNL A   1      37.263  31.785  38.498  1.00  0.00    -0.200 F 
ATOM     80  C   UNL A   1      38.415  33.637  37.590  1.00  0.00     0.200 A 
ATOM     81  F   UNL A   1      39.571  35.460  36.635  1.00  0.00    -0.200 F 
ATOM     82  F   UNL A   1      38.020  34.404  38.616  1.00  0.00    -0.200 F 
ENDBRANCH  48  72
BRANCH  60  83
ATOM     83  C   UNL A   1      44.947  28.216  34.293  1.00  0.00     0.064 A 
ATOM     84  C   UNL A   1      46.052  29.078  34.229  1.00  0.00     0.173 A 
ATOM     85  C   UNL A   1      45.015  27.124  35.172  1.00  0.00     0.173 A 
ATOM     86  F   UNL A   1      46.042  30.126  33.390  1.00  0.00    -0.203 F 
ATOM     87  C   UNL A   1      47.186  28.845  35.001  1.00  0.00     0.198 A 
ATOM     88  C   UNL A   1      46.142  26.908  35.960  1.00  0.00     0.198 A 
ATOM     89  F   UNL A   1      43.983  26.273  35.272  1.00  0.00    -0.203 F 
ATOM     90  F   UNL A   1      48.247  29.657  34.892  1.00  0.00    -0.200 F 
ATOM     91  C   UNL A   1      47.229  27.764  35.870  1.00  0.00     0.200 A 
ATOM     92  F   UNL A   1      46.176  25.868  36.805  1.00  0.00    -0.200 F 
ATOM     93  F   UNL A   1      48.321  27.542  36.613  1.00  0.00    -0.200 F 
ENDBRANCH  60  83
ENDBRANCH  34  35
ENDBRANCH  26  29
ENDBRANCH  24  25
ENDBRANCH   1  24
TORSDOF 12
ENDMDL
MODEL 3
REMARK VINA RESULT:     -12.6      4.210     10.005
REMARK SMILES CC(C)(C[NH+]1C[C@@H]2C[NH2+]C[C@H]2C1(C)C)C(=O)NCCCNC(=O)c1ccc(-c2c3nc(c(-c4c(F)c(F)c(F)c(F)c4F)c4ccc([nH]4)c(-c4c(F)c(F)c(F)c(F)c4F)c4nc(c(-c5c(F)c(F)c(F)c(F)c5F)c5ccc2[nH]5)C=C4)C=C3)cc1
REMARK SMILES IDX 19 1 18 2 17 3 15 4 16 5 2 7 1 8 3 9 4 10 5 11 6 12 12 13
REMARK SMILES IDX 7 15 11 16 13 17 14 18 8 19 10 20 9 21 20 24 21 25 22 26
REMARK SMILES IDX 23 28 24 29 25 30 86 31 26 32 85 33 27 34 28 35 29 36 79 37
REMARK SMILES IDX 30 38 84 39 78 40 80 41 31 42 83 43 77 44 76 45 32 47 64 48
REMARK SMILES IDX 44 49 63 50 45 51 48 52 62 53 81 54 46 55 47 56 61 58 82 59
REMARK SMILES IDX 49 60 33 61 34 62 42 63 35 64 36 65 40 66 43 67 37 68 38 69
REMARK SMILES IDX 41 70 39 71 65 72 66 73 74 74 67 75 68 76 72 77 75 78 69 79
REMARK SMILES IDX 70 80 73 81 71 82 50 83 51 84 59 85 52 86 53 87 57 88 60 89
REMARK SMILES IDX 54 90 55 91 58 92 56 93
REMARK H PARENT 17 6 5 14 9 22 9 23 21 27 80 46 48 57
REMARK Flexibility Score: inf
ROOT
ATOM      1  C   UNL A   1      33.641  33.915  28.369  1.00  0.00     0.042 C 
ENDROOT
BRANCH   1   2
ATOM      2  C   UNL A   1      34.183  35.014  29.279  1.00  0.00     0.117 C 
BRANCH   2   3
ATOM      3  N   UNL A   1      33.169  35.646  30.104  1.00  0.00    -0.355 N 
ATOM      4  C   UNL A   1      33.024  35.902  31.430  1.00  0.00     0.231 C 
ATOM      5  O   UNL A   1      31.989  36.520  31.713  1.00  0.00    -0.274 OA
ATOM      6  H   UNL A   1      32.402  35.965  29.576  1.00  0.00     0.163 HD
BRANCH   4   7
ATOM      7  C   UNL A   1      34.040  35.508  32.524  1.00  0.00     0.092 C 
ATOM      8  C   UNL A   1      33.511  34.225  33.213  1.00  0.00     0.027 C 
ATOM      9  C   UNL A   1      34.028  36.585  33.633  1.00  0.00     0.027 C 
BRANCH   7  10
ATOM     10  C   UNL A   1      35.497  35.306  31.991  1.00  0.00     0.279 C 
BRANCH  10  11
ATOM     11  N   UNL A   1      36.282  34.173  32.447  1.00  0.00    -0.329 N 
ATOM     12  C   UNL A   1      36.959  34.203  33.750  1.00  0.00     0.272 C 
ATOM     13  C   UNL A   1      36.482  32.890  31.740  1.00  0.00     0.101 C 
ATOM     14  H   UNL A   1      35.840  34.706  31.697  1.00  0.00     0.348 HD
ATOM     15  C   UNL A   1      36.893  32.738  34.083  1.00  0.00     0.114 C 
ATOM     16  C   UNL A   1      37.319  32.122  32.772  1.00  0.00     0.119 C 
ATOM     17  C   UNL A   1      35.180  32.171  31.401  1.00  0.00     0.079 C 
ATOM     18  C   UNL A   1      37.319  33.070  30.463  1.00  0.00     0.079 C 
ATOM     19  C   UNL A   1      37.802  32.013  35.037  1.00  0.00     0.270 C 
ATOM     20  C   UNL A   1      37.224  30.661  33.126  1.00  0.00     0.271 C 
ATOM     21  N   UNL A   1      37.777  30.618  34.510  1.00  0.00    -0.345 N 
ATOM     22  H   UNL A   1      37.185  30.035  35.102  1.00  0.00     0.346 HD
ATOM     23  H   UNL A   1      38.718  30.223  34.505  1.00  0.00     0.346 HD
ENDBRANCH  10  11
ENDBRANCH   7  10
ENDBRANCH   4   7
ENDBRANCH   2   3
ENDBRANCH   1   2
BRANCH   1  24
ATOM     24  C   UNL A   1      34.604  32.772  28.068  1.00  0.00     0.118 C 
BRANCH  24  25
ATOM     25  N   UNL A   1      33.919  31.515  27.824  1.00  0.00    -0.352 N 
ATOM     26  C   UNL A   1      34.396  30.230  27.765  1.00  0.00     0.251 C 
ATOM     27  H   UNL A   1      32.950  31.600  27.674  1.00  0.00     0.163 HD
ATOM     28  O   UNL A   1      33.658  29.340  27.349  1.00  0.00    -0.269 OA
BRANCH  26  29
ATOM     29  C   UNL A   1      35.781  29.888  28.171  1.00  0.00     0.039 A 
ATOM     30  C   UNL A   1      36.806  30.054  27.231  1.00  0.00     0.014 A 
ATOM     31  C   UNL A   1      36.079  29.328  29.417  1.00  0.00     0.014 A 
ATOM     32  C   UNL A   1      38.122  29.703  27.552  1.00  0.00     0.010 A 
ATOM     33  C   UNL A   1      37.402  29.045  29.763  1.00  0.00     0.010 A 
ATOM     34  C   UNL A   1      38.436  29.215  28.829  1.00  0.00    -0.014 A 
BRANCH  34  35
ATOM     35  C   UNL A   1      39.831  28.848  29.187  1.00  0.00     0.031 A 
ATOM     36  C   UNL A   1      40.663  29.763  30.045  1.00  0.00     0.074 A 
ATOM     37  C   UNL A   1      40.369  27.707  28.714  1.00  0.00     0.049 A 
ATOM     38  N   UNL A   1      41.911  29.640  30.424  1.00  0.00    -0.248 NA
ATOM     39  C   UNL A   1      40.009  30.989  30.525  1.00  0.00     0.031 C 
ATOM     40  C   UNL A   1      39.683  26.742  27.855  1.00  0.00     0.029 A 
ATOM     41  N   UNL A   1      41.620  27.168  28.890  1.00  0.00    -0.354 N 
ATOM     42  C   UNL A   1      42.195  30.777  31.170  1.00  0.00     0.074 A 
ATOM     43  C   UNL A   1      41.004  31.600  31.150  1.00  0.00     0.031 C 
ATOM     44  C   UNL A   1      40.510  25.716  27.602  1.00  0.00     0.029 A 
ATOM     45  C   UNL A   1      41.795  25.965  28.251  1.00  0.00     0.049 A 
ATOM     46  H   UNL A   1      42.325  27.603  29.422  1.00  0.00     0.167 HD
ATOM     47  C   UNL A   1      43.334  31.097  31.829  1.00  0.00     0.037 A 
ATOM     48  C   UNL A   1      42.869  25.155  28.195  1.00  0.00     0.037 A 
ATOM     49  C   UNL A   1      44.511  30.271  31.874  1.00  0.00     0.049 A 
ATOM     50  C   UNL A   1      44.129  25.541  28.919  1.00  0.00     0.074 A 
ATOM     51  C   UNL A   1      45.697  30.488  32.554  1.00  0.00     0.029 A 
ATOM     52  N   UNL A   1      44.650  29.062  31.207  1.00  0.00    -0.354 N 
ATOM     53  N   UNL A   1      44.370  26.597  29.656  1.00  0.00    -0.248 NA
ATOM     54  C   UNL A   1      45.268  24.618  28.803  1.00  0.00     0.031 C 
ATOM     55  C   UNL A   1      46.567  29.428  32.272  1.00  0.00     0.029 A 
ATOM     56  C   UNL A   1      45.908  28.530  31.447  1.00  0.00     0.049 A 
ATOM     57  H   UNL A   1      43.958  28.643  30.647  1.00  0.00     0.167 HD
ATOM     58  C   UNL A   1      45.671  26.452  30.116  1.00  0.00     0.074 A 
ATOM     59  C   UNL A   1      46.169  25.203  29.579  1.00  0.00     0.031 C 
ATOM     60  C   UNL A   1      46.388  27.281  30.913  1.00  0.00     0.037 A 
BRANCH  47  61
ATOM     61  C   UNL A   1      43.358  32.410  32.558  1.00  0.00     0.064 A 
ATOM     62  C   UNL A   1      43.725  33.601  31.914  1.00  0.00     0.173 A 
ATOM     63  C   UNL A   1      42.999  32.480  33.913  1.00  0.00     0.173 A 
ATOM     64  F   UNL A   1      44.087  33.586  30.623  1.00  0.00    -0.203 F 
ATOM     65  C   UNL A   1      43.768  34.808  32.609  1.00  0.00     0.198 A 
ATOM     66  C   UNL A   1      43.016  33.692  34.597  1.00  0.00     0.198 A 
ATOM     67  F   UNL A   1      42.634  31.371  34.574  1.00  0.00    -0.203 F 
ATOM     68  F   UNL A   1      44.176  35.922  31.988  1.00  0.00    -0.200 F 
ATOM     69  C   UNL A   1      43.410  34.853  33.948  1.00  0.00     0.200 A 
ATOM     70  F   UNL A   1      42.659  33.737  35.888  1.00  0.00    -0.200 F 
ATOM     71  F   UNL A   1      43.454  36.014  34.615  1.00  0.00    -0.200 F 
ENDBRANCH  47  61
BRANCH  48  72
ATOM     72  C   UNL A   1      42.783  23.870  27.456  1.00  0.00     0.064 A 
ATOM     73  C   UNL A   1      43.152  23.799  26.105  1.00  0.00     0.173 A 
ATOM     74  C   UNL A   1      42.344  22.693  28.078  1.00  0.00     0.173 A 
ATOM     75  F   UNL A   1      43.556  24.905  25.464  1.00  0.00    -0.203 F 
ATOM     76  C   UNL A   1      43.077  22.600  25.402  1.00  0.00     0.198 A 
ATOM     77  C   UNL A   1      42.291  21.490  27.380  1.00  0.00     0.198 A 
ATOM     78  F   UNL A   1      41.982  22.711  29.369  1.00  0.00    -0.203 F 
ATOM     79  F   UNL A   1      43.406  22.566  24.103  1.00  0.00    -0.200 F 
ATOM     80  C   UNL A   1      42.653  21.444  26.041  1.00  0.00     0.200 A 
ATOM     81  F   UNL A   1      41.891  20.373  28.002  1.00  0.00    -0.200 F 
ATOM     82  F   UNL A   1      42.589  20.289  25.366  1.00  0.00    -0.200 F 
ENDBRANCH  48  72
BRANCH  60  83
ATOM     83  C   UNL A   1      47.774  26.847  31.286  1.00  0.00     0.064 A 
ATOM     84  C   UNL A   1      48.012  26.011  32.388  1.00  0.00     0.173 A 
ATOM     85  C   UNL A   1      48.876  27.244  30.513  1.00  0.00     0.173 A 
ATOM     86  F   UNL A   1      46.993  25.619  33.169  1.00  0.00    -0.203 F 
ATOM     87  C   UNL A   1      49.303  25.607  32.714  1.00  0.00     0.198 A 
ATOM     88  C   UNL A   1      50.163  26.818  30.827  1.00  0.00     0.198 A 
ATOM     89  F   UNL A   1      48.701  28.039  29.447  1.00  0.00    -0.203 F 
ATOM     90  F   UNL A   1      49.512  24.845  33.796  1.00  0.00    -0.200 F 
ATOM     91  C   UNL A   1      50.377  26.005  31.930  1.00  0.00     0.200 A 
ATOM     92  F   UNL A   1      51.197  27.197  30.063  1.00  0.00    -0.200 F 
ATOM     93  F   UNL A   1      51.619  25.613  32.243  1.00  0.00    -0.200 F 
ENDBRANCH  60  83
ENDBRANCH  34  35
ENDBRANCH  26  29
ENDBRANCH  24  25
ENDBRANCH   1  24
TORSDOF 12
ENDMDL
