MODEL 1
REMARK VINA RESULT:     -12.8      0.000      0.000
REMARK SMILES COc1ccc(Cl)c2sc(N3CC(C(=O)NCCCNC(=O)c4ccc(-c5c6nc(c(-c7c(F)c(F)c(F)c(F)c7F)c7ccc([nH]7)c(-c7c(F)c(F)c(F)c(F)c7F)c7nc(c(-c8c(F)c(F)c(F)c(F)c8F)c8ccc5[nH]8)C=C7)C=C6)cc4)C3)nc12
REMARK SMILES IDX 18 1 17 2 16 3 14 4 15 5 13 7 11 8 12 9 86 10 10 11 3 12
REMARK SMILES IDX 4 13 88 14 5 15 8 16 87 17 6 18 9 19 7 20 2 21 1 22 19 23
REMARK SMILES IDX 20 24 21 25 22 27 23 28 24 29 85 30 25 31 84 32 26 33 27 34
REMARK SMILES IDX 28 35 78 36 29 37 83 38 77 39 79 40 30 41 82 42 76 43 75 44
REMARK SMILES IDX 31 46 63 47 43 48 62 49 44 50 47 51 61 52 80 53 45 54 46 55
REMARK SMILES IDX 60 57 81 58 48 59 32 60 33 61 41 62 34 63 35 64 39 65 42 66
REMARK SMILES IDX 36 67 37 68 40 69 38 70 64 71 65 72 73 73 66 74 67 75 71 76
REMARK SMILES IDX 74 77 68 78 69 79 72 80 70 81 49 82 50 83 58 84 51 85 52 86
REMARK SMILES IDX 56 87 59 88 53 89 54 90 57 91 55 92
REMARK H PARENT 16 6 20 26 79 45 47 56
REMARK Flexibility Score: inf
ROOT
ATOM      1  C   UNL A   1      37.574  22.058  25.273  1.00  0.00     0.042 C 
ENDROOT
BRANCH   1   2
ATOM      2  C   UNL A   1      36.247  21.822  25.996  1.00  0.00     0.117 C 
BRANCH   2   3
ATOM      3  N   UNL A   1      35.529  20.669  25.481  1.00  0.00    -0.356 N 
ATOM      4  C   UNL A   1      34.333  20.573  24.812  1.00  0.00     0.226 C 
ATOM      5  O   UNL A   1      33.998  19.423  24.491  1.00  0.00    -0.275 OA
ATOM      6  H   UNL A   1      35.977  19.807  25.639  1.00  0.00     0.163 HD
BRANCH   4   7
ATOM      7  C   UNL A   1      33.460  21.786  24.491  1.00  0.00     0.117 C 
ATOM      8  N   UNL A   1      33.534  23.816  24.847  1.00  0.00    -0.346 N 
ATOM      9  C   UNL A   1      34.028  23.014  23.780  1.00  0.00     0.134 C 
ATOM     10  C   UNL A   1      32.990  22.729  25.596  1.00  0.00     0.134 C 
BRANCH   8  11
ATOM     11  C   UNL A   1      33.076  25.086  24.828  1.00  0.00     0.186 A 
ATOM     12  C   UNL A   1      33.181  28.578  25.714  1.00  0.00     0.146 A 
ATOM     13  C   UNL A   1      32.318  29.643  25.403  1.00  0.00     0.050 A 
ATOM     14  C   UNL A   1      32.872  27.273  25.236  1.00  0.00     0.127 A 
ATOM     15  C   UNL A   1      31.159  29.429  24.664  1.00  0.00     0.026 A 
ATOM     16  C   UNL A   1      31.731  27.098  24.446  1.00  0.00     0.079 A 
ATOM     17  N   UNL A   1      33.592  26.101  25.483  1.00  0.00    -0.216 NA
ATOM     18  C   UNL A   1      30.854  28.160  24.173  1.00  0.00     0.060 A 
ATOM     19  S   UNL A   1      31.673  25.464  23.910  1.00  0.00    -0.095 S 
ATOM     20  Cl  UNL A   1      29.419  27.946  23.242  1.00  0.00    -0.083 Cl
BRANCH  12  21
ATOM     21  O   UNL A   1      34.365  28.767  26.386  1.00  0.00    -0.494 OA
ATOM     22  C   UNL A   1      34.430  29.934  27.199  1.00  0.00     0.278 C 
ENDBRANCH  12  21
ENDBRANCH   8  11
ENDBRANCH   4   7
ENDBRANCH   2   3
ENDBRANCH   1   2
BRANCH   1  23
ATOM     23  C   UNL A   1      38.549  22.864  26.113  1.00  0.00     0.118 C 
BRANCH  23  24
ATOM     24  N   UNL A   1      39.875  22.255  26.177  1.00  0.00    -0.352 N 
ATOM     25  C   UNL A   1      41.089  22.878  26.378  1.00  0.00     0.251 C 
ATOM     26  H   UNL A   1      39.906  21.278  26.062  1.00  0.00     0.163 HD
ATOM     27  O   UNL A   1      42.138  22.309  26.131  1.00  0.00    -0.269 OA
BRANCH  25  28
ATOM     28  C   UNL A   1      41.094  24.244  26.924  1.00  0.00     0.039 A 
ATOM     29  C   UNL A   1      40.403  25.277  26.281  1.00  0.00     0.014 A 
ATOM     30  C   UNL A   1      41.830  24.486  28.084  1.00  0.00     0.014 A 
ATOM     31  C   UNL A   1      40.432  26.549  26.839  1.00  0.00     0.010 A 
ATOM     32  C   UNL A   1      41.752  25.701  28.705  1.00  0.00     0.010 A 
ATOM     33  C   UNL A   1      41.112  26.744  28.048  1.00  0.00    -0.014 A 
BRANCH  33  34
ATOM     34  C   UNL A   1      41.121  28.034  28.707  1.00  0.00     0.031 A 
ATOM     35  C   UNL A   1      42.218  28.939  28.280  1.00  0.00     0.074 A 
ATOM     36  C   UNL A   1      40.071  28.444  29.447  1.00  0.00     0.049 A 
ATOM     37  N   UNL A   1      43.183  29.400  29.005  1.00  0.00    -0.248 NA
ATOM     38  C   UNL A   1      42.337  29.273  26.851  1.00  0.00     0.031 C 
ATOM     39  C   UNL A   1      38.792  27.767  29.685  1.00  0.00     0.029 A 
ATOM     40  N   UNL A   1      39.900  29.635  30.074  1.00  0.00    -0.354 N 
ATOM     41  C   UNL A   1      43.931  30.227  28.174  1.00  0.00     0.074 A 
ATOM     42  C   UNL A   1      43.471  29.975  26.833  1.00  0.00     0.031 C 
ATOM     43  C   UNL A   1      37.908  28.644  30.211  1.00  0.00     0.029 A 
ATOM     44  C   UNL A   1      38.597  29.891  30.481  1.00  0.00     0.049 A 
ATOM     45  H   UNL A   1      40.639  30.267  30.227  1.00  0.00     0.167 HD
ATOM     46  C   UNL A   1      44.714  31.215  28.689  1.00  0.00     0.037 A 
ATOM     47  C   UNL A   1      38.134  31.078  30.949  1.00  0.00     0.037 A 
ATOM     48  C   UNL A   1      44.941  31.013  30.097  1.00  0.00     0.049 A 
ATOM     49  C   UNL A   1      39.322  31.843  31.423  1.00  0.00     0.074 A 
ATOM     50  C   UNL A   1      45.526  30.002  30.837  1.00  0.00     0.029 A 
ATOM     51  N   UNL A   1      44.175  31.727  30.987  1.00  0.00    -0.354 N 
ATOM     52  N   UNL A   1      40.051  31.470  32.443  1.00  0.00    -0.248 NA
ATOM     53  C   UNL A   1      39.992  32.704  30.456  1.00  0.00     0.031 C 
ATOM     54  C   UNL A   1      44.682  29.851  31.977  1.00  0.00     0.029 A 
ATOM     55  C   UNL A   1      43.691  30.832  31.910  1.00  0.00     0.049 A 
ATOM     56  H   UNL A   1      44.005  32.696  30.968  1.00  0.00     0.167 HD
ATOM     57  C   UNL A   1      41.362  31.693  32.044  1.00  0.00     0.074 A 
ATOM     58  C   UNL A   1      41.260  32.504  30.830  1.00  0.00     0.031 C 
ATOM     59  C   UNL A   1      42.397  30.953  32.542  1.00  0.00     0.037 A 
BRANCH  46  60
ATOM     60  C   UNL A   1      44.989  32.535  28.015  1.00  0.00     0.064 A 
ATOM     61  C   UNL A   1      46.290  32.812  27.553  1.00  0.00     0.173 A 
ATOM     62  C   UNL A   1      44.113  33.641  28.066  1.00  0.00     0.173 A 
ATOM     63  F   UNL A   1      47.212  31.840  27.479  1.00  0.00    -0.203 F 
ATOM     64  C   UNL A   1      46.704  34.110  27.243  1.00  0.00     0.198 A 
ATOM     65  C   UNL A   1      44.513  34.926  27.703  1.00  0.00     0.198 A 
ATOM     66  F   UNL A   1      42.879  33.552  28.574  1.00  0.00    -0.203 F 
ATOM     67  F   UNL A   1      47.986  34.344  26.929  1.00  0.00    -0.200 F 
ATOM     68  C   UNL A   1      45.816  35.167  27.323  1.00  0.00     0.200 A 
ATOM     69  F   UNL A   1      43.641  35.940  27.804  1.00  0.00    -0.200 F 
ATOM     70  F   UNL A   1      46.224  36.420  27.084  1.00  0.00    -0.200 F 
ENDBRANCH  46  60
BRANCH  47  71
ATOM     71  C   UNL A   1      36.815  31.700  30.664  1.00  0.00     0.064 A 
ATOM     72  C   UNL A   1      35.918  32.024  31.696  1.00  0.00     0.173 A 
ATOM     73  C   UNL A   1      36.510  32.225  29.391  1.00  0.00     0.173 A 
ATOM     74  F   UNL A   1      36.158  31.612  32.950  1.00  0.00    -0.203 F 
ATOM     75  C   UNL A   1      34.796  32.831  31.469  1.00  0.00     0.198 A 
ATOM     76  C   UNL A   1      35.388  33.024  29.165  1.00  0.00     0.198 A 
ATOM     77  F   UNL A   1      37.345  32.053  28.356  1.00  0.00    -0.203 F 
ATOM     78  F   UNL A   1      33.992  33.162  32.490  1.00  0.00    -0.200 F 
ATOM     79  C   UNL A   1      34.536  33.337  30.205  1.00  0.00     0.200 A 
ATOM     80  F   UNL A   1      35.172  33.537  27.945  1.00  0.00    -0.200 F 
ATOM     81  F   UNL A   1      33.493  34.154  30.000  1.00  0.00    -0.200 F 
ENDBRANCH  47  71
BRANCH  59  82
ATOM     82  C   UNL A   1      42.124  29.998  33.675  1.00  0.00     0.064 A 
ATOM     83  C   UNL A   1      41.791  28.644  33.491  1.00  0.00     0.173 A 
ATOM     84  C   UNL A   1      42.434  30.405  34.979  1.00  0.00     0.173 A 
ATOM     85  F   UNL A   1      41.576  28.147  32.269  1.00  0.00    -0.203 F 
ATOM     86  C   UNL A   1      41.753  27.749  34.559  1.00  0.00     0.198 A 
ATOM     87  C   UNL A   1      42.429  29.503  36.041  1.00  0.00     0.198 A 
ATOM     88  F   UNL A   1      42.817  31.671  35.211  1.00  0.00    -0.203 F 
ATOM     89  F   UNL A   1      41.445  26.461  34.348  1.00  0.00    -0.200 F 
ATOM     90  C   UNL A   1      42.086  28.177  35.832  1.00  0.00     0.200 A 
ATOM     91  F   UNL A   1      42.804  29.911  37.261  1.00  0.00    -0.200 F 
ATOM     92  F   UNL A   1      42.109  27.307  36.851  1.00  0.00    -0.200 F 
ENDBRANCH  59  82
ENDBRANCH  33  34
ENDBRANCH  25  28
ENDBRANCH  23  24
ENDBRANCH   1  23
TORSDOF 12
ENDMDL
MODEL 2
REMARK VINA RESULT:     -12.7      1.127      1.904
REMARK SMILES COc1ccc(Cl)c2sc(N3CC(C(=O)NCCCNC(=O)c4ccc(-c5c6nc(c(-c7c(F)c(F)c(F)c(F)c7F)c7ccc([nH]7)c(-c7c(F)c(F)c(F)c(F)c7F)c7nc(c(-c8c(F)c(F)c(F)c(F)c8F)c8ccc5[nH]8)C=C7)C=C6)cc4)C3)nc12
REMARK SMILES IDX 18 1 17 2 16 3 14 4 15 5 13 7 11 8 12 9 86 10 10 11 3 12
REMARK SMILES IDX 4 13 88 14 5 15 8 16 87 17 6 18 9 19 7 20 2 21 1 22 19 23
REMARK SMILES IDX 20 24 21 25 22 27 23 28 24 29 85 30 25 31 84 32 26 33 27 34
REMARK SMILES IDX 28 35 78 36 29 37 83 38 77 39 79 40 30 41 82 42 76 43 75 44
REMARK SMILES IDX 31 46 63 47 43 48 62 49 44 50 47 51 61 52 80 53 45 54 46 55
REMARK SMILES IDX 60 57 81 58 48 59 32 60 33 61 41 62 34 63 35 64 39 65 42 66
REMARK SMILES IDX 36 67 37 68 40 69 38 70 64 71 65 72 73 73 66 74 67 75 71 76
REMARK SMILES IDX 74 77 68 78 69 79 72 80 70 81 49 82 50 83 58 84 51 85 52 86
REMARK SMILES IDX 56 87 59 88 53 89 54 90 57 91 55 92
REMARK H PARENT 16 6 20 26 79 45 47 56
REMARK Flexibility Score: inf
ROOT
ATOM      1  C   UNL A   1      37.606  21.950  25.225  1.00  0.00     0.042 C 
ENDROOT
BRANCH   1   2
ATOM      2  C   UNL A   1      36.265  21.731  25.927  1.00  0.00     0.117 C 
BRANCH   2   3
ATOM      3  N   UNL A   1      35.545  20.581  25.406  1.00  0.00    -0.356 N 
ATOM      4  C   UNL A   1      34.354  20.492  24.729  1.00  0.00     0.226 C 
ATOM      5  O   UNL A   1      34.015  19.343  24.405  1.00  0.00    -0.275 OA
ATOM      6  H   UNL A   1      35.987  19.717  25.569  1.00  0.00     0.163 HD
BRANCH   4   7
ATOM      7  C   UNL A   1      33.490  21.709  24.400  1.00  0.00     0.117 C 
ATOM      8  N   UNL A   1      33.516  23.723  24.844  1.00  0.00    -0.346 N 
ATOM      9  C   UNL A   1      34.091  22.971  23.781  1.00  0.00     0.134 C 
ATOM     10  C   UNL A   1      32.935  22.600  25.509  1.00  0.00     0.134 C 
BRANCH   8  11
ATOM     11  C   UNL A   1      33.045  24.988  24.848  1.00  0.00     0.186 A 
ATOM     12  C   UNL A   1      30.761  27.596  23.861  1.00  0.00     0.146 A 
ATOM     13  C   UNL A   1      30.716  28.963  24.181  1.00  0.00     0.050 A 
ATOM     14  C   UNL A   1      31.812  26.793  24.389  1.00  0.00     0.127 A 
ATOM     15  C   UNL A   1      31.698  29.541  24.979  1.00  0.00     0.026 A 
ATOM     16  C   UNL A   1      32.753  27.389  25.235  1.00  0.00     0.079 A 
ATOM     17  N   UNL A   1      32.032  25.435  24.142  1.00  0.00    -0.216 NA
ATOM     18  C   UNL A   1      32.723  28.764  25.518  1.00  0.00     0.060 A 
ATOM     19  S   UNL A   1      33.822  26.174  25.820  1.00  0.00    -0.095 S 
ATOM     20  Cl  UNL A   1      33.905  29.519  26.520  1.00  0.00    -0.083 Cl
BRANCH  12  21
ATOM     21  O   UNL A   1      29.771  26.981  23.131  1.00  0.00    -0.494 OA
ATOM     22  C   UNL A   1      28.620  26.586  23.869  1.00  0.00     0.278 C 
ENDBRANCH  12  21
ENDBRANCH   8  11
ENDBRANCH   4   7
ENDBRANCH   2   3
ENDBRANCH   1   2
BRANCH   1  23
ATOM     23  C   UNL A   1      38.628  22.609  26.134  1.00  0.00     0.118 C 
BRANCH  23  24
ATOM     24  N   UNL A   1      39.979  22.092  25.932  1.00  0.00    -0.352 N 
ATOM     25  C   UNL A   1      41.177  22.758  26.086  1.00  0.00     0.251 C 
ATOM     26  H   UNL A   1      40.042  21.151  25.651  1.00  0.00     0.163 HD
ATOM     27  O   UNL A   1      42.211  22.311  25.619  1.00  0.00    -0.269 OA
BRANCH  25  28
ATOM     28  C   UNL A   1      41.188  24.016  26.850  1.00  0.00     0.039 A 
ATOM     29  C   UNL A   1      41.749  24.073  28.130  1.00  0.00     0.014 A 
ATOM     30  C   UNL A   1      40.596  25.140  26.273  1.00  0.00     0.014 A 
ATOM     31  C   UNL A   1      41.741  25.285  28.809  1.00  0.00     0.010 A 
ATOM     32  C   UNL A   1      40.704  26.359  26.881  1.00  0.00     0.010 A 
ATOM     33  C   UNL A   1      41.213  26.416  28.172  1.00  0.00    -0.014 A 
BRANCH  33  34
ATOM     34  C   UNL A   1      41.237  27.717  28.807  1.00  0.00     0.031 A 
ATOM     35  C   UNL A   1      42.357  28.594  28.383  1.00  0.00     0.074 A 
ATOM     36  C   UNL A   1      40.183  28.161  29.522  1.00  0.00     0.049 A 
ATOM     37  N   UNL A   1      43.318  29.050  29.116  1.00  0.00    -0.248 NA
ATOM     38  C   UNL A   1      42.506  28.900  26.950  1.00  0.00     0.031 C 
ATOM     39  C   UNL A   1      38.887  27.513  29.751  1.00  0.00     0.029 A 
ATOM     40  N   UNL A   1      40.023  29.366  30.125  1.00  0.00    -0.354 N 
ATOM     41  C   UNL A   1      44.096  29.847  28.282  1.00  0.00     0.074 A 
ATOM     42  C   UNL A   1      43.654  29.580  26.939  1.00  0.00     0.031 C 
ATOM     43  C   UNL A   1      38.011  28.416  30.245  1.00  0.00     0.029 A 
ATOM     44  C   UNL A   1      38.719  29.654  30.504  1.00  0.00     0.049 A 
ATOM     45  H   UNL A   1      40.771  29.987  30.279  1.00  0.00     0.167 HD
ATOM     46  C   UNL A   1      44.889  30.830  28.793  1.00  0.00     0.037 A 
ATOM     47  C   UNL A   1      38.271  30.858  30.943  1.00  0.00     0.037 A 
ATOM     48  C   UNL A   1      45.089  30.649  30.208  1.00  0.00     0.049 A 
ATOM     49  C   UNL A   1      39.465  31.609  31.423  1.00  0.00     0.074 A 
ATOM     50  C   UNL A   1      45.642  29.642  30.976  1.00  0.00     0.029 A 
ATOM     51  N   UNL A   1      44.321  31.394  31.072  1.00  0.00    -0.354 N 
ATOM     52  N   UNL A   1      40.170  31.242  32.462  1.00  0.00    -0.248 NA
ATOM     53  C   UNL A   1      40.168  32.440  30.452  1.00  0.00     0.031 C 
ATOM     54  C   UNL A   1      44.776  29.528  32.104  1.00  0.00     0.029 A 
ATOM     55  C   UNL A   1      43.805  30.526  32.002  1.00  0.00     0.049 A 
ATOM     56  H   UNL A   1      44.170  32.366  31.032  1.00  0.00     0.167 HD
ATOM     57  C   UNL A   1      41.492  31.432  32.081  1.00  0.00     0.074 A 
ATOM     58  C   UNL A   1      41.425  32.223  30.852  1.00  0.00     0.031 C 
ATOM     59  C   UNL A   1      42.504  30.683  32.610  1.00  0.00     0.037 A 
BRANCH  46  60
ATOM     60  C   UNL A   1      45.200  32.132  28.100  1.00  0.00     0.064 A 
ATOM     61  C   UNL A   1      44.156  33.044  27.851  1.00  0.00     0.173 A 
ATOM     62  C   UNL A   1      46.409  32.392  27.418  1.00  0.00     0.173 A 
ATOM     63  F   UNL A   1      42.956  32.886  28.432  1.00  0.00    -0.203 F 
ATOM     64  C   UNL A   1      44.287  34.086  26.930  1.00  0.00     0.198 A 
ATOM     65  C   UNL A   1      46.555  33.465  26.542  1.00  0.00     0.198 A 
ATOM     66  F   UNL A   1      47.455  31.561  27.479  1.00  0.00    -0.203 F 
ATOM     67  F   UNL A   1      43.227  34.850  26.632  1.00  0.00    -0.200 F 
ATOM     68  C   UNL A   1      45.486  34.293  26.272  1.00  0.00     0.200 A 
ATOM     69  F   UNL A   1      47.720  33.637  25.901  1.00  0.00    -0.200 F 
ATOM     70  F   UNL A   1      45.598  35.253  25.345  1.00  0.00    -0.200 F 
ENDBRANCH  46  60
BRANCH  47  71
ATOM     71  C   UNL A   1      36.969  31.499  30.625  1.00  0.00     0.064 A 
ATOM     72  C   UNL A   1      36.052  31.839  31.634  1.00  0.00     0.173 A 
ATOM     73  C   UNL A   1      36.704  32.026  29.344  1.00  0.00     0.173 A 
ATOM     74  F   UNL A   1      36.254  31.426  32.893  1.00  0.00    -0.203 F 
ATOM     75  C   UNL A   1      34.948  32.663  31.378  1.00  0.00     0.198 A 
ATOM     76  C   UNL A   1      35.600  32.842  29.088  1.00  0.00     0.198 A 
ATOM     77  F   UNL A   1      37.561  31.840  28.330  1.00  0.00    -0.203 F 
ATOM     78  F   UNL A   1      34.124  33.008  32.378  1.00  0.00    -0.200 F 
ATOM     79  C   UNL A   1      34.727  33.170  30.107  1.00  0.00     0.200 A 
ATOM     80  F   UNL A   1      35.422  33.356  27.862  1.00  0.00    -0.200 F 
ATOM     81  F   UNL A   1      33.702  34.001  29.875  1.00  0.00    -0.200 F 
ENDBRANCH  47  71
BRANCH  59  82
ATOM     82  C   UNL A   1      42.194  29.753  33.755  1.00  0.00     0.064 A 
ATOM     83  C   UNL A   1      41.826  28.406  33.589  1.00  0.00     0.173 A 
ATOM     84  C   UNL A   1      42.501  30.173  35.056  1.00  0.00     0.173 A 
ATOM     85  F   UNL A   1      41.610  27.896  32.374  1.00  0.00    -0.203 F 
ATOM     86  C   UNL A   1      41.753  27.531  34.672  1.00  0.00     0.198 A 
ATOM     87  C   UNL A   1      42.462  29.290  36.132  1.00  0.00     0.198 A 
ATOM     88  F   UNL A   1      42.916  31.432  35.272  1.00  0.00    -0.203 F 
ATOM     89  F   UNL A   1      41.413  26.247  34.478  1.00  0.00    -0.200 F 
ATOM     90  C   UNL A   1      42.085  27.970  35.941  1.00  0.00     0.200 A 
ATOM     91  F   UNL A   1      42.836  29.707  37.349  1.00  0.00    -0.200 F 
ATOM     92  F   UNL A   1      42.075  27.116  36.974  1.00  0.00    -0.200 F 
ENDBRANCH  59  82
ENDBRANCH  33  34
ENDBRANCH  25  28
ENDBRANCH  23  24
ENDBRANCH   1  23
TORSDOF 12
ENDMDL
MODEL 3
REMARK VINA RESULT:     -12.7      3.100      8.778
REMARK SMILES COc1ccc(Cl)c2sc(N3CC(C(=O)NCCCNC(=O)c4ccc(-c5c6nc(c(-c7c(F)c(F)c(F)c(F)c7F)c7ccc([nH]7)c(-c7c(F)c(F)c(F)c(F)c7F)c7nc(c(-c8c(F)c(F)c(F)c(F)c8F)c8ccc5[nH]8)C=C7)C=C6)cc4)C3)nc12
REMARK SMILES IDX 18 1 17 2 16 3 14 4 15 5 13 7 11 8 12 9 86 10 10 11 3 12
REMARK SMILES IDX 4 13 88 14 5 15 8 16 87 17 6 18 9 19 7 20 2 21 1 22 19 23
REMARK SMILES IDX 20 24 21 25 22 27 23 28 24 29 85 30 25 31 84 32 26 33 27 34
REMARK SMILES IDX 28 35 78 36 29 37 83 38 77 39 79 40 30 41 82 42 76 43 75 44
REMARK SMILES IDX 31 46 63 47 43 48 62 49 44 50 47 51 61 52 80 53 45 54 46 55
REMARK SMILES IDX 60 57 81 58 48 59 32 60 33 61 41 62 34 63 35 64 39 65 42 66
REMARK SMILES IDX 36 67 37 68 40 69 38 70 64 71 65 72 73 73 66 74 67 75 71 76
REMARK SMILES IDX 74 77 68 78 69 79 72 80 70 81 49 82 50 83 58 84 51 85 52 86
REMARK SMILES IDX 56 87 59 88 53 89 54 90 57 91 55 92
REMARK H PARENT 16 6 20 26 79 45 47 56
REMARK Flexibility Score: inf
ROOT
ATOM      1  C   UNL A   1      33.071  30.065  26.838  1.00  0.00     0.042 C 
ENDROOT
BRANCH   1   2
ATOM      2  C   UNL A   1      33.121  29.712  25.350  1.00  0.00     0.117 C 
BRANCH   2   3
ATOM      3  N   UNL A   1      31.841  29.898  24.690  1.00  0.00    -0.356 N 
ATOM      4  C   UNL A   1      30.962  28.993  24.150  1.00  0.00     0.226 C 
ATOM      5  O   UNL A   1      29.930  29.482  23.663  1.00  0.00    -0.275 OA
ATOM      6  H   UNL A   1      31.554  30.837  24.617  1.00  0.00     0.163 HD
BRANCH   4   7
ATOM      7  C   UNL A   1      31.226  27.487  24.129  1.00  0.00     0.117 C 
ATOM      8  N   UNL A   1      32.762  26.232  24.694  1.00  0.00    -0.346 N 
ATOM      9  C   UNL A   1      31.626  26.729  25.395  1.00  0.00     0.134 C 
ATOM     10  C   UNL A   1      32.483  26.920  23.474  1.00  0.00     0.134 C 
BRANCH   8  11
ATOM     11  C   UNL A   1      33.402  25.050  24.820  1.00  0.00     0.186 A 
ATOM     12  C   UNL A   1      36.242  22.975  25.604  1.00  0.00     0.146 A 
ATOM     13  C   UNL A   1      36.423  21.583  25.537  1.00  0.00     0.050 A 
ATOM     14  C   UNL A   1      34.995  23.532  25.203  1.00  0.00     0.127 A 
ATOM     15  C   UNL A   1      35.414  20.755  25.058  1.00  0.00     0.026 A 
ATOM     16  C   UNL A   1      33.978  22.670  24.780  1.00  0.00     0.079 A 
ATOM     17  N   UNL A   1      34.658  24.888  25.166  1.00  0.00    -0.216 NA
ATOM     18  C   UNL A   1      34.181  21.284  24.679  1.00  0.00     0.060 A 
ATOM     19  S   UNL A   1      32.557  23.593  24.478  1.00  0.00    -0.095 S 
ATOM     20  Cl  UNL A   1      32.952  20.217  24.113  1.00  0.00    -0.083 Cl
BRANCH  12  21
ATOM     21  O   UNL A   1      37.194  23.814  26.134  1.00  0.00    -0.494 OA
ATOM     22  C   UNL A   1      38.503  23.264  26.243  1.00  0.00     0.278 C 
ENDBRANCH  12  21
ENDBRANCH   8  11
ENDBRANCH   4   7
ENDBRANCH   2   3
ENDBRANCH   1   2
BRANCH   1  23
ATOM     23  C   UNL A   1      34.430  30.479  27.375  1.00  0.00     0.118 C 
BRANCH  23  24
ATOM     24  N   UNL A   1      34.349  31.597  28.311  1.00  0.00    -0.352 N 
ATOM     25  C   UNL A   1      35.109  31.818  29.441  1.00  0.00     0.251 C 
ATOM     26  H   UNL A   1      33.667  32.278  28.111  1.00  0.00     0.163 HD
ATOM     27  O   UNL A   1      34.762  32.625  30.286  1.00  0.00    -0.269 OA
BRANCH  25  28
ATOM     28  C   UNL A   1      36.368  31.071  29.596  1.00  0.00     0.039 A 
ATOM     29  C   UNL A   1      36.359  29.699  29.869  1.00  0.00     0.014 A 
ATOM     30  C   UNL A   1      37.567  31.776  29.493  1.00  0.00     0.014 A 
ATOM     31  C   UNL A   1      37.573  29.036  30.001  1.00  0.00     0.010 A 
ATOM     32  C   UNL A   1      38.758  31.106  29.490  1.00  0.00     0.010 A 
ATOM     33  C   UNL A   1      38.761  29.754  29.810  1.00  0.00    -0.014 A 
BRANCH  33  34
ATOM     34  C   UNL A   1      40.053  29.102  29.873  1.00  0.00     0.031 A 
ATOM     35  C   UNL A   1      40.608  28.957  31.242  1.00  0.00     0.074 A 
ATOM     36  C   UNL A   1      40.563  28.466  28.799  1.00  0.00     0.049 A 
ATOM     37  N   UNL A   1      41.690  29.486  31.711  1.00  0.00    -0.248 NA
ATOM     38  C   UNL A   1      39.807  28.249  32.254  1.00  0.00     0.031 C 
ATOM     39  C   UNL A   1      39.963  28.268  27.475  1.00  0.00     0.029 A 
ATOM     40  N   UNL A   1      41.721  27.763  28.710  1.00  0.00    -0.354 N 
ATOM     41  C   UNL A   1      41.806  29.034  33.022  1.00  0.00     0.074 A 
ATOM     42  C   UNL A   1      40.543  28.426  33.352  1.00  0.00     0.031 C 
ATOM     43  C   UNL A   1      40.655  27.321  26.802  1.00  0.00     0.029 A 
ATOM     44  C   UNL A   1      41.822  26.957  27.583  1.00  0.00     0.049 A 
ATOM     45  H   UNL A   1      42.430  27.818  29.390  1.00  0.00     0.167 HD
ATOM     46  C   UNL A   1      43.015  29.002  33.648  1.00  0.00     0.037 A 
ATOM     47  C   UNL A   1      42.780  26.022  27.364  1.00  0.00     0.037 A 
ATOM     48  C   UNL A   1      43.978  29.817  32.952  1.00  0.00     0.049 A 
ATOM     49  C   UNL A   1      43.930  26.375  28.244  1.00  0.00     0.074 A 
ATOM     50  C   UNL A   1      44.045  31.161  32.636  1.00  0.00     0.029 A 
ATOM     51  N   UNL A   1      44.865  29.194  32.107  1.00  0.00    -0.354 N 
ATOM     52  N   UNL A   1      44.640  27.462  28.090  1.00  0.00    -0.248 NA
ATOM     53  C   UNL A   1      43.947  25.800  29.584  1.00  0.00     0.031 C 
ATOM     54  C   UNL A   1      44.551  31.197  31.303  1.00  0.00     0.029 A 
ATOM     55  C   UNL A   1      44.846  29.887  30.921  1.00  0.00     0.049 A 
ATOM     56  H   UNL A   1      45.412  28.402  32.313  1.00  0.00     0.167 HD
ATOM     57  C   UNL A   1      44.847  27.938  29.378  1.00  0.00     0.074 A 
ATOM     58  C   UNL A   1      44.441  26.843  30.259  1.00  0.00     0.031 C 
ATOM     59  C   UNL A   1      45.030  29.268  29.629  1.00  0.00     0.037 A 
BRANCH  46  60
ATOM     60  C   UNL A   1      43.425  27.980  34.676  1.00  0.00     0.064 A 
ATOM     61  C   UNL A   1      43.822  28.414  35.956  1.00  0.00     0.173 A 
ATOM     62  C   UNL A   1      43.722  26.634  34.372  1.00  0.00     0.173 A 
ATOM     63  F   UNL A   1      43.607  29.680  36.347  1.00  0.00    -0.203 F 
ATOM     64  C   UNL A   1      44.532  27.588  36.830  1.00  0.00     0.198 A 
ATOM     65  C   UNL A   1      44.381  25.795  35.268  1.00  0.00     0.198 A 
ATOM     66  F   UNL A   1      43.493  26.108  33.164  1.00  0.00    -0.203 F 
ATOM     67  F   UNL A   1      45.000  28.083  37.984  1.00  0.00    -0.200 F 
ATOM     68  C   UNL A   1      44.816  26.279  36.483  1.00  0.00     0.200 A 
ATOM     69  F   UNL A   1      44.662  24.535  34.905  1.00  0.00    -0.200 F 
ATOM     70  F   UNL A   1      45.547  25.502  37.293  1.00  0.00    -0.200 F 
ENDBRANCH  46  60
BRANCH  47  71
ATOM     71  C   UNL A   1      42.602  24.686  26.739  1.00  0.00     0.064 A 
ATOM     72  C   UNL A   1      43.188  24.370  25.502  1.00  0.00     0.173 A 
ATOM     73  C   UNL A   1      42.062  23.603  27.463  1.00  0.00     0.173 A 
ATOM     74  F   UNL A   1      43.773  25.329  24.770  1.00  0.00    -0.203 F 
ATOM     75  C   UNL A   1      43.241  23.053  25.028  1.00  0.00     0.198 A 
ATOM     76  C   UNL A   1      42.109  22.291  26.987  1.00  0.00     0.198 A 
ATOM     77  F   UNL A   1      41.560  23.778  28.694  1.00  0.00    -0.203 F 
ATOM     78  F   UNL A   1      43.855  22.783  23.867  1.00  0.00    -0.200 F 
ATOM     79  C   UNL A   1      42.708  22.013  25.774  1.00  0.00     0.200 A 
ATOM     80  F   UNL A   1      41.624  21.293  27.739  1.00  0.00    -0.200 F 
ATOM     81  F   UNL A   1      42.807  20.747  25.346  1.00  0.00    -0.200 F 
ENDBRANCH  47  71
BRANCH  59  82
ATOM     82  C   UNL A   1      45.184  30.210  28.462  1.00  0.00     0.064 A 
ATOM     83  C   UNL A   1      44.122  30.950  27.912  1.00  0.00     0.173 A 
ATOM     84  C   UNL A   1      46.478  30.544  28.042  1.00  0.00     0.173 A 
ATOM     85  F   UNL A   1      42.866  30.766  28.327  1.00  0.00    -0.203 F 
ATOM     86  C   UNL A   1      44.344  31.961  26.977  1.00  0.00     0.198 A 
ATOM     87  C   UNL A   1      46.701  31.577  27.134  1.00  0.00     0.198 A 
ATOM     88  F   UNL A   1      47.537  29.914  28.574  1.00  0.00    -0.203 F 
ATOM     89  F   UNL A   1      43.311  32.658  26.482  1.00  0.00    -0.200 F 
ATOM     90  C   UNL A   1      45.635  32.282  26.600  1.00  0.00     0.200 A 
ATOM     91  F   UNL A   1      47.956  31.919  26.813  1.00  0.00    -0.200 F 
ATOM     92  F   UNL A   1      45.856  33.293  25.747  1.00  0.00    -0.200 F 
ENDBRANCH  59  82
ENDBRANCH  33  34
ENDBRANCH  25  28
ENDBRANCH  23  24
ENDBRANCH   1  23
TORSDOF 12
ENDMDL
