MODEL 1
REMARK VINA RESULT:     -12.4      0.000      0.000
REMARK SMILES CC[C@@H](C(=O)NCCCNC(=O)c1ccc(-c2c3nc(c(-c4c(F)c(F)c(F)c(F)c4F)c4ccc([nH]4)c(-c4c(F)c(F)c(F)c(F)c4F)c4nc(c(-c5c(F)c(F)c(F)c(F)c5F)c5ccc2[nH]5)C=C4)C=C3)cc1)[N@@H+]1CCc2ccc(N)cc2C1
REMARK SMILES IDX 8 1 7 2 6 3 4 4 5 5 3 7 2 8 1 9 76 10 77 11 86 12 78 14
REMARK SMILES IDX 85 15 79 16 84 17 80 18 82 19 81 20 83 21 9 24 10 25 11 26
REMARK SMILES IDX 12 28 13 29 14 30 75 31 15 32 74 33 16 34 17 35 18 36 68 37
REMARK SMILES IDX 19 38 73 39 67 40 69 41 20 42 72 43 66 44 65 45 21 47 53 48
REMARK SMILES IDX 33 49 52 50 34 51 37 52 51 53 70 54 35 55 36 56 50 58 71 59
REMARK SMILES IDX 38 60 22 61 23 62 31 63 24 64 25 65 29 66 32 67 26 68 27 69
REMARK SMILES IDX 30 70 28 71 54 72 55 73 63 74 56 75 57 76 61 77 64 78 58 79
REMARK SMILES IDX 59 80 62 81 60 82 39 83 40 84 48 85 41 86 42 87 46 88 49 89
REMARK SMILES IDX 43 90 44 91 47 92 45 93
REMARK H PARENT 6 6 76 13 83 22 83 23 10 27 69 46 37 57
REMARK Flexibility Score: inf
ROOT
ATOM      1  C   UNL A   1      32.511  27.983  25.890  1.00  0.00     0.042 C 
ENDROOT
BRANCH   1   2
ATOM      2  C   UNL A   1      31.342  27.398  25.075  1.00  0.00     0.118 C 
BRANCH   2   3
ATOM      3  N   UNL A   1      31.554  25.990  24.771  1.00  0.00    -0.351 N 
ATOM      4  C   UNL A   1      31.461  24.957  25.687  1.00  0.00     0.278 C 
ATOM      5  O   UNL A   1      30.662  25.022  26.621  1.00  0.00    -0.268 OA
ATOM      6  H   UNL A   1      31.779  25.754  23.843  1.00  0.00     0.163 HD
BRANCH   4   7
ATOM      7  C   UNL A   1      32.490  23.751  25.544  1.00  0.00     0.274 C 
BRANCH   7   8
ATOM      8  C   UNL A   1      33.762  23.950  26.409  1.00  0.00     0.072 C 
ATOM      9  C   UNL A   1      33.997  22.938  27.525  1.00  0.00     0.011 C 
ENDBRANCH   7   8
BRANCH   7  10
ATOM     10  N   UNL A   1      32.657  23.169  24.170  1.00  0.00    -0.321 N 
ATOM     11  C   UNL A   1      31.470  22.679  23.394  1.00  0.00     0.267 C 
ATOM     12  C   UNL A   1      33.742  22.231  24.028  1.00  0.00     0.300 C 
ATOM     13  H   UNL A   1      32.882  24.056  23.721  1.00  0.00     0.349 HD
ATOM     14  C   UNL A   1      31.754  21.468  22.368  1.00  0.00     0.097 C 
ATOM     15  C   UNL A   1      33.227  20.833  24.183  1.00  0.00     0.012 A 
ATOM     16  C   UNL A   1      32.504  20.367  23.100  1.00  0.00    -0.033 A 
ATOM     17  C   UNL A   1      33.102  20.087  25.341  1.00  0.00     0.035 A 
ATOM     18  C   UNL A   1      32.361  18.995  22.939  1.00  0.00     0.006 A 
ATOM     19  C   UNL A   1      32.760  18.746  25.293  1.00  0.00     0.032 A 
ATOM     20  C   UNL A   1      32.603  18.165  24.042  1.00  0.00     0.026 A 
BRANCH  19  21
ATOM     21  N   UNL A   1      32.678  18.025  26.477  1.00  0.00    -0.399 N 
ATOM     22  H   UNL A   1      31.982  18.241  27.138  1.00  0.00     0.156 HD
ATOM     23  H   UNL A   1      33.318  17.299  26.655  1.00  0.00     0.156 HD
ENDBRANCH  19  21
ENDBRANCH   7  10
ENDBRANCH   4   7
ENDBRANCH   2   3
ENDBRANCH   1   2
BRANCH   1  24
ATOM     24  C   UNL A   1      33.200  29.204  25.274  1.00  0.00     0.118 C 
BRANCH  24  25
ATOM     25  N   UNL A   1      32.736  30.456  25.843  1.00  0.00    -0.352 N 
ATOM     26  C   UNL A   1      33.219  31.198  26.886  1.00  0.00     0.251 C 
ATOM     27  H   UNL A   1      31.941  30.836  25.405  1.00  0.00     0.163 HD
ATOM     28  O   UNL A   1      32.537  32.143  27.309  1.00  0.00    -0.269 OA
BRANCH  26  29
ATOM     29  C   UNL A   1      34.515  30.911  27.548  1.00  0.00     0.039 A 
ATOM     30  C   UNL A   1      34.700  29.641  28.106  1.00  0.00     0.014 A 
ATOM     31  C   UNL A   1      35.502  31.885  27.734  1.00  0.00     0.014 A 
ATOM     32  C   UNL A   1      35.867  29.340  28.818  1.00  0.00     0.010 A 
ATOM     33  C   UNL A   1      36.700  31.562  28.389  1.00  0.00     0.010 A 
ATOM     34  C   UNL A   1      36.889  30.293  28.959  1.00  0.00    -0.014 A 
BRANCH  34  35
ATOM     35  C   UNL A   1      38.120  29.964  29.736  1.00  0.00     0.031 A 
ATOM     36  C   UNL A   1      38.304  30.480  31.142  1.00  0.00     0.074 A 
ATOM     37  C   UNL A   1      39.078  29.189  29.186  1.00  0.00     0.049 A 
ATOM     38  N   UNL A   1      39.292  30.273  31.980  1.00  0.00    -0.248 NA
ATOM     39  C   UNL A   1      37.251  31.359  31.674  1.00  0.00     0.031 C 
ATOM     40  C   UNL A   1      39.052  28.652  27.824  1.00  0.00     0.029 A 
ATOM     41  N   UNL A   1      40.260  28.712  29.704  1.00  0.00    -0.354 N 
ATOM     42  C   UNL A   1      38.984  31.002  33.123  1.00  0.00     0.074 A 
ATOM     43  C   UNL A   1      37.743  31.695  32.858  1.00  0.00     0.031 C 
ATOM     44  C   UNL A   1      40.149  27.903  27.624  1.00  0.00     0.029 A 
ATOM     45  C   UNL A   1      40.975  27.930  28.827  1.00  0.00     0.049 A 
ATOM     46  H   UNL A   1      40.567  28.913  30.618  1.00  0.00     0.167 HD
ATOM     47  C   UNL A   1      39.661  31.071  34.295  1.00  0.00     0.037 A 
ATOM     48  C   UNL A   1      42.161  27.308  28.973  1.00  0.00     0.037 A 
ATOM     49  C   UNL A   1      40.876  30.351  34.578  1.00  0.00     0.049 A 
ATOM     50  C   UNL A   1      42.885  27.396  30.294  1.00  0.00     0.074 A 
ATOM     51  C   UNL A   1      41.592  30.304  35.763  1.00  0.00     0.029 A 
ATOM     52  N   UNL A   1      41.556  29.555  33.671  1.00  0.00    -0.354 N 
ATOM     53  N   UNL A   1      42.535  28.020  31.392  1.00  0.00    -0.248 NA
ATOM     54  C   UNL A   1      44.163  26.675  30.400  1.00  0.00     0.031 C 
ATOM     55  C   UNL A   1      42.736  29.529  35.554  1.00  0.00     0.029 A 
ATOM     56  C   UNL A   1      42.697  29.035  34.261  1.00  0.00     0.049 A 
ATOM     57  H   UNL A   1      41.271  29.385  32.743  1.00  0.00     0.167 HD
ATOM     58  C   UNL A   1      43.523  27.733  32.326  1.00  0.00     0.074 A 
ATOM     59  C   UNL A   1      44.478  26.866  31.672  1.00  0.00     0.031 C 
ATOM     60  C   UNL A   1      43.630  28.152  33.610  1.00  0.00     0.037 A 
BRANCH  47  61
ATOM     61  C   UNL A   1      39.113  31.953  35.380  1.00  0.00     0.064 A 
ATOM     62  C   UNL A   1      38.341  31.438  36.432  1.00  0.00     0.173 A 
ATOM     63  C   UNL A   1      39.445  33.317  35.419  1.00  0.00     0.173 A 
ATOM     64  F   UNL A   1      37.989  30.143  36.440  1.00  0.00    -0.203 F 
ATOM     65  C   UNL A   1      37.911  32.257  37.474  1.00  0.00     0.198 A 
ATOM     66  C   UNL A   1      39.040  34.126  36.478  1.00  0.00     0.198 A 
ATOM     67  F   UNL A   1      40.189  33.860  34.442  1.00  0.00    -0.203 F 
ATOM     68  F   UNL A   1      37.150  31.749  38.453  1.00  0.00    -0.200 F 
ATOM     69  C   UNL A   1      38.271  33.596  37.502  1.00  0.00     0.200 A 
ATOM     70  F   UNL A   1      39.404  35.415  36.511  1.00  0.00    -0.200 F 
ATOM     71  F   UNL A   1      37.877  34.377  38.518  1.00  0.00    -0.200 F 
ENDBRANCH  47  61
BRANCH  48  72
ATOM     72  C   UNL A   1      42.755  26.537  27.845  1.00  0.00     0.064 A 
ATOM     73  C   UNL A   1      43.576  27.156  26.890  1.00  0.00     0.173 A 
ATOM     74  C   UNL A   1      42.462  25.177  27.663  1.00  0.00     0.173 A 
ATOM     75  F   UNL A   1      43.869  28.460  27.005  1.00  0.00    -0.203 F 
ATOM     76  C   UNL A   1      44.041  26.460  25.777  1.00  0.00     0.198 A 
ATOM     77  C   UNL A   1      42.960  24.471  26.569  1.00  0.00     0.198 A 
ATOM     78  F   UNL A   1      41.687  24.533  28.548  1.00  0.00    -0.203 F 
ATOM     79  F   UNL A   1      44.758  27.097  24.841  1.00  0.00    -0.200 F 
ATOM     80  C   UNL A   1      43.736  25.117  25.619  1.00  0.00     0.200 A 
ATOM     81  F   UNL A   1      42.674  23.169  26.430  1.00  0.00    -0.200 F 
ATOM     82  F   UNL A   1      44.173  24.449  24.543  1.00  0.00    -0.200 F 
ENDBRANCH  48  72
BRANCH  60  83
ATOM     83  C   UNL A   1      44.783  27.628  34.419  1.00  0.00     0.064 A 
ATOM     84  C   UNL A   1      45.978  28.348  34.564  1.00  0.00     0.173 A 
ATOM     85  C   UNL A   1      44.678  26.394  35.080  1.00  0.00     0.173 A 
ATOM     86  F   UNL A   1      46.135  29.528  33.944  1.00  0.00    -0.203 F 
ATOM     87  C   UNL A   1      47.038  27.835  35.308  1.00  0.00     0.198 A 
ATOM     88  C   UNL A   1      45.726  25.902  35.854  1.00  0.00     0.198 A 
ATOM     89  F   UNL A   1      43.554  25.669  34.985  1.00  0.00    -0.203 F 
ATOM     90  F   UNL A   1      48.193  28.513  35.380  1.00  0.00    -0.200 F 
ATOM     91  C   UNL A   1      46.909  26.617  35.957  1.00  0.00     0.200 A 
ATOM     92  F   UNL A   1      45.591  24.733  36.495  1.00  0.00    -0.200 F 
ATOM     93  F   UNL A   1      47.928  26.127  36.676  1.00  0.00    -0.200 F 
ENDBRANCH  60  83
ENDBRANCH  34  35
ENDBRANCH  26  29
ENDBRANCH  24  25
ENDBRANCH   1  24
TORSDOF 13
ENDMDL
MODEL 2
REMARK VINA RESULT:     -12.2      5.097     10.685
REMARK SMILES CC[C@@H](C(=O)NCCCNC(=O)c1ccc(-c2c3nc(c(-c4c(F)c(F)c(F)c(F)c4F)c4ccc([nH]4)c(-c4c(F)c(F)c(F)c(F)c4F)c4nc(c(-c5c(F)c(F)c(F)c(F)c5F)c5ccc2[nH]5)C=C4)C=C3)cc1)[N@@H+]1CCc2ccc(N)cc2C1
REMARK SMILES IDX 8 1 7 2 6 3 4 4 5 5 3 7 2 8 1 9 76 10 77 11 86 12 78 14
REMARK SMILES IDX 85 15 79 16 84 17 80 18 82 19 81 20 83 21 9 24 10 25 11 26
REMARK SMILES IDX 12 28 13 29 14 30 75 31 15 32 74 33 16 34 17 35 18 36 68 37
REMARK SMILES IDX 19 38 73 39 67 40 69 41 20 42 72 43 66 44 65 45 21 47 53 48
REMARK SMILES IDX 33 49 52 50 34 51 37 52 51 53 70 54 35 55 36 56 50 58 71 59
REMARK SMILES IDX 38 60 22 61 23 62 31 63 24 64 25 65 29 66 32 67 26 68 27 69
REMARK SMILES IDX 30 70 28 71 54 72 55 73 63 74 56 75 57 76 61 77 64 78 58 79
REMARK SMILES IDX 59 80 62 81 60 82 39 83 40 84 48 85 41 86 42 87 46 88 49 89
REMARK SMILES IDX 43 90 44 91 47 92 45 93
REMARK H PARENT 6 6 76 13 83 22 83 23 10 27 69 46 37 57
REMARK Flexibility Score: inf
ROOT
ATOM      1  C   UNL A   1      40.962  19.814  26.501  1.00  0.00     0.042 C 
ENDROOT
BRANCH   1   2
ATOM      2  C   UNL A   1      42.309  19.856  25.752  1.00  0.00     0.118 C 
BRANCH   2   3
ATOM      3  N   UNL A   1      42.929  21.170  25.840  1.00  0.00    -0.351 N 
ATOM      4  C   UNL A   1      44.289  21.400  25.950  1.00  0.00     0.278 C 
ATOM      5  O   UNL A   1      45.094  20.641  25.413  1.00  0.00    -0.268 OA
ATOM      6  H   UNL A   1      42.336  21.954  25.818  1.00  0.00     0.163 HD
BRANCH   4   7
ATOM      7  C   UNL A   1      44.758  22.608  26.875  1.00  0.00     0.274 C 
BRANCH   7   8
ATOM      8  C   UNL A   1      43.577  23.511  27.316  1.00  0.00     0.072 C 
ATOM      9  C   UNL A   1      42.981  23.237  28.692  1.00  0.00     0.011 C 
ENDBRANCH   7   8
BRANCH   7  10
ATOM     10  N   UNL A   1      46.054  23.271  26.508  1.00  0.00    -0.321 N 
ATOM     11  C   UNL A   1      46.747  24.189  27.472  1.00  0.00     0.267 C 
ATOM     12  C   UNL A   1      46.099  23.842  25.186  1.00  0.00     0.300 C 
ATOM     13  H   UNL A   1      46.611  22.418  26.555  1.00  0.00     0.349 HD
ATOM     14  C   UNL A   1      47.623  25.370  26.810  1.00  0.00     0.097 C 
ATOM     15  C   UNL A   1      45.768  25.302  25.253  1.00  0.00     0.012 A 
ATOM     16  C   UNL A   1      46.775  26.093  25.775  1.00  0.00    -0.033 A 
ATOM     17  C   UNL A   1      44.527  25.906  25.170  1.00  0.00     0.035 A 
ATOM     18  C   UNL A   1      46.766  27.452  25.489  1.00  0.00     0.006 A 
ATOM     19  C   UNL A   1      44.406  27.283  25.086  1.00  0.00     0.032 A 
ATOM     20  C   UNL A   1      45.575  28.030  25.031  1.00  0.00     0.026 A 
BRANCH  19  21
ATOM     21  N   UNL A   1      43.143  27.847  24.970  1.00  0.00    -0.399 N 
ATOM     22  H   UNL A   1      42.481  27.725  25.688  1.00  0.00     0.156 HD
ATOM     23  H   UNL A   1      42.909  28.368  24.168  1.00  0.00     0.156 HD
ENDBRANCH  19  21
ENDBRANCH   7  10
ENDBRANCH   4   7
ENDBRANCH   2   3
ENDBRANCH   1   2
BRANCH   1  24
ATOM     24  C   UNL A   1      40.419  21.169  26.960  1.00  0.00     0.118 C 
BRANCH  24  25
ATOM     25  N   UNL A   1      39.258  21.595  26.199  1.00  0.00    -0.352 N 
ATOM     26  C   UNL A   1      38.648  22.816  26.106  1.00  0.00     0.251 C 
ATOM     27  H   UNL A   1      38.840  20.887  25.659  1.00  0.00     0.163 HD
ATOM     28  O   UNL A   1      37.551  22.890  25.535  1.00  0.00    -0.269 OA
BRANCH  26  29
ATOM     29  C   UNL A   1      39.232  24.055  26.677  1.00  0.00     0.039 A 
ATOM     30  C   UNL A   1      38.925  24.374  28.005  1.00  0.00     0.014 A 
ATOM     31  C   UNL A   1      39.975  24.962  25.914  1.00  0.00     0.014 A 
ATOM     32  C   UNL A   1      39.375  25.572  28.570  1.00  0.00     0.010 A 
ATOM     33  C   UNL A   1      40.483  26.130  26.501  1.00  0.00     0.010 A 
ATOM     34  C   UNL A   1      40.172  26.461  27.830  1.00  0.00    -0.014 A 
BRANCH  34  35
ATOM     35  C   UNL A   1      40.631  27.745  28.440  1.00  0.00     0.031 A 
ATOM     36  C   UNL A   1      42.092  27.979  28.731  1.00  0.00     0.074 A 
ATOM     37  C   UNL A   1      39.735  28.713  28.727  1.00  0.00     0.049 A 
ATOM     38  N   UNL A   1      42.679  29.041  29.231  1.00  0.00    -0.248 NA
ATOM     39  C   UNL A   1      43.018  26.872  28.443  1.00  0.00     0.031 C 
ATOM     40  C   UNL A   1      38.288  28.609  28.536  1.00  0.00     0.029 A 
ATOM     41  N   UNL A   1      39.909  29.978  29.239  1.00  0.00    -0.354 N 
ATOM     42  C   UNL A   1      44.030  28.724  29.326  1.00  0.00     0.074 A 
ATOM     43  C   UNL A   1      44.172  27.356  28.878  1.00  0.00     0.031 C 
ATOM     44  C   UNL A   1      37.710  29.766  28.899  1.00  0.00     0.029 A 
ATOM     45  C   UNL A   1      38.737  30.684  29.382  1.00  0.00     0.049 A 
ATOM     46  H   UNL A   1      40.790  30.344  29.482  1.00  0.00     0.167 HD
ATOM     47  C   UNL A   1      45.060  29.506  29.727  1.00  0.00     0.037 A 
ATOM     48  C   UNL A   1      38.514  31.928  29.849  1.00  0.00     0.037 A 
ATOM     49  C   UNL A   1      44.929  30.882  30.136  1.00  0.00     0.049 A 
ATOM     50  C   UNL A   1      39.684  32.777  30.279  1.00  0.00     0.074 A 
ATOM     51  C   UNL A   1      45.928  31.773  30.490  1.00  0.00     0.029 A 
ATOM     52  N   UNL A   1      43.728  31.565  30.247  1.00  0.00    -0.354 N 
ATOM     53  N   UNL A   1      40.962  32.490  30.280  1.00  0.00    -0.248 NA
ATOM     54  C   UNL A   1      39.378  34.134  30.757  1.00  0.00     0.031 C 
ATOM     55  C   UNL A   1      45.327  32.976  30.873  1.00  0.00     0.029 A 
ATOM     56  C   UNL A   1      43.960  32.857  30.690  1.00  0.00     0.049 A 
ATOM     57  H   UNL A   1      42.842  31.186  30.042  1.00  0.00     0.167 HD
ATOM     58  C   UNL A   1      41.612  33.638  30.715  1.00  0.00     0.074 A 
ATOM     59  C   UNL A   1      40.590  34.632  30.954  1.00  0.00     0.031 C 
ATOM     60  C   UNL A   1      42.938  33.849  30.901  1.00  0.00     0.037 A 
BRANCH  47  61
ATOM     61  C   UNL A   1      46.438  28.910  29.749  1.00  0.00     0.064 A 
ATOM     62  C   UNL A   1      46.865  28.071  30.790  1.00  0.00     0.173 A 
ATOM     63  C   UNL A   1      47.311  29.103  28.665  1.00  0.00     0.173 A 
ATOM     64  F   UNL A   1      46.073  27.859  31.852  1.00  0.00    -0.203 F 
ATOM     65  C   UNL A   1      48.115  27.460  30.752  1.00  0.00     0.198 A 
ATOM     66  C   UNL A   1      48.548  28.466  28.616  1.00  0.00     0.198 A 
ATOM     67  F   UNL A   1      46.950  29.889  27.639  1.00  0.00    -0.203 F 
ATOM     68  F   UNL A   1      48.513  26.687  31.772  1.00  0.00    -0.200 F 
ATOM     69  C   UNL A   1      48.951  27.648  29.660  1.00  0.00     0.200 A 
ATOM     70  F   UNL A   1      49.345  28.636  27.552  1.00  0.00    -0.200 F 
ATOM     71  F   UNL A   1      50.144  27.040  29.614  1.00  0.00    -0.200 F 
ENDBRANCH  47  61
BRANCH  48  72
ATOM     72  C   UNL A   1      37.127  32.464  29.940  1.00  0.00     0.064 A 
ATOM     73  C   UNL A   1      36.572  33.230  28.903  1.00  0.00     0.173 A 
ATOM     74  C   UNL A   1      36.349  32.274  31.092  1.00  0.00     0.173 A 
ATOM     75  F   UNL A   1      37.281  33.461  27.788  1.00  0.00    -0.203 F 
ATOM     76  C   UNL A   1      35.317  33.821  29.034  1.00  0.00     0.198 A 
ATOM     77  C   UNL A   1      35.078  32.833  31.206  1.00  0.00     0.198 A 
ATOM     78  F   UNL A   1      36.828  31.545  32.111  1.00  0.00    -0.203 F 
ATOM     79  F   UNL A   1      34.845  34.612  28.061  1.00  0.00    -0.200 F 
ATOM     80  C   UNL A   1      34.569  33.620  30.184  1.00  0.00     0.200 A 
ATOM     81  F   UNL A   1      34.354  32.622  32.314  1.00  0.00    -0.200 F 
ATOM     82  F   UNL A   1      33.368  34.197  30.316  1.00  0.00    -0.200 F 
ENDBRANCH  48  72
BRANCH  60  83
ATOM     83  C   UNL A   1      43.370  35.225  31.323  1.00  0.00     0.064 A 
ATOM     84  C   UNL A   1      43.760  36.201  30.394  1.00  0.00     0.173 A 
ATOM     85  C   UNL A   1      43.368  35.579  32.683  1.00  0.00     0.173 A 
ATOM     86  F   UNL A   1      43.789  35.913  29.084  1.00  0.00    -0.203 F 
ATOM     87  C   UNL A   1      44.168  37.465  30.812  1.00  0.00     0.198 A 
ATOM     88  C   UNL A   1      43.742  36.855  33.093  1.00  0.00     0.198 A 
ATOM     89  F   UNL A   1      42.995  34.688  33.613  1.00  0.00    -0.203 F 
ATOM     90  F   UNL A   1      44.596  38.360  29.910  1.00  0.00    -0.200 F 
ATOM     91  C   UNL A   1      44.153  37.793  32.159  1.00  0.00     0.200 A 
ATOM     92  F   UNL A   1      43.708  37.176  34.394  1.00  0.00    -0.200 F 
ATOM     93  F   UNL A   1      44.542  39.012  32.558  1.00  0.00    -0.200 F 
ENDBRANCH  60  83
ENDBRANCH  34  35
ENDBRANCH  26  29
ENDBRANCH  24  25
ENDBRANCH   1  24
TORSDOF 13
ENDMDL
MODEL 3
REMARK VINA RESULT:     -12.1      1.081      1.856
REMARK SMILES CC[C@@H](C(=O)NCCCNC(=O)c1ccc(-c2c3nc(c(-c4c(F)c(F)c(F)c(F)c4F)c4ccc([nH]4)c(-c4c(F)c(F)c(F)c(F)c4F)c4nc(c(-c5c(F)c(F)c(F)c(F)c5F)c5ccc2[nH]5)C=C4)C=C3)cc1)[N@@H+]1CCc2ccc(N)cc2C1
REMARK SMILES IDX 8 1 7 2 6 3 4 4 5 5 3 7 2 8 1 9 76 10 77 11 86 12 78 14
REMARK SMILES IDX 85 15 79 16 84 17 80 18 82 19 81 20 83 21 9 24 10 25 11 26
REMARK SMILES IDX 12 28 13 29 14 30 75 31 15 32 74 33 16 34 17 35 18 36 68 37
REMARK SMILES IDX 19 38 73 39 67 40 69 41 20 42 72 43 66 44 65 45 21 47 53 48
REMARK SMILES IDX 33 49 52 50 34 51 37 52 51 53 70 54 35 55 36 56 50 58 71 59
REMARK SMILES IDX 38 60 22 61 23 62 31 63 24 64 25 65 29 66 32 67 26 68 27 69
REMARK SMILES IDX 30 70 28 71 54 72 55 73 63 74 56 75 57 76 61 77 64 78 58 79
REMARK SMILES IDX 59 80 62 81 60 82 39 83 40 84 48 85 41 86 42 87 46 88 49 89
REMARK SMILES IDX 43 90 44 91 47 92 45 93
REMARK H PARENT 6 6 76 13 83 22 83 23 10 27 69 46 37 57
REMARK Flexibility Score: inf
ROOT
ATOM      1  C   UNL A   1      33.569  28.755  24.508  1.00  0.00     0.042 C 
ENDROOT
BRANCH   1   2
ATOM      2  C   UNL A   1      33.078  27.637  23.568  1.00  0.00     0.118 C 
BRANCH   2   3
ATOM      3  N   UNL A   1      33.361  26.317  24.113  1.00  0.00    -0.351 N 
ATOM      4  C   UNL A   1      33.528  25.167  23.362  1.00  0.00     0.278 C 
ATOM      5  O   UNL A   1      34.028  25.224  22.239  1.00  0.00    -0.268 OA
ATOM      6  H   UNL A   1      33.441  26.237  25.090  1.00  0.00     0.163 HD
BRANCH   4   7
ATOM      7  C   UNL A   1      32.957  23.807  23.961  1.00  0.00     0.274 C 
BRANCH   7   8
ATOM      8  C   UNL A   1      31.477  23.932  24.408  1.00  0.00     0.072 C 
ATOM      9  C   UNL A   1      30.437  24.084  23.303  1.00  0.00     0.011 C 
ENDBRANCH   7   8
BRANCH   7  10
ATOM     10  N   UNL A   1      33.889  23.009  24.825  1.00  0.00    -0.321 N 
ATOM     11  C   UNL A   1      35.207  22.527  24.293  1.00  0.00     0.267 C 
ATOM     12  C   UNL A   1      33.268  21.958  25.592  1.00  0.00     0.300 C 
ATOM     13  H   UNL A   1      34.150  23.791  25.426  1.00  0.00     0.349 HD
ATOM     14  C   UNL A   1      35.758  21.151  24.929  1.00  0.00     0.097 C 
ATOM     15  C   UNL A   1      33.387  20.657  24.857  1.00  0.00     0.012 A 
ATOM     16  C   UNL A   1      34.655  20.105  24.876  1.00  0.00    -0.033 A 
ATOM     17  C   UNL A   1      32.520  20.113  23.928  1.00  0.00     0.035 A 
ATOM     18  C   UNL A   1      34.790  18.746  24.626  1.00  0.00     0.006 A 
ATOM     19  C   UNL A   1      32.693  18.821  23.461  1.00  0.00     0.032 A 
ATOM     20  C   UNL A   1      33.732  18.074  24.000  1.00  0.00     0.026 A 
BRANCH  19  21
ATOM     21  N   UNL A   1      31.780  18.301  22.553  1.00  0.00    -0.399 N 
ATOM     22  H   UNL A   1      32.088  17.969  21.680  1.00  0.00     0.156 HD
ATOM     23  H   UNL A   1      30.823  18.265  22.784  1.00  0.00     0.156 HD
ENDBRANCH  19  21
ENDBRANCH   7  10
ENDBRANCH   4   7
ENDBRANCH   2   3
ENDBRANCH   1   2
BRANCH   1  24
ATOM     24  C   UNL A   1      32.761  28.940  25.794  1.00  0.00     0.118 C 
BRANCH  24  25
ATOM     25  N   UNL A   1      32.481  30.334  26.086  1.00  0.00    -0.352 N 
ATOM     26  C   UNL A   1      33.107  31.215  26.925  1.00  0.00     0.251 C 
ATOM     27  H   UNL A   1      31.713  30.709  25.598  1.00  0.00     0.163 HD
ATOM     28  O   UNL A   1      32.566  32.308  27.149  1.00  0.00    -0.269 OA
BRANCH  26  29
ATOM     29  C   UNL A   1      34.394  30.914  27.597  1.00  0.00     0.039 A 
ATOM     30  C   UNL A   1      34.598  29.613  28.072  1.00  0.00     0.014 A 
ATOM     31  C   UNL A   1      35.353  31.895  27.871  1.00  0.00     0.014 A 
ATOM     32  C   UNL A   1      35.756  29.292  28.790  1.00  0.00     0.010 A 
ATOM     33  C   UNL A   1      36.543  31.557  28.531  1.00  0.00     0.010 A 
ATOM     34  C   UNL A   1      36.751  30.257  29.018  1.00  0.00    -0.014 A 
BRANCH  34  35
ATOM     35  C   UNL A   1      37.973  29.904  29.801  1.00  0.00     0.031 A 
ATOM     36  C   UNL A   1      38.160  30.416  31.207  1.00  0.00     0.074 A 
ATOM     37  C   UNL A   1      38.918  29.111  29.254  1.00  0.00     0.049 A 
ATOM     38  N   UNL A   1      39.140  30.190  32.049  1.00  0.00    -0.248 NA
ATOM     39  C   UNL A   1      37.121  31.315  31.736  1.00  0.00     0.031 C 
ATOM     40  C   UNL A   1      38.888  28.576  27.892  1.00  0.00     0.029 A 
ATOM     41  N   UNL A   1      40.089  28.613  29.777  1.00  0.00    -0.354 N 
ATOM     42  C   UNL A   1      38.842  30.925  33.192  1.00  0.00     0.074 A 
ATOM     43  C   UNL A   1      37.615  31.641  32.922  1.00  0.00     0.031 C 
ATOM     44  C   UNL A   1      39.971  27.807  27.696  1.00  0.00     0.029 A 
ATOM     45  C   UNL A   1      40.793  27.818  28.902  1.00  0.00     0.049 A 
ATOM     46  H   UNL A   1      40.396  28.807  30.692  1.00  0.00     0.167 HD
ATOM     47  C   UNL A   1      39.515  30.980  34.366  1.00  0.00     0.037 A 
ATOM     48  C   UNL A   1      41.966  27.173  29.053  1.00  0.00     0.037 A 
ATOM     49  C   UNL A   1      40.715  30.237  34.654  1.00  0.00     0.049 A 
ATOM     50  C   UNL A   1      42.686  27.247  30.377  1.00  0.00     0.074 A 
ATOM     51  C   UNL A   1      41.425  30.176  35.842  1.00  0.00     0.029 A 
ATOM     52  N   UNL A   1      41.384  29.429  33.749  1.00  0.00    -0.354 N 
ATOM     53  N   UNL A   1      42.343  27.877  31.473  1.00  0.00    -0.248 NA
ATOM     54  C   UNL A   1      43.950  26.502  30.487  1.00  0.00     0.031 C 
ATOM     55  C   UNL A   1      42.555  29.379  35.637  1.00  0.00     0.029 A 
ATOM     56  C   UNL A   1      42.512  28.887  34.344  1.00  0.00     0.049 A 
ATOM     57  H   UNL A   1      41.099  29.265  32.821  1.00  0.00     0.167 HD
ATOM     58  C   UNL A   1      43.322  27.571  32.412  1.00  0.00     0.074 A 
ATOM     59  C   UNL A   1      44.263  26.687  31.761  1.00  0.00     0.031 C 
ATOM     60  C   UNL A   1      43.431  27.987  33.697  1.00  0.00     0.037 A 
BRANCH  47  61
ATOM     61  C   UNL A   1      38.979  31.872  35.450  1.00  0.00     0.064 A 
ATOM     62  C   UNL A   1      38.204  31.369  36.506  1.00  0.00     0.173 A 
ATOM     63  C   UNL A   1      39.326  33.232  35.483  1.00  0.00     0.173 A 
ATOM     64  F   UNL A   1      37.838  30.078  36.518  1.00  0.00    -0.203 F 
ATOM     65  C   UNL A   1      37.786  32.195  37.545  1.00  0.00     0.198 A 
ATOM     66  C   UNL A   1      38.932  34.049  36.540  1.00  0.00     0.198 A 
ATOM     67  F   UNL A   1      40.073  33.764  34.503  1.00  0.00    -0.203 F 
ATOM     68  F   UNL A   1      37.021  31.699  38.528  1.00  0.00    -0.200 F 
ATOM     69  C   UNL A   1      38.160  33.531  37.568  1.00  0.00     0.200 A 
ATOM     70  F   UNL A   1      39.310  35.334  36.568  1.00  0.00    -0.200 F 
ATOM     71  F   UNL A   1      37.777  34.319  38.582  1.00  0.00    -0.200 F 
ENDBRANCH  47  61
BRANCH  48  72
ATOM     72  C   UNL A   1      42.550  26.391  27.927  1.00  0.00     0.064 A 
ATOM     73  C   UNL A   1      43.435  26.981  27.012  1.00  0.00     0.173 A 
ATOM     74  C   UNL A   1      42.185  25.055  27.706  1.00  0.00     0.173 A 
ATOM     75  F   UNL A   1      43.800  28.263  27.164  1.00  0.00    -0.203 F 
ATOM     76  C   UNL A   1      43.895  26.281  25.898  1.00  0.00     0.198 A 
ATOM     77  C   UNL A   1      42.676  24.343  26.613  1.00  0.00     0.198 A 
ATOM     78  F   UNL A   1      41.345  24.440  28.552  1.00  0.00    -0.203 F 
ATOM     79  F   UNL A   1      44.677  26.894  24.999  1.00  0.00    -0.200 F 
ATOM     80  C   UNL A   1      43.518  24.962  25.701  1.00  0.00     0.200 A 
ATOM     81  F   UNL A   1      42.319  23.064  26.436  1.00  0.00    -0.200 F 
ATOM     82  F   UNL A   1      43.950  24.291  24.625  1.00  0.00    -0.200 F 
ENDBRANCH  48  72
BRANCH  60  83
ATOM     83  C   UNL A   1      44.571  27.441  34.509  1.00  0.00     0.064 A 
ATOM     84  C   UNL A   1      44.463  26.246  35.235  1.00  0.00     0.173 A 
ATOM     85  C   UNL A   1      45.802  28.117  34.540  1.00  0.00     0.173 A 
ATOM     86  F   UNL A   1      43.306  25.566  35.248  1.00  0.00    -0.203 F 
ATOM     87  C   UNL A   1      45.531  25.768  35.991  1.00  0.00     0.198 A 
ATOM     88  C   UNL A   1      46.878  27.616  35.266  1.00  0.00     0.198 A 
ATOM     89  F   UNL A   1      45.964  29.259  33.855  1.00  0.00    -0.203 F 
ATOM     90  F   UNL A   1      45.383  24.656  36.726  1.00  0.00    -0.200 F 
ATOM     91  C   UNL A   1      46.738  26.449  36.001  1.00  0.00     0.200 A 
ATOM     92  F   UNL A   1      48.050  28.266  35.259  1.00  0.00    -0.200 F 
ATOM     93  F   UNL A   1      47.766  25.984  36.725  1.00  0.00    -0.200 F 
ENDBRANCH  60  83
ENDBRANCH  34  35
ENDBRANCH  26  29
ENDBRANCH  24  25
ENDBRANCH   1  24
TORSDOF 13
ENDMDL
