MODEL 1
REMARK VINA RESULT:     -11.4      0.000      0.000
REMARK SMILES CC(C)[C@H](NS(=O)(=O)CCC(=O)NCCCNC(=O)c1ccc(-c2c3nc(c(-c4c(F)c(F)c(F)c(F)c4F)c4ccc([nH]4)c(-c4c(F)c(F)c(F)c(F)c4F)c4nc(c(-c5c(F)c(F)c(F)c(F)c5F)c5ccc2[nH]5)C=C4)C=C3)cc1)c1ccccc1
REMARK SMILES IDX 11 1 12 2 13 3 10 5 9 6 6 7 7 8 8 9 5 10 4 12 2 13 1 14 3 15
REMARK SMILES IDX 83 16 84 17 88 18 85 19 87 20 86 21 14 22 15 23 16 24 17 25
REMARK SMILES IDX 18 26 19 28 20 29 21 30 82 31 22 32 81 33 23 34 24 35 25 36
REMARK SMILES IDX 75 37 26 38 80 39 74 40 76 41 27 42 79 43 73 44 72 45 28 47
REMARK SMILES IDX 60 48 40 49 59 50 41 51 44 52 58 53 77 54 42 55 43 56 57 58
REMARK SMILES IDX 78 59 45 60 29 61 30 62 38 63 31 64 32 65 36 66 39 67 33 68
REMARK SMILES IDX 34 69 37 70 35 71 61 72 62 73 70 74 63 75 64 76 68 77 71 78
REMARK SMILES IDX 65 79 66 80 69 81 67 82 46 83 47 84 55 85 48 86 49 87 53 88
REMARK SMILES IDX 56 89 50 90 51 91 54 92 52 93
REMARK H PARENT 13 4 5 11 17 27 76 46 44 57
REMARK Flexibility Score: inf
ROOT
ATOM      1  C   UNL A   1      33.109  29.171  25.406  1.00  0.00     0.221 C 
ATOM      2  O   UNL A   1      33.276  29.410  24.215  1.00  0.00    -0.275 OA
ATOM      3  N   UNL A   1      32.256  29.882  26.202  1.00  0.00    -0.356 N 
ATOM      4  H   UNL A   1      32.216  29.633  27.153  1.00  0.00     0.163 HD
ENDROOT
BRANCH   1   5
ATOM      5  C   UNL A   1      33.667  27.922  26.059  1.00  0.00     0.117 C 
BRANCH   5   6
ATOM      6  C   UNL A   1      33.079  26.537  25.849  1.00  0.00     0.164 C 
BRANCH   6   7
ATOM      7  S   UNL A   1      31.455  26.103  26.428  1.00  0.00     0.212 S 
ATOM      8  O   UNL A   1      31.011  27.208  27.254  1.00  0.00    -0.212 OA
ATOM      9  O   UNL A   1      31.444  24.766  26.967  1.00  0.00    -0.212 OA
BRANCH   7  10
ATOM     10  N   UNL A   1      30.492  26.210  25.088  1.00  0.00    -0.207 NA
ATOM     11  H   UNL A   1      30.215  25.250  24.882  1.00  0.00     0.141 HD
BRANCH  10  12
ATOM     12  C   UNL A   1      30.869  26.789  23.787  1.00  0.00     0.102 C 
BRANCH  12  13
ATOM     13  C   UNL A   1      30.980  25.652  22.718  1.00  0.00     0.005 C 
ATOM     14  C   UNL A   1      32.349  25.657  22.020  1.00  0.00     0.009 C 
ATOM     15  C   UNL A   1      30.746  24.247  23.291  1.00  0.00     0.009 C 
ENDBRANCH  12  13
BRANCH  12  16
ATOM     16  C   UNL A   1      29.841  27.831  23.361  1.00  0.00    -0.030 A 
ATOM     17  C   UNL A   1      28.468  27.603  23.533  1.00  0.00     0.005 A 
ATOM     18  C   UNL A   1      30.238  29.038  22.763  1.00  0.00     0.005 A 
ATOM     19  C   UNL A   1      27.521  28.495  23.025  1.00  0.00     0.000 A 
ATOM     20  C   UNL A   1      29.291  29.940  22.273  1.00  0.00     0.000 A 
ATOM     21  C   UNL A   1      27.933  29.655  22.380  1.00  0.00     0.000 A 
ENDBRANCH  12  16
ENDBRANCH  10  12
ENDBRANCH   7  10
ENDBRANCH   6   7
ENDBRANCH   5   6
ENDBRANCH   1   5
BRANCH   3  22
ATOM     22  C   UNL A   1      31.405  30.971  25.768  1.00  0.00     0.117 C 
BRANCH  22  23
ATOM     23  C   UNL A   1      31.323  32.040  26.859  1.00  0.00     0.042 C 
BRANCH  23  24
ATOM     24  C   UNL A   1      32.618  32.843  27.051  1.00  0.00     0.118 C 
BRANCH  24  25
ATOM     25  N   UNL A   1      32.383  34.178  27.566  1.00  0.00    -0.352 N 
ATOM     26  C   UNL A   1      33.059  34.832  28.567  1.00  0.00     0.251 C 
ATOM     27  H   UNL A   1      31.646  34.679  27.146  1.00  0.00     0.163 HD
ATOM     28  O   UNL A   1      32.706  35.948  28.933  1.00  0.00    -0.269 OA
BRANCH  26  29
ATOM     29  C   UNL A   1      34.210  34.183  29.230  1.00  0.00     0.039 A 
ATOM     30  C   UNL A   1      33.974  33.342  30.319  1.00  0.00     0.014 A 
ATOM     31  C   UNL A   1      35.518  34.444  28.814  1.00  0.00     0.014 A 
ATOM     32  C   UNL A   1      35.050  32.730  30.974  1.00  0.00     0.010 A 
ATOM     33  C   UNL A   1      36.592  33.816  29.459  1.00  0.00     0.010 A 
ATOM     34  C   UNL A   1      36.370  32.946  30.540  1.00  0.00    -0.014 A 
BRANCH  34  35
ATOM     35  C   UNL A   1      37.507  32.216  31.170  1.00  0.00     0.031 A 
ATOM     36  C   UNL A   1      38.009  32.578  32.541  1.00  0.00     0.074 A 
ATOM     37  C   UNL A   1      38.127  31.239  30.480  1.00  0.00     0.049 A 
ATOM     38  N   UNL A   1      39.019  32.080  33.212  1.00  0.00    -0.248 NA
ATOM     39  C   UNL A   1      37.286  33.644  33.249  1.00  0.00     0.031 C 
ATOM     40  C   UNL A   1      37.758  30.795  29.137  1.00  0.00     0.029 A 
ATOM     41  N   UNL A   1      39.207  30.452  30.806  1.00  0.00    -0.354 N 
ATOM     42  C   UNL A   1      39.060  32.773  34.415  1.00  0.00     0.074 A 
ATOM     43  C   UNL A   1      37.989  33.749  34.369  1.00  0.00     0.031 C 
ATOM     44  C   UNL A   1      38.591  29.813  28.755  1.00  0.00     0.029 A 
ATOM     45  C   UNL A   1      39.577  29.584  29.808  1.00  0.00     0.049 A 
ATOM     46  H   UNL A   1      39.670  30.505  31.673  1.00  0.00     0.167 HD
ATOM     47  C   UNL A   1      39.904  32.605  35.464  1.00  0.00     0.037 A 
ATOM     48  C   UNL A   1      40.603  28.714  29.735  1.00  0.00     0.037 A 
ATOM     49  C   UNL A   1      40.966  31.632  35.519  1.00  0.00     0.049 A 
ATOM     50  C   UNL A   1      41.551  28.576  30.898  1.00  0.00     0.074 A 
ATOM     51  C   UNL A   1      41.840  31.365  36.560  1.00  0.00     0.029 A 
ATOM     52  N   UNL A   1      41.309  30.771  34.486  1.00  0.00    -0.354 N 
ATOM     53  N   UNL A   1      41.540  29.196  32.051  1.00  0.00    -0.248 NA
ATOM     54  C   UNL A   1      42.650  27.611  30.747  1.00  0.00     0.031 C 
ATOM     55  C   UNL A   1      42.739  30.380  36.142  1.00  0.00     0.029 A 
ATOM     56  C   UNL A   1      42.394  29.992  34.859  1.00  0.00     0.049 A 
ATOM     57  H   UNL A   1      40.849  30.721  33.617  1.00  0.00     0.167 HD
ATOM     58  C   UNL A   1      42.604  28.674  32.775  1.00  0.00     0.074 A 
ATOM     59  C   UNL A   1      43.237  27.681  31.934  1.00  0.00     0.031 C 
ATOM     60  C   UNL A   1      43.011  28.989  34.028  1.00  0.00     0.037 A 
BRANCH  47  61
ATOM     61  C   UNL A   1      39.724  33.502  36.655  1.00  0.00     0.064 A 
ATOM     62  C   UNL A   1      40.383  34.737  36.751  1.00  0.00     0.173 A 
ATOM     63  C   UNL A   1      38.832  33.154  37.681  1.00  0.00     0.173 A 
ATOM     64  F   UNL A   1      41.246  35.117  35.797  1.00  0.00    -0.203 F 
ATOM     65  C   UNL A   1      40.175  35.577  37.842  1.00  0.00     0.198 A 
ATOM     66  C   UNL A   1      38.605  34.009  38.757  1.00  0.00     0.198 A 
ATOM     67  F   UNL A   1      38.163  31.992  37.631  1.00  0.00    -0.203 F 
ATOM     68  F   UNL A   1      40.844  36.735  37.930  1.00  0.00    -0.200 F 
ATOM     69  C   UNL A   1      39.281  35.216  38.840  1.00  0.00     0.200 A 
ATOM     70  F   UNL A   1      37.728  33.667  39.711  1.00  0.00    -0.200 F 
ATOM     71  F   UNL A   1      39.076  36.031  39.884  1.00  0.00    -0.200 F 
ENDBRANCH  47  61
BRANCH  48  72
ATOM     72  C   UNL A   1      40.789  27.893  28.511  1.00  0.00     0.064 A 
ATOM     73  C   UNL A   1      41.614  28.333  27.467  1.00  0.00     0.173 A 
ATOM     74  C   UNL A   1      40.140  26.659  28.356  1.00  0.00     0.173 A 
ATOM     75  F   UNL A   1      42.235  29.518  27.560  1.00  0.00    -0.203 F 
ATOM     76  C   UNL A   1      41.770  27.579  26.307  1.00  0.00     0.198 A 
ATOM     77  C   UNL A   1      40.320  25.892  27.207  1.00  0.00     0.198 A 
ATOM     78  F   UNL A   1      39.341  26.194  29.326  1.00  0.00    -0.203 F 
ATOM     79  F   UNL A   1      42.529  28.043  25.305  1.00  0.00    -0.200 F 
ATOM     80  C   UNL A   1      41.129  26.355  26.180  1.00  0.00     0.200 A 
ATOM     81  F   UNL A   1      39.709  24.705  27.095  1.00  0.00    -0.200 F 
ATOM     82  F   UNL A   1      41.282  25.628  25.067  1.00  0.00    -0.200 F 
ENDBRANCH  48  72
BRANCH  60  83
ATOM     83  C   UNL A   1      44.167  28.221  34.601  1.00  0.00     0.064 A 
ATOM     84  C   UNL A   1      45.484  28.696  34.520  1.00  0.00     0.173 A 
ATOM     85  C   UNL A   1      43.944  27.019  35.293  1.00  0.00     0.173 A 
ATOM     86  F   UNL A   1      45.753  29.829  33.855  1.00  0.00    -0.203 F 
ATOM     87  C   UNL A   1      46.537  27.990  35.099  1.00  0.00     0.198 A 
ATOM     88  C   UNL A   1      44.994  26.331  35.894  1.00  0.00     0.198 A 
ATOM     89  F   UNL A   1      42.702  26.524  35.404  1.00  0.00    -0.203 F 
ATOM     90  F   UNL A   1      47.792  28.443  34.978  1.00  0.00    -0.200 F 
ATOM     91  C   UNL A   1      46.290  26.813  35.792  1.00  0.00     0.200 A 
ATOM     92  F   UNL A   1      44.752  25.201  36.573  1.00  0.00    -0.200 F 
ATOM     93  F   UNL A   1      47.302  26.143  36.360  1.00  0.00    -0.200 F 
ENDBRANCH  60  83
ENDBRANCH  34  35
ENDBRANCH  26  29
ENDBRANCH  24  25
ENDBRANCH  23  24
ENDBRANCH  22  23
ENDBRANCH   3  22
TORSDOF 16
ENDMDL
MODEL 2
REMARK VINA RESULT:     -11.2      5.389      9.488
REMARK SMILES CC(C)[C@H](NS(=O)(=O)CCC(=O)NCCCNC(=O)c1ccc(-c2c3nc(c(-c4c(F)c(F)c(F)c(F)c4F)c4ccc([nH]4)c(-c4c(F)c(F)c(F)c(F)c4F)c4nc(c(-c5c(F)c(F)c(F)c(F)c5F)c5ccc2[nH]5)C=C4)C=C3)cc1)c1ccccc1
REMARK SMILES IDX 11 1 12 2 13 3 10 5 9 6 6 7 7 8 8 9 5 10 4 12 2 13 1 14 3 15
REMARK SMILES IDX 83 16 84 17 88 18 85 19 87 20 86 21 14 22 15 23 16 24 17 25
REMARK SMILES IDX 18 26 19 28 20 29 21 30 82 31 22 32 81 33 23 34 24 35 25 36
REMARK SMILES IDX 75 37 26 38 80 39 74 40 76 41 27 42 79 43 73 44 72 45 28 47
REMARK SMILES IDX 60 48 40 49 59 50 41 51 44 52 58 53 77 54 42 55 43 56 57 58
REMARK SMILES IDX 78 59 45 60 29 61 30 62 38 63 31 64 32 65 36 66 39 67 33 68
REMARK SMILES IDX 34 69 37 70 35 71 61 72 62 73 70 74 63 75 64 76 68 77 71 78
REMARK SMILES IDX 65 79 66 80 69 81 67 82 46 83 47 84 55 85 48 86 49 87 53 88
REMARK SMILES IDX 56 89 50 90 51 91 54 92 52 93
REMARK H PARENT 13 4 5 11 17 27 76 46 44 57
REMARK Flexibility Score: inf
ROOT
ATOM      1  C   UNL A   1      35.710  22.544  25.899  1.00  0.00     0.221 C 
ATOM      2  O   UNL A   1      36.527  23.426  26.144  1.00  0.00    -0.275 OA
ATOM      3  N   UNL A   1      35.970  21.491  25.067  1.00  0.00    -0.356 N 
ATOM      4  H   UNL A   1      35.238  20.853  24.908  1.00  0.00     0.163 HD
ENDROOT
BRANCH   1   5
ATOM      5  C   UNL A   1      34.410  22.418  26.667  1.00  0.00     0.117 C 
BRANCH   5   6
ATOM      6  C   UNL A   1      33.082  22.082  26.011  1.00  0.00     0.164 C 
BRANCH   6   7
ATOM      7  S   UNL A   1      31.603  23.009  26.344  1.00  0.00     0.212 S 
ATOM      8  O   UNL A   1      31.737  23.514  27.696  1.00  0.00    -0.212 OA
ATOM      9  O   UNL A   1      30.431  22.249  25.986  1.00  0.00    -0.212 OA
BRANCH   7  10
ATOM     10  N   UNL A   1      31.739  24.365  25.409  1.00  0.00    -0.207 NA
ATOM     11  H   UNL A   1      31.464  24.071  24.472  1.00  0.00     0.141 HD
BRANCH  10  12
ATOM     12  C   UNL A   1      32.956  25.173  25.216  1.00  0.00     0.102 C 
BRANCH  12  13
ATOM     13  C   UNL A   1      33.210  25.384  23.688  1.00  0.00     0.005 C 
ATOM     14  C   UNL A   1      33.855  24.149  23.039  1.00  0.00     0.009 C 
ATOM     15  C   UNL A   1      31.938  25.723  22.896  1.00  0.00     0.009 C 
ENDBRANCH  12  13
BRANCH  12  16
ATOM     16  C   UNL A   1      32.813  26.513  25.930  1.00  0.00    -0.030 A 
ATOM     17  C   UNL A   1      33.894  27.401  26.019  1.00  0.00     0.005 A 
ATOM     18  C   UNL A   1      31.603  26.886  26.537  1.00  0.00     0.005 A 
ATOM     19  C   UNL A   1      33.807  28.567  26.783  1.00  0.00     0.000 A 
ATOM     20  C   UNL A   1      31.509  28.062  27.284  1.00  0.00     0.000 A 
ATOM     21  C   UNL A   1      32.619  28.889  27.429  1.00  0.00     0.000 A 
ENDBRANCH  12  16
ENDBRANCH  10  12
ENDBRANCH   7  10
ENDBRANCH   6   7
ENDBRANCH   5   6
ENDBRANCH   1   5
BRANCH   3  22
ATOM     22  C   UNL A   1      37.228  21.233  24.398  1.00  0.00     0.117 C 
BRANCH  22  23
ATOM     23  C   UNL A   1      37.871  19.962  24.959  1.00  0.00     0.042 C 
BRANCH  23  24
ATOM     24  C   UNL A   1      39.024  20.223  25.939  1.00  0.00     0.118 C 
BRANCH  24  25
ATOM     25  N   UNL A   1      40.095  19.250  25.820  1.00  0.00    -0.352 N 
ATOM     26  C   UNL A   1      41.438  19.439  26.032  1.00  0.00     0.251 C 
ATOM     27  H   UNL A   1      39.824  18.341  25.554  1.00  0.00     0.163 HD
ATOM     28  O   UNL A   1      42.235  18.526  25.837  1.00  0.00    -0.269 OA
BRANCH  26  29
ATOM     29  C   UNL A   1      41.941  20.756  26.477  1.00  0.00     0.039 A 
ATOM     30  C   UNL A   1      42.319  21.694  25.513  1.00  0.00     0.014 A 
ATOM     31  C   UNL A   1      42.088  21.046  27.836  1.00  0.00     0.014 A 
ATOM     32  C   UNL A   1      42.814  22.941  25.911  1.00  0.00     0.010 A 
ATOM     33  C   UNL A   1      42.567  22.302  28.232  1.00  0.00     0.010 A 
ATOM     34  C   UNL A   1      42.927  23.266  27.275  1.00  0.00    -0.014 A 
BRANCH  34  35
ATOM     35  C   UNL A   1      43.357  24.630  27.699  1.00  0.00     0.031 A 
ATOM     36  C   UNL A   1      42.355  25.700  28.033  1.00  0.00     0.074 A 
ATOM     37  C   UNL A   1      44.672  24.922  27.744  1.00  0.00     0.049 A 
ATOM     38  N   UNL A   1      42.560  26.952  28.368  1.00  0.00    -0.248 NA
ATOM     39  C   UNL A   1      40.937  25.319  27.976  1.00  0.00     0.031 C 
ATOM     40  C   UNL A   1      45.751  23.987  27.432  1.00  0.00     0.029 A 
ATOM     41  N   UNL A   1      45.324  26.092  28.057  1.00  0.00    -0.354 N 
ATOM     42  C   UNL A   1      41.302  27.509  28.555  1.00  0.00     0.074 A 
ATOM     43  C   UNL A   1      40.337  26.466  28.267  1.00  0.00     0.031 C 
ATOM     44  C   UNL A   1      46.930  24.615  27.573  1.00  0.00     0.029 A 
ATOM     45  C   UNL A   1      46.690  26.007  27.947  1.00  0.00     0.049 A 
ATOM     46  H   UNL A   1      44.855  26.912  28.334  1.00  0.00     0.167 HD
ATOM     47  C   UNL A   1      40.981  28.770  28.941  1.00  0.00     0.037 A 
ATOM     48  C   UNL A   1      47.645  26.943  28.109  1.00  0.00     0.037 A 
ATOM     49  C   UNL A   1      41.935  29.810  29.236  1.00  0.00     0.049 A 
ATOM     50  C   UNL A   1      47.259  28.346  28.499  1.00  0.00     0.074 A 
ATOM     51  C   UNL A   1      41.696  31.102  29.675  1.00  0.00     0.029 A 
ATOM     52  N   UNL A   1      43.311  29.683  29.111  1.00  0.00    -0.354 N 
ATOM     53  N   UNL A   1      46.069  28.842  28.729  1.00  0.00    -0.248 NA
ATOM     54  C   UNL A   1      48.353  29.317  28.654  1.00  0.00     0.031 C 
ATOM     55  C   UNL A   1      42.921  31.770  29.771  1.00  0.00     0.029 A 
ATOM     56  C   UNL A   1      43.929  30.880  29.443  1.00  0.00     0.049 A 
ATOM     57  H   UNL A   1      43.779  28.864  28.830  1.00  0.00     0.167 HD
ATOM     58  C   UNL A   1      46.272  30.168  29.090  1.00  0.00     0.074 A 
ATOM     59  C   UNL A   1      47.700  30.399  29.054  1.00  0.00     0.031 C 
ATOM     60  C   UNL A   1      45.352  31.104  29.427  1.00  0.00     0.037 A 
BRANCH  47  61
ATOM     61  C   UNL A   1      39.523  29.112  29.065  1.00  0.00     0.064 A 
ATOM     62  C   UNL A   1      38.754  29.466  27.947  1.00  0.00     0.173 A 
ATOM     63  C   UNL A   1      38.873  29.019  30.305  1.00  0.00     0.173 A 
ATOM     64  F   UNL A   1      39.328  29.569  26.738  1.00  0.00    -0.203 F 
ATOM     65  C   UNL A   1      37.394  29.741  28.070  1.00  0.00     0.198 A 
ATOM     66  C   UNL A   1      37.507  29.267  30.420  1.00  0.00     0.198 A 
ATOM     67  F   UNL A   1      39.558  28.667  31.404  1.00  0.00    -0.203 F 
ATOM     68  F   UNL A   1      36.688  30.115  26.994  1.00  0.00    -0.200 F 
ATOM     69  C   UNL A   1      36.771  29.634  29.305  1.00  0.00     0.200 A 
ATOM     70  F   UNL A   1      36.902  29.146  31.610  1.00  0.00    -0.200 F 
ATOM     71  F   UNL A   1      35.460  29.890  29.419  1.00  0.00    -0.200 F 
ENDBRANCH  47  61
BRANCH  48  72
ATOM     72  C   UNL A   1      49.072  26.583  27.910  1.00  0.00     0.064 A 
ATOM     73  C   UNL A   1      49.613  26.466  26.622  1.00  0.00     0.173 A 
ATOM     74  C   UNL A   1      49.922  26.340  29.000  1.00  0.00     0.173 A 
ATOM     75  F   UNL A   1      48.832  26.665  25.549  1.00  0.00    -0.203 F 
ATOM     76  C   UNL A   1      50.944  26.103  26.430  1.00  0.00     0.198 A 
ATOM     77  C   UNL A   1      51.260  26.005  28.807  1.00  0.00     0.198 A 
ATOM     78  F   UNL A   1      49.454  26.440  30.252  1.00  0.00    -0.203 F 
ATOM     79  F   UNL A   1      51.423  25.955  25.188  1.00  0.00    -0.200 F 
ATOM     80  C   UNL A   1      51.769  25.880  27.523  1.00  0.00     0.200 A 
ATOM     81  F   UNL A   1      52.057  25.803  29.865  1.00  0.00    -0.200 F 
ATOM     82  F   UNL A   1      53.049  25.535  27.339  1.00  0.00    -0.200 F 
ENDBRANCH  48  72
BRANCH  60  83
ATOM     83  C   UNL A   1      45.852  32.458  29.838  1.00  0.00     0.064 A 
ATOM     84  C   UNL A   1      46.205  32.746  31.164  1.00  0.00     0.173 A 
ATOM     85  C   UNL A   1      46.038  33.465  28.876  1.00  0.00     0.173 A 
ATOM     86  F   UNL A   1      46.031  31.825  32.124  1.00  0.00    -0.203 F 
ATOM     87  C   UNL A   1      46.711  33.996  31.515  1.00  0.00     0.198 A 
ATOM     88  C   UNL A   1      46.569  34.703  29.226  1.00  0.00     0.198 A 
ATOM     89  F   UNL A   1      45.721  33.239  27.592  1.00  0.00    -0.203 F 
ATOM     90  F   UNL A   1      47.007  34.262  32.796  1.00  0.00    -0.200 F 
ATOM     91  C   UNL A   1      46.900  34.970  30.545  1.00  0.00     0.200 A 
ATOM     92  F   UNL A   1      46.763  35.637  28.285  1.00  0.00    -0.200 F 
ATOM     93  F   UNL A   1      47.400  36.166  30.883  1.00  0.00    -0.200 F 
ENDBRANCH  60  83
ENDBRANCH  34  35
ENDBRANCH  26  29
ENDBRANCH  24  25
ENDBRANCH  23  24
ENDBRANCH  22  23
ENDBRANCH   3  22
TORSDOF 16
ENDMDL
MODEL 3
REMARK VINA RESULT:     -11.2      0.337      7.525
REMARK SMILES CC(C)[C@H](NS(=O)(=O)CCC(=O)NCCCNC(=O)c1ccc(-c2c3nc(c(-c4c(F)c(F)c(F)c(F)c4F)c4ccc([nH]4)c(-c4c(F)c(F)c(F)c(F)c4F)c4nc(c(-c5c(F)c(F)c(F)c(F)c5F)c5ccc2[nH]5)C=C4)C=C3)cc1)c1ccccc1
REMARK SMILES IDX 11 1 12 2 13 3 10 5 9 6 6 7 7 8 8 9 5 10 4 12 2 13 1 14 3 15
REMARK SMILES IDX 83 16 84 17 88 18 85 19 87 20 86 21 14 22 15 23 16 24 17 25
REMARK SMILES IDX 18 26 19 28 20 29 21 30 82 31 22 32 81 33 23 34 24 35 25 36
REMARK SMILES IDX 75 37 26 38 80 39 74 40 76 41 27 42 79 43 73 44 72 45 28 47
REMARK SMILES IDX 60 48 40 49 59 50 41 51 44 52 58 53 77 54 42 55 43 56 57 58
REMARK SMILES IDX 78 59 45 60 29 61 30 62 38 63 31 64 32 65 36 66 39 67 33 68
REMARK SMILES IDX 34 69 37 70 35 71 61 72 62 73 70 74 63 75 64 76 68 77 71 78
REMARK SMILES IDX 65 79 66 80 69 81 67 82 46 83 47 84 55 85 48 86 49 87 53 88
REMARK SMILES IDX 56 89 50 90 51 91 54 92 52 93
REMARK H PARENT 13 4 5 11 17 27 76 46 44 57
REMARK Flexibility Score: inf
ROOT
ATOM      1  C   UNL A   1      33.068  29.154  25.408  1.00  0.00     0.221 C 
ATOM      2  O   UNL A   1      33.178  29.336  24.200  1.00  0.00    -0.275 OA
ATOM      3  N   UNL A   1      32.268  29.916  26.212  1.00  0.00    -0.356 N 
ATOM      4  H   UNL A   1      32.273  29.712  27.174  1.00  0.00     0.163 HD
ENDROOT
BRANCH   1   5
ATOM      5  C   UNL A   1      33.639  27.927  26.090  1.00  0.00     0.117 C 
BRANCH   5   6
ATOM      6  C   UNL A   1      33.097  26.524  25.873  1.00  0.00     0.164 C 
BRANCH   6   7
ATOM      7  S   UNL A   1      31.469  26.048  26.406  1.00  0.00     0.212 S 
ATOM      8  O   UNL A   1      30.959  27.157  27.189  1.00  0.00    -0.212 OA
ATOM      9  O   UNL A   1      31.485  24.725  26.979  1.00  0.00    -0.212 OA
BRANCH   7  10
ATOM     10  N   UNL A   1      30.551  26.089  25.032  1.00  0.00    -0.207 NA
ATOM     11  H   UNL A   1      30.369  25.111  24.804  1.00  0.00     0.141 HD
BRANCH  10  12
ATOM     12  C   UNL A   1      30.922  26.718  23.753  1.00  0.00     0.102 C 
BRANCH  12  13
ATOM     13  C   UNL A   1      31.046  25.623  22.644  1.00  0.00     0.005 C 
ATOM     14  C   UNL A   1      32.472  25.545  22.076  1.00  0.00     0.009 C 
ATOM     15  C   UNL A   1      30.651  24.218  23.123  1.00  0.00     0.009 C 
ENDBRANCH  12  13
BRANCH  12  16
ATOM     16  C   UNL A   1      29.883  27.764  23.364  1.00  0.00    -0.030 A 
ATOM     17  C   UNL A   1      28.518  27.547  23.599  1.00  0.00     0.005 A 
ATOM     18  C   UNL A   1      30.260  28.964  22.740  1.00  0.00     0.005 A 
ATOM     19  C   UNL A   1      27.554  28.440  23.126  1.00  0.00     0.000 A 
ATOM     20  C   UNL A   1      29.298  29.868  22.285  1.00  0.00     0.000 A 
ATOM     21  C   UNL A   1      27.944  29.593  22.454  1.00  0.00     0.000 A 
ENDBRANCH  12  16
ENDBRANCH  10  12
ENDBRANCH   7  10
ENDBRANCH   6   7
ENDBRANCH   5   6
ENDBRANCH   1   5
BRANCH   3  22
ATOM     22  C   UNL A   1      31.414  31.000  25.771  1.00  0.00     0.117 C 
BRANCH  22  23
ATOM     23  C   UNL A   1      31.321  32.072  26.859  1.00  0.00     0.042 C 
BRANCH  23  24
ATOM     24  C   UNL A   1      32.605  32.893  27.042  1.00  0.00     0.118 C 
BRANCH  24  25
ATOM     25  N   UNL A   1      32.361  34.196  27.632  1.00  0.00    -0.352 N 
ATOM     26  C   UNL A   1      33.036  34.799  28.664  1.00  0.00     0.251 C 
ATOM     27  H   UNL A   1      31.618  34.713  27.243  1.00  0.00     0.163 HD
ATOM     28  O   UNL A   1      32.675  35.891  29.093  1.00  0.00    -0.269 OA
BRANCH  26  29
ATOM     29  C   UNL A   1      34.195  34.124  29.286  1.00  0.00     0.039 A 
ATOM     30  C   UNL A   1      35.471  34.365  28.771  1.00  0.00     0.014 A 
ATOM     31  C   UNL A   1      34.020  33.218  30.334  1.00  0.00     0.014 A 
ATOM     32  C   UNL A   1      36.582  33.724  29.332  1.00  0.00     0.010 A 
ATOM     33  C   UNL A   1      35.136  32.591  30.907  1.00  0.00     0.010 A 
ATOM     34  C   UNL A   1      36.429  32.843  30.418  1.00  0.00    -0.014 A 
BRANCH  34  35
ATOM     35  C   UNL A   1      37.620  32.239  31.081  1.00  0.00     0.031 A 
ATOM     36  C   UNL A   1      38.403  31.132  30.431  1.00  0.00     0.074 A 
ATOM     37  C   UNL A   1      37.977  32.664  32.309  1.00  0.00     0.049 A 
ATOM     38  N   UNL A   1      39.431  30.461  30.894  1.00  0.00    -0.248 NA
ATOM     39  C   UNL A   1      37.973  30.719  29.088  1.00  0.00     0.031 C 
ATOM     40  C   UNL A   1      37.299  33.717  33.064  1.00  0.00     0.029 A 
ATOM     41  N   UNL A   1      38.989  32.254  33.145  1.00  0.00    -0.354 N 
ATOM     42  C   UNL A   1      39.766  29.545  29.906  1.00  0.00     0.074 A 
ATOM     43  C   UNL A   1      38.813  29.725  28.829  1.00  0.00     0.031 C 
ATOM     44  C   UNL A   1      37.915  33.874  34.247  1.00  0.00     0.029 A 
ATOM     45  C   UNL A   1      39.006  32.908  34.352  1.00  0.00     0.049 A 
ATOM     46  H   UNL A   1      39.641  31.557  32.900  1.00  0.00     0.167 HD
ATOM     47  C   UNL A   1      40.780  28.643  29.894  1.00  0.00     0.037 A 
ATOM     48  C   UNL A   1      39.795  32.743  35.431  1.00  0.00     0.037 A 
ATOM     49  C   UNL A   1      41.736  28.463  30.958  1.00  0.00     0.049 A 
ATOM     50  C   UNL A   1      40.889  31.707  35.406  1.00  0.00     0.074 A 
ATOM     51  C   UNL A   1      42.821  27.604  31.008  1.00  0.00     0.029 A 
ATOM     52  N   UNL A   1      41.718  29.147  32.165  1.00  0.00    -0.354 N 
ATOM     53  N   UNL A   1      41.230  30.889  34.443  1.00  0.00    -0.248 NA
ATOM     54  C   UNL A   1      41.708  31.578  36.620  1.00  0.00     0.031 C 
ATOM     55  C   UNL A   1      43.430  27.732  32.260  1.00  0.00     0.029 A 
ATOM     56  C   UNL A   1      42.759  28.710  32.972  1.00  0.00     0.049 A 
ATOM     57  H   UNL A   1      41.065  29.841  32.411  1.00  0.00     0.167 HD
ATOM     58  C   UNL A   1      42.323  30.174  34.919  1.00  0.00     0.074 A 
ATOM     59  C   UNL A   1      42.591  30.658  36.255  1.00  0.00     0.031 C 
ATOM     60  C   UNL A   1      43.038  29.208  34.295  1.00  0.00     0.037 A 
BRANCH  47  61
ATOM     61  C   UNL A   1      40.915  27.762  28.684  1.00  0.00     0.064 A 
ATOM     62  C   UNL A   1      40.164  26.585  28.546  1.00  0.00     0.173 A 
ATOM     63  C   UNL A   1      41.756  28.132  27.623  1.00  0.00     0.173 A 
ATOM     64  F   UNL A   1      39.346  26.187  29.531  1.00  0.00    -0.203 F 
ATOM     65  C   UNL A   1      40.269  25.798  27.401  1.00  0.00     0.198 A 
ATOM     66  C   UNL A   1      41.838  27.358  26.468  1.00  0.00     0.198 A 
ATOM     67  F   UNL A   1      42.484  29.257  27.697  1.00  0.00    -0.203 F 
ATOM     68  F   UNL A   1      39.571  24.659  27.307  1.00  0.00    -0.200 F 
ATOM     69  C   UNL A   1      41.100  26.189  26.361  1.00  0.00     0.200 A 
ATOM     70  F   UNL A   1      42.627  27.746  25.457  1.00  0.00    -0.200 F 
ATOM     71  F   UNL A   1      41.192  25.436  25.256  1.00  0.00    -0.200 F 
ENDBRANCH  47  61
BRANCH  48  72
ATOM     72  C   UNL A   1      39.586  33.588  36.635  1.00  0.00     0.064 A 
ATOM     73  C   UNL A   1      38.770  33.151  37.688  1.00  0.00     0.173 A 
ATOM     74  C   UNL A   1      40.188  34.849  36.754  1.00  0.00     0.173 A 
ATOM     75  F   UNL A   1      38.153  31.963  37.607  1.00  0.00    -0.203 F 
ATOM     76  C   UNL A   1      38.550  33.951  38.807  1.00  0.00     0.198 A 
ATOM     77  C   UNL A   1      39.990  35.636  37.886  1.00  0.00     0.198 A 
ATOM     78  F   UNL A   1      40.978  35.312  35.775  1.00  0.00    -0.203 F 
ATOM     79  F   UNL A   1      37.730  33.530  39.779  1.00  0.00    -0.200 F 
ATOM     80  C   UNL A   1      39.166  35.190  38.909  1.00  0.00     0.200 A 
ATOM     81  F   UNL A   1      40.597  36.826  37.987  1.00  0.00    -0.200 F 
ATOM     82  F   UNL A   1      38.958  35.957  39.986  1.00  0.00    -0.200 F 
ENDBRANCH  48  72
BRANCH  60  83
ATOM     83  C   UNL A   1      44.221  28.636  35.022  1.00  0.00     0.064 A 
ATOM     84  C   UNL A   1      44.113  27.495  35.829  1.00  0.00     0.173 A 
ATOM     85  C   UNL A   1      45.494  29.207  34.859  1.00  0.00     0.173 A 
ATOM     86  F   UNL A   1      42.917  26.922  36.032  1.00  0.00    -0.203 F 
ATOM     87  C   UNL A   1      45.232  26.954  36.458  1.00  0.00     0.198 A 
ATOM     88  C   UNL A   1      46.615  28.647  35.466  1.00  0.00     0.198 A 
ATOM     89  F   UNL A   1      45.653  30.297  34.093  1.00  0.00    -0.203 F 
ATOM     90  F   UNL A   1      45.100  25.884  37.255  1.00  0.00    -0.200 F 
ATOM     91  C   UNL A   1      46.483  27.525  36.269  1.00  0.00     0.200 A 
ATOM     92  F   UNL A   1      47.823  29.193  35.272  1.00  0.00    -0.200 F 
ATOM     93  F   UNL A   1      47.560  26.994  36.863  1.00  0.00    -0.200 F 
ENDBRANCH  60  83
ENDBRANCH  34  35
ENDBRANCH  26  29
ENDBRANCH  24  25
ENDBRANCH  23  24
ENDBRANCH  22  23
ENDBRANCH   3  22
TORSDOF 16
ENDMDL
