MODEL 1
REMARK VINA RESULT:     -13.2      0.000      0.000
REMARK SMILES Cc1ccccc1-c1nc(CC(=O)NCCCNC(=O)c2ccc(-c3c4nc(c(-c5c(F)c(F)c(F)c(F)c5F)c5ccc([nH]5)c(-c5c(F)c(F)c(F)c(F)c5F)c5nc(c(-c6c(F)c(F)c(F)c(F)c6F)c6ccc3[nH]6)C=C5)C=C4)cc2)cs1
REMARK SMILES IDX 16 1 15 2 14 3 12 4 13 5 11 7 10 8 8 9 9 10 85 11 84 12 7 13
REMARK SMILES IDX 1 14 2 15 3 16 4 17 6 18 5 19 17 20 18 21 19 22 20 24 21 25
REMARK SMILES IDX 22 26 83 27 23 28 82 29 24 30 25 31 26 32 76 33 27 34 81 35
REMARK SMILES IDX 75 36 77 37 28 38 80 39 74 40 73 41 29 43 61 44 41 45 60 46
REMARK SMILES IDX 42 47 45 48 59 49 78 50 43 51 44 52 58 54 79 55 46 56 30 57
REMARK SMILES IDX 31 58 39 59 32 60 33 61 37 62 40 63 34 64 35 65 38 66 36 67
REMARK SMILES IDX 62 68 63 69 71 70 64 71 65 72 69 73 72 74 66 75 67 76 70 77
REMARK SMILES IDX 68 78 47 79 48 80 56 81 49 82 50 83 54 84 57 85 51 86 52 87
REMARK SMILES IDX 55 88 53 89
REMARK H PARENT 14 6 18 23 77 42 45 53
REMARK Flexibility Score: inf
ROOT
ATOM      1  C   UNL A   1      32.410  30.440  26.874  1.00  0.00     0.042 C 
ENDROOT
BRANCH   1   2
ATOM      2  C   UNL A   1      31.990  29.716  25.599  1.00  0.00     0.117 C 
BRANCH   2   3
ATOM      3  N   UNL A   1      33.046  29.707  24.593  1.00  0.00    -0.356 N 
ATOM      4  C   UNL A   1      33.330  28.746  23.660  1.00  0.00     0.226 C 
ATOM      5  O   UNL A   1      34.320  28.907  22.940  1.00  0.00    -0.275 OA
ATOM      6  H   UNL A   1      33.633  30.497  24.585  1.00  0.00     0.163 HD
BRANCH   4   7
ATOM      7  C   UNL A   1      32.443  27.524  23.515  1.00  0.00     0.157 C 
BRANCH   7   8
ATOM      8  C   UNL A   1      32.856  26.429  24.439  1.00  0.00     0.061 A 
ATOM      9  C   UNL A   1      34.227  24.785  25.044  1.00  0.00     0.123 A 
ATOM     10  N   UNL A   1      34.057  25.778  24.193  1.00  0.00    -0.241 NA
ATOM     11  S   UNL A   1      32.991  24.626  26.231  1.00  0.00    -0.122 S 
ATOM     12  C   UNL A   1      32.157  25.949  25.530  1.00  0.00     0.091 A 
BRANCH   9  13
ATOM     13  C   UNL A   1      35.360  23.852  25.016  1.00  0.00     0.013 A 
ATOM     14  C   UNL A   1      34.119  22.234  23.459  1.00  0.00     0.045 C 
ATOM     15  C   UNL A   1      35.310  22.649  24.282  1.00  0.00    -0.041 A 
ATOM     16  C   UNL A   1      36.406  21.767  24.333  1.00  0.00     0.004 A 
ATOM     17  C   UNL A   1      37.536  22.070  25.091  1.00  0.00     0.000 A 
ATOM     18  C   UNL A   1      36.508  24.137  25.782  1.00  0.00     0.011 A 
ATOM     19  C   UNL A   1      37.589  23.254  25.817  1.00  0.00     0.001 A 
ENDBRANCH   9  13
ENDBRANCH   7   8
ENDBRANCH   4   7
ENDBRANCH   2   3
ENDBRANCH   1   2
BRANCH   1  20
ATOM     20  C   UNL A   1      33.853  30.201  27.280  1.00  0.00     0.118 C 
BRANCH  20  21
ATOM     21  N   UNL A   1      34.488  31.313  27.974  1.00  0.00    -0.352 N 
ATOM     22  C   UNL A   1      35.667  31.344  28.704  1.00  0.00     0.251 C 
ATOM     23  H   UNL A   1      34.010  32.170  27.915  1.00  0.00     0.163 HD
ATOM     24  O   UNL A   1      36.006  32.371  29.266  1.00  0.00    -0.269 OA
BRANCH  22  25
ATOM     25  C   UNL A   1      36.579  30.169  28.695  1.00  0.00     0.039 A 
ATOM     26  C   UNL A   1      36.672  29.386  29.856  1.00  0.00     0.014 A 
ATOM     27  C   UNL A   1      37.454  29.939  27.641  1.00  0.00     0.014 A 
ATOM     28  C   UNL A   1      37.782  28.562  30.049  1.00  0.00     0.010 A 
ATOM     29  C   UNL A   1      38.612  29.236  27.879  1.00  0.00     0.010 A 
ATOM     30  C   UNL A   1      38.803  28.588  29.105  1.00  0.00    -0.014 A 
BRANCH  30  31
ATOM     31  C   UNL A   1      40.151  28.074  29.312  1.00  0.00     0.031 A 
ATOM     32  C   UNL A   1      40.528  26.739  28.797  1.00  0.00     0.074 A 
ATOM     33  C   UNL A   1      41.103  28.950  29.703  1.00  0.00     0.049 A 
ATOM     34  N   UNL A   1      41.648  26.148  29.042  1.00  0.00    -0.248 NA
ATOM     35  C   UNL A   1      39.636  25.936  27.969  1.00  0.00     0.031 C 
ATOM     36  C   UNL A   1      42.545  28.844  29.490  1.00  0.00     0.029 A 
ATOM     37  N   UNL A   1      40.957  30.072  30.537  1.00  0.00    -0.354 N 
ATOM     38  C   UNL A   1      41.753  25.063  28.197  1.00  0.00     0.074 A 
ATOM     39  C   UNL A   1      40.443  24.936  27.606  1.00  0.00     0.031 C 
ATOM     40  C   UNL A   1      43.175  29.645  30.363  1.00  0.00     0.029 A 
ATOM     41  C   UNL A   1      42.163  30.143  31.276  1.00  0.00     0.049 A 
ATOM     42  H   UNL A   1      40.183  30.679  30.595  1.00  0.00     0.167 HD
ATOM     43  C   UNL A   1      42.982  24.495  28.013  1.00  0.00     0.037 A 
ATOM     44  C   UNL A   1      42.186  29.944  32.627  1.00  0.00     0.037 A 
ATOM     45  C   UNL A   1      43.965  25.094  28.918  1.00  0.00     0.049 A 
ATOM     46  C   UNL A   1      43.081  28.810  33.066  1.00  0.00     0.074 A 
ATOM     47  C   UNL A   1      44.943  26.059  28.741  1.00  0.00     0.029 A 
ATOM     48  N   UNL A   1      43.822  24.924  30.291  1.00  0.00    -0.354 N 
ATOM     49  N   UNL A   1      43.425  27.818  32.294  1.00  0.00    -0.248 NA
ATOM     50  C   UNL A   1      43.639  28.697  34.408  1.00  0.00     0.031 C 
ATOM     51  C   UNL A   1      45.365  26.496  30.021  1.00  0.00     0.029 A 
ATOM     52  C   UNL A   1      44.653  25.787  30.975  1.00  0.00     0.049 A 
ATOM     53  H   UNL A   1      43.213  24.277  30.715  1.00  0.00     0.167 HD
ATOM     54  C   UNL A   1      44.215  26.945  32.997  1.00  0.00     0.074 A 
ATOM     55  C   UNL A   1      44.330  27.548  34.312  1.00  0.00     0.031 C 
ATOM     56  C   UNL A   1      44.693  25.799  32.430  1.00  0.00     0.037 A 
BRANCH  43  57
ATOM     57  C   UNL A   1      43.381  23.597  26.852  1.00  0.00     0.064 A 
ATOM     58  C   UNL A   1      42.979  22.239  26.824  1.00  0.00     0.173 A 
ATOM     59  C   UNL A   1      44.202  23.971  25.772  1.00  0.00     0.173 A 
ATOM     60  F   UNL A   1      42.108  21.745  27.713  1.00  0.00    -0.203 F 
ATOM     61  C   UNL A   1      43.454  21.326  25.875  1.00  0.00     0.198 A 
ATOM     62  C   UNL A   1      44.710  23.051  24.847  1.00  0.00     0.198 A 
ATOM     63  F   UNL A   1      44.496  25.249  25.521  1.00  0.00    -0.203 F 
ATOM     64  F   UNL A   1      43.044  20.050  25.918  1.00  0.00    -0.200 F 
ATOM     65  C   UNL A   1      44.346  21.724  24.906  1.00  0.00     0.200 A 
ATOM     66  F   UNL A   1      45.551  23.471  23.890  1.00  0.00    -0.200 F 
ATOM     67  F   UNL A   1      44.828  20.846  24.016  1.00  0.00    -0.200 F 
ENDBRANCH  43  57
BRANCH  44  68
ATOM     68  C   UNL A   1      40.909  30.319  33.289  1.00  0.00     0.064 A 
ATOM     69  C   UNL A   1      40.661  31.684  33.526  1.00  0.00     0.173 A 
ATOM     70  C   UNL A   1      39.813  29.448  33.294  1.00  0.00     0.173 A 
ATOM     71  F   UNL A   1      41.679  32.559  33.528  1.00  0.00    -0.203 F 
ATOM     72  C   UNL A   1      39.360  32.174  33.630  1.00  0.00     0.198 A 
ATOM     73  C   UNL A   1      38.513  29.941  33.413  1.00  0.00     0.198 A 
ATOM     74  F   UNL A   1      39.985  28.139  33.059  1.00  0.00    -0.203 F 
ATOM     75  F   UNL A   1      39.150  33.494  33.734  1.00  0.00    -0.200 F 
ATOM     76  C   UNL A   1      38.287  31.305  33.541  1.00  0.00     0.200 A 
ATOM     77  F   UNL A   1      37.469  29.106  33.298  1.00  0.00    -0.200 F 
ATOM     78  F   UNL A   1      37.034  31.782  33.533  1.00  0.00    -0.200 F 
ENDBRANCH  44  68
BRANCH  56  79
ATOM     79  C   UNL A   1      45.328  24.628  33.150  1.00  0.00     0.064 A 
ATOM     80  C   UNL A   1      46.635  24.632  33.664  1.00  0.00     0.173 A 
ATOM     81  C   UNL A   1      44.554  23.487  33.483  1.00  0.00     0.173 A 
ATOM     82  F   UNL A   1      47.435  25.698  33.535  1.00  0.00    -0.203 F 
ATOM     83  C   UNL A   1      47.151  23.555  34.393  1.00  0.00     0.198 A 
ATOM     84  C   UNL A   1      45.052  22.443  34.264  1.00  0.00     0.198 A 
ATOM     85  F   UNL A   1      43.279  23.361  33.092  1.00  0.00    -0.203 F 
ATOM     86  F   UNL A   1      48.420  23.594  34.821  1.00  0.00    -0.200 F 
ATOM     87  C   UNL A   1      46.357  22.469  34.703  1.00  0.00     0.200 A 
ATOM     88  F   UNL A   1      44.249  21.425  34.604  1.00  0.00    -0.200 F 
ATOM     89  F   UNL A   1      46.840  21.463  35.445  1.00  0.00    -0.200 F 
ENDBRANCH  56  79
ENDBRANCH  30  31
ENDBRANCH  22  25
ENDBRANCH  20  21
ENDBRANCH   1  20
TORSDOF 12
ENDMDL
MODEL 2
REMARK VINA RESULT:     -13.2      0.291      1.187
REMARK SMILES Cc1ccccc1-c1nc(CC(=O)NCCCNC(=O)c2ccc(-c3c4nc(c(-c5c(F)c(F)c(F)c(F)c5F)c5ccc([nH]5)c(-c5c(F)c(F)c(F)c(F)c5F)c5nc(c(-c6c(F)c(F)c(F)c(F)c6F)c6ccc3[nH]6)C=C5)C=C4)cc2)cs1
REMARK SMILES IDX 16 1 15 2 14 3 12 4 13 5 11 7 10 8 8 9 9 10 85 11 84 12 7 13
REMARK SMILES IDX 1 14 2 15 3 16 4 17 6 18 5 19 17 20 18 21 19 22 20 24 21 25
REMARK SMILES IDX 22 26 83 27 23 28 82 29 24 30 25 31 26 32 76 33 27 34 81 35
REMARK SMILES IDX 75 36 77 37 28 38 80 39 74 40 73 41 29 43 61 44 41 45 60 46
REMARK SMILES IDX 42 47 45 48 59 49 78 50 43 51 44 52 58 54 79 55 46 56 30 57
REMARK SMILES IDX 31 58 39 59 32 60 33 61 37 62 40 63 34 64 35 65 38 66 36 67
REMARK SMILES IDX 62 68 63 69 71 70 64 71 65 72 69 73 72 74 66 75 67 76 70 77
REMARK SMILES IDX 68 78 47 79 48 80 56 81 49 82 50 83 54 84 57 85 51 86 52 87
REMARK SMILES IDX 55 88 53 89
REMARK H PARENT 14 6 18 23 77 42 45 53
REMARK Flexibility Score: inf
ROOT
ATOM      1  C   UNL A   1      32.221  30.480  26.659  1.00  0.00     0.042 C 
ENDROOT
BRANCH   1   2
ATOM      2  C   UNL A   1      31.899  29.721  25.376  1.00  0.00     0.117 C 
BRANCH   2   3
ATOM      3  N   UNL A   1      33.023  29.700  24.447  1.00  0.00    -0.356 N 
ATOM      4  C   UNL A   1      33.364  28.733  23.539  1.00  0.00     0.226 C 
ATOM      5  O   UNL A   1      34.403  28.883  22.890  1.00  0.00    -0.275 OA
ATOM      6  H   UNL A   1      33.615  30.485  24.477  1.00  0.00     0.163 HD
BRANCH   4   7
ATOM      7  C   UNL A   1      32.479  27.518  23.336  1.00  0.00     0.157 C 
BRANCH   7   8
ATOM      8  C   UNL A   1      32.803  26.431  24.305  1.00  0.00     0.061 A 
ATOM      9  C   UNL A   1      34.064  24.737  25.002  1.00  0.00     0.123 A 
ATOM     10  N   UNL A   1      33.975  25.711  24.118  1.00  0.00    -0.241 NA
ATOM     11  S   UNL A   1      32.784  24.679  26.151  1.00  0.00    -0.122 S 
ATOM     12  C   UNL A   1      32.045  26.022  25.385  1.00  0.00     0.091 A 
BRANCH   9  13
ATOM     13  C   UNL A   1      35.146  23.745  25.038  1.00  0.00     0.013 A 
ATOM     14  C   UNL A   1      33.698  21.975  23.874  1.00  0.00     0.045 C 
ATOM     15  C   UNL A   1      34.975  22.444  24.519  1.00  0.00    -0.041 A 
ATOM     16  C   UNL A   1      36.029  21.518  24.628  1.00  0.00     0.004 A 
ATOM     17  C   UNL A   1      37.235  21.870  25.233  1.00  0.00     0.000 A 
ATOM     18  C   UNL A   1      36.369  24.079  25.653  1.00  0.00     0.011 A 
ATOM     19  C   UNL A   1      37.406  23.150  25.747  1.00  0.00     0.001 A 
ENDBRANCH   9  13
ENDBRANCH   7   8
ENDBRANCH   4   7
ENDBRANCH   2   3
ENDBRANCH   1   2
BRANCH   1  20
ATOM     20  C   UNL A   1      33.605  30.201  27.217  1.00  0.00     0.118 C 
BRANCH  20  21
ATOM     21  N   UNL A   1      34.262  31.345  27.834  1.00  0.00    -0.352 N 
ATOM     22  C   UNL A   1      35.467  31.413  28.516  1.00  0.00     0.251 C 
ATOM     23  H   UNL A   1      33.777  32.197  27.755  1.00  0.00     0.163 HD
ATOM     24  O   UNL A   1      35.823  32.465  29.017  1.00  0.00    -0.269 OA
BRANCH  22  25
ATOM     25  C   UNL A   1      36.384  30.241  28.527  1.00  0.00     0.039 A 
ATOM     26  C   UNL A   1      36.431  29.440  29.678  1.00  0.00     0.014 A 
ATOM     27  C   UNL A   1      37.302  30.031  27.507  1.00  0.00     0.014 A 
ATOM     28  C   UNL A   1      37.535  28.616  29.903  1.00  0.00     0.010 A 
ATOM     29  C   UNL A   1      38.452  29.328  27.781  1.00  0.00     0.010 A 
ATOM     30  C   UNL A   1      38.594  28.661  29.003  1.00  0.00    -0.014 A 
BRANCH  30  31
ATOM     31  C   UNL A   1      39.935  28.148  29.257  1.00  0.00     0.031 A 
ATOM     32  C   UNL A   1      40.327  26.808  28.768  1.00  0.00     0.074 A 
ATOM     33  C   UNL A   1      40.875  29.027  29.671  1.00  0.00     0.049 A 
ATOM     34  N   UNL A   1      41.437  26.218  29.054  1.00  0.00    -0.248 NA
ATOM     35  C   UNL A   1      39.460  25.998  27.920  1.00  0.00     0.031 C 
ATOM     36  C   UNL A   1      42.323  28.918  29.504  1.00  0.00     0.029 A 
ATOM     37  N   UNL A   1      40.703  30.157  30.489  1.00  0.00    -0.354 N 
ATOM     38  C   UNL A   1      41.568  25.125  28.223  1.00  0.00     0.074 A 
ATOM     39  C   UNL A   1      40.277  24.993  27.592  1.00  0.00     0.031 C 
ATOM     40  C   UNL A   1      42.925  29.727  30.390  1.00  0.00     0.029 A 
ATOM     41  C   UNL A   1      41.886  30.234  31.266  1.00  0.00     0.049 A 
ATOM     42  H   UNL A   1      39.929  30.765  30.516  1.00  0.00     0.167 HD
ATOM     43  C   UNL A   1      42.802  24.555  28.084  1.00  0.00     0.037 A 
ATOM     44  C   UNL A   1      41.865  30.047  32.618  1.00  0.00     0.037 A 
ATOM     45  C   UNL A   1      43.757  25.162  29.014  1.00  0.00     0.049 A 
ATOM     46  C   UNL A   1      42.744  28.918  33.096  1.00  0.00     0.074 A 
ATOM     47  C   UNL A   1      44.741  26.123  28.859  1.00  0.00     0.029 A 
ATOM     48  N   UNL A   1      43.569  25.005  30.384  1.00  0.00    -0.354 N 
ATOM     49  N   UNL A   1      43.112  27.918  32.345  1.00  0.00    -0.248 NA
ATOM     50  C   UNL A   1      43.259  28.817  34.457  1.00  0.00     0.031 C 
ATOM     51  C   UNL A   1      45.122  26.573  30.148  1.00  0.00     0.029 A 
ATOM     52  C   UNL A   1      44.380  25.874  31.085  1.00  0.00     0.049 A 
ATOM     53  H   UNL A   1      42.946  24.362  30.794  1.00  0.00     0.167 HD
ATOM     54  C   UNL A   1      43.878  27.051  33.081  1.00  0.00     0.074 A 
ATOM     55  C   UNL A   1      43.952  27.666  34.393  1.00  0.00     0.031 C 
ATOM     56  C   UNL A   1      44.373  25.899  32.540  1.00  0.00     0.037 A 
BRANCH  43  57
ATOM     57  C   UNL A   1      43.237  23.645  26.944  1.00  0.00     0.064 A 
ATOM     58  C   UNL A   1      42.857  22.280  26.931  1.00  0.00     0.173 A 
ATOM     59  C   UNL A   1      44.071  24.016  25.874  1.00  0.00     0.173 A 
ATOM     60  F   UNL A   1      41.978  21.786  27.811  1.00  0.00    -0.203 F 
ATOM     61  C   UNL A   1      43.364  21.361  26.006  1.00  0.00     0.198 A 
ATOM     62  C   UNL A   1      44.611  23.090  24.973  1.00  0.00     0.198 A 
ATOM     63  F   UNL A   1      44.350  25.294  25.608  1.00  0.00    -0.203 F 
ATOM     64  F   UNL A   1      42.974  20.079  26.061  1.00  0.00    -0.200 F 
ATOM     65  C   UNL A   1      44.267  21.758  25.046  1.00  0.00     0.200 A 
ATOM     66  F   UNL A   1      45.464  23.508  24.025  1.00  0.00    -0.200 F 
ATOM     67  F   UNL A   1      44.780  20.874  24.180  1.00  0.00    -0.200 F 
ENDBRANCH  43  57
BRANCH  44  68
ATOM     68  C   UNL A   1      40.568  30.430  33.236  1.00  0.00     0.064 A 
ATOM     69  C   UNL A   1      40.327  31.795  33.480  1.00  0.00     0.173 A 
ATOM     70  C   UNL A   1      39.463  29.572  33.187  1.00  0.00     0.173 A 
ATOM     71  F   UNL A   1      41.355  32.657  33.533  1.00  0.00    -0.203 F 
ATOM     72  C   UNL A   1      39.029  32.299  33.541  1.00  0.00     0.198 A 
ATOM     73  C   UNL A   1      38.165  30.080  33.263  1.00  0.00     0.198 A 
ATOM     74  F   UNL A   1      39.629  28.264  32.943  1.00  0.00    -0.203 F 
ATOM     75  F   UNL A   1      38.830  33.621  33.653  1.00  0.00    -0.200 F 
ATOM     76  C   UNL A   1      37.950  31.444  33.400  1.00  0.00     0.200 A 
ATOM     77  F   UNL A   1      37.117  29.259  33.097  1.00  0.00    -0.200 F 
ATOM     78  F   UNL A   1      36.704  31.937  33.350  1.00  0.00    -0.200 F 
ENDBRANCH  44  68
BRANCH  56  79
ATOM     79  C   UNL A   1      44.984  24.734  33.291  1.00  0.00     0.064 A 
ATOM     80  C   UNL A   1      44.304  23.541  33.585  1.00  0.00     0.173 A 
ATOM     81  C   UNL A   1      46.366  24.734  33.611  1.00  0.00     0.173 A 
ATOM     82  F   UNL A   1      43.028  23.354  33.222  1.00  0.00    -0.203 F 
ATOM     83  C   UNL A   1      44.935  22.460  34.211  1.00  0.00     0.198 A 
ATOM     84  C   UNL A   1      47.005  23.630  34.178  1.00  0.00     0.198 A 
ATOM     85  F   UNL A   1      47.149  25.790  33.356  1.00  0.00    -0.203 F 
ATOM     86  F   UNL A   1      44.226  21.362  34.507  1.00  0.00    -0.200 F 
ATOM     87  C   UNL A   1      46.286  22.500  34.494  1.00  0.00     0.200 A 
ATOM     88  F   UNL A   1      48.329  23.667  34.392  1.00  0.00    -0.200 F 
ATOM     89  F   UNL A   1      46.896  21.443  35.047  1.00  0.00    -0.200 F 
ENDBRANCH  56  79
ENDBRANCH  30  31
ENDBRANCH  22  25
ENDBRANCH  20  21
ENDBRANCH   1  20
TORSDOF 12
ENDMDL
MODEL 3
REMARK VINA RESULT:     -13.1      3.834     10.050
REMARK SMILES Cc1ccccc1-c1nc(CC(=O)NCCCNC(=O)c2ccc(-c3c4nc(c(-c5c(F)c(F)c(F)c(F)c5F)c5ccc([nH]5)c(-c5c(F)c(F)c(F)c(F)c5F)c5nc(c(-c6c(F)c(F)c(F)c(F)c6F)c6ccc3[nH]6)C=C5)C=C4)cc2)cs1
REMARK SMILES IDX 16 1 15 2 14 3 12 4 13 5 11 7 10 8 8 9 9 10 85 11 84 12 7 13
REMARK SMILES IDX 1 14 2 15 3 16 4 17 6 18 5 19 17 20 18 21 19 22 20 24 21 25
REMARK SMILES IDX 22 26 83 27 23 28 82 29 24 30 25 31 26 32 76 33 27 34 81 35
REMARK SMILES IDX 75 36 77 37 28 38 80 39 74 40 73 41 29 43 61 44 41 45 60 46
REMARK SMILES IDX 42 47 45 48 59 49 78 50 43 51 44 52 58 54 79 55 46 56 30 57
REMARK SMILES IDX 31 58 39 59 32 60 33 61 37 62 40 63 34 64 35 65 38 66 36 67
REMARK SMILES IDX 62 68 63 69 71 70 64 71 65 72 69 73 72 74 66 75 67 76 70 77
REMARK SMILES IDX 68 78 47 79 48 80 56 81 49 82 50 83 54 84 57 85 51 86 52 87
REMARK SMILES IDX 55 88 53 89
REMARK H PARENT 14 6 18 23 77 42 45 53
REMARK Flexibility Score: inf
ROOT
ATOM      1  C   UNL A   1      37.437  21.431  24.882  1.00  0.00     0.042 C 
ENDROOT
BRANCH   1   2
ATOM      2  C   UNL A   1      35.963  21.154  25.156  1.00  0.00     0.117 C 
BRANCH   2   3
ATOM      3  N   UNL A   1      35.552  21.601  26.482  1.00  0.00    -0.356 N 
ATOM      4  C   UNL A   1      34.420  22.282  26.842  1.00  0.00     0.226 C 
ATOM      5  O   UNL A   1      34.297  22.626  28.021  1.00  0.00    -0.275 OA
ATOM      6  H   UNL A   1      36.171  21.384  27.215  1.00  0.00     0.163 HD
BRANCH   4   7
ATOM      7  C   UNL A   1      33.347  22.594  25.816  1.00  0.00     0.157 C 
BRANCH   7   8
ATOM      8  C   UNL A   1      33.520  23.955  25.232  1.00  0.00     0.061 A 
ATOM      9  C   UNL A   1      33.390  26.172  25.353  1.00  0.00     0.123 A 
ATOM     10  N   UNL A   1      33.279  25.055  26.044  1.00  0.00    -0.241 NA
ATOM     11  S   UNL A   1      33.864  25.967  23.711  1.00  0.00    -0.122 S 
ATOM     12  C   UNL A   1      33.879  24.268  23.935  1.00  0.00     0.091 A 
BRANCH   9  13
ATOM     13  C   UNL A   1      33.130  27.513  25.893  1.00  0.00     0.013 A 
ATOM     14  C   UNL A   1      30.829  27.631  24.764  1.00  0.00     0.045 C 
ATOM     15  C   UNL A   1      31.934  28.205  25.611  1.00  0.00    -0.041 A 
ATOM     16  C   UNL A   1      31.760  29.508  26.112  1.00  0.00     0.004 A 
ATOM     17  C   UNL A   1      32.747  30.118  26.886  1.00  0.00     0.000 A 
ATOM     18  C   UNL A   1      34.118  28.148  26.670  1.00  0.00     0.011 A 
ATOM     19  C   UNL A   1      33.928  29.439  27.165  1.00  0.00     0.001 A 
ENDBRANCH   9  13
ENDBRANCH   7   8
ENDBRANCH   4   7
ENDBRANCH   2   3
ENDBRANCH   1   2
BRANCH   1  20
ATOM     20  C   UNL A   1      38.029  22.544  25.726  1.00  0.00     0.118 C 
BRANCH  20  21
ATOM     21  N   UNL A   1      39.391  22.310  26.186  1.00  0.00    -0.352 N 
ATOM     22  C   UNL A   1      40.333  23.210  26.661  1.00  0.00     0.251 C 
ATOM     23  H   UNL A   1      39.687  21.372  26.154  1.00  0.00     0.163 HD
ATOM     24  O   UNL A   1      41.454  22.823  26.945  1.00  0.00    -0.269 OA
BRANCH  22  25
ATOM     25  C   UNL A   1      39.942  24.616  26.946  1.00  0.00     0.039 A 
ATOM     26  C   UNL A   1      40.458  25.633  26.129  1.00  0.00     0.014 A 
ATOM     27  C   UNL A   1      39.229  24.951  28.090  1.00  0.00     0.014 A 
ATOM     28  C   UNL A   1      40.472  26.951  26.588  1.00  0.00     0.010 A 
ATOM     29  C   UNL A   1      39.358  26.220  28.606  1.00  0.00     0.010 A 
ATOM     30  C   UNL A   1      40.027  27.211  27.879  1.00  0.00    -0.014 A 
BRANCH  30  31
ATOM     31  C   UNL A   1      40.288  28.435  28.627  1.00  0.00     0.031 A 
ATOM     32  C   UNL A   1      39.240  29.473  28.749  1.00  0.00     0.074 A 
ATOM     33  C   UNL A   1      41.369  28.456  29.437  1.00  0.00     0.049 A 
ATOM     34  N   UNL A   1      39.419  30.637  29.274  1.00  0.00    -0.248 NA
ATOM     35  C   UNL A   1      37.884  29.283  28.247  1.00  0.00     0.031 C 
ATOM     36  C   UNL A   1      41.570  29.285  30.624  1.00  0.00     0.029 A 
ATOM     37  N   UNL A   1      42.606  27.818  29.247  1.00  0.00    -0.354 N 
ATOM     38  C   UNL A   1      38.182  31.221  29.453  1.00  0.00     0.074 A 
ATOM     39  C   UNL A   1      37.272  30.368  28.728  1.00  0.00     0.031 C 
ATOM     40  C   UNL A   1      42.883  29.343  30.898  1.00  0.00     0.029 A 
ATOM     41  C   UNL A   1      43.569  28.704  29.791  1.00  0.00     0.049 A 
ATOM     42  H   UNL A   1      42.770  26.942  28.825  1.00  0.00     0.167 HD
ATOM     43  C   UNL A   1      38.078  32.284  30.304  1.00  0.00     0.037 A 
ATOM     44  C   UNL A   1      44.494  29.325  29.002  1.00  0.00     0.037 A 
ATOM     45  C   UNL A   1      39.403  32.705  30.765  1.00  0.00     0.049 A 
ATOM     46  C   UNL A   1      44.444  30.832  29.068  1.00  0.00     0.074 A 
ATOM     47  C   UNL A   1      40.109  32.482  31.936  1.00  0.00     0.029 A 
ATOM     48  N   UNL A   1      40.315  33.217  29.847  1.00  0.00    -0.354 N 
ATOM     49  N   UNL A   1      43.387  31.508  29.420  1.00  0.00    -0.248 NA
ATOM     50  C   UNL A   1      45.571  31.692  28.723  1.00  0.00     0.031 C 
ATOM     51  C   UNL A   1      41.463  32.830  31.706  1.00  0.00     0.029 A 
ATOM     52  C   UNL A   1      41.576  33.279  30.400  1.00  0.00     0.049 A 
ATOM     53  H   UNL A   1      40.089  33.497  28.930  1.00  0.00     0.167 HD
ATOM     54  C   UNL A   1      43.658  32.851  29.347  1.00  0.00     0.074 A 
ATOM     55  C   UNL A   1      45.042  32.913  28.920  1.00  0.00     0.031 C 
ATOM     56  C   UNL A   1      42.708  33.788  29.639  1.00  0.00     0.037 A 
BRANCH  43  57
ATOM     57  C   UNL A   1      36.793  32.788  30.944  1.00  0.00     0.064 A 
ATOM     58  C   UNL A   1      35.899  33.606  30.209  1.00  0.00     0.173 A 
ATOM     59  C   UNL A   1      36.402  32.570  32.277  1.00  0.00     0.173 A 
ATOM     60  F   UNL A   1      36.061  33.822  28.898  1.00  0.00    -0.203 F 
ATOM     61  C   UNL A   1      34.794  34.235  30.791  1.00  0.00     0.198 A 
ATOM     62  C   UNL A   1      35.320  33.232  32.871  1.00  0.00     0.198 A 
ATOM     63  F   UNL A   1      37.003  31.660  33.048  1.00  0.00    -0.203 F 
ATOM     64  F   UNL A   1      33.998  35.010  30.039  1.00  0.00    -0.200 F 
ATOM     65  C   UNL A   1      34.522  34.075  32.131  1.00  0.00     0.200 A 
ATOM     66  F   UNL A   1      35.056  33.032  34.172  1.00  0.00    -0.200 F 
ATOM     67  F   UNL A   1      33.484  34.703  32.700  1.00  0.00    -0.200 F 
ENDBRANCH  43  57
BRANCH  44  68
ATOM     68  C   UNL A   1      44.840  28.542  27.788  1.00  0.00     0.064 A 
ATOM     69  C   UNL A   1      45.711  27.445  27.931  1.00  0.00     0.173 A 
ATOM     70  C   UNL A   1      44.033  28.586  26.644  1.00  0.00     0.173 A 
ATOM     71  F   UNL A   1      46.502  27.356  29.012  1.00  0.00    -0.203 F 
ATOM     72  C   UNL A   1      45.681  26.377  27.036  1.00  0.00     0.198 A 
ATOM     73  C   UNL A   1      44.017  27.521  25.743  1.00  0.00     0.198 A 
ATOM     74  F   UNL A   1      43.172  29.598  26.460  1.00  0.00    -0.203 F 
ATOM     75  F   UNL A   1      46.435  25.292  27.265  1.00  0.00    -0.200 F 
ATOM     76  C   UNL A   1      44.810  26.403  25.961  1.00  0.00     0.200 A 
ATOM     77  F   UNL A   1      43.153  27.528  24.717  1.00  0.00    -0.200 F 
ATOM     78  F   UNL A   1      44.699  25.333  25.160  1.00  0.00    -0.200 F 
ENDBRANCH  44  68
BRANCH  56  79
ATOM     79  C   UNL A   1      42.775  35.270  29.338  1.00  0.00     0.064 A 
ATOM     80  C   UNL A   1      43.353  36.223  30.193  1.00  0.00     0.173 A 
ATOM     81  C   UNL A   1      42.379  35.762  28.068  1.00  0.00     0.173 A 
ATOM     82  F   UNL A   1      43.887  35.876  31.371  1.00  0.00    -0.203 F 
ATOM     83  C   UNL A   1      43.464  37.572  29.836  1.00  0.00     0.198 A 
ATOM     84  C   UNL A   1      42.549  37.095  27.692  1.00  0.00     0.198 A 
ATOM     85  F   UNL A   1      41.844  34.961  27.137  1.00  0.00    -0.203 F 
ATOM     86  F   UNL A   1      43.985  38.446  30.708  1.00  0.00    -0.200 F 
ATOM     87  C   UNL A   1      43.075  38.004  28.583  1.00  0.00     0.200 A 
ATOM     88  F   UNL A   1      42.219  37.484  26.452  1.00  0.00    -0.200 F 
ATOM     89  F   UNL A   1      43.230  39.286  28.228  1.00  0.00    -0.200 F 
ENDBRANCH  56  79
ENDBRANCH  30  31
ENDBRANCH  22  25
ENDBRANCH  20  21
ENDBRANCH   1  20
TORSDOF 12
ENDMDL
