MODEL 1
REMARK VINA RESULT:     -12.6      0.000      0.000
REMARK SMILES O=C(NCCCNC(=O)c1cccnc1Nc1cccc(C(F)(F)F)c1)c1ccc(-c2c3nc(c(-c4c(F)c(F)c(F)c(F)c4F)c4ccc([nH]4)c(-c4c(F)c(F)c(F)c(F)c4F)c4nc(c(-c5c(F)c(F)c(F)c(F)c5F)c5ccc2[nH]5)C=C4)C=C3)cc1
REMARK SMILES IDX 5 1 4 2 3 3 1 4 2 5 27 7 28 8 89 9 29 10 88 11 30 12 31 13
REMARK SMILES IDX 32 14 82 15 33 16 87 17 81 18 83 19 34 20 86 21 80 22 79 23
REMARK SMILES IDX 35 25 67 26 47 27 66 28 48 29 51 30 65 31 84 32 49 33 50 34
REMARK SMILES IDX 64 36 85 37 52 38 36 39 37 40 45 41 38 42 39 43 43 44 46 45
REMARK SMILES IDX 40 46 41 47 44 48 42 49 68 50 69 51 77 52 70 53 71 54 75 55
REMARK SMILES IDX 78 56 72 57 73 58 76 59 74 60 53 61 54 62 62 63 55 64 56 65
REMARK SMILES IDX 60 66 63 67 57 68 58 69 61 70 59 71 6 72 7 73 8 74 9 76
REMARK SMILES IDX 10 77 11 78 15 79 12 80 14 81 13 82 16 83 17 85 18 86 26 87
REMARK SMILES IDX 19 88 21 89 20 90 22 91 23 92 24 93 25 94
REMARK H PARENT 3 6 83 24 51 35 7 75 16 84
REMARK Flexibility Score: inf
ROOT
ATOM      1  C   UNL A   1      32.009  28.125  26.252  1.00  0.00     0.042 C 
ENDROOT
BRANCH   1   2
ATOM      2  C   UNL A   1      33.055  29.106  25.744  1.00  0.00     0.118 C 
BRANCH   2   3
ATOM      3  N   UNL A   1      32.719  30.492  26.046  1.00  0.00    -0.352 N 
ATOM      4  O   UNL A   1      32.671  32.419  27.207  1.00  0.00    -0.269 OA
ATOM      5  C   UNL A   1      33.236  31.352  26.982  1.00  0.00     0.251 C 
ATOM      6  H   UNL A   1      32.005  30.874  25.486  1.00  0.00     0.163 HD
BRANCH   5   7
ATOM      7  C   UNL A   1      34.457  30.994  27.734  1.00  0.00     0.039 A 
ATOM      8  C   UNL A   1      34.648  29.697  28.209  1.00  0.00     0.014 A 
ATOM      9  C   UNL A   1      35.446  31.962  27.939  1.00  0.00     0.014 A 
ATOM     10  C   UNL A   1      35.734  29.410  29.026  1.00  0.00     0.010 A 
ATOM     11  C   UNL A   1      36.595  31.642  28.667  1.00  0.00     0.010 A 
ATOM     12  C   UNL A   1      36.734  30.369  29.242  1.00  0.00    -0.014 A 
BRANCH  12  13
ATOM     13  C   UNL A   1      37.948  29.984  30.005  1.00  0.00     0.031 A 
ATOM     14  C   UNL A   1      38.174  30.465  31.410  1.00  0.00     0.074 A 
ATOM     15  C   UNL A   1      38.838  29.161  29.417  1.00  0.00     0.049 A 
ATOM     16  N   UNL A   1      39.176  30.212  32.215  1.00  0.00    -0.248 NA
ATOM     17  C   UNL A   1      37.153  31.350  31.988  1.00  0.00     0.031 C 
ATOM     18  C   UNL A   1      38.728  28.641  28.051  1.00  0.00     0.029 A 
ATOM     19  N   UNL A   1      39.999  28.604  29.888  1.00  0.00    -0.354 N 
ATOM     20  C   UNL A   1      38.916  30.916  33.383  1.00  0.00     0.074 A 
ATOM     21  C   UNL A   1      37.674  31.630  33.175  1.00  0.00     0.031 C 
ATOM     22  C   UNL A   1      39.748  27.807  27.812  1.00  0.00     0.029 A 
ATOM     23  C   UNL A   1      40.625  27.789  28.976  1.00  0.00     0.049 A 
ATOM     24  H   UNL A   1      40.350  28.772  30.792  1.00  0.00     0.167 HD
ATOM     25  C   UNL A   1      39.646  30.952  34.524  1.00  0.00     0.037 A 
ATOM     26  C   UNL A   1      41.789  27.120  29.057  1.00  0.00     0.037 A 
ATOM     27  C   UNL A   1      40.874  30.225  34.726  1.00  0.00     0.049 A 
ATOM     28  C   UNL A   1      42.590  27.209  30.324  1.00  0.00     0.074 A 
ATOM     29  C   UNL A   1      41.666  30.168  35.860  1.00  0.00     0.029 A 
ATOM     30  N   UNL A   1      41.491  29.432  33.769  1.00  0.00    -0.354 N 
ATOM     31  N   UNL A   1      42.312  27.847  31.434  1.00  0.00    -0.248 NA
ATOM     32  C   UNL A   1      43.868  26.487  30.348  1.00  0.00     0.031 C 
ATOM     33  C   UNL A   1      42.789  29.387  35.571  1.00  0.00     0.029 A 
ATOM     34  C   UNL A   1      42.668  28.905  34.278  1.00  0.00     0.049 A 
ATOM     35  H   UNL A   1      41.144  29.268  32.862  1.00  0.00     0.167 HD
ATOM     36  C   UNL A   1      43.365  27.585  32.297  1.00  0.00     0.074 A 
ATOM     37  C   UNL A   1      44.278  26.712  31.588  1.00  0.00     0.031 C 
ATOM     38  C   UNL A   1      43.562  28.031  33.561  1.00  0.00     0.037 A 
BRANCH  25  39
ATOM     39  C   UNL A   1      39.153  31.819  35.648  1.00  0.00     0.064 A 
ATOM     40  C   UNL A   1      38.285  31.329  36.635  1.00  0.00     0.173 A 
ATOM     41  C   UNL A   1      39.613  33.139  35.779  1.00  0.00     0.173 A 
ATOM     42  F   UNL A   1      37.807  30.078  36.553  1.00  0.00    -0.203 F 
ATOM     43  C   UNL A   1      37.884  32.132  37.701  1.00  0.00     0.198 A 
ATOM     44  C   UNL A   1      39.233  33.930  36.861  1.00  0.00     0.198 A 
ATOM     45  F   UNL A   1      40.451  33.657  34.867  1.00  0.00    -0.203 F 
ATOM     46  F   UNL A   1      37.026  31.652  38.612  1.00  0.00    -0.200 F 
ATOM     47  C   UNL A   1      38.366  33.427  37.817  1.00  0.00     0.200 A 
ATOM     48  F   UNL A   1      39.712  35.176  36.979  1.00  0.00    -0.200 F 
ATOM     49  F   UNL A   1      37.990  34.193  38.852  1.00  0.00    -0.200 F 
ENDBRANCH  25  39
BRANCH  26  50
ATOM     50  C   UNL A   1      42.271  26.327  27.896  1.00  0.00     0.064 A 
ATOM     51  C   UNL A   1      43.195  26.862  26.988  1.00  0.00     0.173 A 
ATOM     52  C   UNL A   1      41.815  25.020  27.669  1.00  0.00     0.173 A 
ATOM     53  F   UNL A   1      43.648  28.113  27.152  1.00  0.00    -0.203 F 
ATOM     54  C   UNL A   1      43.623  26.129  25.883  1.00  0.00     0.198 A 
ATOM     55  C   UNL A   1      42.272  24.275  26.585  1.00  0.00     0.198 A 
ATOM     56  F   UNL A   1      40.937  24.458  28.513  1.00  0.00    -0.203 F 
ATOM     57  F   UNL A   1      44.466  26.683  25.000  1.00  0.00    -0.200 F 
ATOM     58  C   UNL A   1      43.166  24.834  25.686  1.00  0.00     0.200 A 
ATOM     59  F   UNL A   1      41.843  23.018  26.410  1.00  0.00    -0.200 F 
ATOM     60  F   UNL A   1      43.582  24.129  24.626  1.00  0.00    -0.200 F 
ENDBRANCH  26  50
BRANCH  38  61
ATOM     61  C   UNL A   1      44.793  27.549  34.271  1.00  0.00     0.064 A 
ATOM     62  C   UNL A   1      45.998  28.267  34.229  1.00  0.00     0.173 A 
ATOM     63  C   UNL A   1      44.758  26.366  35.025  1.00  0.00     0.173 A 
ATOM     64  F   UNL A   1      46.087  29.395  33.507  1.00  0.00    -0.203 F 
ATOM     65  C   UNL A   1      47.132  27.801  34.890  1.00  0.00     0.198 A 
ATOM     66  C   UNL A   1      45.884  25.922  35.712  1.00  0.00     0.198 A 
ATOM     67  F   UNL A   1      43.630  25.646  35.103  1.00  0.00    -0.203 F 
ATOM     68  F   UNL A   1      48.286  28.473  34.790  1.00  0.00    -0.200 F 
ATOM     69  C   UNL A   1      47.072  26.633  35.637  1.00  0.00     0.200 A 
ATOM     70  F   UNL A   1      45.821  24.800  36.444  1.00  0.00    -0.200 F 
ATOM     71  F   UNL A   1      48.162  26.189  36.277  1.00  0.00    -0.200 F 
ENDBRANCH  38  61
ENDBRANCH  12  13
ENDBRANCH   5   7
ENDBRANCH   2   3
ENDBRANCH   1   2
BRANCH   1  72
ATOM     72  C   UNL A   1      32.488  26.681  26.269  1.00  0.00     0.118 C 
BRANCH  72  73
ATOM     73  N   UNL A   1      31.508  25.790  26.876  1.00  0.00    -0.352 N 
ATOM     74  C   UNL A   1      30.911  24.671  26.352  1.00  0.00     0.255 C 
ATOM     75  H   UNL A   1      31.236  26.024  27.793  1.00  0.00     0.163 HD
ATOM     76  O   UNL A   1      29.897  24.219  26.876  1.00  0.00    -0.269 OA
BRANCH  74  77
ATOM     77  C   UNL A   1      31.471  24.019  25.154  1.00  0.00     0.082 A 
ATOM     78  C   UNL A   1      32.490  23.066  25.292  1.00  0.00     0.019 A 
ATOM     79  C   UNL A   1      30.958  24.300  23.883  1.00  0.00     0.143 A 
ATOM     80  C   UNL A   1      33.066  22.511  24.159  1.00  0.00     0.021 A 
ATOM     81  N   UNL A   1      31.536  23.755  22.779  1.00  0.00    -0.238 NA
ATOM     82  C   UNL A   1      32.568  22.898  22.933  1.00  0.00     0.113 A 
BRANCH  79  83
ATOM     83  N   UNL A   1      29.903  25.218  23.703  1.00  0.00    -0.340 N 
ATOM     84  H   UNL A   1      28.993  24.883  23.871  1.00  0.00     0.168 HD
BRANCH  83  85
ATOM     85  C   UNL A   1      30.016  26.563  23.307  1.00  0.00     0.040 A 
ATOM     86  C   UNL A   1      31.257  27.067  22.906  1.00  0.00     0.026 A 
ATOM     87  C   UNL A   1      28.925  27.440  23.370  1.00  0.00     0.039 A 
ATOM     88  C   UNL A   1      31.389  28.399  22.506  1.00  0.00     0.003 A 
ATOM     89  C   UNL A   1      29.044  28.785  22.989  1.00  0.00     0.058 A 
ATOM     90  C   UNL A   1      30.287  29.252  22.541  1.00  0.00     0.013 A 
BRANCH  89  91
ATOM     91  C   UNL A   1      27.856  29.710  23.050  1.00  0.00     0.416 C 
ATOM     92  F   UNL A   1      28.067  30.774  23.876  1.00  0.00    -0.166 F 
ATOM     93  F   UNL A   1      27.544  30.241  21.835  1.00  0.00    -0.166 F 
ATOM     94  F   UNL A   1      26.715  29.117  23.501  1.00  0.00    -0.166 F 
ENDBRANCH  89  91
ENDBRANCH  83  85
ENDBRANCH  79  83
ENDBRANCH  74  77
ENDBRANCH  72  73
ENDBRANCH   1  72
TORSDOF 13
ENDMDL
MODEL 2
REMARK VINA RESULT:     -12.5      1.749      2.831
REMARK SMILES O=C(NCCCNC(=O)c1cccnc1Nc1cccc(C(F)(F)F)c1)c1ccc(-c2c3nc(c(-c4c(F)c(F)c(F)c(F)c4F)c4ccc([nH]4)c(-c4c(F)c(F)c(F)c(F)c4F)c4nc(c(-c5c(F)c(F)c(F)c(F)c5F)c5ccc2[nH]5)C=C4)C=C3)cc1
REMARK SMILES IDX 5 1 4 2 3 3 1 4 2 5 27 7 28 8 89 9 29 10 88 11 30 12 31 13
REMARK SMILES IDX 32 14 82 15 33 16 87 17 81 18 83 19 34 20 86 21 80 22 79 23
REMARK SMILES IDX 35 25 67 26 47 27 66 28 48 29 51 30 65 31 84 32 49 33 50 34
REMARK SMILES IDX 64 36 85 37 52 38 36 39 37 40 45 41 38 42 39 43 43 44 46 45
REMARK SMILES IDX 40 46 41 47 44 48 42 49 68 50 69 51 77 52 70 53 71 54 75 55
REMARK SMILES IDX 78 56 72 57 73 58 76 59 74 60 53 61 54 62 62 63 55 64 56 65
REMARK SMILES IDX 60 66 63 67 57 68 58 69 61 70 59 71 6 72 7 73 8 74 9 76
REMARK SMILES IDX 10 77 11 78 15 79 12 80 14 81 13 82 16 83 17 85 18 86 26 87
REMARK SMILES IDX 19 88 21 89 20 90 22 91 23 92 24 93 25 94
REMARK H PARENT 3 6 83 24 51 35 7 75 16 84
REMARK Flexibility Score: inf
ROOT
ATOM      1  C   UNL A   1      31.395  31.537  26.501  1.00  0.00     0.042 C 
ENDROOT
BRANCH   1   2
ATOM      2  C   UNL A   1      32.738  32.154  26.865  1.00  0.00     0.118 C 
BRANCH   2   3
ATOM      3  N   UNL A   1      32.612  33.522  27.356  1.00  0.00    -0.352 N 
ATOM      4  O   UNL A   1      32.879  35.267  28.751  1.00  0.00    -0.269 OA
ATOM      5  C   UNL A   1      33.278  34.171  28.365  1.00  0.00     0.251 C 
ATOM      6  H   UNL A   1      31.941  34.068  26.886  1.00  0.00     0.163 HD
BRANCH   5   7
ATOM      7  C   UNL A   1      34.460  33.554  29.002  1.00  0.00     0.039 A 
ATOM      8  C   UNL A   1      34.331  32.411  29.791  1.00  0.00     0.014 A 
ATOM      9  C   UNL A   1      35.727  34.104  28.778  1.00  0.00     0.014 A 
ATOM     10  C   UNL A   1      35.427  31.922  30.488  1.00  0.00     0.010 A 
ATOM     11  C   UNL A   1      36.850  33.542  29.391  1.00  0.00     0.010 A 
ATOM     12  C   UNL A   1      36.704  32.463  30.277  1.00  0.00    -0.014 A 
BRANCH  12  13
ATOM     13  C   UNL A   1      37.873  31.826  30.932  1.00  0.00     0.031 A 
ATOM     14  C   UNL A   1      38.282  32.192  32.330  1.00  0.00     0.074 A 
ATOM     15  C   UNL A   1      38.551  30.880  30.252  1.00  0.00     0.049 A 
ATOM     16  N   UNL A   1      39.272  31.721  33.049  1.00  0.00    -0.248 NA
ATOM     17  C   UNL A   1      37.487  33.224  33.013  1.00  0.00     0.031 C 
ATOM     18  C   UNL A   1      38.252  30.452  28.883  1.00  0.00     0.029 A 
ATOM     19  N   UNL A   1      39.616  30.097  30.616  1.00  0.00    -0.354 N 
ATOM     20  C   UNL A   1      39.229  32.407  34.255  1.00  0.00     0.074 A 
ATOM     21  C   UNL A   1      38.132  33.348  34.165  1.00  0.00     0.031 C 
ATOM     22  C   UNL A   1      39.078  29.455  28.540  1.00  0.00     0.029 A 
ATOM     23  C   UNL A   1      40.014  29.223  29.634  1.00  0.00     0.049 A 
ATOM     24  H   UNL A   1      40.054  30.155  31.496  1.00  0.00     0.167 HD
ATOM     25  C   UNL A   1      40.029  32.256  35.338  1.00  0.00     0.037 A 
ATOM     26  C   UNL A   1      41.035  28.347  29.604  1.00  0.00     0.037 A 
ATOM     27  C   UNL A   1      41.110  31.306  35.422  1.00  0.00     0.049 A 
ATOM     28  C   UNL A   1      41.923  28.229  30.809  1.00  0.00     0.074 A 
ATOM     29  C   UNL A   1      41.953  31.052  36.491  1.00  0.00     0.029 A 
ATOM     30  N   UNL A   1      41.500  30.457  34.397  1.00  0.00    -0.354 N 
ATOM     31  N   UNL A   1      41.846  28.856  31.957  1.00  0.00    -0.248 NA
ATOM     32  C   UNL A   1      43.041  27.283  30.713  1.00  0.00     0.031 C 
ATOM     33  C   UNL A   1      42.887  30.090  36.093  1.00  0.00     0.029 A 
ATOM     34  C   UNL A   1      42.589  29.698  34.798  1.00  0.00     0.049 A 
ATOM     35  H   UNL A   1      41.067  30.402  33.514  1.00  0.00     0.167 HD
ATOM     36  C   UNL A   1      42.889  28.364  32.728  1.00  0.00     0.074 A 
ATOM     37  C   UNL A   1      43.571  27.371  31.924  1.00  0.00     0.031 C 
ATOM     38  C   UNL A   1      43.252  28.709  33.988  1.00  0.00     0.037 A 
BRANCH  25  39
ATOM     39  C   UNL A   1      39.786  33.147  36.523  1.00  0.00     0.064 A 
ATOM     40  C   UNL A   1      40.450  34.374  36.675  1.00  0.00     0.173 A 
ATOM     41  C   UNL A   1      38.822  32.801  37.483  1.00  0.00     0.173 A 
ATOM     42  F   UNL A   1      41.387  34.749  35.792  1.00  0.00    -0.203 F 
ATOM     43  C   UNL A   1      40.170  35.212  37.753  1.00  0.00     0.198 A 
ATOM     44  C   UNL A   1      38.524  33.655  38.543  1.00  0.00     0.198 A 
ATOM     45  F   UNL A   1      38.153  31.643  37.382  1.00  0.00    -0.203 F 
ATOM     46  F   UNL A   1      40.841  36.363  37.896  1.00  0.00    -0.200 F 
ATOM     47  C   UNL A   1      39.200  34.856  38.679  1.00  0.00     0.200 A 
ATOM     48  F   UNL A   1      37.577  33.315  39.428  1.00  0.00    -0.200 F 
ATOM     49  F   UNL A   1      38.921  35.671  39.706  1.00  0.00    -0.200 F 
ENDBRANCH  25  39
BRANCH  26  50
ATOM     50  C   UNL A   1      41.278  27.533  28.385  1.00  0.00     0.064 A 
ATOM     51  C   UNL A   1      40.630  26.304  28.194  1.00  0.00     0.173 A 
ATOM     52  C   UNL A   1      42.166  27.963  27.388  1.00  0.00     0.173 A 
ATOM     53  F   UNL A   1      39.785  25.841  29.126  1.00  0.00    -0.203 F 
ATOM     54  C   UNL A   1      40.882  25.528  27.065  1.00  0.00     0.198 A 
ATOM     55  C   UNL A   1      42.389  27.203  26.244  1.00  0.00     0.198 A 
ATOM     56  F   UNL A   1      42.806  29.136  27.518  1.00  0.00    -0.203 F 
ATOM     57  F   UNL A   1      40.291  24.332  26.932  1.00  0.00    -0.200 F 
ATOM     58  C   UNL A   1      41.756  25.981  26.088  1.00  0.00     0.200 A 
ATOM     59  F   UNL A   1      43.219  27.655  25.293  1.00  0.00    -0.200 F 
ATOM     60  F   UNL A   1      41.994  25.234  25.001  1.00  0.00    -0.200 F 
ENDBRANCH  26  50
BRANCH  38  61
ATOM     61  C   UNL A   1      44.417  27.975  34.586  1.00  0.00     0.064 A 
ATOM     62  C   UNL A   1      45.726  28.471  34.496  1.00  0.00     0.173 A 
ATOM     63  C   UNL A   1      44.215  26.773  35.282  1.00  0.00     0.173 A 
ATOM     64  F   UNL A   1      45.973  29.607  33.826  1.00  0.00    -0.203 F 
ATOM     65  C   UNL A   1      46.795  27.774  35.054  1.00  0.00     0.198 A 
ATOM     66  C   UNL A   1      45.281  26.097  35.867  1.00  0.00     0.198 A 
ATOM     67  F   UNL A   1      42.982  26.259  35.401  1.00  0.00    -0.203 F 
ATOM     68  F   UNL A   1      48.043  28.237  34.907  1.00  0.00    -0.200 F 
ATOM     69  C   UNL A   1      46.570  26.592  35.745  1.00  0.00     0.200 A 
ATOM     70  F   UNL A   1      45.061  24.962  36.545  1.00  0.00    -0.200 F 
ATOM     71  F   UNL A   1      47.599  25.925  36.285  1.00  0.00    -0.200 F 
ENDBRANCH  38  61
ENDBRANCH  12  13
ENDBRANCH   5   7
ENDBRANCH   2   3
ENDBRANCH   1   2
BRANCH   1  72
ATOM     72  C   UNL A   1      31.506  30.119  25.960  1.00  0.00     0.118 C 
BRANCH  72  73
ATOM     73  N   UNL A   1      32.208  30.078  24.684  1.00  0.00    -0.352 N 
ATOM     74  C   UNL A   1      32.900  29.042  24.107  1.00  0.00     0.255 C 
ATOM     75  H   UNL A   1      32.183  30.912  24.161  1.00  0.00     0.163 HD
ATOM     76  O   UNL A   1      33.678  29.267  23.183  1.00  0.00    -0.269 OA
BRANCH  74  77
ATOM     77  C   UNL A   1      32.728  27.664  24.602  1.00  0.00     0.082 A 
ATOM     78  C   UNL A   1      33.465  27.225  25.711  1.00  0.00     0.019 A 
ATOM     79  C   UNL A   1      31.796  26.805  24.011  1.00  0.00     0.143 A 
ATOM     80  C   UNL A   1      33.357  25.906  26.126  1.00  0.00     0.021 A 
ATOM     81  N   UNL A   1      31.704  25.512  24.422  1.00  0.00    -0.238 NA
ATOM     82  C   UNL A   1      32.480  25.090  25.443  1.00  0.00     0.113 A 
BRANCH  79  83
ATOM     83  N   UNL A   1      31.001  27.219  22.922  1.00  0.00    -0.340 N 
ATOM     84  H   UNL A   1      31.360  27.042  22.022  1.00  0.00     0.168 HD
BRANCH  83  85
ATOM     85  C   UNL A   1      29.752  27.862  22.987  1.00  0.00     0.040 A 
ATOM     86  C   UNL A   1      28.646  27.178  23.501  1.00  0.00     0.026 A 
ATOM     87  C   UNL A   1      29.565  29.156  22.482  1.00  0.00     0.039 A 
ATOM     88  C   UNL A   1      27.397  27.800  23.577  1.00  0.00     0.003 A 
ATOM     89  C   UNL A   1      28.314  29.788  22.533  1.00  0.00     0.058 A 
ATOM     90  C   UNL A   1      27.233  29.101  23.101  1.00  0.00     0.013 A 
BRANCH  89  91
ATOM     91  C   UNL A   1      28.135  31.185  21.998  1.00  0.00     0.416 C 
ATOM     92  F   UNL A   1      29.307  31.880  21.958  1.00  0.00    -0.166 F 
ATOM     93  F   UNL A   1      27.653  31.199  20.724  1.00  0.00    -0.166 F 
ATOM     94  F   UNL A   1      27.278  31.953  22.728  1.00  0.00    -0.166 F 
ENDBRANCH  89  91
ENDBRANCH  83  85
ENDBRANCH  79  83
ENDBRANCH  74  77
ENDBRANCH  72  73
ENDBRANCH   1  72
TORSDOF 13
ENDMDL
MODEL 3
REMARK VINA RESULT:     -12.5      2.833      4.399
REMARK SMILES O=C(NCCCNC(=O)c1cccnc1Nc1cccc(C(F)(F)F)c1)c1ccc(-c2c3nc(c(-c4c(F)c(F)c(F)c(F)c4F)c4ccc([nH]4)c(-c4c(F)c(F)c(F)c(F)c4F)c4nc(c(-c5c(F)c(F)c(F)c(F)c5F)c5ccc2[nH]5)C=C4)C=C3)cc1
REMARK SMILES IDX 5 1 4 2 3 3 1 4 2 5 27 7 28 8 89 9 29 10 88 11 30 12 31 13
REMARK SMILES IDX 32 14 82 15 33 16 87 17 81 18 83 19 34 20 86 21 80 22 79 23
REMARK SMILES IDX 35 25 67 26 47 27 66 28 48 29 51 30 65 31 84 32 49 33 50 34
REMARK SMILES IDX 64 36 85 37 52 38 36 39 37 40 45 41 38 42 39 43 43 44 46 45
REMARK SMILES IDX 40 46 41 47 44 48 42 49 68 50 69 51 77 52 70 53 71 54 75 55
REMARK SMILES IDX 78 56 72 57 73 58 76 59 74 60 53 61 54 62 62 63 55 64 56 65
REMARK SMILES IDX 60 66 63 67 57 68 58 69 61 70 59 71 6 72 7 73 8 74 9 76
REMARK SMILES IDX 10 77 11 78 15 79 12 80 14 81 13 82 16 83 17 85 18 86 26 87
REMARK SMILES IDX 19 88 21 89 20 90 22 91 23 92 24 93 25 94
REMARK H PARENT 3 6 83 24 51 35 7 75 16 84
REMARK Flexibility Score: inf
ROOT
ATOM      1  C   UNL A   1      33.923  28.953  23.706  1.00  0.00     0.042 C 
ENDROOT
BRANCH   1   2
ATOM      2  C   UNL A   1      33.626  28.873  25.196  1.00  0.00     0.118 C 
BRANCH   2   3
ATOM      3  N   UNL A   1      33.050  30.105  25.721  1.00  0.00    -0.352 N 
ATOM      4  O   UNL A   1      32.637  31.744  27.207  1.00  0.00    -0.269 OA
ATOM      5  C   UNL A   1      33.381  30.842  26.830  1.00  0.00     0.251 C 
ATOM      6  H   UNL A   1      32.301  30.467  25.194  1.00  0.00     0.163 HD
BRANCH   5   7
ATOM      7  C   UNL A   1      34.618  30.548  27.583  1.00  0.00     0.039 A 
ATOM      8  C   UNL A   1      34.793  29.317  28.216  1.00  0.00     0.014 A 
ATOM      9  C   UNL A   1      35.638  31.504  27.629  1.00  0.00     0.014 A 
ATOM     10  C   UNL A   1      35.899  29.106  29.028  1.00  0.00     0.010 A 
ATOM     11  C   UNL A   1      36.804  31.246  28.356  1.00  0.00     0.010 A 
ATOM     12  C   UNL A   1      36.930  30.055  29.087  1.00  0.00    -0.014 A 
BRANCH  12  13
ATOM     13  C   UNL A   1      38.160  29.734  29.855  1.00  0.00     0.031 A 
ATOM     14  C   UNL A   1      38.387  30.287  31.233  1.00  0.00     0.074 A 
ATOM     15  C   UNL A   1      39.064  28.905  29.297  1.00  0.00     0.049 A 
ATOM     16  N   UNL A   1      39.402  30.096  32.039  1.00  0.00    -0.248 NA
ATOM     17  C   UNL A   1      37.351  31.175  31.779  1.00  0.00     0.031 C 
ATOM     18  C   UNL A   1      38.953  28.318  27.959  1.00  0.00     0.029 A 
ATOM     19  N   UNL A   1      40.242  28.398  29.783  1.00  0.00    -0.354 N 
ATOM     20  C   UNL A   1      39.136  30.848  33.174  1.00  0.00     0.074 A 
ATOM     21  C   UNL A   1      37.876  31.523  32.946  1.00  0.00     0.031 C 
ATOM     22  C   UNL A   1      39.991  27.497  27.750  1.00  0.00     0.029 A 
ATOM     23  C   UNL A   1      40.878  27.555  28.905  1.00  0.00     0.049 A 
ATOM     24  H   UNL A   1      40.597  28.617  30.674  1.00  0.00     0.167 HD
ATOM     25  C   UNL A   1      39.876  30.957  34.305  1.00  0.00     0.037 A 
ATOM     26  C   UNL A   1      42.059  26.918  29.004  1.00  0.00     0.037 A 
ATOM     27  C   UNL A   1      41.122  30.268  34.529  1.00  0.00     0.049 A 
ATOM     28  C   UNL A   1      42.869  27.086  30.258  1.00  0.00     0.074 A 
ATOM     29  C   UNL A   1      41.926  30.284  35.656  1.00  0.00     0.029 A 
ATOM     30  N   UNL A   1      41.749  29.445  33.605  1.00  0.00    -0.354 N 
ATOM     31  N   UNL A   1      42.585  27.770  31.339  1.00  0.00    -0.248 NA
ATOM     32  C   UNL A   1      44.164  26.396  30.303  1.00  0.00     0.031 C 
ATOM     33  C   UNL A   1      43.064  29.516  35.393  1.00  0.00     0.029 A 
ATOM     34  C   UNL A   1      42.943  28.970  34.126  1.00  0.00     0.049 A 
ATOM     35  H   UNL A   1      41.398  29.230  32.710  1.00  0.00     0.167 HD
ATOM     36  C   UNL A   1      43.653  27.573  32.203  1.00  0.00     0.074 A 
ATOM     37  C   UNL A   1      44.580  26.689  31.526  1.00  0.00     0.031 C 
ATOM     38  C   UNL A   1      43.850  28.084  33.442  1.00  0.00     0.037 A 
BRANCH  25  39
ATOM     39  C   UNL A   1      39.373  31.864  35.391  1.00  0.00     0.064 A 
ATOM     40  C   UNL A   1      39.695  33.229  35.424  1.00  0.00     0.173 A 
ATOM     41  C   UNL A   1      38.497  31.376  36.374  1.00  0.00     0.173 A 
ATOM     42  F   UNL A   1      40.535  33.746  34.515  1.00  0.00    -0.203 F 
ATOM     43  C   UNL A   1      39.173  34.067  36.408  1.00  0.00     0.198 A 
ATOM     44  C   UNL A   1      37.954  32.222  37.339  1.00  0.00     0.198 A 
ATOM     45  F   UNL A   1      38.149  30.080  36.386  1.00  0.00    -0.203 F 
ATOM     46  F   UNL A   1      39.523  35.360  36.439  1.00  0.00    -0.200 F 
ATOM     47  C   UNL A   1      38.296  33.564  37.357  1.00  0.00     0.200 A 
ATOM     48  F   UNL A   1      37.095  31.736  38.246  1.00  0.00    -0.200 F 
ATOM     49  F   UNL A   1      37.783  34.374  38.294  1.00  0.00    -0.200 F 
ENDBRANCH  25  39
BRANCH  26  50
ATOM     50  C   UNL A   1      42.549  26.082  27.878  1.00  0.00     0.064 A 
ATOM     51  C   UNL A   1      42.185  24.733  27.766  1.00  0.00     0.173 A 
ATOM     52  C   UNL A   1      43.393  26.613  26.892  1.00  0.00     0.173 A 
ATOM     53  F   UNL A   1      41.394  24.174  28.693  1.00  0.00    -0.203 F 
ATOM     54  C   UNL A   1      42.669  23.942  26.726  1.00  0.00     0.198 A 
ATOM     55  C   UNL A   1      43.847  25.832  25.833  1.00  0.00     0.198 A 
ATOM     56  F   UNL A   1      43.764  27.902  26.947  1.00  0.00    -0.203 F 
ATOM     57  F   UNL A   1      42.350  22.642  26.673  1.00  0.00    -0.200 F 
ATOM     58  C   UNL A   1      43.494  24.494  25.757  1.00  0.00     0.200 A 
ATOM     59  F   UNL A   1      44.626  26.374  24.888  1.00  0.00    -0.200 F 
ATOM     60  F   UNL A   1      43.955  23.733  24.755  1.00  0.00    -0.200 F 
ENDBRANCH  26  50
BRANCH  38  61
ATOM     61  C   UNL A   1      45.099  27.665  34.162  1.00  0.00     0.064 A 
ATOM     62  C   UNL A   1      45.138  26.513  34.963  1.00  0.00     0.173 A 
ATOM     63  C   UNL A   1      46.279  28.413  34.027  1.00  0.00     0.173 A 
ATOM     64  F   UNL A   1      44.032  25.775  35.137  1.00  0.00    -0.203 F 
ATOM     65  C   UNL A   1      46.305  26.143  35.626  1.00  0.00     0.198 A 
ATOM     66  C   UNL A   1      47.452  28.021  34.665  1.00  0.00     0.198 A 
ATOM     67  F   UNL A   1      46.297  29.519  33.270  1.00  0.00    -0.203 F 
ATOM     68  F   UNL A   1      46.304  25.071  36.430  1.00  0.00    -0.200 F 
ATOM     69  C   UNL A   1      47.462  26.893  35.471  1.00  0.00     0.200 A 
ATOM     70  F   UNL A   1      48.573  28.738  34.504  1.00  0.00    -0.200 F 
ATOM     71  F   UNL A   1      48.586  26.532  36.106  1.00  0.00    -0.200 F 
ENDBRANCH  38  61
ENDBRANCH  12  13
ENDBRANCH   5   7
ENDBRANCH   2   3
ENDBRANCH   1   2
BRANCH   1  72
ATOM     72  C   UNL A   1      32.742  28.560  22.830  1.00  0.00     0.118 C 
BRANCH  72  73
ATOM     73  N   UNL A   1      33.073  27.460  21.934  1.00  0.00    -0.352 N 
ATOM     74  C   UNL A   1      33.042  26.108  22.172  1.00  0.00     0.255 C 
ATOM     75  H   UNL A   1      33.359  27.724  21.029  1.00  0.00     0.163 HD
ATOM     76  O   UNL A   1      33.636  25.343  21.417  1.00  0.00    -0.269 OA
BRANCH  74  77
ATOM     77  C   UNL A   1      32.316  25.573  23.338  1.00  0.00     0.082 A 
ATOM     78  C   UNL A   1      30.924  25.416  23.279  1.00  0.00     0.019 A 
ATOM     79  C   UNL A   1      33.007  25.166  24.484  1.00  0.00     0.143 A 
ATOM     80  C   UNL A   1      30.236  24.984  24.404  1.00  0.00     0.021 A 
ATOM     81  N   UNL A   1      32.321  24.751  25.582  1.00  0.00    -0.238 NA
ATOM     82  C   UNL A   1      30.974  24.682  25.528  1.00  0.00     0.113 A 
BRANCH  79  83
ATOM     83  N   UNL A   1      34.411  25.265  24.569  1.00  0.00    -0.340 N 
ATOM     84  H   UNL A   1      34.801  26.157  24.419  1.00  0.00     0.168 HD
BRANCH  83  85
ATOM     85  C   UNL A   1      35.314  24.221  24.843  1.00  0.00     0.040 A 
ATOM     86  C   UNL A   1      34.979  22.907  24.503  1.00  0.00     0.026 A 
ATOM     87  C   UNL A   1      36.520  24.453  25.517  1.00  0.00     0.039 A 
ATOM     88  C   UNL A   1      35.862  21.857  24.763  1.00  0.00     0.003 A 
ATOM     89  C   UNL A   1      37.411  23.407  25.804  1.00  0.00     0.058 A 
ATOM     90  C   UNL A   1      37.076  22.107  25.405  1.00  0.00     0.013 A 
BRANCH  89  91
ATOM     91  C   UNL A   1      38.710  23.677  26.517  1.00  0.00     0.416 C 
ATOM     92  F   UNL A   1      39.537  22.593  26.520  1.00  0.00    -0.166 F 
ATOM     93  F   UNL A   1      39.424  24.685  25.941  1.00  0.00    -0.166 F 
ATOM     94  F   UNL A   1      38.561  24.028  27.826  1.00  0.00    -0.166 F 
ENDBRANCH  89  91
ENDBRANCH  83  85
ENDBRANCH  79  83
ENDBRANCH  74  77
ENDBRANCH  72  73
ENDBRANCH   1  72
TORSDOF 13
ENDMDL
