MODEL 1
REMARK VINA RESULT:     -13.4      0.000      0.000
REMARK SMILES Cc1cc(-c2ccc(/C=C/C(=O)NCCCNC(=O)c3ccc(-c4c5nc(c(-c6c(F)c(F)c(F)c(F)c6F)c6ccc([nH]6)c(-c6c(F)c(F)c(F)c(F)c6F)c6nc(c(-c7c(F)c(F)c(F)c(F)c7F)c7ccc4[nH]7)C=C6)C=C5)cc3)o2)c(C)cc1Br
REMARK SMILES IDX 15 1 14 2 13 3 11 4 12 5 10 7 9 8 8 9 5 10 6 11 83 12 7 13
REMARK SMILES IDX 4 14 1 15 2 16 3 17 87 18 86 19 88 20 84 21 85 22 16 23
REMARK SMILES IDX 17 24 18 25 19 27 20 28 21 29 82 30 22 31 81 32 23 33 24 34
REMARK SMILES IDX 25 35 75 36 26 37 80 38 74 39 76 40 27 41 79 42 73 43 72 44
REMARK SMILES IDX 28 46 60 47 40 48 59 49 41 50 44 51 58 52 77 53 42 54 43 55
REMARK SMILES IDX 57 57 78 58 45 59 29 60 30 61 38 62 31 63 32 64 36 65 39 66
REMARK SMILES IDX 33 67 34 68 37 69 35 70 61 71 62 72 70 73 63 74 64 75 68 76
REMARK SMILES IDX 71 77 65 78 66 79 69 80 67 81 46 82 47 83 55 84 48 85 49 86
REMARK SMILES IDX 53 87 56 88 50 89 51 90 54 91 52 92
REMARK H PARENT 13 6 17 26 76 45 44 56
REMARK Flexibility Score: inf
ROOT
ATOM      1  C   UNL A   1      31.418  32.207  26.510  1.00  0.00     0.042 C 
ENDROOT
BRANCH   1   2
ATOM      2  C   UNL A   1      31.638  30.750  26.111  1.00  0.00     0.118 C 
BRANCH   2   3
ATOM      3  N   UNL A   1      31.061  30.461  24.809  1.00  0.00    -0.352 N 
ATOM      4  C   UNL A   1      30.796  29.280  24.187  1.00  0.00     0.244 C 
ATOM      5  O   UNL A   1      30.193  29.290  23.117  1.00  0.00    -0.270 OA
ATOM      6  H   UNL A   1      30.820  31.259  24.284  1.00  0.00     0.163 HD
BRANCH   4   7
ATOM      7  C   UNL A   1      31.143  27.984  24.810  1.00  0.00     0.075 C 
ATOM      8  C   UNL A   1      30.642  26.803  24.428  1.00  0.00     0.053 C 
BRANCH   8   9
ATOM      9  C   UNL A   1      31.038  25.599  25.063  1.00  0.00     0.127 A 
ATOM     10  C   UNL A   1      32.274  23.838  25.607  1.00  0.00     0.135 A 
ATOM     11  C   UNL A   1      31.148  23.771  26.395  1.00  0.00     0.051 A 
ATOM     12  O   UNL A   1      32.195  24.914  24.776  1.00  0.00    -0.457 OA
ATOM     13  C   UNL A   1      30.375  24.909  26.070  1.00  0.00     0.051 A 
BRANCH  10  14
ATOM     14  C   UNL A   1      33.473  23.021  25.508  1.00  0.00     0.020 A 
ATOM     15  C   UNL A   1      37.224  23.661  25.747  1.00  0.00     0.045 C 
ATOM     16  C   UNL A   1      35.928  22.925  25.552  1.00  0.00    -0.036 A 
ATOM     17  C   UNL A   1      34.723  23.634  25.700  1.00  0.00     0.016 A 
ATOM     18  C   UNL A   1      35.862  21.581  25.167  1.00  0.00     0.021 A 
ATOM     19  C   UNL A   1      34.625  20.953  24.988  1.00  0.00     0.020 A 
ATOM     20  Br  UNL A   1      37.421  20.546  24.841  1.00  0.00    -0.051 Br
ATOM     21  C   UNL A   1      33.422  21.658  25.155  1.00  0.00    -0.039 A 
ATOM     22  C   UNL A   1      32.119  20.935  24.940  1.00  0.00     0.045 C 
ENDBRANCH  10  14
ENDBRANCH   8   9
ENDBRANCH   4   7
ENDBRANCH   2   3
ENDBRANCH   1   2
BRANCH   1  23
ATOM     23  C   UNL A   1      32.581  32.805  27.294  1.00  0.00     0.118 C 
BRANCH  23  24
ATOM     24  N   UNL A   1      32.346  34.194  27.668  1.00  0.00    -0.352 N 
ATOM     25  C   UNL A   1      32.964  34.975  28.618  1.00  0.00     0.251 C 
ATOM     26  H   UNL A   1      31.632  34.644  27.161  1.00  0.00     0.163 HD
ATOM     27  O   UNL A   1      32.492  36.068  28.906  1.00  0.00    -0.269 OA
BRANCH  25  28
ATOM     28  C   UNL A   1      34.176  34.490  29.316  1.00  0.00     0.039 A 
ATOM     29  C   UNL A   1      35.447  34.679  28.773  1.00  0.00     0.014 A 
ATOM     30  C   UNL A   1      34.037  33.840  30.548  1.00  0.00     0.014 A 
ATOM     31  C   UNL A   1      36.549  34.069  29.361  1.00  0.00     0.010 A 
ATOM     32  C   UNL A   1      35.160  33.303  31.186  1.00  0.00     0.010 A 
ATOM     33  C   UNL A   1      36.419  33.364  30.570  1.00  0.00    -0.014 A 
BRANCH  33  34
ATOM     34  C   UNL A   1      37.608  32.682  31.146  1.00  0.00     0.031 A 
ATOM     35  C   UNL A   1      38.083  33.012  32.536  1.00  0.00     0.074 A 
ATOM     36  C   UNL A   1      38.214  31.705  30.444  1.00  0.00     0.049 A 
ATOM     37  N   UNL A   1      39.060  32.475  33.225  1.00  0.00    -0.248 NA
ATOM     38  C   UNL A   1      37.372  34.085  33.249  1.00  0.00     0.031 C 
ATOM     39  C   UNL A   1      37.840  31.287  29.092  1.00  0.00     0.029 A 
ATOM     40  N   UNL A   1      39.243  30.860  30.779  1.00  0.00    -0.354 N 
ATOM     41  C   UNL A   1      39.085  33.148  34.439  1.00  0.00     0.074 A 
ATOM     42  C   UNL A   1      38.054  34.160  34.383  1.00  0.00     0.031 C 
ATOM     43  C   UNL A   1      38.580  30.227  28.739  1.00  0.00     0.029 A 
ATOM     44  C   UNL A   1      39.522  29.925  29.813  1.00  0.00     0.049 A 
ATOM     45  H   UNL A   1      39.735  30.921  31.630  1.00  0.00     0.167 HD
ATOM     46  C   UNL A   1      39.883  32.928  35.511  1.00  0.00     0.037 A 
ATOM     47  C   UNL A   1      40.434  28.934  29.792  1.00  0.00     0.037 A 
ATOM     48  C   UNL A   1      40.891  31.903  35.576  1.00  0.00     0.049 A 
ATOM     49  C   UNL A   1      41.342  28.747  30.974  1.00  0.00     0.074 A 
ATOM     50  C   UNL A   1      41.731  31.588  36.630  1.00  0.00     0.029 A 
ATOM     51  N   UNL A   1      41.195  31.026  34.546  1.00  0.00    -0.354 N 
ATOM     52  N   UNL A   1      41.345  29.382  32.121  1.00  0.00    -0.248 NA
ATOM     53  C   UNL A   1      42.382  27.715  30.857  1.00  0.00     0.031 C 
ATOM     54  C   UNL A   1      42.572  30.548  36.223  1.00  0.00     0.029 A 
ATOM     55  C   UNL A   1      42.227  30.186  34.931  1.00  0.00     0.049 A 
ATOM     56  H   UNL A   1      40.744  31.004  33.671  1.00  0.00     0.167 HD
ATOM     57  C   UNL A   1      42.379  28.827  32.861  1.00  0.00     0.074 A 
ATOM     58  C   UNL A   1      42.966  27.785  32.045  1.00  0.00     0.031 C 
ATOM     59  C   UNL A   1      42.805  29.156  34.105  1.00  0.00     0.037 A 
BRANCH  46  60
ATOM     60  C   UNL A   1      39.701  33.808  36.713  1.00  0.00     0.064 A 
ATOM     61  C   UNL A   1      40.293  35.078  36.789  1.00  0.00     0.173 A 
ATOM     62  C   UNL A   1      38.873  33.406  37.773  1.00  0.00     0.173 A 
ATOM     63  F   UNL A   1      41.102  35.505  35.807  1.00  0.00    -0.203 F 
ATOM     64  C   UNL A   1      40.075  35.906  37.887  1.00  0.00     0.198 A 
ATOM     65  C   UNL A   1      38.636  34.247  38.857  1.00  0.00     0.198 A 
ATOM     66  F   UNL A   1      38.279  32.204  37.747  1.00  0.00    -0.203 F 
ATOM     67  F   UNL A   1      40.678  37.101  37.953  1.00  0.00    -0.200 F 
ATOM     68  C   UNL A   1      39.240  35.493  38.915  1.00  0.00     0.200 A 
ATOM     69  F   UNL A   1      37.820  33.851  39.843  1.00  0.00    -0.200 F 
ATOM     70  F   UNL A   1      39.021  36.298  39.964  1.00  0.00    -0.200 F 
ENDBRANCH  46  60
BRANCH  47  71
ATOM     71  C   UNL A   1      40.518  28.041  28.609  1.00  0.00     0.064 A 
ATOM     72  C   UNL A   1      41.237  28.425  27.468  1.00  0.00     0.173 A 
ATOM     73  C   UNL A   1      39.913  26.776  28.605  1.00  0.00     0.173 A 
ATOM     74  F   UNL A   1      41.815  29.633  27.417  1.00  0.00    -0.203 F 
ATOM     75  C   UNL A   1      41.347  27.575  26.369  1.00  0.00     0.198 A 
ATOM     76  C   UNL A   1      40.047  25.917  27.516  1.00  0.00     0.198 A 
ATOM     77  F   UNL A   1      39.214  26.362  29.672  1.00  0.00    -0.203 F 
ATOM     78  F   UNL A   1      42.019  27.975  25.281  1.00  0.00    -0.200 F 
ATOM     79  C   UNL A   1      40.761  26.319  26.398  1.00  0.00     0.200 A 
ATOM     80  F   UNL A   1      39.492  24.698  27.555  1.00  0.00    -0.200 F 
ATOM     81  F   UNL A   1      40.883  25.496  25.348  1.00  0.00    -0.200 F 
ENDBRANCH  47  71
BRANCH  59  82
ATOM     82  C   UNL A   1      43.965  28.391  34.667  1.00  0.00     0.064 A 
ATOM     83  C   UNL A   1      45.278  28.868  34.542  1.00  0.00     0.173 A 
ATOM     84  C   UNL A   1      43.756  27.220  35.408  1.00  0.00     0.173 A 
ATOM     85  F   UNL A   1      45.528  29.977  33.830  1.00  0.00    -0.203 F 
ATOM     86  C   UNL A   1      46.341  28.194  35.137  1.00  0.00     0.198 A 
ATOM     87  C   UNL A   1      44.818  26.563  36.023  1.00  0.00     0.198 A 
ATOM     88  F   UNL A   1      42.517  26.729  35.563  1.00  0.00    -0.203 F 
ATOM     89  F   UNL A   1      47.591  28.653  34.985  1.00  0.00    -0.200 F 
ATOM     90  C   UNL A   1      46.109  27.049  35.884  1.00  0.00     0.200 A 
ATOM     91  F   UNL A   1      44.591  25.465  36.757  1.00  0.00    -0.200 F 
ATOM     92  F   UNL A   1      47.132  26.414  36.473  1.00  0.00    -0.200 F 
ENDBRANCH  59  82
ENDBRANCH  33  34
ENDBRANCH  25  28
ENDBRANCH  23  24
ENDBRANCH   1  23
TORSDOF 12
ENDMDL
MODEL 2
REMARK VINA RESULT:     -13.3      1.359      2.324
REMARK SMILES Cc1cc(-c2ccc(/C=C/C(=O)NCCCNC(=O)c3ccc(-c4c5nc(c(-c6c(F)c(F)c(F)c(F)c6F)c6ccc([nH]6)c(-c6c(F)c(F)c(F)c(F)c6F)c6nc(c(-c7c(F)c(F)c(F)c(F)c7F)c7ccc4[nH]7)C=C6)C=C5)cc3)o2)c(C)cc1Br
REMARK SMILES IDX 15 1 14 2 13 3 11 4 12 5 10 7 9 8 8 9 5 10 6 11 83 12 7 13
REMARK SMILES IDX 4 14 1 15 2 16 3 17 87 18 86 19 88 20 84 21 85 22 16 23
REMARK SMILES IDX 17 24 18 25 19 27 20 28 21 29 82 30 22 31 81 32 23 33 24 34
REMARK SMILES IDX 25 35 75 36 26 37 80 38 74 39 76 40 27 41 79 42 73 43 72 44
REMARK SMILES IDX 28 46 60 47 40 48 59 49 41 50 44 51 58 52 77 53 42 54 43 55
REMARK SMILES IDX 57 57 78 58 45 59 29 60 30 61 38 62 31 63 32 64 36 65 39 66
REMARK SMILES IDX 33 67 34 68 37 69 35 70 61 71 62 72 70 73 63 74 64 75 68 76
REMARK SMILES IDX 71 77 65 78 66 79 69 80 67 81 46 82 47 83 55 84 48 85 49 86
REMARK SMILES IDX 53 87 56 88 50 89 51 90 54 91 52 92
REMARK H PARENT 13 6 17 26 76 45 44 56
REMARK Flexibility Score: inf
ROOT
ATOM      1  C   UNL A   1      31.619  32.041  26.874  1.00  0.00     0.042 C 
ENDROOT
BRANCH   1   2
ATOM      2  C   UNL A   1      31.915  30.544  26.912  1.00  0.00     0.118 C 
BRANCH   2   3
ATOM      3  N   UNL A   1      33.181  30.268  27.571  1.00  0.00    -0.352 N 
ATOM      4  C   UNL A   1      34.072  29.253  27.412  1.00  0.00     0.244 C 
ATOM      5  O   UNL A   1      35.142  29.297  28.014  1.00  0.00    -0.270 OA
ATOM      6  H   UNL A   1      33.438  30.932  28.251  1.00  0.00     0.163 HD
BRANCH   4   7
ATOM      7  C   UNL A   1      33.818  28.142  26.468  1.00  0.00     0.075 C 
ATOM      8  C   UNL A   1      34.050  28.200  25.152  1.00  0.00     0.053 C 
BRANCH   8   9
ATOM      9  C   UNL A   1      33.797  27.085  24.314  1.00  0.00     0.127 A 
ATOM     10  C   UNL A   1      33.479  24.981  23.684  1.00  0.00     0.135 A 
ATOM     11  C   UNL A   1      33.310  25.747  22.553  1.00  0.00     0.051 A 
ATOM     12  O   UNL A   1      33.810  25.776  24.738  1.00  0.00    -0.457 OA
ATOM     13  C   UNL A   1      33.484  27.088  22.961  1.00  0.00     0.051 A 
BRANCH  10  14
ATOM     14  C   UNL A   1      33.366  23.555  23.950  1.00  0.00     0.020 A 
ATOM     15  C   UNL A   1      35.784  20.777  24.936  1.00  0.00     0.045 C 
ATOM     16  C   UNL A   1      34.503  21.460  24.547  1.00  0.00    -0.036 A 
ATOM     17  C   UNL A   1      34.518  22.851  24.340  1.00  0.00     0.016 A 
ATOM     18  C   UNL A   1      33.308  20.770  24.318  1.00  0.00     0.021 A 
ATOM     19  C   UNL A   1      32.149  21.459  23.944  1.00  0.00     0.020 A 
ATOM     20  Br  UNL A   1      33.186  18.880  24.468  1.00  0.00    -0.051 Br
ATOM     21  C   UNL A   1      32.161  22.852  23.758  1.00  0.00    -0.039 A 
ATOM     22  C   UNL A   1      30.888  23.542  23.345  1.00  0.00     0.045 C 
ENDBRANCH  10  14
ENDBRANCH   8   9
ENDBRANCH   4   7
ENDBRANCH   2   3
ENDBRANCH   1   2
BRANCH   1  23
ATOM     23  C   UNL A   1      32.842  32.910  27.141  1.00  0.00     0.118 C 
BRANCH  23  24
ATOM     24  N   UNL A   1      32.490  34.227  27.658  1.00  0.00    -0.352 N 
ATOM     25  C   UNL A   1      33.006  34.932  28.721  1.00  0.00     0.251 C 
ATOM     26  H   UNL A   1      31.768  34.684  27.169  1.00  0.00     0.163 HD
ATOM     27  O   UNL A   1      32.444  35.949  29.107  1.00  0.00    -0.269 OA
BRANCH  25  28
ATOM     28  C   UNL A   1      34.220  34.452  29.422  1.00  0.00     0.039 A 
ATOM     29  C   UNL A   1      35.494  34.681  28.900  1.00  0.00     0.014 A 
ATOM     30  C   UNL A   1      34.079  33.767  30.633  1.00  0.00     0.014 A 
ATOM     31  C   UNL A   1      36.600  34.077  29.485  1.00  0.00     0.010 A 
ATOM     32  C   UNL A   1      35.205  33.235  31.271  1.00  0.00     0.010 A 
ATOM     33  C   UNL A   1      36.469  33.338  30.673  1.00  0.00    -0.014 A 
BRANCH  33  34
ATOM     34  C   UNL A   1      37.665  32.664  31.246  1.00  0.00     0.031 A 
ATOM     35  C   UNL A   1      38.149  33.007  32.629  1.00  0.00     0.074 A 
ATOM     36  C   UNL A   1      38.268  31.683  30.547  1.00  0.00     0.049 A 
ATOM     37  N   UNL A   1      39.133  32.479  33.315  1.00  0.00    -0.248 NA
ATOM     38  C   UNL A   1      37.440  34.084  33.338  1.00  0.00     0.031 C 
ATOM     39  C   UNL A   1      37.885  31.253  29.202  1.00  0.00     0.029 A 
ATOM     40  N   UNL A   1      39.303  30.844  30.882  1.00  0.00    -0.354 N 
ATOM     41  C   UNL A   1      39.165  33.162  34.524  1.00  0.00     0.074 A 
ATOM     42  C   UNL A   1      38.131  34.171  34.467  1.00  0.00     0.031 C 
ATOM     43  C   UNL A   1      38.626  30.191  28.853  1.00  0.00     0.029 A 
ATOM     44  C   UNL A   1      39.577  29.902  29.922  1.00  0.00     0.049 A 
ATOM     45  H   UNL A   1      39.800  30.913  31.728  1.00  0.00     0.167 HD
ATOM     46  C   UNL A   1      39.972  32.954  35.591  1.00  0.00     0.037 A 
ATOM     47  C   UNL A   1      40.492  28.914  29.903  1.00  0.00     0.037 A 
ATOM     48  C   UNL A   1      40.984  31.933  35.658  1.00  0.00     0.049 A 
ATOM     49  C   UNL A   1      41.409  28.739  31.079  1.00  0.00     0.074 A 
ATOM     50  C   UNL A   1      41.833  31.628  36.708  1.00  0.00     0.029 A 
ATOM     51  N   UNL A   1      41.283  31.048  34.632  1.00  0.00    -0.354 N 
ATOM     52  N   UNL A   1      41.419  29.384  32.220  1.00  0.00    -0.248 NA
ATOM     53  C   UNL A   1      42.451  27.709  30.962  1.00  0.00     0.031 C 
ATOM     54  C   UNL A   1      42.673  30.588  36.303  1.00  0.00     0.029 A 
ATOM     55  C   UNL A   1      42.320  30.214  35.016  1.00  0.00     0.049 A 
ATOM     56  H   UNL A   1      40.825  31.017  33.761  1.00  0.00     0.167 HD
ATOM     57  C   UNL A   1      42.461  28.838  32.958  1.00  0.00     0.074 A 
ATOM     58  C   UNL A   1      43.044  27.791  32.145  1.00  0.00     0.031 C 
ATOM     59  C   UNL A   1      42.895  29.179  34.195  1.00  0.00     0.037 A 
BRANCH  46  60
ATOM     60  C   UNL A   1      39.797  33.844  36.787  1.00  0.00     0.064 A 
ATOM     61  C   UNL A   1      40.438  35.088  36.876  1.00  0.00     0.173 A 
ATOM     62  C   UNL A   1      38.926  33.478  37.826  1.00  0.00     0.173 A 
ATOM     63  F   UNL A   1      41.289  35.479  35.915  1.00  0.00    -0.203 F 
ATOM     64  C   UNL A   1      40.227  35.927  37.967  1.00  0.00     0.198 A 
ATOM     65  C   UNL A   1      38.697  34.331  38.903  1.00  0.00     0.198 A 
ATOM     66  F   UNL A   1      38.283  32.302  37.787  1.00  0.00    -0.203 F 
ATOM     67  F   UNL A   1      40.877  37.096  38.047  1.00  0.00    -0.200 F 
ATOM     68  C   UNL A   1      39.350  35.552  38.975  1.00  0.00     0.200 A 
ATOM     69  F   UNL A   1      37.841  33.972  39.869  1.00  0.00    -0.200 F 
ATOM     70  F   UNL A   1      39.138  36.367  40.017  1.00  0.00    -0.200 F 
ENDBRANCH  46  60
BRANCH  47  71
ATOM     71  C   UNL A   1      40.570  28.010  28.726  1.00  0.00     0.064 A 
ATOM     72  C   UNL A   1      39.855  26.804  28.698  1.00  0.00     0.173 A 
ATOM     73  C   UNL A   1      41.328  28.346  27.596  1.00  0.00     0.173 A 
ATOM     74  F   UNL A   1      39.132  26.430  29.764  1.00  0.00    -0.203 F 
ATOM     75  C   UNL A   1      39.897  25.971  27.583  1.00  0.00     0.198 A 
ATOM     76  C   UNL A   1      41.347  27.525  26.471  1.00  0.00     0.198 A 
ATOM     77  F   UNL A   1      42.029  29.489  27.573  1.00  0.00    -0.203 F 
ATOM     78  F   UNL A   1      39.225  24.811  27.590  1.00  0.00    -0.200 F 
ATOM     79  C   UNL A   1      40.634  26.335  26.467  1.00  0.00     0.200 A 
ATOM     80  F   UNL A   1      42.049  27.890  25.389  1.00  0.00    -0.200 F 
ATOM     81  F   UNL A   1      40.660  25.542  25.388  1.00  0.00    -0.200 F 
ENDBRANCH  47  71
BRANCH  59  82
ATOM     82  C   UNL A   1      44.061  28.422  34.754  1.00  0.00     0.064 A 
ATOM     83  C   UNL A   1      43.880  27.209  35.434  1.00  0.00     0.173 A 
ATOM     84  C   UNL A   1      45.373  28.866  34.534  1.00  0.00     0.173 A 
ATOM     85  F   UNL A   1      42.644  26.752  35.682  1.00  0.00    -0.203 F 
ATOM     86  C   UNL A   1      44.973  26.471  35.879  1.00  0.00     0.198 A 
ATOM     87  C   UNL A   1      46.463  28.113  34.957  1.00  0.00     0.198 A 
ATOM     88  F   UNL A   1      45.597  30.016  33.880  1.00  0.00    -0.203 F 
ATOM     89  F   UNL A   1      44.779  25.327  36.549  1.00  0.00    -0.200 F 
ATOM     90  C   UNL A   1      46.263  26.917  35.632  1.00  0.00     0.200 A 
ATOM     91  F   UNL A   1      47.709  28.538  34.704  1.00  0.00    -0.200 F 
ATOM     92  F   UNL A   1      47.314  26.195  36.043  1.00  0.00    -0.200 F 
ENDBRANCH  59  82
ENDBRANCH  33  34
ENDBRANCH  25  28
ENDBRANCH  23  24
ENDBRANCH   1  23
TORSDOF 12
ENDMDL
MODEL 3
REMARK VINA RESULT:     -13.3      4.450     10.178
REMARK SMILES Cc1cc(-c2ccc(/C=C/C(=O)NCCCNC(=O)c3ccc(-c4c5nc(c(-c6c(F)c(F)c(F)c(F)c6F)c6ccc([nH]6)c(-c6c(F)c(F)c(F)c(F)c6F)c6nc(c(-c7c(F)c(F)c(F)c(F)c7F)c7ccc4[nH]7)C=C6)C=C5)cc3)o2)c(C)cc1Br
REMARK SMILES IDX 15 1 14 2 13 3 11 4 12 5 10 7 9 8 8 9 5 10 6 11 83 12 7 13
REMARK SMILES IDX 4 14 1 15 2 16 3 17 87 18 86 19 88 20 84 21 85 22 16 23
REMARK SMILES IDX 17 24 18 25 19 27 20 28 21 29 82 30 22 31 81 32 23 33 24 34
REMARK SMILES IDX 25 35 75 36 26 37 80 38 74 39 76 40 27 41 79 42 73 43 72 44
REMARK SMILES IDX 28 46 60 47 40 48 59 49 41 50 44 51 58 52 77 53 42 54 43 55
REMARK SMILES IDX 57 57 78 58 45 59 29 60 30 61 38 62 31 63 32 64 36 65 39 66
REMARK SMILES IDX 33 67 34 68 37 69 35 70 61 71 62 72 70 73 63 74 64 75 68 76
REMARK SMILES IDX 71 77 65 78 66 79 69 80 67 81 46 82 47 83 55 84 48 85 49 86
REMARK SMILES IDX 53 87 56 88 50 89 51 90 54 91 52 92
REMARK H PARENT 13 6 17 26 76 45 44 56
REMARK Flexibility Score: inf
ROOT
ATOM      1  C   UNL A   1      33.906  34.113  28.001  1.00  0.00     0.042 C 
ENDROOT
BRANCH   1   2
ATOM      2  C   UNL A   1      34.331  35.359  28.774  1.00  0.00     0.118 C 
BRANCH   2   3
ATOM      3  N   UNL A   1      33.248  35.871  29.596  1.00  0.00    -0.352 N 
ATOM      4  C   UNL A   1      33.094  35.920  30.947  1.00  0.00     0.244 C 
ATOM      5  O   UNL A   1      32.125  36.512  31.416  1.00  0.00    -0.270 OA
ATOM      6  H   UNL A   1      32.494  36.248  29.087  1.00  0.00     0.163 HD
BRANCH   4   7
ATOM      7  C   UNL A   1      34.108  35.352  31.862  1.00  0.00     0.075 C 
ATOM      8  C   UNL A   1      34.142  34.072  32.250  1.00  0.00     0.053 C 
BRANCH   8   9
ATOM      9  C   UNL A   1      35.158  33.596  33.117  1.00  0.00     0.127 A 
ATOM     10  C   UNL A   1      36.926  32.460  33.829  1.00  0.00     0.135 A 
ATOM     11  C   UNL A   1      36.537  33.257  34.881  1.00  0.00     0.051 A 
ATOM     12  O   UNL A   1      36.078  32.630  32.778  1.00  0.00    -0.457 OA
ATOM     13  C   UNL A   1      35.430  34.002  34.417  1.00  0.00     0.051 A 
BRANCH  10  14
ATOM     14  C   UNL A   1      38.024  31.524  33.639  1.00  0.00     0.020 A 
ATOM     15  C   UNL A   1      38.333  27.893  32.517  1.00  0.00     0.045 C 
ATOM     16  C   UNL A   1      38.731  29.255  33.014  1.00  0.00    -0.036 A 
ATOM     17  C   UNL A   1      37.733  30.236  33.157  1.00  0.00     0.016 A 
ATOM     18  C   UNL A   1      40.036  29.577  33.401  1.00  0.00     0.021 A 
ATOM     19  C   UNL A   1      40.343  30.859  33.867  1.00  0.00     0.020 A 
ATOM     20  Br  UNL A   1      41.449  28.308  33.346  1.00  0.00    -0.051 Br
ATOM     21  C   UNL A   1      39.349  31.845  33.991  1.00  0.00    -0.039 A 
ATOM     22  C   UNL A   1      39.733  33.205  34.509  1.00  0.00     0.045 C 
ENDBRANCH  10  14
ENDBRANCH   8   9
ENDBRANCH   4   7
ENDBRANCH   2   3
ENDBRANCH   1   2
BRANCH   1  23
ATOM     23  C   UNL A   1      34.476  32.819  28.571  1.00  0.00     0.118 C 
BRANCH  23  24
ATOM     24  N   UNL A   1      33.721  31.644  28.153  1.00  0.00    -0.352 N 
ATOM     25  C   UNL A   1      34.150  30.371  27.859  1.00  0.00     0.251 C 
ATOM     26  H   UNL A   1      32.750  31.785  28.069  1.00  0.00     0.163 HD
ATOM     27  O   UNL A   1      33.377  29.572  27.345  1.00  0.00    -0.269 OA
BRANCH  25  28
ATOM     28  C   UNL A   1      35.550  29.969  28.129  1.00  0.00     0.039 A 
ATOM     29  C   UNL A   1      35.935  29.488  29.381  1.00  0.00     0.014 A 
ATOM     30  C   UNL A   1      36.495  30.066  27.102  1.00  0.00     0.014 A 
ATOM     31  C   UNL A   1      37.281  29.279  29.658  1.00  0.00     0.010 A 
ATOM     32  C   UNL A   1      37.838  29.768  27.357  1.00  0.00     0.010 A 
ATOM     33  C   UNL A   1      38.251  29.426  28.653  1.00  0.00    -0.014 A 
BRANCH  33  34
ATOM     34  C   UNL A   1      39.687  29.242  28.995  1.00  0.00     0.031 A 
ATOM     35  C   UNL A   1      40.432  28.014  28.545  1.00  0.00     0.074 A 
ATOM     36  C   UNL A   1      40.341  30.224  29.646  1.00  0.00     0.049 A 
ATOM     37  N   UNL A   1      41.698  27.714  28.696  1.00  0.00    -0.248 NA
ATOM     38  C   UNL A   1      39.657  26.985  27.834  1.00  0.00     0.031 C 
ATOM     39  C   UNL A   1      39.732  31.465  30.125  1.00  0.00     0.029 A 
ATOM     40  N   UNL A   1      41.666  30.353  29.984  1.00  0.00    -0.354 N 
ATOM     41  C   UNL A   1      41.868  26.466  28.111  1.00  0.00     0.074 A 
ATOM     42  C   UNL A   1      40.569  26.043  27.636  1.00  0.00     0.031 C 
ATOM     43  C   UNL A   1      40.688  32.256  30.633  1.00  0.00     0.029 A 
ATOM     44  C   UNL A   1      41.967  31.557  30.571  1.00  0.00     0.049 A 
ATOM     45  H   UNL A   1      42.335  29.649  29.822  1.00  0.00     0.167 HD
ATOM     46  C   UNL A   1      43.006  25.748  27.965  1.00  0.00     0.037 A 
ATOM     47  C   UNL A   1      43.143  32.044  31.013  1.00  0.00     0.037 A 
ATOM     48  C   UNL A   1      44.303  26.181  28.414  1.00  0.00     0.049 A 
ATOM     49  C   UNL A   1      44.381  31.204  30.886  1.00  0.00     0.074 A 
ATOM     50  C   UNL A   1      45.519  25.533  28.287  1.00  0.00     0.029 A 
ATOM     51  N   UNL A   1      44.552  27.375  29.075  1.00  0.00    -0.354 N 
ATOM     52  N   UNL A   1      44.528  30.031  30.318  1.00  0.00    -0.248 NA
ATOM     53  C   UNL A   1      45.615  31.746  31.473  1.00  0.00     0.031 C 
ATOM     54  C   UNL A   1      46.498  26.314  28.909  1.00  0.00     0.029 A 
ATOM     55  C   UNL A   1      45.900  27.469  29.385  1.00  0.00     0.049 A 
ATOM     56  H   UNL A   1      43.873  28.054  29.292  1.00  0.00     0.167 HD
ATOM     57  C   UNL A   1      45.866  29.698  30.474  1.00  0.00     0.074 A 
ATOM     58  C   UNL A   1      46.495  30.802  31.167  1.00  0.00     0.031 C 
ATOM     59  C   UNL A   1      46.511  28.573  30.080  1.00  0.00     0.037 A 
BRANCH  46  60
ATOM     60  C   UNL A   1      42.911  24.413  27.286  1.00  0.00     0.064 A 
ATOM     61  C   UNL A   1      43.216  24.258  25.926  1.00  0.00     0.173 A 
ATOM     62  C   UNL A   1      42.575  23.263  28.019  1.00  0.00     0.173 A 
ATOM     63  F   UNL A   1      43.532  25.327  25.179  1.00  0.00    -0.203 F 
ATOM     64  C   UNL A   1      43.174  23.005  25.320  1.00  0.00     0.198 A 
ATOM     65  C   UNL A   1      42.559  22.008  27.416  1.00  0.00     0.198 A 
ATOM     66  F   UNL A   1      42.280  23.355  29.324  1.00  0.00    -0.203 F 
ATOM     67  F   UNL A   1      43.436  22.886  24.011  1.00  0.00    -0.200 F 
ATOM     68  C   UNL A   1      42.854  21.880  26.067  1.00  0.00     0.200 A 
ATOM     69  F   UNL A   1      42.262  20.922  28.142  1.00  0.00    -0.200 F 
ATOM     70  F   UNL A   1      42.828  20.674  25.485  1.00  0.00    -0.200 F 
ENDBRANCH  46  60
BRANCH  47  71
ATOM     71  C   UNL A   1      43.194  33.406  31.605  1.00  0.00     0.064 A 
ATOM     72  C   UNL A   1      43.309  34.540  30.789  1.00  0.00     0.173 A 
ATOM     73  C   UNL A   1      43.097  33.604  32.990  1.00  0.00     0.173 A 
ATOM     74  F   UNL A   1      43.427  34.400  29.461  1.00  0.00    -0.203 F 
ATOM     75  C   UNL A   1      43.323  35.821  31.338  1.00  0.00     0.198 A 
ATOM     76  C   UNL A   1      43.083  34.886  33.534  1.00  0.00     0.198 A 
ATOM     77  F   UNL A   1      42.985  32.551  33.813  1.00  0.00    -0.203 F 
ATOM     78  F   UNL A   1      43.458  36.888  30.538  1.00  0.00    -0.200 F 
ATOM     79  C   UNL A   1      43.200  35.994  32.708  1.00  0.00     0.200 A 
ATOM     80  F   UNL A   1      42.948  35.049  34.858  1.00  0.00    -0.200 F 
ATOM     81  F   UNL A   1      43.195  37.226  33.232  1.00  0.00    -0.200 F 
ENDBRANCH  47  71
BRANCH  59  82
ATOM     82  C   UNL A   1      47.974  28.468  30.390  1.00  0.00     0.064 A 
ATOM     83  C   UNL A   1      48.423  27.876  31.579  1.00  0.00     0.173 A 
ATOM     84  C   UNL A   1      48.934  28.882  29.455  1.00  0.00     0.173 A 
ATOM     85  F   UNL A   1      47.543  27.478  32.510  1.00  0.00    -0.203 F 
ATOM     86  C   UNL A   1      49.783  27.709  31.823  1.00  0.00     0.198 A 
ATOM     87  C   UNL A   1      50.291  28.689  29.691  1.00  0.00     0.198 A 
ATOM     88  F   UNL A   1      48.552  29.446  28.299  1.00  0.00    -0.203 F 
ATOM     89  F   UNL A   1      50.193  27.163  32.977  1.00  0.00    -0.200 F 
ATOM     90  C   UNL A   1      50.715  28.105  30.876  1.00  0.00     0.200 A 
ATOM     91  F   UNL A   1      51.190  29.060  28.769  1.00  0.00    -0.200 F 
ATOM     92  F   UNL A   1      52.023  27.924  31.104  1.00  0.00    -0.200 F 
ENDBRANCH  59  82
ENDBRANCH  33  34
ENDBRANCH  25  28
ENDBRANCH  23  24
ENDBRANCH   1  23
TORSDOF 12
ENDMDL
