MODEL 1
REMARK VINA RESULT:     -11.3      0.000      0.000
REMARK SMILES C[C@H]([NH2+][C@@H]1CC[N@@H+](C)C1)[C@@H](C)C(=O)NCCCNC(=O)c1ccc(-c2c3nc(c(-c4c(F)c(F)c(F)c(F)c4F)c4ccc([nH]4)c(-c4c(F)c(F)c(F)c(F)c4F)c4nc(c(-c5c(F)c(F)c(F)c(F)c5F)c5ccc2[nH]5)C=C4)C=C3)cc1
REMARK SMILES IDX 15 1 14 2 12 3 13 4 10 6 11 7 2 8 1 9 3 10 4 13 5 14 9 15
REMARK SMILES IDX 6 16 7 17 8 18 16 20 17 21 18 22 19 23 20 25 21 26 22 27
REMARK SMILES IDX 83 28 23 29 82 30 24 31 25 32 26 33 76 34 27 35 81 36 75 37
REMARK SMILES IDX 77 38 28 39 80 40 74 41 73 42 29 44 61 45 41 46 60 47 42 48
REMARK SMILES IDX 45 49 59 50 78 51 43 52 44 53 58 55 79 56 46 57 30 58 31 59
REMARK SMILES IDX 39 60 32 61 33 62 37 63 40 64 34 65 35 66 38 67 36 68 62 69
REMARK SMILES IDX 63 70 71 71 64 72 65 73 69 74 72 75 66 76 67 77 70 78 68 79
REMARK SMILES IDX 47 80 48 81 56 82 49 83 50 84 54 85 57 86 51 87 52 88 55 89
REMARK SMILES IDX 53 90
REMARK H PARENT 14 5 3 11 3 12 7 19 18 24 77 43 45 54
REMARK Flexibility Score: inf
ROOT
ATOM      1  C   UNL A   1      31.584  30.832  26.141  1.00  0.00     0.117 C 
ENDROOT
BRANCH   1   2
ATOM      2  N   UNL A   1      32.932  30.359  26.394  1.00  0.00    -0.356 N 
ATOM      3  C   UNL A   1      33.553  29.189  26.101  1.00  0.00     0.228 C 
ATOM      4  O   UNL A   1      34.706  29.049  26.522  1.00  0.00    -0.275 OA
ATOM      5  H   UNL A   1      33.502  31.008  26.866  1.00  0.00     0.163 HD
BRANCH   3   6
ATOM      6  C   UNL A   1      32.893  28.087  25.280  1.00  0.00     0.133 C 
ATOM      7  C   UNL A   1      33.438  26.723  25.729  1.00  0.00     0.024 C 
BRANCH   6   8
ATOM      8  C   UNL A   1      32.932  28.350  23.751  1.00  0.00     0.191 C 
ATOM      9  C   UNL A   1      34.241  28.953  23.216  1.00  0.00     0.076 C 
BRANCH   8  10
ATOM     10  N   UNL A   1      31.753  29.029  23.204  1.00  0.00    -0.336 N 
ATOM     11  H   UNL A   1      32.106  29.702  22.523  1.00  0.00     0.346 HD
ATOM     12  H   UNL A   1      31.295  29.364  24.052  1.00  0.00     0.346 HD
BRANCH  10  13
ATOM     13  C   UNL A   1      30.655  28.306  22.534  1.00  0.00     0.244 C 
ATOM     14  C   UNL A   1      29.241  28.203  23.126  1.00  0.00     0.132 C 
ATOM     15  C   UNL A   1      31.014  26.808  22.352  1.00  0.00     0.327 C 
ATOM     16  C   UNL A   1      29.096  26.784  23.672  1.00  0.00     0.268 C 
ATOM     17  N   UNL A   1      30.426  26.195  23.544  1.00  0.00    -0.332 N 
ATOM     18  C   UNL A   1      30.403  24.745  23.501  1.00  0.00     0.332 C 
ATOM     19  H   UNL A   1      30.998  26.389  24.366  1.00  0.00     0.348 HD
ENDBRANCH  10  13
ENDBRANCH   8  10
ENDBRANCH   6   8
ENDBRANCH   3   6
ENDBRANCH   1   2
BRANCH   1  20
ATOM     20  C   UNL A   1      31.403  32.282  26.567  1.00  0.00     0.042 C 
BRANCH  20  21
ATOM     21  C   UNL A   1      32.629  32.874  27.251  1.00  0.00     0.118 C 
BRANCH  21  22
ATOM     22  N   UNL A   1      32.428  34.259  27.655  1.00  0.00    -0.352 N 
ATOM     23  C   UNL A   1      32.990  34.974  28.682  1.00  0.00     0.251 C 
ATOM     24  H   UNL A   1      31.786  34.762  27.104  1.00  0.00     0.163 HD
ATOM     25  O   UNL A   1      32.528  36.067  28.992  1.00  0.00    -0.269 OA
BRANCH  23  26
ATOM     26  C   UNL A   1      34.144  34.427  29.425  1.00  0.00     0.039 A 
ATOM     27  C   UNL A   1      33.920  33.792  30.651  1.00  0.00     0.014 A 
ATOM     28  C   UNL A   1      35.444  34.557  28.932  1.00  0.00     0.014 A 
ATOM     29  C   UNL A   1      34.993  33.232  31.347  1.00  0.00     0.010 A 
ATOM     30  C   UNL A   1      36.498  33.924  29.579  1.00  0.00     0.010 A 
ATOM     31  C   UNL A   1      36.285  33.263  30.797  1.00  0.00    -0.014 A 
BRANCH  31  32
ATOM     32  C   UNL A   1      37.432  32.620  31.486  1.00  0.00     0.031 A 
ATOM     33  C   UNL A   1      38.148  31.468  30.838  1.00  0.00     0.074 A 
ATOM     34  C   UNL A   1      37.778  33.025  32.723  1.00  0.00     0.049 A 
ATOM     35  N   UNL A   1      39.111  30.718  31.311  1.00  0.00    -0.248 NA
ATOM     36  C   UNL A   1      37.701  31.087  29.488  1.00  0.00     0.031 C 
ATOM     37  C   UNL A   1      37.125  34.097  33.475  1.00  0.00     0.029 A 
ATOM     38  N   UNL A   1      38.758  32.572  33.571  1.00  0.00    -0.354 N 
ATOM     39  C   UNL A   1      39.369  29.770  30.330  1.00  0.00     0.074 A 
ATOM     40  C   UNL A   1      38.425  30.002  29.258  1.00  0.00     0.031 C 
ATOM     41  C   UNL A   1      37.736  34.236  34.663  1.00  0.00     0.029 A 
ATOM     42  C   UNL A   1      38.796  33.238  34.771  1.00  0.00     0.049 A 
ATOM     43  H   UNL A   1      39.374  31.840  33.340  1.00  0.00     0.167 HD
ATOM     44  C   UNL A   1      40.322  28.810  30.313  1.00  0.00     0.037 A 
ATOM     45  C   UNL A   1      39.592  33.056  35.841  1.00  0.00     0.037 A 
ATOM     46  C   UNL A   1      41.278  28.603  31.368  1.00  0.00     0.049 A 
ATOM     47  C   UNL A   1      40.646  31.983  35.796  1.00  0.00     0.074 A 
ATOM     48  C   UNL A   1      42.325  27.700  31.421  1.00  0.00     0.029 A 
ATOM     49  N   UNL A   1      41.302  29.314  32.560  1.00  0.00    -0.354 N 
ATOM     50  N   UNL A   1      40.925  31.138  34.834  1.00  0.00    -0.248 NA
ATOM     51  C   UNL A   1      41.500  31.844  36.985  1.00  0.00     0.031 C 
ATOM     52  C   UNL A   1      42.956  27.834  32.663  1.00  0.00     0.029 A 
ATOM     53  C   UNL A   1      42.333  28.856  33.363  1.00  0.00     0.049 A 
ATOM     54  H   UNL A   1      40.679  30.038  32.799  1.00  0.00     0.167 HD
ATOM     55  C   UNL A   1      42.001  30.387  35.287  1.00  0.00     0.074 A 
ATOM     56  C   UNL A   1      42.335  30.888  36.605  1.00  0.00     0.031 C 
ATOM     57  C   UNL A   1      42.655  29.373  34.669  1.00  0.00     0.037 A 
BRANCH  44  58
ATOM     58  C   UNL A   1      40.383  27.913  29.110  1.00  0.00     0.064 A 
ATOM     59  C   UNL A   1      39.652  26.718  29.045  1.00  0.00     0.173 A 
ATOM     60  C   UNL A   1      41.159  28.267  27.996  1.00  0.00     0.173 A 
ATOM     61  F   UNL A   1      38.903  26.326  30.088  1.00  0.00    -0.203 F 
ATOM     62  C   UNL A   1      39.718  25.895  27.924  1.00  0.00     0.198 A 
ATOM     63  C   UNL A   1      41.199  27.457  26.863  1.00  0.00     0.198 A 
ATOM     64  F   UNL A   1      41.875  29.401  28.002  1.00  0.00    -0.203 F 
ATOM     65  F   UNL A   1      39.052  24.732  27.907  1.00  0.00    -0.200 F 
ATOM     66  C   UNL A   1      40.486  26.269  26.831  1.00  0.00     0.200 A 
ATOM     67  F   UNL A   1      41.931  27.827  25.802  1.00  0.00    -0.200 F 
ATOM     68  F   UNL A   1      40.544  25.479  25.750  1.00  0.00    -0.200 F 
ENDBRANCH  44  58
BRANCH  45  69
ATOM     69  C   UNL A   1      39.442  33.929  37.035  1.00  0.00     0.064 A 
ATOM     70  C   UNL A   1      38.692  33.508  38.142  1.00  0.00     0.173 A 
ATOM     71  C   UNL A   1      40.039  35.196  37.095  1.00  0.00     0.173 A 
ATOM     72  F   UNL A   1      38.086  32.312  38.124  1.00  0.00    -0.203 F 
ATOM     73  C   UNL A   1      38.528  34.330  39.255  1.00  0.00     0.198 A 
ATOM     74  C   UNL A   1      39.898  36.006  38.220  1.00  0.00     0.198 A 
ATOM     75  F   UNL A   1      40.771  35.643  36.063  1.00  0.00    -0.203 F 
ATOM     76  F   UNL A   1      37.769  33.922  40.281  1.00  0.00    -0.200 F 
ATOM     77  C   UNL A   1      39.135  35.576  39.296  1.00  0.00     0.200 A 
ATOM     78  F   UNL A   1      40.499  37.203  38.261  1.00  0.00    -0.200 F 
ATOM     79  F   UNL A   1      38.981  36.364  40.368  1.00  0.00    -0.200 F 
ENDBRANCH  45  69
BRANCH  57  80
ATOM     80  C   UNL A   1      43.818  28.762  35.393  1.00  0.00     0.064 A 
ATOM     81  C   UNL A   1      45.125  29.242  35.223  1.00  0.00     0.173 A 
ATOM     82  C   UNL A   1      43.616  27.709  36.298  1.00  0.00     0.173 A 
ATOM     83  F   UNL A   1      45.372  30.237  34.357  1.00  0.00    -0.203 F 
ATOM     84  C   UNL A   1      46.192  28.672  35.915  1.00  0.00     0.198 A 
ATOM     85  C   UNL A   1      44.680  27.162  37.010  1.00  0.00     0.198 A 
ATOM     86  F   UNL A   1      42.384  27.218  36.501  1.00  0.00    -0.203 F 
ATOM     87  F   UNL A   1      47.438  29.115  35.702  1.00  0.00    -0.200 F 
ATOM     88  C   UNL A   1      45.967  27.639  36.812  1.00  0.00     0.200 A 
ATOM     89  F   UNL A   1      44.459  26.173  37.887  1.00  0.00    -0.200 F 
ATOM     90  F   UNL A   1      46.993  27.097  37.483  1.00  0.00    -0.200 F 
ENDBRANCH  57  80
ENDBRANCH  31  32
ENDBRANCH  23  26
ENDBRANCH  21  22
ENDBRANCH  20  21
ENDBRANCH   1  20
TORSDOF 13
ENDMDL
MODEL 2
REMARK VINA RESULT:     -11.2      1.337      2.300
REMARK SMILES C[C@H]([NH2+][C@@H]1CC[N@@H+](C)C1)[C@@H](C)C(=O)NCCCNC(=O)c1ccc(-c2c3nc(c(-c4c(F)c(F)c(F)c(F)c4F)c4ccc([nH]4)c(-c4c(F)c(F)c(F)c(F)c4F)c4nc(c(-c5c(F)c(F)c(F)c(F)c5F)c5ccc2[nH]5)C=C4)C=C3)cc1
REMARK SMILES IDX 15 1 14 2 12 3 13 4 10 6 11 7 2 8 1 9 3 10 4 13 5 14 9 15
REMARK SMILES IDX 6 16 7 17 8 18 16 20 17 21 18 22 19 23 20 25 21 26 22 27
REMARK SMILES IDX 83 28 23 29 82 30 24 31 25 32 26 33 76 34 27 35 81 36 75 37
REMARK SMILES IDX 77 38 28 39 80 40 74 41 73 42 29 44 61 45 41 46 60 47 42 48
REMARK SMILES IDX 45 49 59 50 78 51 43 52 44 53 58 55 79 56 46 57 30 58 31 59
REMARK SMILES IDX 39 60 32 61 33 62 37 63 40 64 34 65 35 66 38 67 36 68 62 69
REMARK SMILES IDX 63 70 71 71 64 72 65 73 69 74 72 75 66 76 67 77 70 78 68 79
REMARK SMILES IDX 47 80 48 81 56 82 49 83 50 84 54 85 57 86 51 87 52 88 55 89
REMARK SMILES IDX 53 90
REMARK H PARENT 14 5 3 11 3 12 7 19 18 24 77 43 45 54
REMARK Flexibility Score: inf
ROOT
ATOM      1  C   UNL A   1      31.506  30.853  26.096  1.00  0.00     0.117 C 
ENDROOT
BRANCH   1   2
ATOM      2  N   UNL A   1      32.690  30.246  26.676  1.00  0.00    -0.356 N 
ATOM      3  C   UNL A   1      33.190  28.987  26.606  1.00  0.00     0.228 C 
ATOM      4  O   UNL A   1      34.195  28.748  27.283  1.00  0.00    -0.275 OA
ATOM      5  H   UNL A   1      33.231  30.863  27.220  1.00  0.00     0.163 HD
BRANCH   3   6
ATOM      6  C   UNL A   1      32.574  27.901  25.731  1.00  0.00     0.133 C 
ATOM      7  C   UNL A   1      31.553  27.102  26.555  1.00  0.00     0.024 C 
BRANCH   6   8
ATOM      8  C   UNL A   1      33.625  27.052  24.969  1.00  0.00     0.191 C 
ATOM      9  C   UNL A   1      33.219  26.609  23.553  1.00  0.00     0.076 C 
BRANCH   8  10
ATOM     10  N   UNL A   1      34.217  25.952  25.737  1.00  0.00    -0.336 N 
ATOM     11  H   UNL A   1      33.781  25.985  26.659  1.00  0.00     0.346 HD
ATOM     12  H   UNL A   1      35.214  26.146  25.643  1.00  0.00     0.346 HD
BRANCH  10  13
ATOM     13  C   UNL A   1      34.143  24.544  25.300  1.00  0.00     0.244 C 
ATOM     14  C   UNL A   1      33.764  23.396  26.247  1.00  0.00     0.132 C 
ATOM     15  C   UNL A   1      35.519  24.059  24.775  1.00  0.00     0.327 C 
ATOM     16  C   UNL A   1      35.056  22.646  26.567  1.00  0.00     0.268 C 
ATOM     17  N   UNL A   1      36.115  23.451  25.966  1.00  0.00    -0.332 N 
ATOM     18  C   UNL A   1      37.320  22.690  25.690  1.00  0.00     0.332 C 
ATOM     19  H   UNL A   1      36.445  24.171  26.609  1.00  0.00     0.348 HD
ENDBRANCH  10  13
ENDBRANCH   8  10
ENDBRANCH   6   8
ENDBRANCH   3   6
ENDBRANCH   1   2
BRANCH   1  20
ATOM     20  C   UNL A   1      31.341  32.302  26.533  1.00  0.00     0.042 C 
BRANCH  20  21
ATOM     21  C   UNL A   1      32.553  32.858  27.272  1.00  0.00     0.118 C 
BRANCH  21  22
ATOM     22  N   UNL A   1      32.387  34.257  27.640  1.00  0.00    -0.352 N 
ATOM     23  C   UNL A   1      32.993  34.993  28.627  1.00  0.00     0.251 C 
ATOM     24  H   UNL A   1      31.737  34.755  27.094  1.00  0.00     0.163 HD
ATOM     25  O   UNL A   1      32.560  36.102  28.917  1.00  0.00    -0.269 OA
BRANCH  23  26
ATOM     26  C   UNL A   1      34.161  34.447  29.351  1.00  0.00     0.039 A 
ATOM     27  C   UNL A   1      33.957  33.804  30.575  1.00  0.00     0.014 A 
ATOM     28  C   UNL A   1      35.453  34.588  28.840  1.00  0.00     0.014 A 
ATOM     29  C   UNL A   1      35.042  33.246  31.253  1.00  0.00     0.010 A 
ATOM     30  C   UNL A   1      36.519  33.956  29.469  1.00  0.00     0.010 A 
ATOM     31  C   UNL A   1      36.327  33.287  30.686  1.00  0.00    -0.014 A 
BRANCH  31  32
ATOM     32  C   UNL A   1      37.486  32.646  31.355  1.00  0.00     0.031 A 
ATOM     33  C   UNL A   1      38.202  31.504  30.688  1.00  0.00     0.074 A 
ATOM     34  C   UNL A   1      37.845  33.043  32.591  1.00  0.00     0.049 A 
ATOM     35  N   UNL A   1      39.176  30.757  31.142  1.00  0.00    -0.248 NA
ATOM     36  C   UNL A   1      37.741  31.132  29.340  1.00  0.00     0.031 C 
ATOM     37  C   UNL A   1      37.194  34.104  33.360  1.00  0.00     0.029 A 
ATOM     38  N   UNL A   1      38.838  32.590  33.422  1.00  0.00    -0.354 N 
ATOM     39  C   UNL A   1      39.428  29.819  30.150  1.00  0.00     0.074 A 
ATOM     40  C   UNL A   1      38.470  30.055  29.092  1.00  0.00     0.031 C 
ATOM     41  C   UNL A   1      37.819  34.237  34.542  1.00  0.00     0.029 A 
ATOM     42  C   UNL A   1      38.886  33.245  34.628  1.00  0.00     0.049 A 
ATOM     43  H   UNL A   1      39.457  31.864  33.178  1.00  0.00     0.167 HD
ATOM     44  C   UNL A   1      40.388  28.866  30.113  1.00  0.00     0.037 A 
ATOM     45  C   UNL A   1      39.697  33.060  35.687  1.00  0.00     0.037 A 
ATOM     46  C   UNL A   1      41.358  28.657  31.154  1.00  0.00     0.049 A 
ATOM     47  C   UNL A   1      40.758  31.995  35.619  1.00  0.00     0.074 A 
ATOM     48  C   UNL A   1      42.412  27.761  31.186  1.00  0.00     0.029 A 
ATOM     49  N   UNL A   1      41.392  29.358  32.352  1.00  0.00    -0.354 N 
ATOM     50  N   UNL A   1      41.031  31.160  34.647  1.00  0.00    -0.248 NA
ATOM     51  C   UNL A   1      41.627  31.852  36.796  1.00  0.00     0.031 C 
ATOM     52  C   UNL A   1      43.058  27.889  32.421  1.00  0.00     0.029 A 
ATOM     53  C   UNL A   1      42.436  28.900  33.138  1.00  0.00     0.049 A 
ATOM     54  H   UNL A   1      40.767  30.075  32.605  1.00  0.00     0.167 HD
ATOM     55  C   UNL A   1      42.118  30.412  35.080  1.00  0.00     0.074 A 
ATOM     56  C   UNL A   1      42.464  30.904  36.398  1.00  0.00     0.031 C 
ATOM     57  C   UNL A   1      42.771  29.409  34.444  1.00  0.00     0.037 A 
BRANCH  44  58
ATOM     58  C   UNL A   1      40.440  27.980  28.902  1.00  0.00     0.064 A 
ATOM     59  C   UNL A   1      41.207  28.316  27.776  1.00  0.00     0.173 A 
ATOM     60  C   UNL A   1      39.739  26.766  28.877  1.00  0.00     0.173 A 
ATOM     61  F   UNL A   1      41.888  29.472  27.743  1.00  0.00    -0.203 F 
ATOM     62  C   UNL A   1      41.247  27.486  26.659  1.00  0.00     0.198 A 
ATOM     63  C   UNL A   1      39.805  25.921  27.771  1.00  0.00     0.198 A 
ATOM     64  F   UNL A   1      38.994  26.392  29.928  1.00  0.00    -0.203 F 
ATOM     65  F   UNL A   1      41.944  27.854  25.576  1.00  0.00    -0.200 F 
ATOM     66  C   UNL A   1      40.551  26.286  26.660  1.00  0.00     0.200 A 
ATOM     67  F   UNL A   1      39.143  24.756  27.778  1.00  0.00    -0.200 F 
ATOM     68  F   UNL A   1      40.595  25.485  25.587  1.00  0.00    -0.200 F 
ENDBRANCH  44  58
BRANCH  45  69
ATOM     69  C   UNL A   1      39.556  33.922  36.890  1.00  0.00     0.064 A 
ATOM     70  C   UNL A   1      38.795  33.500  37.989  1.00  0.00     0.173 A 
ATOM     71  C   UNL A   1      40.173  35.178  36.966  1.00  0.00     0.173 A 
ATOM     72  F   UNL A   1      38.170  32.314  37.954  1.00  0.00    -0.203 F 
ATOM     73  C   UNL A   1      38.639  34.312  39.110  1.00  0.00     0.198 A 
ATOM     74  C   UNL A   1      40.040  35.977  38.100  1.00  0.00     0.198 A 
ATOM     75  F   UNL A   1      40.917  35.625  35.943  1.00  0.00    -0.203 F 
ATOM     76  F   UNL A   1      37.870  33.904  40.129  1.00  0.00    -0.200 F 
ATOM     77  C   UNL A   1      39.266  35.548  39.168  1.00  0.00     0.200 A 
ATOM     78  F   UNL A   1      40.660  37.164  38.157  1.00  0.00    -0.200 F 
ATOM     79  F   UNL A   1      39.120  36.325  40.248  1.00  0.00    -0.200 F 
ENDBRANCH  45  69
BRANCH  57  80
ATOM     80  C   UNL A   1      43.947  28.800  35.149  1.00  0.00     0.064 A 
ATOM     81  C   UNL A   1      45.253  29.268  34.941  1.00  0.00     0.173 A 
ATOM     82  C   UNL A   1      43.760  27.760  36.073  1.00  0.00     0.173 A 
ATOM     83  F   UNL A   1      45.485  30.249  34.056  1.00  0.00    -0.203 F 
ATOM     84  C   UNL A   1      46.332  28.701  35.614  1.00  0.00     0.198 A 
ATOM     85  C   UNL A   1      44.837  27.216  36.766  1.00  0.00     0.198 A 
ATOM     86  F   UNL A   1      42.530  27.281  36.312  1.00  0.00    -0.203 F 
ATOM     87  F   UNL A   1      47.575  29.132  35.366  1.00  0.00    -0.200 F 
ATOM     88  C   UNL A   1      46.122  27.681  36.531  1.00  0.00     0.200 A 
ATOM     89  F   UNL A   1      44.631  26.240  37.662  1.00  0.00    -0.200 F 
ATOM     90  F   UNL A   1      47.160  27.142  37.184  1.00  0.00    -0.200 F 
ENDBRANCH  57  80
ENDBRANCH  31  32
ENDBRANCH  23  26
ENDBRANCH  21  22
ENDBRANCH  20  21
ENDBRANCH   1  20
TORSDOF 13
ENDMDL
MODEL 3
REMARK VINA RESULT:     -11.2      1.003      2.145
REMARK SMILES C[C@H]([NH2+][C@@H]1CC[N@@H+](C)C1)[C@@H](C)C(=O)NCCCNC(=O)c1ccc(-c2c3nc(c(-c4c(F)c(F)c(F)c(F)c4F)c4ccc([nH]4)c(-c4c(F)c(F)c(F)c(F)c4F)c4nc(c(-c5c(F)c(F)c(F)c(F)c5F)c5ccc2[nH]5)C=C4)C=C3)cc1
REMARK SMILES IDX 15 1 14 2 12 3 13 4 10 6 11 7 2 8 1 9 3 10 4 13 5 14 9 15
REMARK SMILES IDX 6 16 7 17 8 18 16 20 17 21 18 22 19 23 20 25 21 26 22 27
REMARK SMILES IDX 83 28 23 29 82 30 24 31 25 32 26 33 76 34 27 35 81 36 75 37
REMARK SMILES IDX 77 38 28 39 80 40 74 41 73 42 29 44 61 45 41 46 60 47 42 48
REMARK SMILES IDX 45 49 59 50 78 51 43 52 44 53 58 55 79 56 46 57 30 58 31 59
REMARK SMILES IDX 39 60 32 61 33 62 37 63 40 64 34 65 35 66 38 67 36 68 62 69
REMARK SMILES IDX 63 70 71 71 64 72 65 73 69 74 72 75 66 76 67 77 70 78 68 79
REMARK SMILES IDX 47 80 48 81 56 82 49 83 50 84 54 85 57 86 51 87 52 88 55 89
REMARK SMILES IDX 53 90
REMARK H PARENT 14 5 3 11 3 12 7 19 18 24 77 43 45 54
REMARK Flexibility Score: inf
ROOT
ATOM      1  C   UNL A   1      31.518  30.673  26.337  1.00  0.00     0.117 C 
ENDROOT
BRANCH   1   2
ATOM      2  N   UNL A   1      31.050  30.255  25.028  1.00  0.00    -0.356 N 
ATOM      3  C   UNL A   1      31.569  29.403  24.108  1.00  0.00     0.228 C 
ATOM      4  O   UNL A   1      30.966  29.309  23.034  1.00  0.00    -0.275 OA
ATOM      5  H   UNL A   1      30.197  30.666  24.758  1.00  0.00     0.163 HD
BRANCH   3   6
ATOM      6  C   UNL A   1      32.823  28.576  24.364  1.00  0.00     0.133 C 
ATOM      7  C   UNL A   1      33.764  28.693  23.156  1.00  0.00     0.024 C 
BRANCH   6   8
ATOM      8  C   UNL A   1      32.523  27.130  24.837  1.00  0.00     0.191 C 
ATOM      9  C   UNL A   1      33.732  26.343  25.372  1.00  0.00     0.076 C 
BRANCH   8  10
ATOM     10  N   UNL A   1      31.712  26.326  23.916  1.00  0.00    -0.336 N 
ATOM     11  H   UNL A   1      32.362  25.698  23.443  1.00  0.00     0.346 HD
ATOM     12  H   UNL A   1      31.230  27.049  23.382  1.00  0.00     0.346 HD
BRANCH  10  13
ATOM     13  C   UNL A   1      30.588  25.486  24.369  1.00  0.00     0.244 C 
ATOM     14  C   UNL A   1      30.130  25.425  25.835  1.00  0.00     0.132 C 
ATOM     15  C   UNL A   1      30.869  23.988  24.081  1.00  0.00     0.327 C 
ATOM     16  C   UNL A   1      30.622  24.091  26.394  1.00  0.00     0.268 C 
ATOM     17  N   UNL A   1      31.460  23.529  25.339  1.00  0.00    -0.332 N 
ATOM     18  C   UNL A   1      31.593  22.086  25.427  1.00  0.00     0.332 C 
ATOM     19  H   UNL A   1      32.425  23.851  25.420  1.00  0.00     0.348 HD
ENDBRANCH  10  13
ENDBRANCH   8  10
ENDBRANCH   6   8
ENDBRANCH   3   6
ENDBRANCH   1   2
BRANCH   1  20
ATOM     20  C   UNL A   1      31.437  32.183  26.511  1.00  0.00     0.042 C 
BRANCH  20  21
ATOM     21  C   UNL A   1      32.653  32.783  27.205  1.00  0.00     0.118 C 
BRANCH  21  22
ATOM     22  N   UNL A   1      32.445  34.171  27.595  1.00  0.00    -0.352 N 
ATOM     23  C   UNL A   1      33.013  34.904  28.606  1.00  0.00     0.251 C 
ATOM     24  H   UNL A   1      31.792  34.662  27.046  1.00  0.00     0.163 HD
ATOM     25  O   UNL A   1      32.545  35.996  28.908  1.00  0.00    -0.269 OA
BRANCH  23  26
ATOM     26  C   UNL A   1      34.181  34.375  29.342  1.00  0.00     0.039 A 
ATOM     27  C   UNL A   1      33.971  33.694  30.544  1.00  0.00     0.014 A 
ATOM     28  C   UNL A   1      35.479  34.569  28.864  1.00  0.00     0.014 A 
ATOM     29  C   UNL A   1      35.059  33.152  31.232  1.00  0.00     0.010 A 
ATOM     30  C   UNL A   1      36.550  33.955  29.500  1.00  0.00     0.010 A 
ATOM     31  C   UNL A   1      36.353  33.247  30.695  1.00  0.00    -0.014 A 
BRANCH  31  32
ATOM     32  C   UNL A   1      37.518  32.626  31.373  1.00  0.00     0.031 A 
ATOM     33  C   UNL A   1      38.251  31.490  30.716  1.00  0.00     0.074 A 
ATOM     34  C   UNL A   1      37.865  33.034  32.608  1.00  0.00     0.049 A 
ATOM     35  N   UNL A   1      39.233  30.758  31.180  1.00  0.00    -0.248 NA
ATOM     36  C   UNL A   1      37.801  31.103  29.368  1.00  0.00     0.031 C 
ATOM     37  C   UNL A   1      37.197  34.091  33.369  1.00  0.00     0.029 A 
ATOM     38  N   UNL A   1      38.860  32.598  33.447  1.00  0.00    -0.354 N 
ATOM     39  C   UNL A   1      39.501  29.817  30.194  1.00  0.00     0.074 A 
ATOM     40  C   UNL A   1      38.545  30.034  29.129  1.00  0.00     0.031 C 
ATOM     41  C   UNL A   1      37.814  34.238  34.553  1.00  0.00     0.029 A 
ATOM     42  C   UNL A   1      38.894  33.261  34.650  1.00  0.00     0.049 A 
ATOM     43  H   UNL A   1      39.489  31.879  33.210  1.00  0.00     0.167 HD
ATOM     44  C   UNL A   1      40.474  28.877  30.166  1.00  0.00     0.037 A 
ATOM     45  C   UNL A   1      39.702  33.092  35.713  1.00  0.00     0.037 A 
ATOM     46  C   UNL A   1      41.441  28.686  31.214  1.00  0.00     0.049 A 
ATOM     47  C   UNL A   1      40.776  32.041  35.657  1.00  0.00     0.074 A 
ATOM     48  C   UNL A   1      42.506  27.803  31.256  1.00  0.00     0.029 A 
ATOM     49  N   UNL A   1      41.460  29.394  32.407  1.00  0.00    -0.354 N 
ATOM     50  N   UNL A   1      41.065  31.203  34.690  1.00  0.00    -0.248 NA
ATOM     51  C   UNL A   1      41.641  31.915  36.839  1.00  0.00     0.031 C 
ATOM     52  C   UNL A   1      43.144  27.947  32.493  1.00  0.00     0.029 A 
ATOM     53  C   UNL A   1      42.506  28.954  33.201  1.00  0.00     0.049 A 
ATOM     54  H   UNL A   1      40.824  30.104  32.654  1.00  0.00     0.167 HD
ATOM     55  C   UNL A   1      42.159  30.472  35.133  1.00  0.00     0.074 A 
ATOM     56  C   UNL A   1      42.492  30.976  36.450  1.00  0.00     0.031 C 
ATOM     57  C   UNL A   1      42.828  29.474  34.507  1.00  0.00     0.037 A 
BRANCH  44  58
ATOM     58  C   UNL A   1      40.543  27.985  28.961  1.00  0.00     0.064 A 
ATOM     59  C   UNL A   1      39.805  26.794  28.882  1.00  0.00     0.173 A 
ATOM     60  C   UNL A   1      41.334  28.338  27.857  1.00  0.00     0.173 A 
ATOM     61  F   UNL A   1      39.042  26.403  29.914  1.00  0.00    -0.203 F 
ATOM     62  C   UNL A   1      39.879  25.976  27.758  1.00  0.00     0.198 A 
ATOM     63  C   UNL A   1      41.382  27.534  26.721  1.00  0.00     0.198 A 
ATOM     64  F   UNL A   1      42.056  29.469  27.876  1.00  0.00    -0.203 F 
ATOM     65  F   UNL A   1      39.206  24.818  27.729  1.00  0.00    -0.200 F 
ATOM     66  C   UNL A   1      40.662  26.349  26.676  1.00  0.00     0.200 A 
ATOM     67  F   UNL A   1      42.129  27.903  25.671  1.00  0.00    -0.200 F 
ATOM     68  F   UNL A   1      40.728  25.564  25.592  1.00  0.00    -0.200 F 
ENDBRANCH  44  58
BRANCH  45  69
ATOM     69  C   UNL A   1      39.543  33.958  36.911  1.00  0.00     0.064 A 
ATOM     70  C   UNL A   1      40.166  35.213  36.975  1.00  0.00     0.173 A 
ATOM     71  C   UNL A   1      38.773  33.554  38.010  1.00  0.00     0.173 A 
ATOM     72  F   UNL A   1      40.929  35.635  35.957  1.00  0.00    -0.203 F 
ATOM     73  C   UNL A   1      40.041  36.021  38.104  1.00  0.00     0.198 A 
ATOM     74  C   UNL A   1      38.626  34.376  39.126  1.00  0.00     0.198 A 
ATOM     75  F   UNL A   1      38.152  32.365  37.995  1.00  0.00    -0.203 F 
ATOM     76  F   UNL A   1      40.684  37.196  38.158  1.00  0.00    -0.200 F 
ATOM     77  C   UNL A   1      39.267  35.604  39.176  1.00  0.00     0.200 A 
ATOM     78  F   UNL A   1      37.864  33.976  40.154  1.00  0.00    -0.200 F 
ATOM     79  F   UNL A   1      39.143  36.383  40.258  1.00  0.00    -0.200 F 
ENDBRANCH  45  69
BRANCH  57  80
ATOM     80  C   UNL A   1      44.008  28.884  35.220  1.00  0.00     0.064 A 
ATOM     81  C   UNL A   1      43.867  27.821  36.123  1.00  0.00     0.173 A 
ATOM     82  C   UNL A   1      45.303  29.363  34.966  1.00  0.00     0.173 A 
ATOM     83  F   UNL A   1      42.648  27.338  36.412  1.00  0.00    -0.203 F 
ATOM     84  C   UNL A   1      44.975  27.275  36.766  1.00  0.00     0.198 A 
ATOM     85  C   UNL A   1      46.412  28.796  35.586  1.00  0.00     0.198 A 
ATOM     86  F   UNL A   1      45.492  30.375  34.105  1.00  0.00    -0.203 F 
ATOM     87  F   UNL A   1      44.812  26.292  37.660  1.00  0.00    -0.200 F 
ATOM     88  C   UNL A   1      46.246  27.757  36.491  1.00  0.00     0.200 A 
ATOM     89  F   UNL A   1      47.641  29.254  35.309  1.00  0.00    -0.200 F 
ATOM     90  F   UNL A   1      47.313  27.226  37.104  1.00  0.00    -0.200 F 
ENDBRANCH  57  80
ENDBRANCH  31  32
ENDBRANCH  23  26
ENDBRANCH  21  22
ENDBRANCH  20  21
ENDBRANCH   1  20
TORSDOF 13
ENDMDL
