MODEL 1
REMARK VINA RESULT:     -13.7      0.000      0.000
REMARK SMILES C[C@H]1[C@@H](C(=O)NCCCNC(=O)c2ccc(-c3c4nc(c(-c5c(F)c(F)c(F)c(F)c5F)c5ccc([nH]5)c(-c5c(F)c(F)c(F)c(F)c5F)c5nc(c(-c6c(F)c(F)c(F)c(F)c6F)c6ccc3[nH]6)C=C5)C=C4)cc2)CCN1C(=O)c1cc2cc(F)ccc2s1
REMARK SMILES IDX 8 1 7 2 6 3 4 4 5 5 3 7 1 8 2 9 78 10 76 11 77 12 79 13
REMARK SMILES IDX 80 14 81 15 82 16 90 17 83 18 89 19 84 20 88 21 85 22 87 23
REMARK SMILES IDX 86 24 9 25 10 26 11 27 12 29 13 30 14 31 75 32 15 33 74 34
REMARK SMILES IDX 16 35 17 36 18 37 68 38 19 39 73 40 67 41 69 42 20 43 72 44
REMARK SMILES IDX 66 45 65 46 21 48 53 49 33 50 52 51 34 52 37 53 51 54 70 55
REMARK SMILES IDX 35 56 36 57 50 59 71 60 38 61 22 62 23 63 31 64 24 65 25 66
REMARK SMILES IDX 29 67 32 68 26 69 27 70 30 71 28 72 54 73 55 74 63 75 56 76
REMARK SMILES IDX 57 77 61 78 64 79 58 80 59 81 62 82 60 83 39 84 40 85 48 86
REMARK SMILES IDX 41 87 42 88 46 89 49 90 43 91 44 92 47 93 45 94
REMARK H PARENT 6 6 10 28 69 47 37 58
REMARK Flexibility Score: inf
ROOT
ATOM      1  C   UNL A   1      31.420  32.308  26.504  1.00  0.00     0.042 C 
ENDROOT
BRANCH   1   2
ATOM      2  C   UNL A   1      31.547  30.838  26.105  1.00  0.00     0.117 C 
BRANCH   2   3
ATOM      3  N   UNL A   1      30.802  30.567  24.889  1.00  0.00    -0.356 N 
ATOM      4  C   UNL A   1      30.797  29.496  24.050  1.00  0.00     0.225 C 
ATOM      5  O   UNL A   1      30.124  29.607  23.024  1.00  0.00    -0.275 OA
ATOM      6  H   UNL A   1      30.188  31.291  24.622  1.00  0.00     0.163 HD
BRANCH   4   7
ATOM      7  C   UNL A   1      31.534  28.210  24.417  1.00  0.00     0.102 C 
ATOM      8  C   UNL A   1      33.597  28.863  22.961  1.00  0.00     0.032 C 
ATOM      9  C   UNL A   1      32.693  27.773  23.499  1.00  0.00     0.094 C 
ATOM     10  N   UNL A   1      32.095  26.934  22.455  1.00  0.00    -0.334 N 
ATOM     11  C   UNL A   1      30.582  27.012  24.269  1.00  0.00     0.037 C 
ATOM     12  C   UNL A   1      30.706  26.656  22.793  1.00  0.00     0.121 C 
BRANCH  10  13
ATOM     13  C   UNL A   1      32.857  25.872  21.965  1.00  0.00     0.264 C 
ATOM     14  O   UNL A   1      33.359  25.934  20.842  1.00  0.00    -0.268 OA
BRANCH  13  15
ATOM     15  C   UNL A   1      32.999  24.699  22.809  1.00  0.00     0.093 A 
ATOM     16  C   UNL A   1      32.266  23.535  22.708  1.00  0.00     0.034 A 
ATOM     17  S   UNL A   1      34.236  24.551  23.974  1.00  0.00    -0.130 S 
ATOM     18  C   UNL A   1      32.802  22.458  23.484  1.00  0.00    -0.004 A 
ATOM     19  C   UNL A   1      33.924  22.868  24.209  1.00  0.00     0.035 A 
ATOM     20  C   UNL A   1      32.405  21.103  23.564  1.00  0.00     0.048 A 
ATOM     21  C   UNL A   1      34.668  21.960  24.992  1.00  0.00     0.022 A 
ATOM     22  C   UNL A   1      33.158  20.206  24.317  1.00  0.00     0.123 A 
ATOM     23  C   UNL A   1      34.278  20.618  25.020  1.00  0.00     0.041 A 
ATOM     24  F   UNL A   1      32.802  18.914  24.344  1.00  0.00    -0.207 F 
ENDBRANCH  13  15
ENDBRANCH  10  13
ENDBRANCH   4   7
ENDBRANCH   2   3
ENDBRANCH   1   2
BRANCH   1  25
ATOM     25  C   UNL A   1      32.641  32.850  27.243  1.00  0.00     0.118 C 
BRANCH  25  26
ATOM     26  N   UNL A   1      32.472  34.245  27.604  1.00  0.00    -0.352 N 
ATOM     27  C   UNL A   1      33.011  34.964  28.642  1.00  0.00     0.251 C 
ATOM     28  H   UNL A   1      31.876  34.757  27.011  1.00  0.00     0.163 HD
ATOM     29  O   UNL A   1      32.544  36.068  28.905  1.00  0.00    -0.269 OA
BRANCH  27  30
ATOM     30  C   UNL A   1      34.140  34.442  29.455  1.00  0.00     0.039 A 
ATOM     31  C   UNL A   1      35.427  34.490  28.904  1.00  0.00     0.014 A 
ATOM     32  C   UNL A   1      33.948  33.814  30.689  1.00  0.00     0.014 A 
ATOM     33  C   UNL A   1      36.510  33.927  29.589  1.00  0.00     0.010 A 
ATOM     34  C   UNL A   1      35.039  33.313  31.405  1.00  0.00     0.010 A 
ATOM     35  C   UNL A   1      36.327  33.337  30.848  1.00  0.00    -0.014 A 
BRANCH  35  36
ATOM     36  C   UNL A   1      37.458  32.676  31.551  1.00  0.00     0.031 A 
ATOM     37  C   UNL A   1      38.207  31.553  30.884  1.00  0.00     0.074 A 
ATOM     38  C   UNL A   1      37.805  33.061  32.793  1.00  0.00     0.049 A 
ATOM     39  N   UNL A   1      39.189  30.819  31.349  1.00  0.00    -0.248 NA
ATOM     40  C   UNL A   1      37.781  31.190  29.523  1.00  0.00     0.031 C 
ATOM     41  C   UNL A   1      37.143  34.107  33.572  1.00  0.00     0.029 A 
ATOM     42  N   UNL A   1      38.803  32.610  33.620  1.00  0.00    -0.354 N 
ATOM     43  C   UNL A   1      39.472  29.893  30.354  1.00  0.00     0.074 A 
ATOM     44  C   UNL A   1      38.545  30.138  29.270  1.00  0.00     0.031 C 
ATOM     45  C   UNL A   1      37.766  34.231  34.756  1.00  0.00     0.029 A 
ATOM     46  C   UNL A   1      38.857  33.263  34.826  1.00  0.00     0.049 A 
ATOM     47  H   UNL A   1      39.424  31.887  33.372  1.00  0.00     0.167 HD
ATOM     48  C   UNL A   1      40.429  28.935  30.335  1.00  0.00     0.037 A 
ATOM     49  C   UNL A   1      39.694  33.102  35.868  1.00  0.00     0.037 A 
ATOM     50  C   UNL A   1      41.392  28.718  31.380  1.00  0.00     0.049 A 
ATOM     51  C   UNL A   1      40.791  32.078  35.796  1.00  0.00     0.074 A 
ATOM     52  C   UNL A   1      42.431  27.804  31.423  1.00  0.00     0.029 A 
ATOM     53  N   UNL A   1      41.443  29.436  32.564  1.00  0.00    -0.354 N 
ATOM     54  N   UNL A   1      41.068  31.231  34.836  1.00  0.00    -0.248 NA
ATOM     55  C   UNL A   1      41.698  31.996  36.950  1.00  0.00     0.031 C 
ATOM     56  C   UNL A   1      43.104  27.961  32.641  1.00  0.00     0.029 A 
ATOM     57  C   UNL A   1      42.495  28.987  33.344  1.00  0.00     0.049 A 
ATOM     58  H   UNL A   1      40.823  30.159  32.813  1.00  0.00     0.167 HD
ATOM     59  C   UNL A   1      42.183  30.525  35.262  1.00  0.00     0.074 A 
ATOM     60  C   UNL A   1      42.543  31.050  36.562  1.00  0.00     0.031 C 
ATOM     61  C   UNL A   1      42.844  29.524  34.632  1.00  0.00     0.037 A 
BRANCH  48  62
ATOM     62  C   UNL A   1      40.484  28.044  29.132  1.00  0.00     0.064 A 
ATOM     63  C   UNL A   1      39.727  26.866  29.059  1.00  0.00     0.173 A 
ATOM     64  C   UNL A   1      41.282  28.385  28.031  1.00  0.00     0.173 A 
ATOM     65  F   UNL A   1      38.962  26.491  30.095  1.00  0.00    -0.203 F 
ATOM     66  C   UNL A   1      39.786  26.049  27.933  1.00  0.00     0.198 A 
ATOM     67  C   UNL A   1      41.321  27.577  26.898  1.00  0.00     0.198 A 
ATOM     68  F   UNL A   1      42.022  29.505  28.053  1.00  0.00    -0.203 F 
ATOM     69  F   UNL A   1      39.084  24.907  27.900  1.00  0.00    -0.200 F 
ATOM     70  C   UNL A   1      40.578  26.407  26.853  1.00  0.00     0.200 A 
ATOM     71  F   UNL A   1      42.083  27.926  25.852  1.00  0.00    -0.200 F 
ATOM     72  F   UNL A   1      40.631  25.620  25.770  1.00  0.00    -0.200 F 
ENDBRANCH  48  62
BRANCH  49  73
ATOM     73  C   UNL A   1      39.545  33.964  37.065  1.00  0.00     0.064 A 
ATOM     74  C   UNL A   1      38.813  33.525  38.177  1.00  0.00     0.173 A 
ATOM     75  C   UNL A   1      40.134  35.234  37.125  1.00  0.00     0.173 A 
ATOM     76  F   UNL A   1      38.214  32.325  38.152  1.00  0.00    -0.203 F 
ATOM     77  C   UNL A   1      38.668  34.330  39.303  1.00  0.00     0.198 A 
ATOM     78  C   UNL A   1      40.002  36.032  38.259  1.00  0.00     0.198 A 
ATOM     79  F   UNL A   1      40.843  35.694  36.084  1.00  0.00    -0.203 F 
ATOM     80  F   UNL A   1      37.941  33.900  40.342  1.00  0.00    -0.200 F 
ATOM     81  C   UNL A   1      39.267  35.581  39.345  1.00  0.00     0.200 A 
ATOM     82  F   UNL A   1      40.586  37.237  38.299  1.00  0.00    -0.200 F 
ATOM     83  F   UNL A   1      39.129  36.355  40.431  1.00  0.00    -0.200 F 
ENDBRANCH  49  73
BRANCH  61  84
ATOM     84  C   UNL A   1      44.034  28.944  35.332  1.00  0.00     0.064 A 
ATOM     85  C   UNL A   1      43.897  27.895  36.252  1.00  0.00     0.173 A 
ATOM     86  C   UNL A   1      45.325  29.416  35.053  1.00  0.00     0.173 A 
ATOM     87  F   UNL A   1      42.681  27.423  36.558  1.00  0.00    -0.203 F 
ATOM     88  C   UNL A   1      45.012  27.348  36.880  1.00  0.00     0.198 A 
ATOM     89  C   UNL A   1      46.439  28.856  35.672  1.00  0.00     0.198 A 
ATOM     90  F   UNL A   1      45.504  30.418  34.179  1.00  0.00    -0.203 F 
ATOM     91  F   UNL A   1      44.858  26.365  37.777  1.00  0.00    -0.200 F 
ATOM     92  C   UNL A   1      46.281  27.824  36.586  1.00  0.00     0.200 A 
ATOM     93  F   UNL A   1      47.665  29.315  35.386  1.00  0.00    -0.200 F 
ATOM     94  F   UNL A   1      47.354  27.296  37.192  1.00  0.00    -0.200 F 
ENDBRANCH  61  84
ENDBRANCH  35  36
ENDBRANCH  27  30
ENDBRANCH  25  26
ENDBRANCH   1  25
TORSDOF 12
ENDMDL
MODEL 2
REMARK VINA RESULT:     -13.6      1.327      2.053
REMARK SMILES C[C@H]1[C@@H](C(=O)NCCCNC(=O)c2ccc(-c3c4nc(c(-c5c(F)c(F)c(F)c(F)c5F)c5ccc([nH]5)c(-c5c(F)c(F)c(F)c(F)c5F)c5nc(c(-c6c(F)c(F)c(F)c(F)c6F)c6ccc3[nH]6)C=C5)C=C4)cc2)CCN1C(=O)c1cc2cc(F)ccc2s1
REMARK SMILES IDX 8 1 7 2 6 3 4 4 5 5 3 7 1 8 2 9 78 10 76 11 77 12 79 13
REMARK SMILES IDX 80 14 81 15 82 16 90 17 83 18 89 19 84 20 88 21 85 22 87 23
REMARK SMILES IDX 86 24 9 25 10 26 11 27 12 29 13 30 14 31 75 32 15 33 74 34
REMARK SMILES IDX 16 35 17 36 18 37 68 38 19 39 73 40 67 41 69 42 20 43 72 44
REMARK SMILES IDX 66 45 65 46 21 48 53 49 33 50 52 51 34 52 37 53 51 54 70 55
REMARK SMILES IDX 35 56 36 57 50 59 71 60 38 61 22 62 23 63 31 64 24 65 25 66
REMARK SMILES IDX 29 67 32 68 26 69 27 70 30 71 28 72 54 73 55 74 63 75 56 76
REMARK SMILES IDX 57 77 61 78 64 79 58 80 59 81 62 82 60 83 39 84 40 85 48 86
REMARK SMILES IDX 41 87 42 88 46 89 49 90 43 91 44 92 47 93 45 94
REMARK H PARENT 6 6 10 28 69 47 37 58
REMARK Flexibility Score: inf
ROOT
ATOM      1  C   UNL A   1      31.412  32.285  26.500  1.00  0.00     0.042 C 
ENDROOT
BRANCH   1   2
ATOM      2  C   UNL A   1      31.392  30.761  26.380  1.00  0.00     0.117 C 
BRANCH   2   3
ATOM      3  N   UNL A   1      31.775  30.344  25.043  1.00  0.00    -0.356 N 
ATOM      4  C   UNL A   1      31.723  29.134  24.423  1.00  0.00     0.225 C 
ATOM      5  O   UNL A   1      32.228  29.072  23.300  1.00  0.00    -0.275 OA
ATOM      6  H   UNL A   1      32.138  31.068  24.483  1.00  0.00     0.163 HD
BRANCH   4   7
ATOM      7  C   UNL A   1      31.008  27.951  25.072  1.00  0.00     0.102 C 
ATOM      8  C   UNL A   1      33.073  27.398  26.566  1.00  0.00     0.032 C 
ATOM      9  C   UNL A   1      31.884  26.894  25.774  1.00  0.00     0.094 C 
ATOM     10  N   UNL A   1      32.235  25.905  24.749  1.00  0.00    -0.334 N 
ATOM     11  C   UNL A   1      30.341  27.094  23.984  1.00  0.00     0.037 C 
ATOM     12  C   UNL A   1      31.465  26.166  23.541  1.00  0.00     0.121 C 
BRANCH  10  13
ATOM     13  C   UNL A   1      32.358  24.575  25.152  1.00  0.00     0.264 C 
ATOM     14  O   UNL A   1      31.403  23.989  25.662  1.00  0.00    -0.268 OA
BRANCH  13  15
ATOM     15  C   UNL A   1      33.651  23.935  24.979  1.00  0.00     0.093 A 
ATOM     16  C   UNL A   1      34.870  24.457  25.357  1.00  0.00     0.034 A 
ATOM     17  S   UNL A   1      33.814  22.337  24.404  1.00  0.00    -0.130 S 
ATOM     18  C   UNL A   1      35.935  23.501  25.314  1.00  0.00    -0.004 A 
ATOM     19  C   UNL A   1      35.484  22.265  24.840  1.00  0.00     0.035 A 
ATOM     20  C   UNL A   1      37.286  23.618  25.716  1.00  0.00     0.048 A 
ATOM     21  C   UNL A   1      36.338  21.144  24.778  1.00  0.00     0.022 A 
ATOM     22  C   UNL A   1      38.116  22.501  25.678  1.00  0.00     0.123 A 
ATOM     23  C   UNL A   1      37.657  21.277  25.222  1.00  0.00     0.041 A 
ATOM     24  F   UNL A   1      39.380  22.611  26.110  1.00  0.00    -0.207 F 
ENDBRANCH  13  15
ENDBRANCH  10  13
ENDBRANCH   4   7
ENDBRANCH   2   3
ENDBRANCH   1   2
BRANCH   1  25
ATOM     25  C   UNL A   1      32.635  32.826  27.236  1.00  0.00     0.118 C 
BRANCH  25  26
ATOM     26  N   UNL A   1      32.470  34.221  27.594  1.00  0.00    -0.352 N 
ATOM     27  C   UNL A   1      33.007  34.940  28.634  1.00  0.00     0.251 C 
ATOM     28  H   UNL A   1      31.879  34.735  26.998  1.00  0.00     0.163 HD
ATOM     29  O   UNL A   1      32.543  36.046  28.893  1.00  0.00    -0.269 OA
BRANCH  27  30
ATOM     30  C   UNL A   1      34.130  34.415  29.453  1.00  0.00     0.039 A 
ATOM     31  C   UNL A   1      35.425  34.498  28.927  1.00  0.00     0.014 A 
ATOM     32  C   UNL A   1      33.927  33.751  30.667  1.00  0.00     0.014 A 
ATOM     33  C   UNL A   1      36.506  33.935  29.616  1.00  0.00     0.010 A 
ATOM     34  C   UNL A   1      35.014  33.249  31.388  1.00  0.00     0.010 A 
ATOM     35  C   UNL A   1      36.310  33.309  30.855  1.00  0.00    -0.014 A 
BRANCH  35  36
ATOM     36  C   UNL A   1      37.440  32.647  31.561  1.00  0.00     0.031 A 
ATOM     37  C   UNL A   1      38.170  31.503  30.908  1.00  0.00     0.074 A 
ATOM     38  C   UNL A   1      37.802  33.051  32.792  1.00  0.00     0.049 A 
ATOM     39  N   UNL A   1      39.147  30.767  31.378  1.00  0.00    -0.248 NA
ATOM     40  C   UNL A   1      37.728  31.121  29.558  1.00  0.00     0.031 C 
ATOM     41  C   UNL A   1      37.159  34.118  33.558  1.00  0.00     0.029 A 
ATOM     42  N   UNL A   1      38.802  32.604  33.619  1.00  0.00    -0.354 N 
ATOM     43  C   UNL A   1      39.411  29.820  30.398  1.00  0.00     0.074 A 
ATOM     44  C   UNL A   1      38.478  30.056  29.318  1.00  0.00     0.031 C 
ATOM     45  C   UNL A   1      37.793  34.257  34.733  1.00  0.00     0.029 A 
ATOM     46  C   UNL A   1      38.874  33.278  34.812  1.00  0.00     0.049 A 
ATOM     47  H   UNL A   1      39.412  31.869  33.379  1.00  0.00     0.167 HD
ATOM     48  C   UNL A   1      40.357  28.850  30.388  1.00  0.00     0.037 A 
ATOM     49  C   UNL A   1      39.718  33.127  35.850  1.00  0.00     0.037 A 
ATOM     50  C   UNL A   1      41.327  28.641  31.429  1.00  0.00     0.049 A 
ATOM     51  C   UNL A   1      40.803  32.088  35.787  1.00  0.00     0.074 A 
ATOM     52  C   UNL A   1      42.355  27.716  31.480  1.00  0.00     0.029 A 
ATOM     53  N   UNL A   1      41.396  29.380  32.599  1.00  0.00    -0.354 N 
ATOM     54  N   UNL A   1      41.062  31.221  34.841  1.00  0.00    -0.248 NA
ATOM     55  C   UNL A   1      41.719  32.017  36.935  1.00  0.00     0.031 C 
ATOM     56  C   UNL A   1      43.041  27.887  32.689  1.00  0.00     0.029 A 
ATOM     57  C   UNL A   1      42.450  28.934  33.378  1.00  0.00     0.049 A 
ATOM     58  H   UNL A   1      40.786  30.115  32.840  1.00  0.00     0.167 HD
ATOM     59  C   UNL A   1      42.172  30.509  35.270  1.00  0.00     0.074 A 
ATOM     60  C   UNL A   1      42.550  31.054  36.557  1.00  0.00     0.031 C 
ATOM     61  C   UNL A   1      42.816  29.490  34.653  1.00  0.00     0.037 A 
BRANCH  48  62
ATOM     62  C   UNL A   1      40.391  27.937  29.201  1.00  0.00     0.064 A 
ATOM     63  C   UNL A   1      41.191  28.220  28.085  1.00  0.00     0.173 A 
ATOM     64  C   UNL A   1      39.636  26.756  29.191  1.00  0.00     0.173 A 
ATOM     65  F   UNL A   1      41.917  29.346  28.043  1.00  0.00    -0.203 F 
ATOM     66  C   UNL A   1      41.215  27.360  26.989  1.00  0.00     0.198 A 
ATOM     67  C   UNL A   1      39.680  25.888  28.103  1.00  0.00     0.198 A 
ATOM     68  F   UNL A   1      38.858  26.441  30.239  1.00  0.00    -0.203 F 
ATOM     69  F   UNL A   1      41.956  27.669  25.916  1.00  0.00    -0.200 F 
ATOM     70  C   UNL A   1      40.464  26.194  27.002  1.00  0.00     0.200 A 
ATOM     71  F   UNL A   1      38.958  24.759  28.118  1.00  0.00    -0.200 F 
ATOM     72  F   UNL A   1      40.491  25.368  25.947  1.00  0.00    -0.200 F 
ENDBRANCH  48  62
BRANCH  49  73
ATOM     73  C   UNL A   1      39.589  34.012  37.032  1.00  0.00     0.064 A 
ATOM     74  C   UNL A   1      38.846  33.610  38.150  1.00  0.00     0.173 A 
ATOM     75  C   UNL A   1      40.210  35.267  37.071  1.00  0.00     0.173 A 
ATOM     76  F   UNL A   1      38.217  32.425  38.144  1.00  0.00    -0.203 F 
ATOM     77  C   UNL A   1      38.720  34.437  39.262  1.00  0.00     0.198 A 
ATOM     78  C   UNL A   1      40.097  36.088  38.192  1.00  0.00     0.198 A 
ATOM     79  F   UNL A   1      40.931  35.692  36.023  1.00  0.00    -0.203 F 
ATOM     80  F   UNL A   1      37.981  34.043  40.308  1.00  0.00    -0.200 F 
ATOM     81  C   UNL A   1      39.349  35.673  39.284  1.00  0.00     0.200 A 
ATOM     82  F   UNL A   1      40.710  37.279  38.212  1.00  0.00    -0.200 F 
ATOM     83  F   UNL A   1      39.230  36.469  40.357  1.00  0.00    -0.200 F 
ENDBRANCH  49  73
BRANCH  61  84
ATOM     84  C   UNL A   1      44.006  28.909  35.353  1.00  0.00     0.064 A 
ATOM     85  C   UNL A   1      43.869  27.852  36.264  1.00  0.00     0.173 A 
ATOM     86  C   UNL A   1      45.296  29.388  35.084  1.00  0.00     0.173 A 
ATOM     87  F   UNL A   1      42.653  27.372  36.562  1.00  0.00    -0.203 F 
ATOM     88  C   UNL A   1      44.983  27.304  36.892  1.00  0.00     0.198 A 
ATOM     89  C   UNL A   1      46.409  28.828  35.703  1.00  0.00     0.198 A 
ATOM     90  F   UNL A   1      45.474  30.398  34.218  1.00  0.00    -0.203 F 
ATOM     91  F   UNL A   1      44.829  26.313  37.782  1.00  0.00    -0.200 F 
ATOM     92  C   UNL A   1      46.252  27.788  36.608  1.00  0.00     0.200 A 
ATOM     93  F   UNL A   1      47.634  29.294  35.426  1.00  0.00    -0.200 F 
ATOM     94  F   UNL A   1      47.324  27.259  37.214  1.00  0.00    -0.200 F 
ENDBRANCH  61  84
ENDBRANCH  35  36
ENDBRANCH  27  30
ENDBRANCH  25  26
ENDBRANCH   1  25
TORSDOF 12
ENDMDL
MODEL 3
REMARK VINA RESULT:     -13.6      4.839     10.558
REMARK SMILES C[C@H]1[C@@H](C(=O)NCCCNC(=O)c2ccc(-c3c4nc(c(-c5c(F)c(F)c(F)c(F)c5F)c5ccc([nH]5)c(-c5c(F)c(F)c(F)c(F)c5F)c5nc(c(-c6c(F)c(F)c(F)c(F)c6F)c6ccc3[nH]6)C=C5)C=C4)cc2)CCN1C(=O)c1cc2cc(F)ccc2s1
REMARK SMILES IDX 8 1 7 2 6 3 4 4 5 5 3 7 1 8 2 9 78 10 76 11 77 12 79 13
REMARK SMILES IDX 80 14 81 15 82 16 90 17 83 18 89 19 84 20 88 21 85 22 87 23
REMARK SMILES IDX 86 24 9 25 10 26 11 27 12 29 13 30 14 31 75 32 15 33 74 34
REMARK SMILES IDX 16 35 17 36 18 37 68 38 19 39 73 40 67 41 69 42 20 43 72 44
REMARK SMILES IDX 66 45 65 46 21 48 53 49 33 50 52 51 34 52 37 53 51 54 70 55
REMARK SMILES IDX 35 56 36 57 50 59 71 60 38 61 22 62 23 63 31 64 24 65 25 66
REMARK SMILES IDX 29 67 32 68 26 69 27 70 30 71 28 72 54 73 55 74 63 75 56 76
REMARK SMILES IDX 57 77 61 78 64 79 58 80 59 81 62 82 60 83 39 84 40 85 48 86
REMARK SMILES IDX 41 87 42 88 46 89 49 90 43 91 44 92 47 93 45 94
REMARK H PARENT 6 6 10 28 69 47 37 58
REMARK Flexibility Score: inf
ROOT
ATOM      1  C   UNL A   1      33.698  34.259  28.073  1.00  0.00     0.042 C 
ENDROOT
BRANCH   1   2
ATOM      2  C   UNL A   1      33.928  35.280  29.187  1.00  0.00     0.117 C 
BRANCH   2   3
ATOM      3  N   UNL A   1      33.200  34.906  30.387  1.00  0.00    -0.356 N 
ATOM      4  C   UNL A   1      33.564  34.892  31.698  1.00  0.00     0.225 C 
ATOM      5  O   UNL A   1      32.747  34.414  32.487  1.00  0.00    -0.275 OA
ATOM      6  H   UNL A   1      32.276  34.608  30.222  1.00  0.00     0.163 HD
BRANCH   4   7
ATOM      7  C   UNL A   1      34.886  35.506  32.151  1.00  0.00     0.102 C 
ATOM      8  C   UNL A   1      36.265  33.564  31.090  1.00  0.00     0.032 C 
ATOM      9  C   UNL A   1      36.116  34.578  32.205  1.00  0.00     0.094 C 
ATOM     10  N   UNL A   1      36.123  33.985  33.547  1.00  0.00    -0.334 N 
ATOM     11  C   UNL A   1      34.778  35.926  33.626  1.00  0.00     0.037 C 
ATOM     12  C   UNL A   1      35.123  34.644  34.373  1.00  0.00     0.121 C 
BRANCH  10  13
ATOM     13  C   UNL A   1      37.364  33.727  34.131  1.00  0.00     0.264 C 
ATOM     14  O   UNL A   1      37.992  34.633  34.682  1.00  0.00    -0.268 OA
BRANCH  13  15
ATOM     15  C   UNL A   1      37.890  32.377  34.030  1.00  0.00     0.093 A 
ATOM     16  C   UNL A   1      37.217  31.281  33.533  1.00  0.00     0.034 A 
ATOM     17  S   UNL A   1      39.514  31.996  34.387  1.00  0.00    -0.130 S 
ATOM     18  C   UNL A   1      38.065  30.150  33.303  1.00  0.00    -0.004 A 
ATOM     19  C   UNL A   1      39.380  30.418  33.696  1.00  0.00     0.035 A 
ATOM     20  C   UNL A   1      37.778  28.896  32.715  1.00  0.00     0.048 A 
ATOM     21  C   UNL A   1      40.413  29.478  33.498  1.00  0.00     0.022 A 
ATOM     22  C   UNL A   1      38.807  27.984  32.498  1.00  0.00     0.123 A 
ATOM     23  C   UNL A   1      40.109  28.264  32.876  1.00  0.00     0.041 A 
ATOM     24  F   UNL A   1      38.532  26.820  31.894  1.00  0.00    -0.207 F 
ENDBRANCH  13  15
ENDBRANCH  10  13
ENDBRANCH   4   7
ENDBRANCH   2   3
ENDBRANCH   1   2
BRANCH   1  25
ATOM     25  C   UNL A   1      34.530  32.988  28.224  1.00  0.00     0.118 C 
BRANCH  25  26
ATOM     26  N   UNL A   1      33.738  31.798  27.980  1.00  0.00    -0.352 N 
ATOM     27  C   UNL A   1      34.132  30.504  27.738  1.00  0.00     0.251 C 
ATOM     28  H   UNL A   1      32.764  31.939  27.988  1.00  0.00     0.163 HD
ATOM     29  O   UNL A   1      33.305  29.702  27.316  1.00  0.00    -0.269 OA
BRANCH  27  30
ATOM     30  C   UNL A   1      35.528  30.053  27.972  1.00  0.00     0.039 A 
ATOM     31  C   UNL A   1      35.890  29.672  29.270  1.00  0.00     0.014 A 
ATOM     32  C   UNL A   1      36.507  30.099  26.975  1.00  0.00     0.014 A 
ATOM     33  C   UNL A   1      37.214  29.328  29.562  1.00  0.00     0.010 A 
ATOM     34  C   UNL A   1      37.815  29.690  27.250  1.00  0.00     0.010 A 
ATOM     35  C   UNL A   1      38.189  29.330  28.554  1.00  0.00    -0.014 A 
BRANCH  35  36
ATOM     36  C   UNL A   1      39.612  29.033  28.869  1.00  0.00     0.031 A 
ATOM     37  C   UNL A   1      40.434  30.027  29.646  1.00  0.00     0.074 A 
ATOM     38  C   UNL A   1      40.178  27.889  28.444  1.00  0.00     0.049 A 
ATOM     39  N   UNL A   1      41.701  29.974  29.980  1.00  0.00    -0.248 NA
ATOM     40  C   UNL A   1      39.749  31.251  30.088  1.00  0.00     0.031 C 
ATOM     41  C   UNL A   1      39.511  26.857  27.650  1.00  0.00     0.029 A 
ATOM     42  N   UNL A   1      41.450  27.404  28.620  1.00  0.00    -0.354 N 
ATOM     43  C   UNL A   1      41.968  31.168  30.637  1.00  0.00     0.074 A 
ATOM     44  C   UNL A   1      40.742  31.936  30.635  1.00  0.00     0.031 C 
ATOM     45  C   UNL A   1      40.374  25.852  27.425  1.00  0.00     0.029 A 
ATOM     46  C   UNL A   1      41.658  26.178  28.041  1.00  0.00     0.049 A 
ATOM     47  H   UNL A   1      42.149  27.891  29.115  1.00  0.00     0.167 HD
ATOM     48  C   UNL A   1      43.125  31.582  31.206  1.00  0.00     0.037 A 
ATOM     49  C   UNL A   1      42.757  25.401  28.015  1.00  0.00     0.037 A 
ATOM     50  C   UNL A   1      44.334  30.805  31.264  1.00  0.00     0.049 A 
ATOM     51  C   UNL A   1      44.009  25.852  28.713  1.00  0.00     0.074 A 
ATOM     52  C   UNL A   1      45.538  31.124  31.867  1.00  0.00     0.029 A 
ATOM     53  N   UNL A   1      44.485  29.545  30.709  1.00  0.00    -0.354 N 
ATOM     54  N   UNL A   1      44.238  26.968  29.359  1.00  0.00    -0.248 NA
ATOM     55  C   UNL A   1      45.153  24.928  28.686  1.00  0.00     0.031 C 
ATOM     56  C   UNL A   1      46.425  30.059  31.666  1.00  0.00     0.029 A 
ATOM     57  C   UNL A   1      45.763  29.071  30.956  1.00  0.00     0.049 A 
ATOM     58  H   UNL A   1      43.787  29.058  30.214  1.00  0.00     0.167 HD
ATOM     59  C   UNL A   1      45.542  26.879  29.823  1.00  0.00     0.074 A 
ATOM     60  C   UNL A   1      46.053  25.592  29.398  1.00  0.00     0.031 C 
ATOM     61  C   UNL A   1      46.253  27.786  30.533  1.00  0.00     0.037 A 
BRANCH  48  62
ATOM     62  C   UNL A   1      43.136  32.947  31.823  1.00  0.00     0.064 A 
ATOM     63  C   UNL A   1      43.299  34.100  31.042  1.00  0.00     0.173 A 
ATOM     64  C   UNL A   1      42.956  33.105  33.204  1.00  0.00     0.173 A 
ATOM     65  F   UNL A   1      43.489  33.997  29.719  1.00  0.00    -0.203 F 
ATOM     66  C   UNL A   1      43.304  35.364  31.628  1.00  0.00     0.198 A 
ATOM     67  C   UNL A   1      42.941  34.371  33.784  1.00  0.00     0.198 A 
ATOM     68  F   UNL A   1      42.793  32.030  33.992  1.00  0.00    -0.203 F 
ATOM     69  F   UNL A   1      43.500  36.450  30.869  1.00  0.00    -0.200 F 
ATOM     70  C   UNL A   1      43.120  35.497  32.996  1.00  0.00     0.200 A 
ATOM     71  F   UNL A   1      42.758  34.500  35.105  1.00  0.00    -0.200 F 
ATOM     72  F   UNL A   1      43.124  36.715  33.557  1.00  0.00    -0.200 F 
ENDBRANCH  48  62
BRANCH  49  73
ATOM     73  C   UNL A   1      42.709  24.090  27.325  1.00  0.00     0.064 A 
ATOM     74  C   UNL A   1      43.097  23.972  25.983  1.00  0.00     0.173 A 
ATOM     75  C   UNL A   1      42.284  22.933  27.991  1.00  0.00     0.173 A 
ATOM     76  F   UNL A   1      43.490  25.059  25.303  1.00  0.00    -0.203 F 
ATOM     77  C   UNL A   1      43.054  22.744  25.330  1.00  0.00     0.198 A 
ATOM     78  C   UNL A   1      42.256  21.701  27.340  1.00  0.00     0.198 A 
ATOM     79  F   UNL A   1      41.903  22.999  29.275  1.00  0.00    -0.203 F 
ATOM     80  F   UNL A   1      43.403  22.661  24.039  1.00  0.00    -0.200 F 
ATOM     81  C   UNL A   1      42.637  21.609  26.010  1.00  0.00     0.200 A 
ATOM     82  F   UNL A   1      41.858  20.606  28.001  1.00  0.00    -0.200 F 
ATOM     83  F   UNL A   1      42.597  20.426  25.380  1.00  0.00    -0.200 F 
ENDBRANCH  49  73
BRANCH  61  84
ATOM     84  C   UNL A   1      47.654  27.414  30.910  1.00  0.00     0.064 A 
ATOM     85  C   UNL A   1      47.926  26.714  32.093  1.00  0.00     0.173 A 
ATOM     86  C   UNL A   1      48.728  27.728  30.064  1.00  0.00     0.173 A 
ATOM     87  F   UNL A   1      46.932  26.406  32.938  1.00  0.00    -0.203 F 
ATOM     88  C   UNL A   1      49.229  26.352  32.424  1.00  0.00     0.198 A 
ATOM     89  C   UNL A   1      50.027  27.352  30.390  1.00  0.00     0.198 A 
ATOM     90  F   UNL A   1      48.513  28.396  28.921  1.00  0.00    -0.203 F 
ATOM     91  F   UNL A   1      49.473  25.709  33.574  1.00  0.00    -0.200 F 
ATOM     92  C   UNL A   1      50.277  26.667  31.571  1.00  0.00     0.200 A 
ATOM     93  F   UNL A   1      51.038  27.653  29.565  1.00  0.00    -0.200 F 
ATOM     94  F   UNL A   1      51.531  26.318  31.891  1.00  0.00    -0.200 F 
ENDBRANCH  61  84
ENDBRANCH  35  36
ENDBRANCH  27  30
ENDBRANCH  25  26
ENDBRANCH   1  25
TORSDOF 12
ENDMDL
