MODEL 1
REMARK VINA RESULT:     -13.7      0.000      0.000
REMARK SMILES CC1CCN(S(=O)(=O)c2ccc3c(ccn3CC(=O)NCCCNC(=O)c3ccc(-c4c5nc(c(-c6c(F)c(F)c(F)c(F)c6F)c6ccc([nH]6)c(-c6c(F)c(F)c(F)c(F)c6F)c6nc(c(-c7c(F)c(F)c(F)c(F)c7F)c7ccc4[nH]7)C=C6)C=C5)cc3)c2)CC1
REMARK SMILES IDX 21 1 20 2 18 3 19 4 17 6 16 7 9 8 10 9 90 10 11 11 13 12
REMARK SMILES IDX 12 13 14 14 15 15 6 16 7 17 8 18 5 19 1 20 2 21 3 22 92 23
REMARK SMILES IDX 4 24 91 25 22 26 23 27 24 28 25 29 26 31 27 32 28 33 89 34
REMARK SMILES IDX 29 35 88 36 30 37 31 38 32 39 82 40 33 41 87 42 81 43 83 44
REMARK SMILES IDX 34 45 86 46 80 47 79 48 35 50 67 51 47 52 66 53 48 54 51 55
REMARK SMILES IDX 65 56 84 57 49 58 50 59 64 61 85 62 52 63 36 64 37 65 45 66
REMARK SMILES IDX 38 67 39 68 43 69 46 70 40 71 41 72 44 73 42 74 68 75 69 76
REMARK SMILES IDX 77 77 70 78 71 79 75 80 78 81 72 82 73 83 76 84 74 85 53 86
REMARK SMILES IDX 54 87 62 88 55 89 56 90 60 91 63 92 57 93 58 94 61 95 59 96
REMARK H PARENT 20 5 24 30 83 49 51 60
REMARK Flexibility Score: inf
ROOT
ATOM      1  C   UNL A   1      36.060  20.638  25.106  1.00  0.00     0.117 C 
ENDROOT
BRANCH   1   2
ATOM      2  N   UNL A   1      35.462  19.387  24.675  1.00  0.00    -0.354 N 
ATOM      3  C   UNL A   1      34.187  18.926  24.824  1.00  0.00     0.239 C 
ATOM      4  O   UNL A   1      33.922  17.812  24.365  1.00  0.00    -0.273 OA
ATOM      5  H   UNL A   1      36.072  18.777  24.201  1.00  0.00     0.163 HD
BRANCH   3   6
ATOM      6  C   UNL A   1      33.116  19.775  25.474  1.00  0.00     0.222 C 
BRANCH   6   7
ATOM      7  N   UNL A   1      32.590  20.810  24.597  1.00  0.00    -0.338 N 
ATOM      8  C   UNL A   1      31.295  24.680  25.217  1.00  0.00     0.083 A 
ATOM      9  C   UNL A   1      31.652  23.962  26.357  1.00  0.00     0.024 A 
ATOM     10  C   UNL A   1      31.326  24.083  23.949  1.00  0.00     0.032 A 
ATOM     11  C   UNL A   1      32.193  22.686  26.252  1.00  0.00     0.028 A 
ATOM     12  C   UNL A   1      31.771  22.749  23.840  1.00  0.00     0.001 A 
ATOM     13  C   UNL A   1      32.215  22.082  24.987  1.00  0.00     0.049 A 
ATOM     14  C   UNL A   1      31.885  21.837  22.755  1.00  0.00     0.028 A 
ATOM     15  C   UNL A   1      32.402  20.660  23.246  1.00  0.00     0.087 A 
BRANCH   8  16
ATOM     16  S   UNL A   1      30.722  26.351  25.403  1.00  0.00     0.243 S 
ATOM     17  O   UNL A   1      30.796  26.666  26.822  1.00  0.00    -0.207 OA
ATOM     18  O   UNL A   1      29.469  26.470  24.701  1.00  0.00    -0.207 OA
BRANCH  16  19
ATOM     19  N   UNL A   1      31.872  27.304  24.562  1.00  0.00    -0.198 NA
ATOM     20  C   UNL A   1      33.583  30.267  27.269  1.00  0.00     0.008 C 
ATOM     21  C   UNL A   1      33.247  29.471  26.012  1.00  0.00    -0.012 C 
ATOM     22  C   UNL A   1      31.772  29.572  25.587  1.00  0.00     0.020 C 
ATOM     23  C   UNL A   1      33.621  27.999  26.198  1.00  0.00     0.020 C 
ATOM     24  C   UNL A   1      31.461  28.722  24.354  1.00  0.00     0.103 C 
ATOM     25  C   UNL A   1      33.315  27.238  24.916  1.00  0.00     0.103 C 
ENDBRANCH  16  19
ENDBRANCH   8  16
ENDBRANCH   6   7
ENDBRANCH   3   6
ENDBRANCH   1   2
BRANCH   1  26
ATOM     26  C   UNL A   1      37.583  20.647  24.965  1.00  0.00     0.042 C 
BRANCH  26  27
ATOM     27  C   UNL A   1      38.263  21.774  25.743  1.00  0.00     0.118 C 
BRANCH  27  28
ATOM     28  N   UNL A   1      39.712  21.752  25.675  1.00  0.00    -0.352 N 
ATOM     29  C   UNL A   1      40.724  22.514  26.185  1.00  0.00     0.251 C 
ATOM     30  H   UNL A   1      40.048  21.006  25.128  1.00  0.00     0.163 HD
ATOM     31  O   UNL A   1      41.865  22.080  26.000  1.00  0.00    -0.269 OA
BRANCH  29  32
ATOM     32  C   UNL A   1      40.567  23.828  26.863  1.00  0.00     0.039 A 
ATOM     33  C   UNL A   1      39.658  24.825  26.512  1.00  0.00     0.014 A 
ATOM     34  C   UNL A   1      41.482  24.092  27.904  1.00  0.00     0.014 A 
ATOM     35  C   UNL A   1      39.735  26.083  27.104  1.00  0.00     0.010 A 
ATOM     36  C   UNL A   1      41.552  25.341  28.510  1.00  0.00     0.010 A 
ATOM     37  C   UNL A   1      40.710  26.353  28.071  1.00  0.00    -0.014 A 
BRANCH  37  38
ATOM     38  C   UNL A   1      40.728  27.685  28.671  1.00  0.00     0.031 A 
ATOM     39  C   UNL A   1      41.771  28.594  28.110  1.00  0.00     0.074 A 
ATOM     40  C   UNL A   1      39.838  28.107  29.594  1.00  0.00     0.049 A 
ATOM     41  N   UNL A   1      42.797  29.101  28.712  1.00  0.00    -0.248 NA
ATOM     42  C   UNL A   1      41.732  28.874  26.666  1.00  0.00     0.031 C 
ATOM     43  C   UNL A   1      38.613  27.450  30.055  1.00  0.00     0.029 A 
ATOM     44  N   UNL A   1      39.821  29.289  30.278  1.00  0.00    -0.354 N 
ATOM     45  C   UNL A   1      43.457  29.889  27.767  1.00  0.00     0.074 A 
ATOM     46  C   UNL A   1      42.831  29.613  26.502  1.00  0.00     0.031 C 
ATOM     47  C   UNL A   1      37.874  28.328  30.775  1.00  0.00     0.029 A 
ATOM     48  C   UNL A   1      38.628  29.560  30.934  1.00  0.00     0.049 A 
ATOM     49  H   UNL A   1      40.593  29.898  30.305  1.00  0.00     0.167 HD
ATOM     50  C   UNL A   1      44.334  30.863  28.141  1.00  0.00     0.037 A 
ATOM     51  C   UNL A   1      38.277  30.741  31.505  1.00  0.00     0.037 A 
ATOM     52  C   UNL A   1      44.779  30.674  29.491  1.00  0.00     0.049 A 
ATOM     53  C   UNL A   1      39.514  31.536  31.700  1.00  0.00     0.074 A 
ATOM     54  C   UNL A   1      45.473  29.693  30.173  1.00  0.00     0.029 A 
ATOM     55  N   UNL A   1      44.208  31.470  30.450  1.00  0.00    -0.354 N 
ATOM     56  N   UNL A   1      40.419  31.254  32.592  1.00  0.00    -0.248 NA
ATOM     57  C   UNL A   1      39.957  32.404  30.618  1.00  0.00     0.031 C 
ATOM     58  C   UNL A   1      44.884  29.662  31.470  1.00  0.00     0.029 A 
ATOM     59  C   UNL A   1      43.911  30.659  31.502  1.00  0.00     0.049 A 
ATOM     60  H   UNL A   1      44.045  32.439  30.390  1.00  0.00     0.167 HD
ATOM     61  C   UNL A   1      41.625  31.537  31.966  1.00  0.00     0.074 A 
ATOM     62  C   UNL A   1      41.279  32.329  30.793  1.00  0.00     0.031 C 
ATOM     63  C   UNL A   1      42.751  30.850  32.311  1.00  0.00     0.037 A 
BRANCH  50  64
ATOM     64  C   UNL A   1      44.454  32.220  27.479  1.00  0.00     0.064 A 
ATOM     65  C   UNL A   1      45.567  32.466  26.643  1.00  0.00     0.173 A 
ATOM     66  C   UNL A   1      43.766  33.365  27.927  1.00  0.00     0.173 A 
ATOM     67  F   UNL A   1      46.299  31.450  26.158  1.00  0.00    -0.203 F 
ATOM     68  C   UNL A   1      46.033  33.758  26.394  1.00  0.00     0.198 A 
ATOM     69  C   UNL A   1      44.203  34.655  27.629  1.00  0.00     0.198 A 
ATOM     70  F   UNL A   1      42.726  33.293  28.763  1.00  0.00    -0.203 F 
ATOM     71  F   UNL A   1      47.188  33.935  25.739  1.00  0.00    -0.200 F 
ATOM     72  C   UNL A   1      45.358  34.851  26.901  1.00  0.00     0.200 A 
ATOM     73  F   UNL A   1      43.545  35.704  28.142  1.00  0.00    -0.200 F 
ATOM     74  F   UNL A   1      45.844  36.088  26.733  1.00  0.00    -0.200 F 
ENDBRANCH  50  64
BRANCH  51  75
ATOM     75  C   UNL A   1      36.939  31.371  31.620  1.00  0.00     0.064 A 
ATOM     76  C   UNL A   1      36.474  31.861  32.853  1.00  0.00     0.173 A 
ATOM     77  C   UNL A   1      36.244  31.795  30.474  1.00  0.00     0.173 A 
ATOM     78  F   UNL A   1      37.094  31.523  33.992  1.00  0.00    -0.203 F 
ATOM     79  C   UNL A   1      35.411  32.769  32.927  1.00  0.00     0.198 A 
ATOM     80  C   UNL A   1      35.183  32.698  30.548  1.00  0.00     0.198 A 
ATOM     81  F   UNL A   1      36.649  31.424  29.250  1.00  0.00    -0.203 F 
ATOM     82  F   UNL A   1      35.043  33.274  34.112  1.00  0.00    -0.200 F 
ATOM     83  C   UNL A   1      34.781  33.202  31.772  1.00  0.00     0.200 A 
ATOM     84  F   UNL A   1      34.602  33.135  29.422  1.00  0.00    -0.200 F 
ATOM     85  F   UNL A   1      33.820  34.133  31.833  1.00  0.00    -0.200 F 
ENDBRANCH  51  75
BRANCH  63  86
ATOM     86  C   UNL A   1      42.642  30.019  33.527  1.00  0.00     0.064 A 
ATOM     87  C   UNL A   1      42.183  28.697  33.487  1.00  0.00     0.173 A 
ATOM     88  C   UNL A   1      43.042  30.565  34.746  1.00  0.00     0.173 A 
ATOM     89  F   UNL A   1      41.918  28.094  32.320  1.00  0.00    -0.203 F 
ATOM     90  C   UNL A   1      41.995  27.992  34.659  1.00  0.00     0.198 A 
ATOM     91  C   UNL A   1      42.893  29.842  35.913  1.00  0.00     0.198 A 
ATOM     92  F   UNL A   1      43.579  31.794  34.796  1.00  0.00    -0.203 F 
ATOM     93  F   UNL A   1      41.507  26.747  34.607  1.00  0.00    -0.200 F 
ATOM     94  C   UNL A   1      42.315  28.585  35.872  1.00  0.00     0.200 A 
ATOM     95  F   UNL A   1      43.297  30.357  37.082  1.00  0.00    -0.200 F 
ATOM     96  F   UNL A   1      42.074  27.950  37.023  1.00  0.00    -0.200 F 
ENDBRANCH  63  86
ENDBRANCH  37  38
ENDBRANCH  29  32
ENDBRANCH  27  28
ENDBRANCH  26  27
ENDBRANCH   1  26
TORSDOF 13
ENDMDL
MODEL 2
REMARK VINA RESULT:     -13.7      1.694      2.356
REMARK SMILES CC1CCN(S(=O)(=O)c2ccc3c(ccn3CC(=O)NCCCNC(=O)c3ccc(-c4c5nc(c(-c6c(F)c(F)c(F)c(F)c6F)c6ccc([nH]6)c(-c6c(F)c(F)c(F)c(F)c6F)c6nc(c(-c7c(F)c(F)c(F)c(F)c7F)c7ccc4[nH]7)C=C6)C=C5)cc3)c2)CC1
REMARK SMILES IDX 21 1 20 2 18 3 19 4 17 6 16 7 9 8 10 9 90 10 11 11 13 12
REMARK SMILES IDX 12 13 14 14 15 15 6 16 7 17 8 18 5 19 1 20 2 21 3 22 92 23
REMARK SMILES IDX 4 24 91 25 22 26 23 27 24 28 25 29 26 31 27 32 28 33 89 34
REMARK SMILES IDX 29 35 88 36 30 37 31 38 32 39 82 40 33 41 87 42 81 43 83 44
REMARK SMILES IDX 34 45 86 46 80 47 79 48 35 50 67 51 47 52 66 53 48 54 51 55
REMARK SMILES IDX 65 56 84 57 49 58 50 59 64 61 85 62 52 63 36 64 37 65 45 66
REMARK SMILES IDX 38 67 39 68 43 69 46 70 40 71 41 72 44 73 42 74 68 75 69 76
REMARK SMILES IDX 77 77 70 78 71 79 75 80 78 81 72 82 73 83 76 84 74 85 53 86
REMARK SMILES IDX 54 87 62 88 55 89 56 90 60 91 63 92 57 93 58 94 61 95 59 96
REMARK H PARENT 20 5 24 30 83 49 51 60
REMARK Flexibility Score: inf
ROOT
ATOM      1  C   UNL A   1      38.085  22.696  25.367  1.00  0.00     0.117 C 
ENDROOT
BRANCH   1   2
ATOM      2  N   UNL A   1      37.768  21.338  24.963  1.00  0.00    -0.354 N 
ATOM      3  C   UNL A   1      36.630  20.609  25.150  1.00  0.00     0.239 C 
ATOM      4  O   UNL A   1      36.606  19.457  24.708  1.00  0.00    -0.273 OA
ATOM      5  H   UNL A   1      38.486  20.870  24.478  1.00  0.00     0.163 HD
BRANCH   3   6
ATOM      6  C   UNL A   1      35.414  21.210  25.821  1.00  0.00     0.222 C 
BRANCH   6   7
ATOM      7  N   UNL A   1      34.342  21.533  24.891  1.00  0.00    -0.338 N 
ATOM      8  C   UNL A   1      33.119  25.020  23.054  1.00  0.00     0.083 A 
ATOM      9  C   UNL A   1      34.162  25.142  23.971  1.00  0.00     0.024 A 
ATOM     10  C   UNL A   1      32.497  23.784  22.829  1.00  0.00     0.032 A 
ATOM     11  C   UNL A   1      34.714  24.017  24.572  1.00  0.00     0.028 A 
ATOM     12  C   UNL A   1      32.979  22.650  23.516  1.00  0.00     0.001 A 
ATOM     13  C   UNL A   1      34.088  22.781  24.357  1.00  0.00     0.049 A 
ATOM     14  C   UNL A   1      32.572  21.289  23.568  1.00  0.00     0.028 A 
ATOM     15  C   UNL A   1      33.434  20.623  24.409  1.00  0.00     0.087 A 
BRANCH   8  16
ATOM     16  S   UNL A   1      32.533  26.479  22.227  1.00  0.00     0.243 S 
ATOM     17  O   UNL A   1      31.396  26.074  21.414  1.00  0.00    -0.207 OA
ATOM     18  O   UNL A   1      33.666  27.124  21.613  1.00  0.00    -0.207 OA
BRANCH  16  19
ATOM     19  N   UNL A   1      31.980  27.503  23.485  1.00  0.00    -0.198 NA
ATOM     20  C   UNL A   1      28.112  29.205  22.397  1.00  0.00     0.008 C 
ATOM     21  C   UNL A   1      29.409  28.904  23.143  1.00  0.00    -0.012 C 
ATOM     22  C   UNL A   1      30.678  29.315  22.377  1.00  0.00     0.020 C 
ATOM     23  C   UNL A   1      29.488  27.416  23.492  1.00  0.00     0.020 C 
ATOM     24  C   UNL A   1      31.958  28.952  23.132  1.00  0.00     0.103 C 
ATOM     25  C   UNL A   1      30.769  27.151  24.271  1.00  0.00     0.103 C 
ENDBRANCH  16  19
ENDBRANCH   8  16
ENDBRANCH   6   7
ENDBRANCH   3   6
ENDBRANCH   1   2
BRANCH   1  26
ATOM     26  C   UNL A   1      39.030  22.751  26.568  1.00  0.00     0.042 C 
BRANCH  26  27
ATOM     27  C   UNL A   1      40.148  21.709  26.515  1.00  0.00     0.118 C 
BRANCH  27  28
ATOM     28  N   UNL A   1      41.340  22.152  25.816  1.00  0.00    -0.352 N 
ATOM     29  C   UNL A   1      42.098  23.288  25.803  1.00  0.00     0.251 C 
ATOM     30  H   UNL A   1      41.687  21.466  25.201  1.00  0.00     0.163 HD
ATOM     31  O   UNL A   1      43.142  23.226  25.149  1.00  0.00    -0.269 OA
BRANCH  29  32
ATOM     32  C   UNL A   1      41.734  24.583  26.438  1.00  0.00     0.039 A 
ATOM     33  C   UNL A   1      41.054  25.632  25.822  1.00  0.00     0.014 A 
ATOM     34  C   UNL A   1      42.195  24.767  27.758  1.00  0.00     0.014 A 
ATOM     35  C   UNL A   1      40.938  26.864  26.462  1.00  0.00     0.010 A 
ATOM     36  C   UNL A   1      42.068  25.988  28.409  1.00  0.00     0.010 A 
ATOM     37  C   UNL A   1      41.483  27.053  27.737  1.00  0.00    -0.014 A 
BRANCH  37  38
ATOM     38  C   UNL A   1      41.312  28.360  28.367  1.00  0.00     0.031 A 
ATOM     39  C   UNL A   1      42.399  29.335  28.057  1.00  0.00     0.074 A 
ATOM     40  C   UNL A   1      40.234  28.707  29.101  1.00  0.00     0.049 A 
ATOM     41  N   UNL A   1      43.256  29.864  28.868  1.00  0.00    -0.248 NA
ATOM     42  C   UNL A   1      42.638  29.670  26.644  1.00  0.00     0.031 C 
ATOM     43  C   UNL A   1      38.976  27.979  29.284  1.00  0.00     0.029 A 
ATOM     44  N   UNL A   1      40.019  29.859  29.802  1.00  0.00    -0.354 N 
ATOM     45  C   UNL A   1      44.052  30.715  28.101  1.00  0.00     0.074 A 
ATOM     46  C   UNL A   1      43.708  30.461  26.728  1.00  0.00     0.031 C 
ATOM     47  C   UNL A   1      38.064  28.795  29.864  1.00  0.00     0.029 A 
ATOM     48  C   UNL A   1      38.706  30.052  30.209  1.00  0.00     0.049 A 
ATOM     49  H   UNL A   1      40.738  30.500  30.003  1.00  0.00     0.167 HD
ATOM     50  C   UNL A   1      44.784  31.712  28.673  1.00  0.00     0.037 A 
ATOM     51  C   UNL A   1      38.187  31.194  30.730  1.00  0.00     0.037 A 
ATOM     52  C   UNL A   1      44.957  31.490  30.080  1.00  0.00     0.049 A 
ATOM     53  C   UNL A   1      39.318  32.034  31.196  1.00  0.00     0.074 A 
ATOM     54  C   UNL A   1      45.548  30.515  30.860  1.00  0.00     0.029 A 
ATOM     55  N   UNL A   1      44.165  32.222  30.926  1.00  0.00    -0.354 N 
ATOM     56  N   UNL A   1      40.037  31.757  32.245  1.00  0.00    -0.248 NA
ATOM     57  C   UNL A   1      39.925  32.962  30.253  1.00  0.00     0.031 C 
ATOM     58  C   UNL A   1      44.712  30.408  32.008  1.00  0.00     0.029 A 
ATOM     59  C   UNL A   1      43.703  31.360  31.871  1.00  0.00     0.049 A 
ATOM     60  H   UNL A   1      43.968  33.185  30.862  1.00  0.00     0.167 HD
ATOM     61  C   UNL A   1      41.329  32.117  31.886  1.00  0.00     0.074 A 
ATOM     62  C   UNL A   1      41.187  32.938  30.691  1.00  0.00     0.031 C 
ATOM     63  C   UNL A   1      42.395  31.467  32.432  1.00  0.00     0.037 A 
BRANCH  50  64
ATOM     64  C   UNL A   1      44.966  33.097  28.089  1.00  0.00     0.064 A 
ATOM     65  C   UNL A   1      46.280  33.596  27.933  1.00  0.00     0.173 A 
ATOM     66  C   UNL A   1      43.941  34.064  28.051  1.00  0.00     0.173 A 
ATOM     67  F   UNL A   1      47.335  32.767  27.956  1.00  0.00    -0.203 F 
ATOM     68  C   UNL A   1      46.549  34.965  27.885  1.00  0.00     0.198 A 
ATOM     69  C   UNL A   1      44.212  35.427  27.946  1.00  0.00     0.198 A 
ATOM     70  F   UNL A   1      42.655  33.749  28.234  1.00  0.00    -0.203 F 
ATOM     71  F   UNL A   1      47.818  35.395  27.910  1.00  0.00    -0.200 F 
ATOM     72  C   UNL A   1      45.515  35.880  27.906  1.00  0.00     0.200 A 
ATOM     73  F   UNL A   1      43.198  36.302  27.984  1.00  0.00    -0.200 F 
ATOM     74  F   UNL A   1      45.770  37.194  27.940  1.00  0.00    -0.200 F 
ENDBRANCH  50  64
BRANCH  51  75
ATOM     75  C   UNL A   1      36.824  31.759  30.590  1.00  0.00     0.064 A 
ATOM     76  C   UNL A   1      35.975  31.888  31.703  1.00  0.00     0.173 A 
ATOM     77  C   UNL A   1      36.461  32.477  29.437  1.00  0.00     0.173 A 
ATOM     78  F   UNL A   1      36.262  31.254  32.849  1.00  0.00    -0.203 F 
ATOM     79  C   UNL A   1      34.860  32.734  31.681  1.00  0.00     0.198 A 
ATOM     80  C   UNL A   1      35.347  33.318  29.415  1.00  0.00     0.198 A 
ATOM     81  F   UNL A   1      37.238  32.460  28.345  1.00  0.00    -0.203 F 
ATOM     82  F   UNL A   1      34.117  32.892  32.785  1.00  0.00    -0.200 F 
ATOM     83  C   UNL A   1      34.560  33.464  30.543  1.00  0.00     0.200 A 
ATOM     84  F   UNL A   1      35.085  34.045  28.319  1.00  0.00    -0.200 F 
ATOM     85  F   UNL A   1      33.544  34.337  30.546  1.00  0.00    -0.200 F 
ENDBRANCH  51  75
BRANCH  63  86
ATOM     86  C   UNL A   1      42.086  30.586  33.577  1.00  0.00     0.064 A 
ATOM     87  C   UNL A   1      42.102  31.050  34.898  1.00  0.00     0.173 A 
ATOM     88  C   UNL A   1      41.735  29.261  33.323  1.00  0.00     0.173 A 
ATOM     89  F   UNL A   1      42.302  32.345  35.173  1.00  0.00    -0.203 F 
ATOM     90  C   UNL A   1      41.912  30.168  35.943  1.00  0.00     0.198 A 
ATOM     91  C   UNL A   1      41.504  28.391  34.369  1.00  0.00     0.198 A 
ATOM     92  F   UNL A   1      41.615  28.821  32.061  1.00  0.00    -0.203 F 
ATOM     93  F   UNL A   1      41.982  30.617  37.203  1.00  0.00    -0.200 F 
ATOM     94  C   UNL A   1      41.652  28.832  35.673  1.00  0.00     0.200 A 
ATOM     95  F   UNL A   1      41.146  27.123  34.127  1.00  0.00    -0.200 F 
ATOM     96  F   UNL A   1      41.537  27.948  36.668  1.00  0.00    -0.200 F 
ENDBRANCH  63  86
ENDBRANCH  37  38
ENDBRANCH  29  32
ENDBRANCH  27  28
ENDBRANCH  26  27
ENDBRANCH   1  26
TORSDOF 13
ENDMDL
MODEL 3
REMARK VINA RESULT:     -13.4      1.143      2.110
REMARK SMILES CC1CCN(S(=O)(=O)c2ccc3c(ccn3CC(=O)NCCCNC(=O)c3ccc(-c4c5nc(c(-c6c(F)c(F)c(F)c(F)c6F)c6ccc([nH]6)c(-c6c(F)c(F)c(F)c(F)c6F)c6nc(c(-c7c(F)c(F)c(F)c(F)c7F)c7ccc4[nH]7)C=C6)C=C5)cc3)c2)CC1
REMARK SMILES IDX 21 1 20 2 18 3 19 4 17 6 16 7 9 8 10 9 90 10 11 11 13 12
REMARK SMILES IDX 12 13 14 14 15 15 6 16 7 17 8 18 5 19 1 20 2 21 3 22 92 23
REMARK SMILES IDX 4 24 91 25 22 26 23 27 24 28 25 29 26 31 27 32 28 33 89 34
REMARK SMILES IDX 29 35 88 36 30 37 31 38 32 39 82 40 33 41 87 42 81 43 83 44
REMARK SMILES IDX 34 45 86 46 80 47 79 48 35 50 67 51 47 52 66 53 48 54 51 55
REMARK SMILES IDX 65 56 84 57 49 58 50 59 64 61 85 62 52 63 36 64 37 65 45 66
REMARK SMILES IDX 38 67 39 68 43 69 46 70 40 71 41 72 44 73 42 74 68 75 69 76
REMARK SMILES IDX 77 77 70 78 71 79 75 80 78 81 72 82 73 83 76 84 74 85 53 86
REMARK SMILES IDX 54 87 62 88 55 89 56 90 60 91 63 92 57 93 58 94 61 95 59 96
REMARK H PARENT 20 5 24 30 83 49 51 60
REMARK Flexibility Score: inf
ROOT
ATOM      1  C   UNL A   1      36.212  20.779  25.335  1.00  0.00     0.117 C 
ENDROOT
BRANCH   1   2
ATOM      2  N   UNL A   1      35.642  19.534  24.852  1.00  0.00    -0.354 N 
ATOM      3  C   UNL A   1      34.348  19.103  24.849  1.00  0.00     0.239 C 
ATOM      4  O   UNL A   1      34.115  17.987  24.377  1.00  0.00    -0.273 OA
ATOM      5  H   UNL A   1      36.291  18.902  24.466  1.00  0.00     0.163 HD
BRANCH   3   6
ATOM      6  C   UNL A   1      33.225  19.986  25.348  1.00  0.00     0.222 C 
BRANCH   6   7
ATOM      7  N   UNL A   1      32.930  21.101  24.462  1.00  0.00    -0.338 N 
ATOM      8  C   UNL A   1      33.153  25.202  24.870  1.00  0.00     0.083 A 
ATOM      9  C   UNL A   1      33.448  24.454  26.009  1.00  0.00     0.024 A 
ATOM     10  C   UNL A   1      32.750  24.578  23.682  1.00  0.00     0.032 A 
ATOM     11  C   UNL A   1      33.497  23.066  25.955  1.00  0.00     0.028 A 
ATOM     12  C   UNL A   1      32.691  23.169  23.644  1.00  0.00     0.001 A 
ATOM     13  C   UNL A   1      33.083  22.439  24.771  1.00  0.00     0.049 A 
ATOM     14  C   UNL A   1      32.291  22.229  22.655  1.00  0.00     0.028 A 
ATOM     15  C   UNL A   1      32.460  20.968  23.179  1.00  0.00     0.087 A 
BRANCH   8  16
ATOM     16  S   UNL A   1      33.222  26.974  24.969  1.00  0.00     0.243 S 
ATOM     17  O   UNL A   1      33.476  27.462  23.622  1.00  0.00    -0.207 OA
ATOM     18  O   UNL A   1      34.117  27.323  26.043  1.00  0.00    -0.207 OA
BRANCH  16  19
ATOM     19  N   UNL A   1      31.644  27.448  25.443  1.00  0.00    -0.198 NA
ATOM     20  C   UNL A   1      29.751  29.684  22.210  1.00  0.00     0.008 C 
ATOM     21  C   UNL A   1      30.016  29.029  23.563  1.00  0.00    -0.012 C 
ATOM     22  C   UNL A   1      31.213  29.630  24.321  1.00  0.00     0.020 C 
ATOM     23  C   UNL A   1      30.228  27.524  23.392  1.00  0.00     0.020 C 
ATOM     24  C   UNL A   1      31.479  28.916  25.648  1.00  0.00     0.103 C 
ATOM     25  C   UNL A   1      30.449  26.890  24.759  1.00  0.00     0.103 C 
ENDBRANCH  16  19
ENDBRANCH   8  16
ENDBRANCH   6   7
ENDBRANCH   3   6
ENDBRANCH   1   2
BRANCH   1  26
ATOM     26  C   UNL A   1      37.697  20.919  25.001  1.00  0.00     0.042 C 
BRANCH  26  27
ATOM     27  C   UNL A   1      38.441  21.892  25.918  1.00  0.00     0.118 C 
BRANCH  27  28
ATOM     28  N   UNL A   1      39.883  21.878  25.754  1.00  0.00    -0.352 N 
ATOM     29  C   UNL A   1      40.922  22.648  26.191  1.00  0.00     0.251 C 
ATOM     30  H   UNL A   1      40.186  21.131  25.189  1.00  0.00     0.163 HD
ATOM     31  O   UNL A   1      42.050  22.220  25.933  1.00  0.00    -0.269 OA
BRANCH  29  32
ATOM     32  C   UNL A   1      40.802  23.965  26.872  1.00  0.00     0.039 A 
ATOM     33  C   UNL A   1      39.976  25.016  26.477  1.00  0.00     0.014 A 
ATOM     34  C   UNL A   1      41.666  24.167  27.968  1.00  0.00     0.014 A 
ATOM     35  C   UNL A   1      40.091  26.264  27.085  1.00  0.00     0.010 A 
ATOM     36  C   UNL A   1      41.774  25.406  28.590  1.00  0.00     0.010 A 
ATOM     37  C   UNL A   1      41.020  26.469  28.111  1.00  0.00    -0.014 A 
BRANCH  37  38
ATOM     38  C   UNL A   1      41.081  27.794  28.724  1.00  0.00     0.031 A 
ATOM     39  C   UNL A   1      42.267  28.603  28.316  1.00  0.00     0.074 A 
ATOM     40  C   UNL A   1      40.120  28.296  29.528  1.00  0.00     0.049 A 
ATOM     41  N   UNL A   1      43.247  29.014  29.053  1.00  0.00    -0.248 NA
ATOM     42  C   UNL A   1      42.444  28.886  26.883  1.00  0.00     0.031 C 
ATOM     43  C   UNL A   1      38.790  27.754  29.817  1.00  0.00     0.029 A 
ATOM     44  N   UNL A   1      40.121  29.474  30.219  1.00  0.00    -0.354 N 
ATOM     45  C   UNL A   1      44.095  29.737  28.212  1.00  0.00     0.074 A 
ATOM     46  C   UNL A   1      43.618  29.520  26.873  1.00  0.00     0.031 C 
ATOM     47  C   UNL A   1      38.046  28.696  30.444  1.00  0.00     0.029 A 
ATOM     48  C   UNL A   1      38.881  29.854  30.716  1.00  0.00     0.049 A 
ATOM     49  H   UNL A   1      40.935  30.010  30.353  1.00  0.00     0.167 HD
ATOM     50  C   UNL A   1      45.000  30.627  28.709  1.00  0.00     0.037 A 
ATOM     51  C   UNL A   1      38.568  31.063  31.250  1.00  0.00     0.037 A 
ATOM     52  C   UNL A   1      45.245  30.397  30.104  1.00  0.00     0.049 A 
ATOM     53  C   UNL A   1      39.836  31.740  31.615  1.00  0.00     0.074 A 
ATOM     54  C   UNL A   1      45.751  29.356  30.858  1.00  0.00     0.029 A 
ATOM     55  N   UNL A   1      44.628  31.242  30.990  1.00  0.00    -0.354 N 
ATOM     56  N   UNL A   1      40.586  31.376  32.614  1.00  0.00    -0.248 NA
ATOM     57  C   UNL A   1      40.494  32.564  30.611  1.00  0.00     0.031 C 
ATOM     58  C   UNL A   1      44.996  29.380  32.067  1.00  0.00     0.029 A 
ATOM     59  C   UNL A   1      44.122  30.463  31.984  1.00  0.00     0.049 A 
ATOM     60  H   UNL A   1      44.563  32.222  30.920  1.00  0.00     0.167 HD
ATOM     61  C   UNL A   1      41.885  31.547  32.155  1.00  0.00     0.074 A 
ATOM     62  C   UNL A   1      41.769  32.367  30.957  1.00  0.00     0.031 C 
ATOM     63  C   UNL A   1      42.888  30.759  32.636  1.00  0.00     0.037 A 
BRANCH  50  64
ATOM     64  C   UNL A   1      45.329  31.967  28.085  1.00  0.00     0.064 A 
ATOM     65  C   UNL A   1      44.263  32.828  27.736  1.00  0.00     0.173 A 
ATOM     66  C   UNL A   1      46.568  32.257  27.479  1.00  0.00     0.173 A 
ATOM     67  F   UNL A   1      43.037  32.644  28.250  1.00  0.00    -0.203 F 
ATOM     68  C   UNL A   1      44.399  33.809  26.753  1.00  0.00     0.198 A 
ATOM     69  C   UNL A   1      46.711  33.276  26.539  1.00  0.00     0.198 A 
ATOM     70  F   UNL A   1      47.653  31.502  27.674  1.00  0.00    -0.203 F 
ATOM     71  F   UNL A   1      43.320  34.485  26.333  1.00  0.00    -0.200 F 
ATOM     72  C   UNL A   1      45.620  34.022  26.144  1.00  0.00     0.200 A 
ATOM     73  F   UNL A   1      47.900  33.458  25.947  1.00  0.00    -0.200 F 
ATOM     74  F   UNL A   1      45.738  34.907  25.146  1.00  0.00    -0.200 F 
ENDBRANCH  50  64
BRANCH  51  75
ATOM     75  C   UNL A   1      37.290  31.813  31.197  1.00  0.00     0.064 A 
ATOM     76  C   UNL A   1      36.539  32.047  32.362  1.00  0.00     0.173 A 
ATOM     77  C   UNL A   1      36.958  32.586  30.071  1.00  0.00     0.173 A 
ATOM     78  F   UNL A   1      36.807  31.368  33.487  1.00  0.00    -0.203 F 
ATOM     79  C   UNL A   1      35.553  33.039  32.412  1.00  0.00     0.198 A 
ATOM     80  C   UNL A   1      35.973  33.573  30.120  1.00  0.00     0.198 A 
ATOM     81  F   UNL A   1      37.655  32.472  28.930  1.00  0.00    -0.203 F 
ATOM     82  F   UNL A   1      34.910  33.288  33.561  1.00  0.00    -0.200 F 
ATOM     83  C   UNL A   1      35.286  33.815  31.296  1.00  0.00     0.200 A 
ATOM     84  F   UNL A   1      35.745  34.339  29.044  1.00  0.00    -0.200 F 
ATOM     85  F   UNL A   1      34.403  34.820  31.365  1.00  0.00    -0.200 F 
ENDBRANCH  51  75
BRANCH  63  86
ATOM     86  C   UNL A   1      42.545  29.942  33.818  1.00  0.00     0.064 A 
ATOM     87  C   UNL A   1      42.719  30.414  35.124  1.00  0.00     0.173 A 
ATOM     88  C   UNL A   1      41.999  28.675  33.617  1.00  0.00     0.173 A 
ATOM     89  F   UNL A   1      43.112  31.673  35.357  1.00  0.00    -0.203 F 
ATOM     90  C   UNL A   1      42.487  29.579  36.199  1.00  0.00     0.198 A 
ATOM     91  C   UNL A   1      41.728  27.857  34.696  1.00  0.00     0.198 A 
ATOM     92  F   UNL A   1      41.730  28.240  32.377  1.00  0.00    -0.203 F 
ATOM     93  F   UNL A   1      42.708  30.028  37.441  1.00  0.00    -0.200 F 
ATOM     94  C   UNL A   1      42.029  28.288  35.976  1.00  0.00     0.200 A 
ATOM     95  F   UNL A   1      41.185  26.647  34.506  1.00  0.00    -0.200 F 
ATOM     96  F   UNL A   1      41.867  27.440  36.996  1.00  0.00    -0.200 F 
ENDBRANCH  63  86
ENDBRANCH  37  38
ENDBRANCH  29  32
ENDBRANCH  27  28
ENDBRANCH  26  27
ENDBRANCH   1  26
TORSDOF 13
ENDMDL
