MODEL 1
REMARK VINA RESULT:     -12.5      0.000      0.000
REMARK SMILES C[C@@H]1OCC[C@H]1C(=O)N[C@]1(C(=O)NCCCNC(=O)c2ccc(-c3c4nc(c(-c5c(F)c(F)c(F)c(F)c5F)c5ccc([nH]5)c(-c5c(F)c(F)c(F)c(F)c5F)c5nc(c(-c6c(F)c(F)c(F)c(F)c6F)c6ccc3[nH]6)C=C5)C=C4)cc2)CCOC1
REMARK SMILES IDX 15 1 14 2 13 3 11 4 12 5 10 7 83 8 86 9 84 10 85 11 9 12
REMARK SMILES IDX 7 13 8 14 6 16 1 17 2 18 3 19 4 20 5 21 16 22 17 23 18 24
REMARK SMILES IDX 19 26 20 27 21 28 82 29 22 30 81 31 23 32 24 33 25 34 75 35
REMARK SMILES IDX 26 36 80 37 74 38 76 39 27 40 79 41 73 42 72 43 28 45 60 46
REMARK SMILES IDX 40 47 59 48 41 49 44 50 58 51 77 52 42 53 43 54 57 56 78 57
REMARK SMILES IDX 45 58 29 59 30 60 38 61 31 62 32 63 36 64 39 65 33 66 34 67
REMARK SMILES IDX 37 68 35 69 61 70 62 71 70 72 63 73 64 74 68 75 71 76 65 77
REMARK SMILES IDX 66 78 69 79 67 80 46 81 47 82 55 83 48 84 49 85 53 86 56 87
REMARK SMILES IDX 50 88 51 89 54 90 52 91
REMARK H PARENT 13 6 9 15 17 25 76 44 44 55
REMARK Flexibility Score: inf
ROOT
ATOM      1  C   UNL A   1      31.362  32.173  26.506  1.00  0.00     0.042 C 
ENDROOT
BRANCH   1   2
ATOM      2  C   UNL A   1      31.479  30.683  26.200  1.00  0.00     0.117 C 
BRANCH   2   3
ATOM      3  N   UNL A   1      31.405  30.394  24.779  1.00  0.00    -0.354 N 
ATOM      4  C   UNL A   1      30.787  29.310  24.231  1.00  0.00     0.248 C 
ATOM      5  O   UNL A   1      29.780  29.518  23.550  1.00  0.00    -0.272 OA
ATOM      6  H   UNL A   1      31.835  31.031  24.163  1.00  0.00     0.163 HD
BRANCH   4   7
ATOM      7  C   UNL A   1      31.315  27.881  24.463  1.00  0.00     0.144 C 
ATOM      8  C   UNL A   1      31.443  27.339  25.882  1.00  0.00     0.069 C 
ATOM      9  C   UNL A   1      30.174  27.011  23.873  1.00  0.00     0.198 C 
ATOM     10  C   UNL A   1      30.875  25.934  25.804  1.00  0.00     0.163 C 
ATOM     11  O   UNL A   1      29.923  25.907  24.748  1.00  0.00    -0.378 OA
BRANCH   7  12
ATOM     12  N   UNL A   1      32.581  27.570  23.722  1.00  0.00    -0.339 N 
ATOM     13  C   UNL A   1      33.143  26.487  23.144  1.00  0.00     0.226 C 
ATOM     14  O   UNL A   1      33.754  26.738  22.092  1.00  0.00    -0.275 OA
ATOM     15  H   UNL A   1      33.154  28.367  23.631  1.00  0.00     0.164 HD
BRANCH  13  16
ATOM     16  C   UNL A   1      33.140  25.035  23.619  1.00  0.00     0.109 C 
ATOM     17  C   UNL A   1      31.961  22.869  22.992  1.00  0.00     0.039 C 
ATOM     18  C   UNL A   1      32.975  23.938  22.591  1.00  0.00     0.127 C 
ATOM     19  O   UNL A   1      34.253  23.288  22.458  1.00  0.00    -0.378 OA
ATOM     20  C   UNL A   1      35.136  23.752  23.483  1.00  0.00     0.161 C 
ATOM     21  C   UNL A   1      34.344  24.621  24.427  1.00  0.00     0.044 C 
ENDBRANCH  13  16
ENDBRANCH   7  12
ENDBRANCH   4   7
ENDBRANCH   2   3
ENDBRANCH   1   2
BRANCH   1  22
ATOM     22  C   UNL A   1      32.591  32.781  27.181  1.00  0.00     0.118 C 
BRANCH  22  23
ATOM     23  N   UNL A   1      32.386  34.159  27.605  1.00  0.00    -0.352 N 
ATOM     24  C   UNL A   1      32.989  34.902  28.589  1.00  0.00     0.251 C 
ATOM     25  H   UNL A   1      31.695  34.642  27.097  1.00  0.00     0.163 HD
ATOM     26  O   UNL A   1      32.522  35.995  28.894  1.00  0.00    -0.269 OA
BRANCH  24  27
ATOM     27  C   UNL A   1      34.176  34.392  29.307  1.00  0.00     0.039 A 
ATOM     28  C   UNL A   1      33.994  33.770  30.546  1.00  0.00     0.014 A 
ATOM     29  C   UNL A   1      35.465  34.558  28.796  1.00  0.00     0.014 A 
ATOM     30  C   UNL A   1      35.093  33.247  31.232  1.00  0.00     0.010 A 
ATOM     31  C   UNL A   1      36.549  33.964  29.438  1.00  0.00     0.010 A 
ATOM     32  C   UNL A   1      36.375  33.301  30.662  1.00  0.00    -0.014 A 
BRANCH  32  33
ATOM     33  C   UNL A   1      37.542  32.662  31.326  1.00  0.00     0.031 A 
ATOM     34  C   UNL A   1      38.268  31.526  30.659  1.00  0.00     0.074 A 
ATOM     35  C   UNL A   1      37.901  33.057  32.563  1.00  0.00     0.049 A 
ATOM     36  N   UNL A   1      39.247  30.787  31.116  1.00  0.00    -0.248 NA
ATOM     37  C   UNL A   1      37.818  31.155  29.308  1.00  0.00     0.031 C 
ATOM     38  C   UNL A   1      37.248  34.114  33.336  1.00  0.00     0.029 A 
ATOM     39  N   UNL A   1      38.896  32.606  33.394  1.00  0.00    -0.354 N 
ATOM     40  C   UNL A   1      39.514  29.855  30.122  1.00  0.00     0.074 A 
ATOM     41  C   UNL A   1      38.562  30.089  29.057  1.00  0.00     0.031 C 
ATOM     42  C   UNL A   1      37.871  34.246  34.517  1.00  0.00     0.029 A 
ATOM     43  C   UNL A   1      38.940  33.255  34.604  1.00  0.00     0.049 A 
ATOM     44  H   UNL A   1      39.520  31.885  33.146  1.00  0.00     0.167 HD
ATOM     45  C   UNL A   1      40.480  28.906  30.089  1.00  0.00     0.037 A 
ATOM     46  C   UNL A   1      39.743  33.066  35.669  1.00  0.00     0.037 A 
ATOM     47  C   UNL A   1      41.445  28.695  31.137  1.00  0.00     0.049 A 
ATOM     48  C   UNL A   1      40.805  32.002  35.607  1.00  0.00     0.074 A 
ATOM     49  C   UNL A   1      42.502  27.802  31.170  1.00  0.00     0.029 A 
ATOM     50  N   UNL A   1      41.471  29.387  32.339  1.00  0.00    -0.354 N 
ATOM     51  N   UNL A   1      41.090  31.171  34.634  1.00  0.00    -0.248 NA
ATOM     52  C   UNL A   1      41.663  31.854  36.791  1.00  0.00     0.031 C 
ATOM     53  C   UNL A   1      43.138  27.920  32.410  1.00  0.00     0.029 A 
ATOM     54  C   UNL A   1      42.510  28.925  33.129  1.00  0.00     0.049 A 
ATOM     55  H   UNL A   1      40.843  30.102  32.592  1.00  0.00     0.167 HD
ATOM     56  C   UNL A   1      42.173  30.425  35.075  1.00  0.00     0.074 A 
ATOM     57  C   UNL A   1      42.506  30.910  36.398  1.00  0.00     0.031 C 
ATOM     58  C   UNL A   1      42.835  29.425  34.440  1.00  0.00     0.037 A 
BRANCH  45  59
ATOM     59  C   UNL A   1      40.547  28.022  28.877  1.00  0.00     0.064 A 
ATOM     60  C   UNL A   1      39.827  26.820  28.802  1.00  0.00     0.173 A 
ATOM     61  C   UNL A   1      41.307  28.401  27.760  1.00  0.00     0.173 A 
ATOM     62  F   UNL A   1      39.092  26.406  29.846  1.00  0.00    -0.203 F 
ATOM     63  C   UNL A   1      39.889  26.017  27.666  1.00  0.00     0.198 A 
ATOM     64  C   UNL A   1      41.342  27.611  26.614  1.00  0.00     0.198 A 
ATOM     65  F   UNL A   1      42.010  29.543  27.776  1.00  0.00    -0.203 F 
ATOM     66  F   UNL A   1      39.230  24.850  27.636  1.00  0.00    -0.200 F 
ATOM     67  C   UNL A   1      40.640  26.416  26.570  1.00  0.00     0.200 A 
ATOM     68  F   UNL A   1      42.057  28.005  25.551  1.00  0.00    -0.200 F 
ATOM     69  F   UNL A   1      40.690  25.646  25.475  1.00  0.00    -0.200 F 
ENDBRANCH  45  59
BRANCH  46  70
ATOM     70  C   UNL A   1      39.588  33.916  36.877  1.00  0.00     0.064 A 
ATOM     71  C   UNL A   1      38.810  33.487  37.962  1.00  0.00     0.173 A 
ATOM     72  C   UNL A   1      40.203  35.172  36.973  1.00  0.00     0.173 A 
ATOM     73  F   UNL A   1      38.185  32.302  37.909  1.00  0.00    -0.203 F 
ATOM     74  C   UNL A   1      38.635  34.292  39.086  1.00  0.00     0.198 A 
ATOM     75  C   UNL A   1      40.052  35.964  38.110  1.00  0.00     0.198 A 
ATOM     76  F   UNL A   1      40.964  35.626  35.966  1.00  0.00    -0.203 F 
ATOM     77  F   UNL A   1      37.846  33.878  40.087  1.00  0.00    -0.200 F 
ATOM     78  C   UNL A   1      39.260  35.527  39.161  1.00  0.00     0.200 A 
ATOM     79  F   UNL A   1      40.671  37.149  38.185  1.00  0.00    -0.200 F 
ATOM     80  F   UNL A   1      39.094  36.299  40.244  1.00  0.00    -0.200 F 
ENDBRANCH  46  70
BRANCH  58  81
ATOM     81  C   UNL A   1      44.008  28.815  35.151  1.00  0.00     0.064 A 
ATOM     82  C   UNL A   1      43.863  27.701  35.990  1.00  0.00     0.173 A 
ATOM     83  C   UNL A   1      45.300  29.330  34.959  1.00  0.00     0.173 A 
ATOM     84  F   UNL A   1      42.649  27.181  36.219  1.00  0.00    -0.203 F 
ATOM     85  C   UNL A   1      44.966  27.139  36.630  1.00  0.00     0.198 A 
ATOM     86  C   UNL A   1      46.403  28.748  35.576  1.00  0.00     0.198 A 
ATOM     87  F   UNL A   1      45.492  30.391  34.161  1.00  0.00    -0.203 F 
ATOM     88  F   UNL A   1      44.798  26.105  37.465  1.00  0.00    -0.200 F 
ATOM     89  C   UNL A   1      46.234  27.658  36.417  1.00  0.00     0.200 A 
ATOM     90  F   UNL A   1      47.630  29.242  35.357  1.00  0.00    -0.200 F 
ATOM     91  F   UNL A   1      47.295  27.112  37.027  1.00  0.00    -0.200 F 
ENDBRANCH  58  81
ENDBRANCH  32  33
ENDBRANCH  24  27
ENDBRANCH  22  23
ENDBRANCH   1  22
TORSDOF 12
ENDMDL
MODEL 2
REMARK VINA RESULT:     -12.4      0.087      1.622
REMARK SMILES C[C@@H]1OCC[C@H]1C(=O)N[C@]1(C(=O)NCCCNC(=O)c2ccc(-c3c4nc(c(-c5c(F)c(F)c(F)c(F)c5F)c5ccc([nH]5)c(-c5c(F)c(F)c(F)c(F)c5F)c5nc(c(-c6c(F)c(F)c(F)c(F)c6F)c6ccc3[nH]6)C=C5)C=C4)cc2)CCOC1
REMARK SMILES IDX 15 1 14 2 13 3 11 4 12 5 10 7 83 8 86 9 84 10 85 11 9 12
REMARK SMILES IDX 7 13 8 14 6 16 1 17 2 18 3 19 4 20 5 21 16 22 17 23 18 24
REMARK SMILES IDX 19 26 20 27 21 28 82 29 22 30 81 31 23 32 24 33 25 34 75 35
REMARK SMILES IDX 26 36 80 37 74 38 76 39 27 40 79 41 73 42 72 43 28 45 60 46
REMARK SMILES IDX 40 47 59 48 41 49 44 50 58 51 77 52 42 53 43 54 57 56 78 57
REMARK SMILES IDX 45 58 29 59 30 60 38 61 31 62 32 63 36 64 39 65 33 66 34 67
REMARK SMILES IDX 37 68 35 69 61 70 62 71 70 72 63 73 64 74 68 75 71 76 65 77
REMARK SMILES IDX 66 78 69 79 67 80 46 81 47 82 55 83 48 84 49 85 53 86 56 87
REMARK SMILES IDX 50 88 51 89 54 90 52 91
REMARK H PARENT 13 6 9 15 17 25 76 44 44 55
REMARK Flexibility Score: inf
ROOT
ATOM      1  C   UNL A   1      31.357  32.169  26.500  1.00  0.00     0.042 C 
ENDROOT
BRANCH   1   2
ATOM      2  C   UNL A   1      31.468  30.680  26.187  1.00  0.00     0.117 C 
BRANCH   2   3
ATOM      3  N   UNL A   1      31.367  30.396  24.767  1.00  0.00    -0.354 N 
ATOM      4  C   UNL A   1      30.735  29.315  24.228  1.00  0.00     0.248 C 
ATOM      5  O   UNL A   1      29.716  29.527  23.566  1.00  0.00    -0.272 OA
ATOM      6  H   UNL A   1      31.787  31.033  24.145  1.00  0.00     0.163 HD
BRANCH   4   7
ATOM      7  C   UNL A   1      31.263  27.883  24.446  1.00  0.00     0.144 C 
ATOM      8  C   UNL A   1      31.348  27.311  25.855  1.00  0.00     0.069 C 
ATOM      9  C   UNL A   1      30.146  27.021  23.800  1.00  0.00     0.198 C 
ATOM     10  C   UNL A   1      30.791  25.906  25.729  1.00  0.00     0.163 C 
ATOM     11  O   UNL A   1      29.874  25.897  24.642  1.00  0.00    -0.378 OA
BRANCH   7  12
ATOM     12  N   UNL A   1      32.555  27.595  23.739  1.00  0.00    -0.339 N 
ATOM     13  C   UNL A   1      33.148  26.523  23.172  1.00  0.00     0.226 C 
ATOM     14  O   UNL A   1      33.785  26.788  22.139  1.00  0.00    -0.275 OA
ATOM     15  H   UNL A   1      33.118  28.401  23.668  1.00  0.00     0.164 HD
BRANCH  13  16
ATOM     16  C   UNL A   1      33.153  25.069  23.639  1.00  0.00     0.109 C 
ATOM     17  C   UNL A   1      31.967  22.905  23.017  1.00  0.00     0.039 C 
ATOM     18  C   UNL A   1      32.975  23.977  22.608  1.00  0.00     0.127 C 
ATOM     19  O   UNL A   1      34.251  23.328  22.454  1.00  0.00    -0.378 OA
ATOM     20  C   UNL A   1      35.148  23.788  23.469  1.00  0.00     0.161 C 
ATOM     21  C   UNL A   1      34.368  24.651  24.428  1.00  0.00     0.044 C 
ENDBRANCH  13  16
ENDBRANCH   7  12
ENDBRANCH   4   7
ENDBRANCH   2   3
ENDBRANCH   1   2
BRANCH   1  22
ATOM     22  C   UNL A   1      32.575  32.763  27.204  1.00  0.00     0.118 C 
BRANCH  22  23
ATOM     23  N   UNL A   1      32.381  34.147  27.612  1.00  0.00    -0.352 N 
ATOM     24  C   UNL A   1      32.990  34.897  28.586  1.00  0.00     0.251 C 
ATOM     25  H   UNL A   1      31.692  34.629  27.099  1.00  0.00     0.163 HD
ATOM     26  O   UNL A   1      32.531  35.997  28.879  1.00  0.00    -0.269 OA
BRANCH  24  27
ATOM     27  C   UNL A   1      34.175  34.388  29.308  1.00  0.00     0.039 A 
ATOM     28  C   UNL A   1      33.989  33.767  30.547  1.00  0.00     0.014 A 
ATOM     29  C   UNL A   1      35.465  34.554  28.801  1.00  0.00     0.014 A 
ATOM     30  C   UNL A   1      35.086  33.245  31.237  1.00  0.00     0.010 A 
ATOM     31  C   UNL A   1      36.548  33.960  29.447  1.00  0.00     0.010 A 
ATOM     32  C   UNL A   1      36.370  33.298  30.671  1.00  0.00    -0.014 A 
BRANCH  32  33
ATOM     33  C   UNL A   1      37.534  32.659  31.339  1.00  0.00     0.031 A 
ATOM     34  C   UNL A   1      38.259  31.519  30.678  1.00  0.00     0.074 A 
ATOM     35  C   UNL A   1      37.893  33.059  32.574  1.00  0.00     0.049 A 
ATOM     36  N   UNL A   1      39.235  30.780  31.140  1.00  0.00    -0.248 NA
ATOM     37  C   UNL A   1      37.809  31.143  29.329  1.00  0.00     0.031 C 
ATOM     38  C   UNL A   1      37.242  34.122  33.342  1.00  0.00     0.029 A 
ATOM     39  N   UNL A   1      38.887  32.610  33.408  1.00  0.00    -0.354 N 
ATOM     40  C   UNL A   1      39.502  29.842  30.150  1.00  0.00     0.074 A 
ATOM     41  C   UNL A   1      38.551  30.074  29.083  1.00  0.00     0.031 C 
ATOM     42  C   UNL A   1      37.864  34.257  34.523  1.00  0.00     0.029 A 
ATOM     43  C   UNL A   1      38.930  33.265  34.616  1.00  0.00     0.049 A 
ATOM     44  H   UNL A   1      39.509  31.887  33.165  1.00  0.00     0.167 HD
ATOM     45  C   UNL A   1      40.465  28.891  30.123  1.00  0.00     0.037 A 
ATOM     46  C   UNL A   1      39.732  33.079  35.682  1.00  0.00     0.037 A 
ATOM     47  C   UNL A   1      41.429  28.683  31.173  1.00  0.00     0.049 A 
ATOM     48  C   UNL A   1      40.792  32.012  35.627  1.00  0.00     0.074 A 
ATOM     49  C   UNL A   1      42.484  27.787  31.211  1.00  0.00     0.029 A 
ATOM     50  N   UNL A   1      41.455  29.381  32.371  1.00  0.00    -0.354 N 
ATOM     51  N   UNL A   1      41.076  31.176  34.658  1.00  0.00    -0.248 NA
ATOM     52  C   UNL A   1      41.648  31.867  36.812  1.00  0.00     0.031 C 
ATOM     53  C   UNL A   1      43.119  27.910  32.451  1.00  0.00     0.029 A 
ATOM     54  C   UNL A   1      42.492  28.920  33.164  1.00  0.00     0.049 A 
ATOM     55  H   UNL A   1      40.829  30.098  32.621  1.00  0.00     0.167 HD
ATOM     56  C   UNL A   1      42.157  30.429  35.103  1.00  0.00     0.074 A 
ATOM     57  C   UNL A   1      42.489  30.920  36.424  1.00  0.00     0.031 C 
ATOM     58  C   UNL A   1      42.817  29.425  34.473  1.00  0.00     0.037 A 
BRANCH  45  59
ATOM     59  C   UNL A   1      40.532  28.001  28.914  1.00  0.00     0.064 A 
ATOM     60  C   UNL A   1      41.326  28.326  27.804  1.00  0.00     0.173 A 
ATOM     61  C   UNL A   1      39.826  26.789  28.884  1.00  0.00     0.173 A 
ATOM     62  F   UNL A   1      42.013  29.478  27.779  1.00  0.00    -0.203 F 
ATOM     63  C   UNL A   1      41.387  27.484  26.696  1.00  0.00     0.198 A 
ATOM     64  C   UNL A   1      39.915  25.935  27.787  1.00  0.00     0.198 A 
ATOM     65  F   UNL A   1      39.057  26.427  29.922  1.00  0.00    -0.203 F 
ATOM     66  F   UNL A   1      42.115  27.839  25.628  1.00  0.00    -0.200 F 
ATOM     67  C   UNL A   1      40.689  26.286  26.692  1.00  0.00     0.200 A 
ATOM     68  F   UNL A   1      39.250  24.771  27.790  1.00  0.00    -0.200 F 
ATOM     69  F   UNL A   1      40.757  25.474  25.629  1.00  0.00    -0.200 F 
ENDBRANCH  45  59
BRANCH  46  70
ATOM     70  C   UNL A   1      39.577  33.935  36.887  1.00  0.00     0.064 A 
ATOM     71  C   UNL A   1      38.807  33.507  37.977  1.00  0.00     0.173 A 
ATOM     72  C   UNL A   1      40.186  35.195  36.972  1.00  0.00     0.173 A 
ATOM     73  F   UNL A   1      38.189  32.318  37.935  1.00  0.00    -0.203 F 
ATOM     74  C   UNL A   1      38.633  34.317  39.098  1.00  0.00     0.198 A 
ATOM     75  C   UNL A   1      40.035  35.992  38.105  1.00  0.00     0.198 A 
ATOM     76  F   UNL A   1      40.938  35.648  35.958  1.00  0.00    -0.203 F 
ATOM     77  F   UNL A   1      37.852  33.904  40.105  1.00  0.00    -0.200 F 
ATOM     78  C   UNL A   1      39.251  35.557  39.163  1.00  0.00     0.200 A 
ATOM     79  F   UNL A   1      40.647  37.182  38.170  1.00  0.00    -0.200 F 
ATOM     80  F   UNL A   1      39.085  36.334  40.242  1.00  0.00    -0.200 F 
ENDBRANCH  46  70
BRANCH  58  81
ATOM     81  C   UNL A   1      43.988  28.816  35.189  1.00  0.00     0.064 A 
ATOM     82  C   UNL A   1      45.291  29.304  35.020  1.00  0.00     0.173 A 
ATOM     83  C   UNL A   1      43.795  27.752  36.085  1.00  0.00     0.173 A 
ATOM     84  F   UNL A   1      45.530  30.308  34.164  1.00  0.00    -0.203 F 
ATOM     85  C   UNL A   1      46.363  28.735  35.704  1.00  0.00     0.198 A 
ATOM     86  C   UNL A   1      44.863  27.205  36.789  1.00  0.00     0.198 A 
ATOM     87  F   UNL A   1      42.566  27.252  36.286  1.00  0.00    -0.203 F 
ATOM     88  F   UNL A   1      47.606  29.187  35.491  1.00  0.00    -0.200 F 
ATOM     89  C   UNL A   1      46.147  27.692  36.593  1.00  0.00     0.200 A 
ATOM     90  F   UNL A   1      44.651  26.207  37.658  1.00  0.00    -0.200 F 
ATOM     91  F   UNL A   1      47.178  27.151  37.256  1.00  0.00    -0.200 F 
ENDBRANCH  58  81
ENDBRANCH  32  33
ENDBRANCH  24  27
ENDBRANCH  22  23
ENDBRANCH   1  22
TORSDOF 12
ENDMDL
MODEL 3
REMARK VINA RESULT:     -12.4      4.158     10.675
REMARK SMILES C[C@@H]1OCC[C@H]1C(=O)N[C@]1(C(=O)NCCCNC(=O)c2ccc(-c3c4nc(c(-c5c(F)c(F)c(F)c(F)c5F)c5ccc([nH]5)c(-c5c(F)c(F)c(F)c(F)c5F)c5nc(c(-c6c(F)c(F)c(F)c(F)c6F)c6ccc3[nH]6)C=C5)C=C4)cc2)CCOC1
REMARK SMILES IDX 15 1 14 2 13 3 11 4 12 5 10 7 83 8 86 9 84 10 85 11 9 12
REMARK SMILES IDX 7 13 8 14 6 16 1 17 2 18 3 19 4 20 5 21 16 22 17 23 18 24
REMARK SMILES IDX 19 26 20 27 21 28 82 29 22 30 81 31 23 32 24 33 25 34 75 35
REMARK SMILES IDX 26 36 80 37 74 38 76 39 27 40 79 41 73 42 72 43 28 45 60 46
REMARK SMILES IDX 40 47 59 48 41 49 44 50 58 51 77 52 42 53 43 54 57 56 78 57
REMARK SMILES IDX 45 58 29 59 30 60 38 61 31 62 32 63 36 64 39 65 33 66 34 67
REMARK SMILES IDX 37 68 35 69 61 70 62 71 70 72 63 73 64 74 68 75 71 76 65 77
REMARK SMILES IDX 66 78 69 79 67 80 46 81 47 82 55 83 48 84 49 85 53 86 56 87
REMARK SMILES IDX 50 88 51 89 54 90 52 91
REMARK H PARENT 13 6 9 15 17 25 76 44 44 55
REMARK Flexibility Score: inf
ROOT
ATOM      1  C   UNL A   1      34.883  32.503  29.896  1.00  0.00     0.042 C 
ENDROOT
BRANCH   1   2
ATOM      2  C   UNL A   1      36.208  33.199  30.191  1.00  0.00     0.117 C 
BRANCH   2   3
ATOM      3  N   UNL A   1      37.066  32.425  31.070  1.00  0.00    -0.354 N 
ATOM      4  C   UNL A   1      36.731  32.010  32.325  1.00  0.00     0.248 C 
ATOM      5  O   UNL A   1      36.599  30.796  32.502  1.00  0.00    -0.272 OA
ATOM      6  H   UNL A   1      37.959  32.180  30.734  1.00  0.00     0.163 HD
BRANCH   4   7
ATOM      7  C   UNL A   1      36.513  33.014  33.473  1.00  0.00     0.144 C 
ATOM      8  C   UNL A   1      37.223  32.812  34.806  1.00  0.00     0.069 C 
ATOM      9  C   UNL A   1      37.194  34.295  32.920  1.00  0.00     0.198 C 
ATOM     10  C   UNL A   1      37.744  34.189  35.171  1.00  0.00     0.163 C 
ATOM     11  O   UNL A   1      37.956  34.910  33.964  1.00  0.00    -0.378 OA
BRANCH   7  12
ATOM     12  N   UNL A   1      35.071  33.324  33.747  1.00  0.00    -0.339 N 
ATOM     13  C   UNL A   1      34.055  33.935  33.100  1.00  0.00     0.226 C 
ATOM     14  O   UNL A   1      32.950  33.396  33.278  1.00  0.00    -0.275 OA
ATOM     15  H   UNL A   1      34.790  32.993  34.632  1.00  0.00     0.164 HD
BRANCH  13  16
ATOM     16  C   UNL A   1      34.089  35.182  32.219  1.00  0.00     0.109 C 
ATOM     17  C   UNL A   1      33.279  35.853  29.903  1.00  0.00     0.039 C 
ATOM     18  C   UNL A   1      32.900  35.474  31.332  1.00  0.00     0.127 C 
ATOM     19  O   UNL A   1      32.211  36.601  31.906  1.00  0.00    -0.378 OA
ATOM     20  C   UNL A   1      33.006  37.166  32.953  1.00  0.00     0.161 C 
ATOM     21  C   UNL A   1      34.346  36.477  32.949  1.00  0.00     0.044 C 
ENDBRANCH  13  16
ENDBRANCH   7  12
ENDBRANCH   4   7
ENDBRANCH   2   3
ENDBRANCH   1   2
BRANCH   1  22
ATOM     22  C   UNL A   1      34.540  32.393  28.412  1.00  0.00     0.118 C 
BRANCH  22  23
ATOM     23  N   UNL A   1      33.997  31.092  28.047  1.00  0.00    -0.352 N 
ATOM     24  C   UNL A   1      34.607  29.878  27.856  1.00  0.00     0.251 C 
ATOM     25  H   UNL A   1      33.021  31.081  27.916  1.00  0.00     0.163 HD
ATOM     26  O   UNL A   1      33.970  28.951  27.365  1.00  0.00    -0.269 OA
BRANCH  24  27
ATOM     27  C   UNL A   1      36.030  29.679  28.204  1.00  0.00     0.039 A 
ATOM     28  C   UNL A   1      36.348  29.202  29.480  1.00  0.00     0.014 A 
ATOM     29  C   UNL A   1      37.052  29.997  27.308  1.00  0.00     0.014 A 
ATOM     30  C   UNL A   1      37.681  28.972  29.826  1.00  0.00     0.010 A 
ATOM     31  C   UNL A   1      38.374  29.688  27.622  1.00  0.00     0.010 A 
ATOM     32  C   UNL A   1      38.703  29.171  28.884  1.00  0.00    -0.014 A 
BRANCH  32  33
ATOM     33  C   UNL A   1      40.117  28.835  29.196  1.00  0.00     0.031 A 
ATOM     34  C   UNL A   1      40.982  29.810  29.945  1.00  0.00     0.074 A 
ATOM     35  C   UNL A   1      40.641  27.680  28.741  1.00  0.00     0.049 A 
ATOM     36  N   UNL A   1      42.257  29.734  30.231  1.00  0.00    -0.248 NA
ATOM     37  C   UNL A   1      40.336  31.046  30.410  1.00  0.00     0.031 C 
ATOM     38  C   UNL A   1      39.919  26.672  27.963  1.00  0.00     0.029 A 
ATOM     39  N   UNL A   1      41.908  27.165  28.854  1.00  0.00    -0.354 N 
ATOM     40  C   UNL A   1      42.568  30.917  30.891  1.00  0.00     0.074 A 
ATOM     41  C   UNL A   1      41.361  31.714  30.918  1.00  0.00     0.031 C 
ATOM     42  C   UNL A   1      40.747  25.652  27.687  1.00  0.00     0.029 A 
ATOM     43  C   UNL A   1      42.068  25.951  28.231  1.00  0.00     0.049 A 
ATOM     44  H   UNL A   1      42.635  27.623  29.337  1.00  0.00     0.167 HD
ATOM     45  C   UNL A   1      43.746  31.293  31.444  1.00  0.00     0.037 A 
ATOM     46  C   UNL A   1      43.159  25.171  28.103  1.00  0.00     0.037 A 
ATOM     47  C   UNL A   1      44.938  30.484  31.442  1.00  0.00     0.049 A 
ATOM     48  C   UNL A   1      44.456  25.615  28.724  1.00  0.00     0.074 A 
ATOM     49  C   UNL A   1      46.162  30.749  32.031  1.00  0.00     0.029 A 
ATOM     50  N   UNL A   1      45.054  29.250  30.820  1.00  0.00    -0.354 N 
ATOM     51  N   UNL A   1      44.719  26.705  29.402  1.00  0.00    -0.248 NA
ATOM     52  C   UNL A   1      45.607  24.715  28.566  1.00  0.00     0.031 C 
ATOM     53  C   UNL A   1      47.033  29.698  31.725  1.00  0.00     0.029 A 
ATOM     54  C   UNL A   1      46.335  28.752  30.990  1.00  0.00     0.049 A 
ATOM     55  H   UNL A   1      44.332  28.794  30.329  1.00  0.00     0.167 HD
ATOM     56  C   UNL A   1      46.052  26.610  29.775  1.00  0.00     0.074 A 
ATOM     57  C   UNL A   1      46.541  25.347  29.262  1.00  0.00     0.031 C 
ATOM     58  C   UNL A   1      46.804  27.489  30.482  1.00  0.00     0.037 A 
BRANCH  45  59
ATOM     59  C   UNL A   1      43.806  32.640  32.105  1.00  0.00     0.064 A 
ATOM     60  C   UNL A   1      44.158  33.795  31.390  1.00  0.00     0.173 A 
ATOM     61  C   UNL A   1      43.468  32.785  33.459  1.00  0.00     0.173 A 
ATOM     62  F   UNL A   1      44.501  33.710  30.095  1.00  0.00    -0.203 F 
ATOM     63  C   UNL A   1      44.197  35.040  32.014  1.00  0.00     0.198 A 
ATOM     64  C   UNL A   1      43.478  34.036  34.071  1.00  0.00     0.198 A 
ATOM     65  F   UNL A   1      43.118  31.714  34.187  1.00  0.00    -0.203 F 
ATOM     66  F   UNL A   1      44.583  36.121  31.322  1.00  0.00    -0.200 F 
ATOM     67  C   UNL A   1      43.850  35.160  33.351  1.00  0.00     0.200 A 
ATOM     68  F   UNL A   1      43.128  34.153  35.359  1.00  0.00    -0.200 F 
ATOM     69  F   UNL A   1      43.879  36.360  33.946  1.00  0.00    -0.200 F 
ENDBRANCH  45  59
BRANCH  46  70
ATOM     70  C   UNL A   1      43.068  23.880  27.372  1.00  0.00     0.064 A 
ATOM     71  C   UNL A   1      43.418  23.796  26.017  1.00  0.00     0.173 A 
ATOM     72  C   UNL A   1      42.625  22.710  28.006  1.00  0.00     0.173 A 
ATOM     73  F   UNL A   1      43.828  24.892  25.363  1.00  0.00    -0.203 F 
ATOM     74  C   UNL A   1      43.307  22.596  25.318  1.00  0.00     0.198 A 
ATOM     75  C   UNL A   1      42.542  21.504  27.313  1.00  0.00     0.198 A 
ATOM     76  F   UNL A   1      42.285  22.736  29.303  1.00  0.00    -0.203 F 
ATOM     77  F   UNL A   1      43.602  22.555  24.012  1.00  0.00    -0.200 F 
ATOM     78  C   UNL A   1      42.874  21.450  25.967  1.00  0.00     0.200 A 
ATOM     79  F   UNL A   1      42.139  20.396  27.949  1.00  0.00    -0.200 F 
ATOM     80  F   UNL A   1      42.770  20.295  25.295  1.00  0.00    -0.200 F 
ENDBRANCH  46  70
BRANCH  58  81
ATOM     81  C   UNL A   1      48.225  27.101  30.773  1.00  0.00     0.064 A 
ATOM     82  C   UNL A   1      48.559  26.296  31.871  1.00  0.00     0.173 A 
ATOM     83  C   UNL A   1      49.261  27.512  29.919  1.00  0.00     0.173 A 
ATOM     84  F   UNL A   1      47.608  25.891  32.726  1.00  0.00    -0.203 F 
ATOM     85  C   UNL A   1      49.882  25.934  32.117  1.00  0.00     0.198 A 
ATOM     86  C   UNL A   1      50.577  27.123  30.150  1.00  0.00     0.198 A 
ATOM     87  F   UNL A   1      48.993  28.279  28.852  1.00  0.00    -0.203 F 
ATOM     88  F   UNL A   1      50.184  25.203  33.198  1.00  0.00    -0.200 F 
ATOM     89  C   UNL A   1      50.888  26.341  31.253  1.00  0.00     0.200 A 
ATOM     90  F   UNL A   1      51.546  27.506  29.307  1.00  0.00    -0.200 F 
ATOM     91  F   UNL A   1      52.158  25.986  31.487  1.00  0.00    -0.200 F 
ENDBRANCH  58  81
ENDBRANCH  32  33
ENDBRANCH  24  27
ENDBRANCH  22  23
ENDBRANCH   1  22
TORSDOF 12
ENDMDL
