MODEL 1
REMARK VINA RESULT:     -11.6      0.000      0.000
REMARK SMILES CC(C)(C)OC(=O)N1CCSC[C@@H]1CC(=O)NCCCNC(=O)c1ccc(-c2c3nc(c(-c4c(F)c(F)c(F)c(F)c4F)c4ccc([nH]4)c(-c4c(F)c(F)c(F)c(F)c4F)c4nc(c(-c5c(F)c(F)c(F)c(F)c5F)c5ccc2[nH]5)C=C4)C=C3)cc1
REMARK SMILES IDX 18 1 17 2 15 3 16 4 14 6 13 7 8 8 9 9 10 10 12 11 11 12 6 13
REMARK SMILES IDX 7 14 5 15 2 16 1 17 3 18 4 19 19 20 20 21 21 22 22 23 23 25
REMARK SMILES IDX 24 26 25 27 86 28 26 29 85 30 27 31 28 32 29 33 79 34 30 35
REMARK SMILES IDX 84 36 78 37 80 38 31 39 83 40 77 41 76 42 32 44 64 45 44 46
REMARK SMILES IDX 63 47 45 48 48 49 62 50 81 51 46 52 47 53 61 55 82 56 49 57
REMARK SMILES IDX 33 58 34 59 42 60 35 61 36 62 40 63 43 64 37 65 38 66 41 67
REMARK SMILES IDX 39 68 65 69 66 70 74 71 67 72 68 73 72 74 75 75 69 76 70 77
REMARK SMILES IDX 73 78 71 79 50 80 51 81 59 82 52 83 53 84 57 85 60 86 54 87
REMARK SMILES IDX 55 88 58 89 56 90
REMARK H PARENT 17 5 21 24 80 43 48 54
REMARK Flexibility Score: inf
ROOT
ATOM      1  C   UNL A   1      31.630  26.859  26.057  1.00  0.00     0.117 C 
ENDROOT
BRANCH   1   2
ATOM      2  N   UNL A   1      31.275  25.626  26.749  1.00  0.00    -0.356 N 
ATOM      3  C   UNL A   1      31.865  24.393  26.736  1.00  0.00     0.222 C 
ATOM      4  O   UNL A   1      31.318  23.494  27.376  1.00  0.00    -0.275 OA
ATOM      5  H   UNL A   1      30.477  25.693  27.321  1.00  0.00     0.163 HD
BRANCH   3   6
ATOM      6  C   UNL A   1      33.163  24.147  25.991  1.00  0.00     0.126 C 
BRANCH   6   7
ATOM      7  C   UNL A   1      33.262  22.985  24.976  1.00  0.00     0.107 C 
ATOM      8  N   UNL A   1      33.617  21.662  25.514  1.00  0.00    -0.303 N 
ATOM      9  C   UNL A   1      35.028  21.418  25.871  1.00  0.00     0.134 C 
ATOM     10  C   UNL A   1      35.995  21.630  24.703  1.00  0.00     0.091 C 
ATOM     11  C   UNL A   1      34.062  23.296  23.700  1.00  0.00     0.095 C 
ATOM     12  S   UNL A   1      35.859  23.286  23.957  1.00  0.00    -0.158 SA
BRANCH   8  13
ATOM     13  C   UNL A   1      32.663  20.650  25.478  1.00  0.00     0.410 C 
ATOM     14  O   UNL A   1      31.466  20.857  25.385  1.00  0.00    -0.224 OA
BRANCH  13  15
ATOM     15  O   UNL A   1      33.219  19.427  25.648  1.00  0.00    -0.444 OA
BRANCH  15  16
ATOM     16  C   UNL A   1      33.221  18.415  24.608  1.00  0.00     0.106 C 
ATOM     17  C   UNL A   1      32.459  17.250  25.229  1.00  0.00     0.056 C 
ATOM     18  C   UNL A   1      34.657  17.971  24.354  1.00  0.00     0.056 C 
ATOM     19  C   UNL A   1      32.500  18.790  23.305  1.00  0.00     0.056 C 
ENDBRANCH  15  16
ENDBRANCH  13  15
ENDBRANCH   8  13
ENDBRANCH   6   7
ENDBRANCH   3   6
ENDBRANCH   1   2
BRANCH   1  20
ATOM     20  C   UNL A   1      31.868  28.019  27.023  1.00  0.00     0.042 C 
BRANCH  20  21
ATOM     21  C   UNL A   1      33.319  28.445  27.258  1.00  0.00     0.118 C 
BRANCH  21  22
ATOM     22  N   UNL A   1      33.457  29.857  27.588  1.00  0.00    -0.352 N 
ATOM     23  C   UNL A   1      34.464  30.624  28.127  1.00  0.00     0.251 C 
ATOM     24  H   UNL A   1      32.649  30.380  27.378  1.00  0.00     0.163 HD
ATOM     25  O   UNL A   1      34.193  31.801  28.380  1.00  0.00    -0.269 OA
BRANCH  23  26
ATOM     26  C   UNL A   1      35.833  30.137  28.469  1.00  0.00     0.039 A 
ATOM     27  C   UNL A   1      36.798  30.161  27.447  1.00  0.00     0.014 A 
ATOM     28  C   UNL A   1      36.207  29.600  29.702  1.00  0.00     0.014 A 
ATOM     29  C   UNL A   1      38.116  29.721  27.666  1.00  0.00     0.010 A 
ATOM     30  C   UNL A   1      37.547  29.220  29.941  1.00  0.00     0.010 A 
ATOM     31  C   UNL A   1      38.527  29.277  28.929  1.00  0.00    -0.014 A 
BRANCH  31  32
ATOM     32  C   UNL A   1      39.950  28.861  29.186  1.00  0.00     0.031 A 
ATOM     33  C   UNL A   1      40.899  29.777  29.927  1.00  0.00     0.074 A 
ATOM     34  C   UNL A   1      40.433  27.675  28.747  1.00  0.00     0.049 A 
ATOM     35  N   UNL A   1      42.173  29.614  30.200  1.00  0.00    -0.248 NA
ATOM     36  C   UNL A   1      40.345  31.048  30.416  1.00  0.00     0.031 C 
ATOM     37  C   UNL A   1      39.674  26.665  28.012  1.00  0.00     0.029 A 
ATOM     38  N   UNL A   1      41.693  27.122  28.845  1.00  0.00    -0.354 N 
ATOM     39  C   UNL A   1      42.571  30.762  30.876  1.00  0.00     0.074 A 
ATOM     40  C   UNL A   1      41.419  31.637  30.924  1.00  0.00     0.031 C 
ATOM     41  C   UNL A   1      40.476  25.628  27.719  1.00  0.00     0.029 A 
ATOM     42  C   UNL A   1      41.819  25.897  28.227  1.00  0.00     0.049 A 
ATOM     43  H   UNL A   1      42.438  27.564  29.315  1.00  0.00     0.167 HD
ATOM     44  C   UNL A   1      43.770  31.058  31.436  1.00  0.00     0.037 A 
ATOM     45  C   UNL A   1      42.882  25.080  28.077  1.00  0.00     0.037 A 
ATOM     46  C   UNL A   1      44.922  30.192  31.442  1.00  0.00     0.049 A 
ATOM     47  C   UNL A   1      44.216  25.450  28.676  1.00  0.00     0.074 A 
ATOM     48  C   UNL A   1      46.147  30.397  32.055  1.00  0.00     0.029 A 
ATOM     49  N   UNL A   1      44.996  28.965  30.806  1.00  0.00    -0.354 N 
ATOM     50  N   UNL A   1      44.545  26.503  29.382  1.00  0.00    -0.248 NA
ATOM     51  C   UNL A   1      45.327  24.505  28.467  1.00  0.00     0.031 C 
ATOM     52  C   UNL A   1      46.982  29.320  31.744  1.00  0.00     0.029 A 
ATOM     53  C   UNL A   1      46.258  28.416  30.986  1.00  0.00     0.049 A 
ATOM     54  H   UNL A   1      44.263  28.543  30.302  1.00  0.00     0.167 HD
ATOM     55  C   UNL A   1      45.879  26.327  29.733  1.00  0.00     0.074 A 
ATOM     56  C   UNL A   1      46.300  25.062  29.175  1.00  0.00     0.031 C 
ATOM     57  C   UNL A   1      46.681  27.148  30.454  1.00  0.00     0.037 A 
BRANCH  44  58
ATOM     58  C   UNL A   1      43.911  32.392  32.113  1.00  0.00     0.064 A 
ATOM     59  C   UNL A   1      44.326  33.532  31.410  1.00  0.00     0.173 A 
ATOM     60  C   UNL A   1      43.557  32.543  33.463  1.00  0.00     0.173 A 
ATOM     61  F   UNL A   1      44.678  33.438  30.119  1.00  0.00    -0.203 F 
ATOM     62  C   UNL A   1      44.409  34.770  32.041  1.00  0.00     0.198 A 
ATOM     63  C   UNL A   1      43.612  33.789  34.082  1.00  0.00     0.198 A 
ATOM     64  F   UNL A   1      43.141  31.486  34.176  1.00  0.00    -0.203 F 
ATOM     65  F   UNL A   1      44.850  35.838  31.362  1.00  0.00    -0.200 F 
ATOM     66  C   UNL A   1      44.044  34.899  33.373  1.00  0.00     0.200 A 
ATOM     67  F   UNL A   1      43.242  33.915  35.364  1.00  0.00    -0.200 F 
ATOM     68  F   UNL A   1      44.112  36.095  33.975  1.00  0.00    -0.200 F 
ENDBRANCH  44  58
BRANCH  45  69
ATOM     69  C   UNL A   1      42.751  23.803  27.319  1.00  0.00     0.064 A 
ATOM     70  C   UNL A   1      42.304  22.630  27.947  1.00  0.00     0.173 A 
ATOM     71  C   UNL A   1      43.140  23.712  25.975  1.00  0.00     0.173 A 
ATOM     72  F   UNL A   1      41.949  22.657  29.241  1.00  0.00    -0.203 F 
ATOM     73  C   UNL A   1      42.289  21.411  27.272  1.00  0.00     0.198 A 
ATOM     74  C   UNL A   1      43.094  22.498  25.292  1.00  0.00     0.198 A 
ATOM     75  F   UNL A   1      43.578  24.801  25.327  1.00  0.00    -0.203 F 
ATOM     76  F   UNL A   1      41.927  20.294  27.919  1.00  0.00    -0.200 F 
ATOM     77  C   UNL A   1      42.682  21.346  25.944  1.00  0.00     0.200 A 
ATOM     78  F   UNL A   1      43.468  22.441  24.006  1.00  0.00    -0.200 F 
ATOM     79  F   UNL A   1      42.680  20.171  25.299  1.00  0.00    -0.200 F 
ENDBRANCH  45  69
BRANCH  57  80
ATOM     80  C   UNL A   1      48.087  26.694  30.734  1.00  0.00     0.064 A 
ATOM     81  C   UNL A   1      48.393  25.855  31.815  1.00  0.00     0.173 A 
ATOM     82  C   UNL A   1      49.137  27.066  29.878  1.00  0.00     0.173 A 
ATOM     83  F   UNL A   1      47.432  25.480  32.672  1.00  0.00    -0.203 F 
ATOM     84  C   UNL A   1      49.698  25.423  32.041  1.00  0.00     0.198 A 
ATOM     85  C   UNL A   1      50.434  26.606  30.088  1.00  0.00     0.198 A 
ATOM     86  F   UNL A   1      48.901  27.863  28.824  1.00  0.00    -0.203 F 
ATOM     87  F   UNL A   1      49.974  24.657  33.107  1.00  0.00    -0.200 F 
ATOM     88  C   UNL A   1      50.716  25.791  31.173  1.00  0.00     0.200 A 
ATOM     89  F   UNL A   1      51.412  26.951  29.240  1.00  0.00    -0.200 F 
ATOM     90  F   UNL A   1      51.969  25.365  31.387  1.00  0.00    -0.200 F 
ENDBRANCH  57  80
ENDBRANCH  31  32
ENDBRANCH  23  26
ENDBRANCH  21  22
ENDBRANCH  20  21
ENDBRANCH   1  20
TORSDOF 14
ENDMDL
MODEL 2
REMARK VINA RESULT:     -11.1      3.242      8.083
REMARK SMILES CC(C)(C)OC(=O)N1CCSC[C@@H]1CC(=O)NCCCNC(=O)c1ccc(-c2c3nc(c(-c4c(F)c(F)c(F)c(F)c4F)c4ccc([nH]4)c(-c4c(F)c(F)c(F)c(F)c4F)c4nc(c(-c5c(F)c(F)c(F)c(F)c5F)c5ccc2[nH]5)C=C4)C=C3)cc1
REMARK SMILES IDX 18 1 17 2 15 3 16 4 14 6 13 7 8 8 9 9 10 10 12 11 11 12 6 13
REMARK SMILES IDX 7 14 5 15 2 16 1 17 3 18 4 19 19 20 20 21 21 22 22 23 23 25
REMARK SMILES IDX 24 26 25 27 86 28 26 29 85 30 27 31 28 32 29 33 79 34 30 35
REMARK SMILES IDX 84 36 78 37 80 38 31 39 83 40 77 41 76 42 32 44 64 45 44 46
REMARK SMILES IDX 63 47 45 48 48 49 62 50 81 51 46 52 47 53 61 55 82 56 49 57
REMARK SMILES IDX 33 58 34 59 42 60 35 61 36 62 40 63 43 64 37 65 38 66 41 67
REMARK SMILES IDX 39 68 65 69 66 70 74 71 67 72 68 73 72 74 75 75 69 76 70 77
REMARK SMILES IDX 73 78 71 79 50 80 51 81 59 82 52 83 53 84 57 85 60 86 54 87
REMARK SMILES IDX 55 88 58 89 56 90
REMARK H PARENT 17 5 21 24 80 43 48 54
REMARK Flexibility Score: inf
ROOT
ATOM      1  C   UNL A   1      31.300  26.918  25.527  1.00  0.00     0.117 C 
ENDROOT
BRANCH   1   2
ATOM      2  N   UNL A   1      30.678  25.958  26.430  1.00  0.00    -0.356 N 
ATOM      3  C   UNL A   1      30.391  24.632  26.265  1.00  0.00     0.222 C 
ATOM      4  O   UNL A   1      29.798  24.060  27.181  1.00  0.00    -0.275 OA
ATOM      5  H   UNL A   1      30.421  26.327  27.306  1.00  0.00     0.163 HD
BRANCH   3   6
ATOM      6  C   UNL A   1      30.816  23.882  25.017  1.00  0.00     0.126 C 
BRANCH   6   7
ATOM      7  C   UNL A   1      32.236  23.277  24.927  1.00  0.00     0.107 C 
ATOM      8  N   UNL A   1      33.287  24.133  24.354  1.00  0.00    -0.303 N 
ATOM      9  C   UNL A   1      33.311  24.310  22.889  1.00  0.00     0.134 C 
ATOM     10  C   UNL A   1      33.430  22.990  22.121  1.00  0.00     0.091 C 
ATOM     11  C   UNL A   1      32.306  21.853  24.348  1.00  0.00     0.095 C 
ATOM     12  S   UNL A   1      32.118  21.799  22.543  1.00  0.00    -0.158 SA
BRANCH   8  13
ATOM     13  C   UNL A   1      34.314  24.572  25.183  1.00  0.00     0.410 C 
ATOM     14  O   UNL A   1      34.126  25.149  26.239  1.00  0.00    -0.224 OA
BRANCH  13  15
ATOM     15  O   UNL A   1      35.533  24.358  24.633  1.00  0.00    -0.444 OA
BRANCH  15  16
ATOM     16  C   UNL A   1      36.332  23.182  24.925  1.00  0.00     0.106 C 
ATOM     17  C   UNL A   1      37.534  23.736  25.682  1.00  0.00     0.056 C 
ATOM     18  C   UNL A   1      36.822  22.579  23.614  1.00  0.00     0.056 C 
ATOM     19  C   UNL A   1      35.670  22.129  25.826  1.00  0.00     0.056 C 
ENDBRANCH  15  16
ENDBRANCH  13  15
ENDBRANCH   8  13
ENDBRANCH   6   7
ENDBRANCH   3   6
ENDBRANCH   1   2
BRANCH   1  20
ATOM     20  C   UNL A   1      31.563  28.264  26.201  1.00  0.00     0.042 C 
BRANCH  20  21
ATOM     21  C   UNL A   1      32.336  29.309  25.395  1.00  0.00     0.118 C 
BRANCH  21  22
ATOM     22  N   UNL A   1      32.180  30.663  25.909  1.00  0.00    -0.352 N 
ATOM     23  C   UNL A   1      32.851  31.420  26.842  1.00  0.00     0.251 C 
ATOM     24  H   UNL A   1      31.426  31.144  25.497  1.00  0.00     0.163 HD
ATOM     25  O   UNL A   1      32.367  32.521  27.118  1.00  0.00    -0.269 OA
BRANCH  23  26
ATOM     26  C   UNL A   1      34.084  30.999  27.573  1.00  0.00     0.039 A 
ATOM     27  C   UNL A   1      35.028  31.998  27.870  1.00  0.00     0.014 A 
ATOM     28  C   UNL A   1      34.398  29.685  27.921  1.00  0.00     0.014 A 
ATOM     29  C   UNL A   1      36.223  31.704  28.552  1.00  0.00     0.010 A 
ATOM     30  C   UNL A   1      35.566  29.400  28.664  1.00  0.00     0.010 A 
ATOM     31  C   UNL A   1      36.497  30.405  28.997  1.00  0.00    -0.014 A 
BRANCH  31  32
ATOM     32  C   UNL A   1      37.745  30.095  29.779  1.00  0.00     0.031 A 
ATOM     33  C   UNL A   1      38.781  29.140  29.228  1.00  0.00     0.074 A 
ATOM     34  C   UNL A   1      37.971  30.635  30.999  1.00  0.00     0.049 A 
ATOM     35  N   UNL A   1      39.896  28.712  29.776  1.00  0.00    -0.248 NA
ATOM     36  C   UNL A   1      38.527  28.586  27.890  1.00  0.00     0.031 C 
ATOM     37  C   UNL A   1      37.088  31.570  31.695  1.00  0.00     0.029 A 
ATOM     38  N   UNL A   1      39.017  30.462  31.883  1.00  0.00    -0.354 N 
ATOM     39  C   UNL A   1      40.462  27.833  28.858  1.00  0.00     0.074 A 
ATOM     40  C   UNL A   1      39.542  27.747  27.743  1.00  0.00     0.031 C 
ATOM     41  C   UNL A   1      37.617  31.878  32.890  1.00  0.00     0.029 A 
ATOM     42  C   UNL A   1      38.873  31.155  33.065  1.00  0.00     0.049 A 
ATOM     43  H   UNL A   1      39.797  29.894  31.686  1.00  0.00     0.167 HD
ATOM     44  C   UNL A   1      41.648  27.179  28.914  1.00  0.00     0.037 A 
ATOM     45  C   UNL A   1      39.650  31.206  34.167  1.00  0.00     0.037 A 
ATOM     46  C   UNL A   1      42.602  27.277  29.988  1.00  0.00     0.049 A 
ATOM     47  C   UNL A   1      40.947  30.438  34.220  1.00  0.00     0.074 A 
ATOM     48  C   UNL A   1      43.858  26.699  30.077  1.00  0.00     0.029 A 
ATOM     49  N   UNL A   1      42.411  27.991  31.159  1.00  0.00    -0.354 N 
ATOM     50  N   UNL A   1      41.500  29.679  33.306  1.00  0.00    -0.248 NA
ATOM     51  C   UNL A   1      41.738  30.546  35.459  1.00  0.00     0.031 C 
ATOM     52  C   UNL A   1      44.404  27.017  31.324  1.00  0.00     0.029 A 
ATOM     53  C   UNL A   1      43.514  27.841  31.988  1.00  0.00     0.049 A 
ATOM     54  H   UNL A   1      41.612  28.526  31.371  1.00  0.00     0.167 HD
ATOM     55  C   UNL A   1      42.712  29.257  33.841  1.00  0.00     0.074 A 
ATOM     56  C   UNL A   1      42.825  29.851  35.154  1.00  0.00     0.031 C 
ATOM     57  C   UNL A   1      43.645  28.446  33.287  1.00  0.00     0.037 A 
BRANCH  44  58
ATOM     58  C   UNL A   1      42.003  26.285  27.760  1.00  0.00     0.064 A 
ATOM     59  C   UNL A   1      42.903  26.693  26.765  1.00  0.00     0.173 A 
ATOM     60  C   UNL A   1      41.490  24.980  27.688  1.00  0.00     0.173 A 
ATOM     61  F   UNL A   1      43.417  27.933  26.787  1.00  0.00    -0.203 F 
ATOM     62  C   UNL A   1      43.257  25.839  25.725  1.00  0.00     0.198 A 
ATOM     63  C   UNL A   1      41.870  24.118  26.663  1.00  0.00     0.198 A 
ATOM     64  F   UNL A   1      40.636  24.536  28.622  1.00  0.00    -0.203 F 
ATOM     65  F   UNL A   1      44.084  26.264  24.762  1.00  0.00    -0.200 F 
ATOM     66  C   UNL A   1      42.747  24.549  25.680  1.00  0.00     0.200 A 
ATOM     67  F   UNL A   1      41.391  22.866  26.632  1.00  0.00    -0.200 F 
ATOM     68  F   UNL A   1      43.099  23.722  24.685  1.00  0.00    -0.200 F 
ENDBRANCH  44  58
BRANCH  45  69
ATOM     69  C   UNL A   1      39.237  32.023  35.343  1.00  0.00     0.064 A 
ATOM     70  C   UNL A   1      38.459  31.470  36.373  1.00  0.00     0.173 A 
ATOM     71  C   UNL A   1      39.545  33.389  35.424  1.00  0.00     0.173 A 
ATOM     72  F   UNL A   1      38.111  30.175  36.326  1.00  0.00    -0.203 F 
ATOM     73  C   UNL A   1      37.975  32.258  37.415  1.00  0.00     0.198 A 
ATOM     74  C   UNL A   1      39.086  34.169  36.485  1.00  0.00     0.198 A 
ATOM     75  F   UNL A   1      40.282  33.969  34.468  1.00  0.00    -0.203 F 
ATOM     76  F   UNL A   1      37.175  31.718  38.345  1.00  0.00    -0.200 F 
ATOM     77  C   UNL A   1      38.291  33.607  37.472  1.00  0.00     0.200 A 
ATOM     78  F   UNL A   1      39.401  35.471  36.540  1.00  0.00    -0.200 F 
ATOM     79  F   UNL A   1      37.815  34.367  38.467  1.00  0.00    -0.200 F 
ENDBRANCH  45  69
BRANCH  57  80
ATOM     80  C   UNL A   1      44.903  28.182  34.068  1.00  0.00     0.064 A 
ATOM     81  C   UNL A   1      46.027  29.015  33.965  1.00  0.00     0.173 A 
ATOM     82  C   UNL A   1      44.968  27.107  34.969  1.00  0.00     0.173 A 
ATOM     83  F   UNL A   1      46.026  30.048  33.110  1.00  0.00    -0.203 F 
ATOM     84  C   UNL A   1      47.174  28.770  34.718  1.00  0.00     0.198 A 
ATOM     85  C   UNL A   1      46.104  26.884  35.744  1.00  0.00     0.198 A 
ATOM     86  F   UNL A   1      43.920  26.281  35.113  1.00  0.00    -0.203 F 
ATOM     87  F   UNL A   1      48.251  29.554  34.569  1.00  0.00    -0.200 F 
ATOM     88  C   UNL A   1      47.209  27.710  35.612  1.00  0.00     0.200 A 
ATOM     89  F   UNL A   1      46.128  25.869  36.618  1.00  0.00    -0.200 F 
ATOM     90  F   UNL A   1      48.309  27.483  36.343  1.00  0.00    -0.200 F 
ENDBRANCH  57  80
ENDBRANCH  31  32
ENDBRANCH  23  26
ENDBRANCH  21  22
ENDBRANCH  20  21
ENDBRANCH   1  20
TORSDOF 14
ENDMDL
MODEL 3
REMARK VINA RESULT:     -11.1      4.368      6.020
REMARK SMILES CC(C)(C)OC(=O)N1CCSC[C@@H]1CC(=O)NCCCNC(=O)c1ccc(-c2c3nc(c(-c4c(F)c(F)c(F)c(F)c4F)c4ccc([nH]4)c(-c4c(F)c(F)c(F)c(F)c4F)c4nc(c(-c5c(F)c(F)c(F)c(F)c5F)c5ccc2[nH]5)C=C4)C=C3)cc1
REMARK SMILES IDX 18 1 17 2 15 3 16 4 14 6 13 7 8 8 9 9 10 10 12 11 11 12 6 13
REMARK SMILES IDX 7 14 5 15 2 16 1 17 3 18 4 19 19 20 20 21 21 22 22 23 23 25
REMARK SMILES IDX 24 26 25 27 86 28 26 29 85 30 27 31 28 32 29 33 79 34 30 35
REMARK SMILES IDX 84 36 78 37 80 38 31 39 83 40 77 41 76 42 32 44 64 45 44 46
REMARK SMILES IDX 63 47 45 48 48 49 62 50 81 51 46 52 47 53 61 55 82 56 49 57
REMARK SMILES IDX 33 58 34 59 42 60 35 61 36 62 40 63 43 64 37 65 38 66 41 67
REMARK SMILES IDX 39 68 65 69 66 70 74 71 67 72 68 73 72 74 75 75 69 76 70 77
REMARK SMILES IDX 73 78 71 79 50 80 51 81 59 82 52 83 53 84 57 85 60 86 54 87
REMARK SMILES IDX 55 88 58 89 56 90
REMARK H PARENT 17 5 21 24 80 43 48 54
REMARK Flexibility Score: inf
ROOT
ATOM      1  C   UNL A   1      33.347  30.205  27.529  1.00  0.00     0.117 C 
ENDROOT
BRANCH   1   2
ATOM      2  N   UNL A   1      32.331  29.165  27.631  1.00  0.00    -0.356 N 
ATOM      3  C   UNL A   1      32.040  28.117  26.803  1.00  0.00     0.222 C 
ATOM      4  O   UNL A   1      31.075  27.410  27.100  1.00  0.00    -0.275 OA
ATOM      5  H   UNL A   1      31.760  29.227  28.430  1.00  0.00     0.163 HD
BRANCH   3   6
ATOM      6  C   UNL A   1      32.890  27.813  25.585  1.00  0.00     0.126 C 
BRANCH   6   7
ATOM      7  C   UNL A   1      32.542  28.453  24.222  1.00  0.00     0.107 C 
ATOM      8  N   UNL A   1      31.125  28.440  23.824  1.00  0.00    -0.303 N 
ATOM      9  C   UNL A   1      30.559  27.170  23.329  1.00  0.00     0.134 C 
ATOM     10  C   UNL A   1      31.303  26.607  22.116  1.00  0.00     0.091 C 
ATOM     11  C   UNL A   1      33.448  28.034  23.051  1.00  0.00     0.095 C 
ATOM     12  S   UNL A   1      33.084  26.373  22.417  1.00  0.00    -0.158 SA
BRANCH   8  13
ATOM     13  C   UNL A   1      30.444  29.650  23.747  1.00  0.00     0.410 C 
ATOM     14  O   UNL A   1      30.445  30.481  24.638  1.00  0.00    -0.224 OA
BRANCH  13  15
ATOM     15  O   UNL A   1      29.718  29.748  22.608  1.00  0.00    -0.444 OA
BRANCH  15  16
ATOM     16  C   UNL A   1      28.307  30.090  22.604  1.00  0.00     0.106 C 
ATOM     17  C   UNL A   1      28.024  30.453  21.151  1.00  0.00     0.056 C 
ATOM     18  C   UNL A   1      28.098  31.333  23.462  1.00  0.00     0.056 C 
ATOM     19  C   UNL A   1      27.342  28.960  22.990  1.00  0.00     0.056 C 
ENDBRANCH  15  16
ENDBRANCH  13  15
ENDBRANCH   8  13
ENDBRANCH   6   7
ENDBRANCH   3   6
ENDBRANCH   1   2
BRANCH   1  20
ATOM     20  C   UNL A   1      32.905  31.363  26.635  1.00  0.00     0.042 C 
BRANCH  20  21
ATOM     21  C   UNL A   1      31.926  32.373  27.235  1.00  0.00     0.118 C 
BRANCH  21  22
ATOM     22  N   UNL A   1      32.494  33.707  27.382  1.00  0.00    -0.352 N 
ATOM     23  C   UNL A   1      33.613  34.211  28.004  1.00  0.00     0.251 C 
ATOM     24  H   UNL A   1      31.958  34.402  26.936  1.00  0.00     0.163 HD
ATOM     25  O   UNL A   1      33.732  35.439  28.024  1.00  0.00    -0.269 OA
BRANCH  23  26
ATOM     26  C   UNL A   1      34.662  33.399  28.689  1.00  0.00     0.039 A 
ATOM     27  C   UNL A   1      35.957  33.428  28.142  1.00  0.00     0.014 A 
ATOM     28  C   UNL A   1      34.440  32.566  29.786  1.00  0.00     0.014 A 
ATOM     29  C   UNL A   1      37.015  32.695  28.710  1.00  0.00     0.010 A 
ATOM     30  C   UNL A   1      35.515  31.883  30.396  1.00  0.00     0.010 A 
ATOM     31  C   UNL A   1      36.823  31.938  29.873  1.00  0.00    -0.014 A 
BRANCH  31  32
ATOM     32  C   UNL A   1      37.964  31.200  30.520  1.00  0.00     0.031 A 
ATOM     33  C   UNL A   1      38.347  31.481  31.956  1.00  0.00     0.074 A 
ATOM     34  C   UNL A   1      38.694  30.285  29.840  1.00  0.00     0.049 A 
ATOM     35  N   UNL A   1      39.329  30.982  32.671  1.00  0.00    -0.248 NA
ATOM     36  C   UNL A   1      37.523  32.459  32.682  1.00  0.00     0.031 C 
ATOM     37  C   UNL A   1      38.480  29.885  28.450  1.00  0.00     0.029 A 
ATOM     38  N   UNL A   1      39.782  29.531  30.228  1.00  0.00    -0.354 N 
ATOM     39  C   UNL A   1      39.248  31.594  33.917  1.00  0.00     0.074 A 
ATOM     40  C   UNL A   1      38.155  32.541  33.845  1.00  0.00     0.031 C 
ATOM     41  C   UNL A   1      39.404  28.975  28.100  1.00  0.00     0.029 A 
ATOM     42  C   UNL A   1      40.294  28.730  29.232  1.00  0.00     0.049 A 
ATOM     43  H   UNL A   1      40.160  29.562  31.138  1.00  0.00     0.167 HD
ATOM     44  C   UNL A   1      39.987  31.375  35.032  1.00  0.00     0.037 A 
ATOM     45  C   UNL A   1      41.356  27.896  29.215  1.00  0.00     0.037 A 
ATOM     46  C   UNL A   1      41.052  30.411  35.148  1.00  0.00     0.049 A 
ATOM     47  C   UNL A   1      42.186  27.699  30.459  1.00  0.00     0.074 A 
ATOM     48  C   UNL A   1      41.795  30.083  36.271  1.00  0.00     0.029 A 
ATOM     49  N   UNL A   1      41.529  29.625  34.113  1.00  0.00    -0.354 N 
ATOM     50  N   UNL A   1      42.039  28.227  31.648  1.00  0.00    -0.248 NA
ATOM     51  C   UNL A   1      43.329  26.773  30.359  1.00  0.00     0.031 C 
ATOM     52  C   UNL A   1      42.759  29.140  35.902  1.00  0.00     0.029 A 
ATOM     53  C   UNL A   1      42.578  28.837  34.565  1.00  0.00     0.049 A 
ATOM     54  H   UNL A   1      41.176  29.625  33.194  1.00  0.00     0.167 HD
ATOM     55  C   UNL A   1      43.036  27.670  32.441  1.00  0.00     0.074 A 
ATOM     56  C   UNL A   1      43.778  26.753  31.606  1.00  0.00     0.031 C 
ATOM     57  C   UNL A   1      43.309  27.905  33.747  1.00  0.00     0.037 A 
BRANCH  44  58
ATOM     58  C   UNL A   1      39.667  32.194  36.250  1.00  0.00     0.064 A 
ATOM     59  C   UNL A   1      40.367  33.373  36.546  1.00  0.00     0.173 A 
ATOM     60  C   UNL A   1      38.602  31.832  37.090  1.00  0.00     0.173 A 
ATOM     61  F   UNL A   1      41.395  33.760  35.776  1.00  0.00    -0.203 F 
ATOM     62  C   UNL A   1      40.030  34.146  37.654  1.00  0.00     0.198 A 
ATOM     63  C   UNL A   1      38.249  32.624  38.179  1.00  0.00     0.198 A 
ATOM     64  F   UNL A   1      37.894  30.721  36.843  1.00  0.00    -0.203 F 
ATOM     65  F   UNL A   1      40.739  35.245  37.942  1.00  0.00    -0.200 F 
ATOM     66  C   UNL A   1      38.967  33.776  38.464  1.00  0.00     0.200 A 
ATOM     67  F   UNL A   1      37.210  32.274  38.950  1.00  0.00    -0.200 F 
ATOM     68  F   UNL A   1      38.635  34.528  39.522  1.00  0.00    -0.200 F 
ENDBRANCH  44  58
BRANCH  45  69
ATOM     69  C   UNL A   1      41.718  27.162  27.970  1.00  0.00     0.064 A 
ATOM     70  C   UNL A   1      41.212  25.879  27.712  1.00  0.00     0.173 A 
ATOM     71  C   UNL A   1      42.637  27.694  27.053  1.00  0.00     0.173 A 
ATOM     72  F   UNL A   1      40.354  25.312  28.574  1.00  0.00    -0.203 F 
ATOM     73  C   UNL A   1      41.637  25.143  26.607  1.00  0.00     0.198 A 
ATOM     74  C   UNL A   1      43.037  26.969  25.931  1.00  0.00     0.198 A 
ATOM     75  F   UNL A   1      43.155  28.914  27.252  1.00  0.00    -0.203 F 
ATOM     76  F   UNL A   1      41.191  23.893  26.425  1.00  0.00    -0.200 F 
ATOM     77  C   UNL A   1      42.548  25.690  25.716  1.00  0.00     0.200 A 
ATOM     78  F   UNL A   1      43.912  27.505  25.068  1.00  0.00    -0.200 F 
ATOM     79  F   UNL A   1      42.967  24.978  24.662  1.00  0.00    -0.200 F 
ENDBRANCH  45  69
BRANCH  57  80
ATOM     80  C   UNL A   1      44.426  27.126  34.385  1.00  0.00     0.064 A 
ATOM     81  C   UNL A   1      45.728  27.638  34.474  1.00  0.00     0.173 A 
ATOM     82  C   UNL A   1      44.177  25.869  34.961  1.00  0.00     0.173 A 
ATOM     83  F   UNL A   1      46.026  28.826  33.929  1.00  0.00    -0.203 F 
ATOM     84  C   UNL A   1      46.744  26.912  35.094  1.00  0.00     0.198 A 
ATOM     85  C   UNL A   1      45.186  25.161  35.609  1.00  0.00     0.198 A 
ATOM     86  F   UNL A   1      42.948  25.333  34.911  1.00  0.00    -0.203 F 
ATOM     87  F   UNL A   1      47.992  27.402  35.127  1.00  0.00    -0.200 F 
ATOM     88  C   UNL A   1      46.471  25.679  35.668  1.00  0.00     0.200 A 
ATOM     89  F   UNL A   1      44.916  23.978  36.175  1.00  0.00    -0.200 F 
ATOM     90  F   UNL A   1      47.447  24.989  36.274  1.00  0.00    -0.200 F 
ENDBRANCH  57  80
ENDBRANCH  31  32
ENDBRANCH  23  26
ENDBRANCH  21  22
ENDBRANCH  20  21
ENDBRANCH   1  20
TORSDOF 14
ENDMDL
