MODEL 1
REMARK VINA RESULT:     -13.0      0.000      0.000
REMARK SMILES CCOC(=O)C1CCN(c2cc(NCC(=O)NCCCNC(=O)c3ccc(-c4c5nc(c(-c6c(F)c(F)c(F)c(F)c6F)c6ccc([nH]6)c(-c6c(F)c(F)c(F)c(F)c6F)c6nc(c(-c7c(F)c(F)c(F)c(F)c7F)c7ccc4[nH]7)C=C6)C=C5)cc3)c3c4c(onc24)-c2ccccc2C3=O)CC1
REMARK SMILES IDX 15 1 16 2 17 3 14 5 13 6 12 8 10 9 11 10 92 11 88 12 91 13
REMARK SMILES IDX 87 14 89 15 90 16 99 17 93 18 98 19 100 20 94 21 97 22 95 23
REMARK SMILES IDX 96 24 9 25 6 26 7 27 102 28 8 29 101 30 4 31 5 32 3 33 2 34
REMARK SMILES IDX 1 35 18 36 19 37 20 38 21 39 22 40 23 42 24 43 25 44 86 45
REMARK SMILES IDX 26 46 85 47 27 48 28 49 29 50 79 51 30 52 84 53 78 54 80 55
REMARK SMILES IDX 31 56 83 57 77 58 76 59 32 61 64 62 44 63 63 64 45 65 48 66
REMARK SMILES IDX 62 67 81 68 46 69 47 70 61 72 82 73 49 74 33 75 34 76 42 77
REMARK SMILES IDX 35 78 36 79 40 80 43 81 37 82 38 83 41 84 39 85 65 86 66 87
REMARK SMILES IDX 74 88 67 89 68 90 72 91 75 92 69 93 70 94 73 95 71 96 50 97
REMARK SMILES IDX 51 98 59 99 52 100 53 101 57 102 60 103 54 104 55 105 58 106
REMARK SMILES IDX 56 107
REMARK H PARENT 17 4 13 7 21 41 80 60 48 71
REMARK Flexibility Score: inf
ROOT
ATOM      1  C   UNL A   1      38.567  23.842  26.438  1.00  0.00     0.239 C 
ATOM      2  O   UNL A   1      38.679  24.878  27.098  1.00  0.00    -0.273 OA
ATOM      3  N   UNL A   1      39.335  22.769  26.793  1.00  0.00    -0.355 N 
ATOM      4  H   UNL A   1      39.840  22.873  27.632  1.00  0.00     0.163 HD
ENDROOT
BRANCH   1   5
ATOM      5  C   UNL A   1      37.548  23.720  25.300  1.00  0.00     0.213 C 
BRANCH   5   6
ATOM      6  N   UNL A   1      36.191  23.570  25.803  1.00  0.00    -0.375 N 
ATOM      7  H   UNL A   1      36.105  23.444  26.776  1.00  0.00     0.161 HD
BRANCH   6   8
ATOM      8  C   UNL A   1      35.003  23.580  25.088  1.00  0.00     0.049 A 
ATOM      9  C   UNL A   1      33.041  24.947  24.108  1.00  0.00     0.069 A 
ATOM     10  C   UNL A   1      34.332  24.821  24.726  1.00  0.00     0.054 A 
ATOM     11  C   UNL A   1      32.511  23.681  23.752  1.00  0.00     0.138 A 
ATOM     12  C   UNL A   1      33.223  22.514  24.083  1.00  0.00     0.065 A 
ATOM     13  N   UNL A   1      31.375  23.305  23.112  1.00  0.00    -0.077 NA
ATOM     14  C   UNL A   1      34.408  22.341  24.753  1.00  0.00     0.059 A 
ATOM     15  C   UNL A   1      32.542  21.460  23.586  1.00  0.00     0.176 A 
ATOM     16  O   UNL A   1      31.409  21.909  23.002  1.00  0.00    -0.355 OA
ATOM     17  C   UNL A   1      34.865  20.952  25.044  1.00  0.00     0.196 C 
ATOM     18  C   UNL A   1      32.935  20.083  23.642  1.00  0.00     0.032 A 
ATOM     19  C   UNL A   1      34.086  19.811  24.420  1.00  0.00     0.034 A 
ATOM     20  O   UNL A   1      35.834  20.752  25.754  1.00  0.00    -0.288 OA
ATOM     21  C   UNL A   1      32.282  19.059  22.961  1.00  0.00     0.013 A 
ATOM     22  C   UNL A   1      34.523  18.497  24.575  1.00  0.00     0.013 A 
ATOM     23  C   UNL A   1      32.744  17.752  23.096  1.00  0.00     0.001 A 
ATOM     24  C   UNL A   1      33.846  17.469  23.912  1.00  0.00     0.001 A 
BRANCH   9  25
ATOM     25  N   UNL A   1      32.378  26.143  23.971  1.00  0.00    -0.370 N 
ATOM     26  C   UNL A   1      31.948  28.970  23.857  1.00  0.00     0.103 C 
ATOM     27  C   UNL A   1      32.937  28.254  22.925  1.00  0.00     0.037 C 
ATOM     28  C   UNL A   1      31.804  28.186  25.174  1.00  0.00     0.037 C 
ATOM     29  C   UNL A   1      32.483  26.820  22.681  1.00  0.00     0.117 C 
ATOM     30  C   UNL A   1      31.477  26.699  24.967  1.00  0.00     0.117 C 
BRANCH  26  31
ATOM     31  C   UNL A   1      30.628  29.172  23.127  1.00  0.00     0.309 C 
ATOM     32  O   UNL A   1      30.315  28.586  22.097  1.00  0.00    -0.252 OA
BRANCH  31  33
ATOM     33  O   UNL A   1      29.857  30.115  23.730  1.00  0.00    -0.466 OA
BRANCH  33  34
ATOM     34  C   UNL A   1      28.902  30.745  22.858  1.00  0.00     0.229 C 
ATOM     35  C   UNL A   1      27.582  31.006  23.564  1.00  0.00     0.049 C 
ENDBRANCH  33  34
ENDBRANCH  31  33
ENDBRANCH  26  31
ENDBRANCH   9  25
ENDBRANCH   6   8
ENDBRANCH   5   6
ENDBRANCH   1   5
BRANCH   3  36
ATOM     36  C   UNL A   1      39.516  21.496  26.112  1.00  0.00     0.117 C 
BRANCH  36  37
ATOM     37  C   UNL A   1      40.678  20.706  26.708  1.00  0.00     0.042 C 
BRANCH  37  38
ATOM     38  C   UNL A   1      41.937  21.562  26.840  1.00  0.00     0.118 C 
BRANCH  38  39
ATOM     39  N   UNL A   1      42.865  21.393  25.730  1.00  0.00    -0.352 N 
ATOM     40  C   UNL A   1      43.645  22.323  25.087  1.00  0.00     0.251 C 
ATOM     41  H   UNL A   1      42.946  20.473  25.389  1.00  0.00     0.163 HD
ATOM     42  O   UNL A   1      44.291  22.012  24.092  1.00  0.00    -0.269 OA
BRANCH  40  43
ATOM     43  C   UNL A   1      43.668  23.717  25.571  1.00  0.00     0.039 A 
ATOM     44  C   UNL A   1      44.493  24.094  26.636  1.00  0.00     0.014 A 
ATOM     45  C   UNL A   1      42.858  24.660  24.937  1.00  0.00     0.014 A 
ATOM     46  C   UNL A   1      44.416  25.379  27.157  1.00  0.00     0.010 A 
ATOM     47  C   UNL A   1      42.818  25.963  25.428  1.00  0.00     0.010 A 
ATOM     48  C   UNL A   1      43.582  26.320  26.555  1.00  0.00    -0.014 A 
BRANCH  48  49
ATOM     49  C   UNL A   1      43.670  27.708  27.054  1.00  0.00     0.031 A 
ATOM     50  C   UNL A   1      43.486  27.777  28.528  1.00  0.00     0.074 A 
ATOM     51  C   UNL A   1      44.522  28.614  26.523  1.00  0.00     0.049 A 
ATOM     52  N   UNL A   1      44.473  27.461  29.308  1.00  0.00    -0.248 NA
ATOM     53  C   UNL A   1      42.205  27.874  29.219  1.00  0.00     0.031 C 
ATOM     54  C   UNL A   1      45.741  28.224  25.801  1.00  0.00     0.029 A 
ATOM     55  N   UNL A   1      44.664  29.974  26.737  1.00  0.00    -0.354 N 
ATOM     56  C   UNL A   1      43.961  27.229  30.564  1.00  0.00     0.074 A 
ATOM     57  C   UNL A   1      42.553  27.548  30.477  1.00  0.00     0.031 C 
ATOM     58  C   UNL A   1      46.587  29.269  25.814  1.00  0.00     0.029 A 
ATOM     59  C   UNL A   1      45.919  30.440  26.372  1.00  0.00     0.049 A 
ATOM     60  H   UNL A   1      43.954  30.547  27.107  1.00  0.00     0.167 HD
ATOM     61  C   UNL A   1      44.765  26.790  31.570  1.00  0.00     0.037 A 
ATOM     62  C   UNL A   1      46.567  31.536  26.846  1.00  0.00     0.037 A 
ATOM     63  C   UNL A   1      46.157  26.550  31.251  1.00  0.00     0.049 A 
ATOM     64  C   UNL A   1      47.279  30.973  28.048  1.00  0.00     0.074 A 
ATOM     65  C   UNL A   1      47.152  25.636  31.531  1.00  0.00     0.029 A 
ATOM     66  N   UNL A   1      46.726  27.445  30.393  1.00  0.00    -0.354 N 
ATOM     67  N   UNL A   1      48.342  30.211  28.034  1.00  0.00    -0.248 NA
ATOM     68  C   UNL A   1      46.592  31.043  29.350  1.00  0.00     0.031 C 
ATOM     69  C   UNL A   1      48.351  26.091  30.877  1.00  0.00     0.029 A 
ATOM     70  C   UNL A   1      48.072  27.294  30.250  1.00  0.00     0.049 A 
ATOM     71  H   UNL A   1      46.210  28.139  29.920  1.00  0.00     0.167 HD
ATOM     72  C   UNL A   1      48.267  29.496  29.222  1.00  0.00     0.074 A 
ATOM     73  C   UNL A   1      47.301  30.174  30.060  1.00  0.00     0.031 C 
ATOM     74  C   UNL A   1      48.731  28.222  29.363  1.00  0.00     0.037 A 
BRANCH  61  75
ATOM     75  C   UNL A   1      44.362  26.869  32.988  1.00  0.00     0.064 A 
ATOM     76  C   UNL A   1      43.864  25.690  33.569  1.00  0.00     0.173 A 
ATOM     77  C   UNL A   1      44.291  28.051  33.724  1.00  0.00     0.173 A 
ATOM     78  F   UNL A   1      43.917  24.532  32.889  1.00  0.00    -0.203 F 
ATOM     79  C   UNL A   1      43.286  25.698  34.831  1.00  0.00     0.198 A 
ATOM     80  C   UNL A   1      43.718  28.054  34.997  1.00  0.00     0.198 A 
ATOM     81  F   UNL A   1      44.747  29.201  33.207  1.00  0.00    -0.203 F 
ATOM     82  F   UNL A   1      42.791  24.562  35.344  1.00  0.00    -0.200 F 
ATOM     83  C   UNL A   1      43.206  26.882  35.543  1.00  0.00     0.200 A 
ATOM     84  F   UNL A   1      43.638  29.196  35.694  1.00  0.00    -0.200 F 
ATOM     85  F   UNL A   1      42.631  26.894  36.753  1.00  0.00    -0.200 F 
ENDBRANCH  61  75
BRANCH  62  86
ATOM     86  C   UNL A   1      45.908  32.877  26.816  1.00  0.00     0.064 A 
ATOM     87  C   UNL A   1      46.604  33.977  26.272  1.00  0.00     0.173 A 
ATOM     88  C   UNL A   1      44.664  33.175  27.394  1.00  0.00     0.173 A 
ATOM     89  F   UNL A   1      47.857  33.827  25.819  1.00  0.00    -0.203 F 
ATOM     90  C   UNL A   1      46.045  35.257  26.206  1.00  0.00     0.198 A 
ATOM     91  C   UNL A   1      44.087  34.445  27.296  1.00  0.00     0.198 A 
ATOM     92  F   UNL A   1      43.981  32.251  28.081  1.00  0.00    -0.203 F 
ATOM     93  F   UNL A   1      46.748  36.266  25.674  1.00  0.00    -0.200 F 
ATOM     94  C   UNL A   1      44.772  35.482  26.691  1.00  0.00     0.200 A 
ATOM     95  F   UNL A   1      42.860  34.655  27.794  1.00  0.00    -0.200 F 
ATOM     96  F   UNL A   1      44.213  36.696  26.593  1.00  0.00    -0.200 F 
ENDBRANCH  62  86
BRANCH  74  97
ATOM     97  C   UNL A   1      49.781  27.777  28.418  1.00  0.00     0.064 A 
ATOM     98  C   UNL A   1      51.116  28.134  28.653  1.00  0.00     0.173 A 
ATOM     99  C   UNL A   1      49.499  26.950  27.324  1.00  0.00     0.173 A 
ATOM    100  F   UNL A   1      51.438  28.903  29.706  1.00  0.00    -0.203 F 
ATOM    101  C   UNL A   1      52.134  27.668  27.831  1.00  0.00     0.198 A 
ATOM    102  C   UNL A   1      50.525  26.467  26.515  1.00  0.00     0.198 A 
ATOM    103  F   UNL A   1      48.235  26.597  27.040  1.00  0.00    -0.203 F 
ATOM    104  F   UNL A   1      53.405  28.012  28.085  1.00  0.00    -0.200 F 
ATOM    105  C   UNL A   1      51.841  26.825  26.771  1.00  0.00     0.200 A 
ATOM    106  F   UNL A   1      50.243  25.629  25.507  1.00  0.00    -0.200 F 
ATOM    107  F   UNL A   1      52.831  26.340  26.010  1.00  0.00    -0.200 F 
ENDBRANCH  74  97
ENDBRANCH  48  49
ENDBRANCH  40  43
ENDBRANCH  38  39
ENDBRANCH  37  38
ENDBRANCH  36  37
ENDBRANCH   3  36
TORSDOF 16
ENDMDL
MODEL 2
REMARK VINA RESULT:     -12.3      6.474     14.241
REMARK SMILES CCOC(=O)C1CCN(c2cc(NCC(=O)NCCCNC(=O)c3ccc(-c4c5nc(c(-c6c(F)c(F)c(F)c(F)c6F)c6ccc([nH]6)c(-c6c(F)c(F)c(F)c(F)c6F)c6nc(c(-c7c(F)c(F)c(F)c(F)c7F)c7ccc4[nH]7)C=C6)C=C5)cc3)c3c4c(onc24)-c2ccccc2C3=O)CC1
REMARK SMILES IDX 15 1 16 2 17 3 14 5 13 6 12 8 10 9 11 10 92 11 88 12 91 13
REMARK SMILES IDX 87 14 89 15 90 16 99 17 93 18 98 19 100 20 94 21 97 22 95 23
REMARK SMILES IDX 96 24 9 25 6 26 7 27 102 28 8 29 101 30 4 31 5 32 3 33 2 34
REMARK SMILES IDX 1 35 18 36 19 37 20 38 21 39 22 40 23 42 24 43 25 44 86 45
REMARK SMILES IDX 26 46 85 47 27 48 28 49 29 50 79 51 30 52 84 53 78 54 80 55
REMARK SMILES IDX 31 56 83 57 77 58 76 59 32 61 64 62 44 63 63 64 45 65 48 66
REMARK SMILES IDX 62 67 81 68 46 69 47 70 61 72 82 73 49 74 33 75 34 76 42 77
REMARK SMILES IDX 35 78 36 79 40 80 43 81 37 82 38 83 41 84 39 85 65 86 66 87
REMARK SMILES IDX 74 88 67 89 68 90 72 91 75 92 69 93 70 94 73 95 71 96 50 97
REMARK SMILES IDX 51 98 59 99 52 100 53 101 57 102 60 103 54 104 55 105 58 106
REMARK SMILES IDX 56 107
REMARK H PARENT 17 4 13 7 21 41 80 60 48 71
REMARK Flexibility Score: inf
ROOT
ATOM      1  C   UNL A   1      48.973  20.510  34.598  1.00  0.00     0.239 C 
ATOM      2  O   UNL A   1      49.619  21.135  33.753  1.00  0.00    -0.273 OA
ATOM      3  N   UNL A   1      47.655  20.258  34.339  1.00  0.00    -0.355 N 
ATOM      4  H   UNL A   1      47.352  20.498  33.433  1.00  0.00     0.163 HD
ENDROOT
BRANCH   1   5
ATOM      5  C   UNL A   1      49.630  19.962  35.868  1.00  0.00     0.213 C 
BRANCH   5   6
ATOM      6  N   UNL A   1      49.565  20.917  36.964  1.00  0.00    -0.375 N 
ATOM      7  H   UNL A   1      50.361  21.484  37.087  1.00  0.00     0.161 HD
BRANCH   6   8
ATOM      8  C   UNL A   1      48.528  21.130  37.860  1.00  0.00     0.049 A 
ATOM      9  C   UNL A   1      46.888  20.141  39.596  1.00  0.00     0.069 A 
ATOM     10  C   UNL A   1      48.035  20.073  38.733  1.00  0.00     0.054 A 
ATOM     11  C   UNL A   1      46.329  21.443  39.613  1.00  0.00     0.138 A 
ATOM     12  C   UNL A   1      46.873  22.442  38.785  1.00  0.00     0.065 A 
ATOM     13  N   UNL A   1      45.298  21.995  40.301  1.00  0.00    -0.077 NA
ATOM     14  C   UNL A   1      47.902  22.398  37.878  1.00  0.00     0.059 A 
ATOM     15  C   UNL A   1      46.208  23.590  39.030  1.00  0.00     0.176 A 
ATOM     16  O   UNL A   1      45.237  23.346  39.938  1.00  0.00    -0.355 OA
ATOM     17  C   UNL A   1      48.187  23.615  37.064  1.00  0.00     0.196 C 
ATOM     18  C   UNL A   1      46.472  24.874  38.449  1.00  0.00     0.032 A 
ATOM     19  C   UNL A   1      47.440  24.886  37.417  1.00  0.00     0.034 A 
ATOM     20  O   UNL A   1      48.995  23.579  36.154  1.00  0.00    -0.288 OA
ATOM     21  C   UNL A   1      45.869  26.056  38.870  1.00  0.00     0.013 A 
ATOM     22  C   UNL A   1      47.735  26.077  36.757  1.00  0.00     0.013 A 
ATOM     23  C   UNL A   1      46.192  27.249  38.226  1.00  0.00     0.001 A 
ATOM     24  C   UNL A   1      47.105  27.257  37.164  1.00  0.00     0.001 A 
BRANCH   9  25
ATOM     25  N   UNL A   1      46.360  19.050  40.244  1.00  0.00    -0.370 N 
ATOM     26  C   UNL A   1      46.237  16.710  41.886  1.00  0.00     0.103 C 
ATOM     27  C   UNL A   1      46.725  18.062  42.425  1.00  0.00     0.037 C 
ATOM     28  C   UNL A   1      46.502  16.619  40.372  1.00  0.00     0.037 C 
ATOM     29  C   UNL A   1      46.057  19.201  41.665  1.00  0.00     0.117 C 
ATOM     30  C   UNL A   1      45.958  17.820  39.584  1.00  0.00     0.117 C 
BRANCH  26  31
ATOM     31  C   UNL A   1      44.772  16.523  42.254  1.00  0.00     0.309 C 
ATOM     32  O   UNL A   1      44.234  17.047  43.222  1.00  0.00    -0.252 OA
BRANCH  31  33
ATOM     33  O   UNL A   1      44.143  15.667  41.406  1.00  0.00    -0.466 OA
BRANCH  33  34
ATOM     34  C   UNL A   1      42.790  16.035  41.088  1.00  0.00     0.229 C 
ATOM     35  C   UNL A   1      41.969  14.836  40.642  1.00  0.00     0.049 C 
ENDBRANCH  33  34
ENDBRANCH  31  33
ENDBRANCH  26  31
ENDBRANCH   9  25
ENDBRANCH   6   8
ENDBRANCH   5   6
ENDBRANCH   1   5
BRANCH   3  36
ATOM     36  C   UNL A   1      46.636  19.687  35.206  1.00  0.00     0.117 C 
BRANCH  36  37
ATOM     37  C   UNL A   1      45.324  20.461  35.108  1.00  0.00     0.042 C 
BRANCH  37  38
ATOM     38  C   UNL A   1      45.554  21.972  35.129  1.00  0.00     0.118 C 
BRANCH  38  39
ATOM     39  N   UNL A   1      44.565  22.692  35.919  1.00  0.00    -0.352 N 
ATOM     40  C   UNL A   1      43.995  23.923  35.703  1.00  0.00     0.251 C 
ATOM     41  H   UNL A   1      44.258  22.226  36.730  1.00  0.00     0.163 HD
ATOM     42  O   UNL A   1      43.252  24.420  36.543  1.00  0.00    -0.269 OA
BRANCH  40  43
ATOM     43  C   UNL A   1      44.318  24.672  34.472  1.00  0.00     0.039 A 
ATOM     44  C   UNL A   1      44.970  25.908  34.535  1.00  0.00     0.014 A 
ATOM     45  C   UNL A   1      43.970  24.117  33.240  1.00  0.00     0.014 A 
ATOM     46  C   UNL A   1      45.160  26.655  33.380  1.00  0.00     0.010 A 
ATOM     47  C   UNL A   1      44.206  24.845  32.076  1.00  0.00     0.010 A 
ATOM     48  C   UNL A   1      44.783  26.127  32.146  1.00  0.00    -0.014 A 
BRANCH  48  49
ATOM     49  C   UNL A   1      45.161  26.899  30.944  1.00  0.00     0.031 A 
ATOM     50  C   UNL A   1      45.202  26.043  29.728  1.00  0.00     0.074 A 
ATOM     51  C   UNL A   1      44.762  28.177  30.752  1.00  0.00     0.049 A 
ATOM     52  N   UNL A   1      44.091  25.718  29.141  1.00  0.00    -0.248 NA
ATOM     53  C   UNL A   1      46.348  25.261  29.281  1.00  0.00     0.031 C 
ATOM     54  C   UNL A   1      43.568  28.739  31.398  1.00  0.00     0.029 A 
ATOM     55  N   UNL A   1      45.108  29.111  29.790  1.00  0.00    -0.354 N 
ATOM     56  C   UNL A   1      44.348  24.647  28.317  1.00  0.00     0.074 A 
ATOM     57  C   UNL A   1      45.775  24.427  28.394  1.00  0.00     0.031 C 
ATOM     58  C   UNL A   1      43.169  29.806  30.685  1.00  0.00     0.029 A 
ATOM     59  C   UNL A   1      44.159  30.113  29.658  1.00  0.00     0.049 A 
ATOM     60  H   UNL A   1      45.937  29.068  29.259  1.00  0.00     0.167 HD
ATOM     61  C   UNL A   1      43.338  24.037  27.639  1.00  0.00     0.037 A 
ATOM     62  C   UNL A   1      43.914  30.885  28.567  1.00  0.00     0.037 A 
ATOM     63  C   UNL A   1      41.997  24.541  27.849  1.00  0.00     0.049 A 
ATOM     64  C   UNL A   1      42.923  30.039  27.811  1.00  0.00     0.074 A 
ATOM     65  C   UNL A   1      40.712  24.063  28.005  1.00  0.00     0.029 A 
ATOM     66  N   UNL A   1      41.890  25.897  27.967  1.00  0.00    -0.354 N 
ATOM     67  N   UNL A   1      41.661  29.866  28.112  1.00  0.00    -0.248 NA
ATOM     68  C   UNL A   1      43.447  29.101  26.803  1.00  0.00     0.031 C 
ATOM     69  C   UNL A   1      39.840  25.203  28.122  1.00  0.00     0.029 A 
ATOM     70  C   UNL A   1      40.606  26.350  27.991  1.00  0.00     0.049 A 
ATOM     71  H   UNL A   1      42.672  26.493  28.029  1.00  0.00     0.167 HD
ATOM     72  C   UNL A   1      41.344  28.632  27.558  1.00  0.00     0.074 A 
ATOM     73  C   UNL A   1      42.398  28.309  26.620  1.00  0.00     0.031 C 
ATOM     74  C   UNL A   1      40.431  27.777  28.102  1.00  0.00     0.037 A 
BRANCH  61  75
ATOM     75  C   UNL A   1      43.591  23.142  26.492  1.00  0.00     0.064 A 
ATOM     76  C   UNL A   1      43.340  21.774  26.693  1.00  0.00     0.173 A 
ATOM     77  C   UNL A   1      44.204  23.535  25.303  1.00  0.00     0.173 A 
ATOM     78  F   UNL A   1      42.749  21.359  27.827  1.00  0.00    -0.203 F 
ATOM     79  C   UNL A   1      43.718  20.826  25.752  1.00  0.00     0.198 A 
ATOM     80  C   UNL A   1      44.574  22.581  24.354  1.00  0.00     0.198 A 
ATOM     81  F   UNL A   1      44.470  24.828  25.072  1.00  0.00    -0.203 F 
ATOM     82  F   UNL A   1      43.493  19.526  25.988  1.00  0.00    -0.200 F 
ATOM     83  C   UNL A   1      44.342  21.229  24.585  1.00  0.00     0.200 A 
ATOM     84  F   UNL A   1      45.178  22.962  23.220  1.00  0.00    -0.200 F 
ATOM     85  F   UNL A   1      44.724  20.314  23.683  1.00  0.00    -0.200 F 
ENDBRANCH  61  75
BRANCH  62  86
ATOM     86  C   UNL A   1      45.019  31.656  27.921  1.00  0.00     0.064 A 
ATOM     87  C   UNL A   1      44.812  33.010  27.584  1.00  0.00     0.173 A 
ATOM     88  C   UNL A   1      46.246  31.112  27.509  1.00  0.00     0.173 A 
ATOM     89  F   UNL A   1      43.623  33.589  27.809  1.00  0.00    -0.203 F 
ATOM     90  C   UNL A   1      45.804  33.792  26.985  1.00  0.00     0.198 A 
ATOM     91  C   UNL A   1      47.253  31.900  26.944  1.00  0.00     0.198 A 
ATOM     92  F   UNL A   1      46.495  29.802  27.627  1.00  0.00    -0.203 F 
ATOM     93  F   UNL A   1      45.556  35.075  26.691  1.00  0.00    -0.200 F 
ATOM     94  C   UNL A   1      47.037  33.243  26.695  1.00  0.00     0.200 A 
ATOM     95  F   UNL A   1      48.436  31.347  26.644  1.00  0.00    -0.200 F 
ATOM     96  F   UNL A   1      48.007  33.996  26.159  1.00  0.00    -0.200 F 
ENDBRANCH  62  86
BRANCH  74  97
ATOM     97  C   UNL A   1      39.397  28.364  28.984  1.00  0.00     0.064 A 
ATOM     98  C   UNL A   1      38.347  29.102  28.418  1.00  0.00     0.173 A 
ATOM     99  C   UNL A   1      39.389  28.155  30.368  1.00  0.00     0.173 A 
ATOM    100  F   UNL A   1      38.297  29.305  27.091  1.00  0.00    -0.203 F 
ATOM    101  C   UNL A   1      37.318  29.599  29.208  1.00  0.00     0.198 A 
ATOM    102  C   UNL A   1      38.344  28.636  31.154  1.00  0.00     0.198 A 
ATOM    103  F   UNL A   1      40.382  27.476  30.964  1.00  0.00    -0.203 F 
ATOM    104  F   UNL A   1      36.317  30.289  28.642  1.00  0.00    -0.200 F 
ATOM    105  C   UNL A   1      37.310  29.355  30.573  1.00  0.00     0.200 A 
ATOM    106  F   UNL A   1      38.323  28.376  32.468  1.00  0.00    -0.200 F 
ATOM    107  F   UNL A   1      36.292  29.797  31.323  1.00  0.00    -0.200 F 
ENDBRANCH  74  97
ENDBRANCH  48  49
ENDBRANCH  40  43
ENDBRANCH  38  39
ENDBRANCH  37  38
ENDBRANCH  36  37
ENDBRANCH   3  36
TORSDOF 16
ENDMDL
MODEL 3
REMARK VINA RESULT:     -12.3      4.616     10.826
REMARK SMILES CCOC(=O)C1CCN(c2cc(NCC(=O)NCCCNC(=O)c3ccc(-c4c5nc(c(-c6c(F)c(F)c(F)c(F)c6F)c6ccc([nH]6)c(-c6c(F)c(F)c(F)c(F)c6F)c6nc(c(-c7c(F)c(F)c(F)c(F)c7F)c7ccc4[nH]7)C=C6)C=C5)cc3)c3c4c(onc24)-c2ccccc2C3=O)CC1
REMARK SMILES IDX 15 1 16 2 17 3 14 5 13 6 12 8 10 9 11 10 92 11 88 12 91 13
REMARK SMILES IDX 87 14 89 15 90 16 99 17 93 18 98 19 100 20 94 21 97 22 95 23
REMARK SMILES IDX 96 24 9 25 6 26 7 27 102 28 8 29 101 30 4 31 5 32 3 33 2 34
REMARK SMILES IDX 1 35 18 36 19 37 20 38 21 39 22 40 23 42 24 43 25 44 86 45
REMARK SMILES IDX 26 46 85 47 27 48 28 49 29 50 79 51 30 52 84 53 78 54 80 55
REMARK SMILES IDX 31 56 83 57 77 58 76 59 32 61 64 62 44 63 63 64 45 65 48 66
REMARK SMILES IDX 62 67 81 68 46 69 47 70 61 72 82 73 49 74 33 75 34 76 42 77
REMARK SMILES IDX 35 78 36 79 40 80 43 81 37 82 38 83 41 84 39 85 65 86 66 87
REMARK SMILES IDX 74 88 67 89 68 90 72 91 75 92 69 93 70 94 73 95 71 96 50 97
REMARK SMILES IDX 51 98 59 99 52 100 53 101 57 102 60 103 54 104 55 105 58 106
REMARK SMILES IDX 56 107
REMARK H PARENT 17 4 13 7 21 41 80 60 48 71
REMARK Flexibility Score: inf
ROOT
ATOM      1  C   UNL A   1      33.238  28.934  27.514  1.00  0.00     0.239 C 
ATOM      2  O   UNL A   1      32.349  28.209  27.967  1.00  0.00    -0.273 OA
ATOM      3  N   UNL A   1      33.149  30.278  27.745  1.00  0.00    -0.355 N 
ATOM      4  H   UNL A   1      32.432  30.551  28.363  1.00  0.00     0.163 HD
ENDROOT
BRANCH   1   5
ATOM      5  C   UNL A   1      34.450  28.356  26.777  1.00  0.00     0.213 C 
BRANCH   5   6
ATOM      6  N   UNL A   1      34.102  27.897  25.441  1.00  0.00    -0.375 N 
ATOM      7  H   UNL A   1      34.608  28.305  24.702  1.00  0.00     0.161 HD
BRANCH   6   8
ATOM      8  C   UNL A   1      33.147  26.960  25.075  1.00  0.00     0.049 A 
ATOM      9  C   UNL A   1      32.514  24.473  24.773  1.00  0.00     0.069 A 
ATOM     10  C   UNL A   1      33.370  25.529  25.236  1.00  0.00     0.054 A 
ATOM     11  C   UNL A   1      31.309  24.982  24.228  1.00  0.00     0.138 A 
ATOM     12  C   UNL A   1      31.123  26.374  24.139  1.00  0.00     0.065 A 
ATOM     13  N   UNL A   1      30.198  24.385  23.727  1.00  0.00    -0.077 NA
ATOM     14  C   UNL A   1      31.948  27.416  24.480  1.00  0.00     0.059 A 
ATOM     15  C   UNL A   1      29.886  26.595  23.647  1.00  0.00     0.176 A 
ATOM     16  O   UNL A   1      29.306  25.406  23.376  1.00  0.00    -0.355 OA
ATOM     17  C   UNL A   1      31.505  28.807  24.168  1.00  0.00     0.196 C 
ATOM     18  C   UNL A   1      29.259  27.869  23.446  1.00  0.00     0.032 A 
ATOM     19  C   UNL A   1      30.089  28.995  23.662  1.00  0.00     0.034 A 
ATOM     20  O   UNL A   1      32.260  29.749  24.324  1.00  0.00    -0.288 OA
ATOM     21  C   UNL A   1      27.920  28.030  23.101  1.00  0.00     0.013 A 
ATOM     22  C   UNL A   1      29.587  30.277  23.447  1.00  0.00     0.013 A 
ATOM     23  C   UNL A   1      27.417  29.317  22.919  1.00  0.00     0.001 A 
ATOM     24  C   UNL A   1      28.249  30.432  23.073  1.00  0.00     0.001 A 
BRANCH   9  25
ATOM     25  N   UNL A   1      32.873  23.146  24.780  1.00  0.00    -0.370 N 
ATOM     26  C   UNL A   1      34.185  20.730  25.576  1.00  0.00     0.103 C 
ATOM     27  C   UNL A   1      33.308  21.541  26.541  1.00  0.00     0.037 C 
ATOM     28  C   UNL A   1      34.785  21.658  24.504  1.00  0.00     0.037 C 
ATOM     29  C   UNL A   1      32.226  22.286  25.768  1.00  0.00     0.117 C 
ATOM     30  C   UNL A   1      33.738  22.525  23.791  1.00  0.00     0.117 C 
BRANCH  26  31
ATOM     31  C   UNL A   1      33.364  19.588  24.994  1.00  0.00     0.309 C 
ATOM     32  O   UNL A   1      32.272  19.236  25.425  1.00  0.00    -0.252 OA
BRANCH  31  33
ATOM     33  O   UNL A   1      34.010  18.973  23.967  1.00  0.00    -0.466 OA
BRANCH  33  34
ATOM     34  C   UNL A   1      34.594  17.704  24.309  1.00  0.00     0.229 C 
ATOM     35  C   UNL A   1      33.936  16.560  23.555  1.00  0.00     0.049 C 
ENDBRANCH  33  34
ENDBRANCH  31  33
ENDBRANCH  26  31
ENDBRANCH   9  25
ENDBRANCH   6   8
ENDBRANCH   5   6
ENDBRANCH   1   5
BRANCH   3  36
ATOM     36  C   UNL A   1      33.957  31.363  27.210  1.00  0.00     0.117 C 
BRANCH  36  37
ATOM     37  C   UNL A   1      35.210  31.591  28.052  1.00  0.00     0.042 C 
BRANCH  37  38
ATOM     38  C   UNL A   1      35.394  33.065  28.409  1.00  0.00     0.118 C 
BRANCH  38  39
ATOM     39  N   UNL A   1      34.659  33.464  29.601  1.00  0.00    -0.352 N 
ATOM     40  C   UNL A   1      34.876  33.138  30.917  1.00  0.00     0.251 C 
ATOM     41  H   UNL A   1      33.890  34.058  29.438  1.00  0.00     0.163 HD
ATOM     42  O   UNL A   1      34.079  33.485  31.783  1.00  0.00    -0.269 OA
BRANCH  40  43
ATOM     43  C   UNL A   1      36.051  32.324  31.284  1.00  0.00     0.039 A 
ATOM     44  C   UNL A   1      37.312  32.910  31.430  1.00  0.00     0.014 A 
ATOM     45  C   UNL A   1      35.878  30.955  31.497  1.00  0.00     0.014 A 
ATOM     46  C   UNL A   1      38.428  32.115  31.658  1.00  0.00     0.010 A 
ATOM     47  C   UNL A   1      36.990  30.165  31.775  1.00  0.00     0.010 A 
ATOM     48  C   UNL A   1      38.273  30.741  31.835  1.00  0.00    -0.014 A 
BRANCH  48  49
ATOM     49  C   UNL A   1      39.473  29.978  32.237  1.00  0.00     0.031 A 
ATOM     50  C   UNL A   1      40.652  30.323  31.398  1.00  0.00     0.074 A 
ATOM     51  C   UNL A   1      39.737  29.674  33.528  1.00  0.00     0.049 A 
ATOM     52  N   UNL A   1      41.301  31.422  31.634  1.00  0.00    -0.248 NA
ATOM     53  C   UNL A   1      40.993  29.707  30.121  1.00  0.00     0.031 C 
ATOM     54  C   UNL A   1      39.193  30.449  34.650  1.00  0.00     0.029 A 
ATOM     55  N   UNL A   1      40.706  28.867  34.099  1.00  0.00    -0.354 N 
ATOM     56  C   UNL A   1      42.067  31.705  30.526  1.00  0.00     0.074 A 
ATOM     57  C   UNL A   1      41.886  30.585  29.628  1.00  0.00     0.031 C 
ATOM     58  C   UNL A   1      39.969  30.229  35.726  1.00  0.00     0.029 A 
ATOM     59  C   UNL A   1      40.937  29.179  35.431  1.00  0.00     0.049 A 
ATOM     60  H   UNL A   1      41.177  28.151  33.615  1.00  0.00     0.167 HD
ATOM     61  C   UNL A   1      42.790  32.855  30.460  1.00  0.00     0.037 A 
ATOM     62  C   UNL A   1      42.069  28.959  36.150  1.00  0.00     0.037 A 
ATOM     63  C   UNL A   1      42.688  33.770  31.578  1.00  0.00     0.049 A 
ATOM     64  C   UNL A   1      42.859  30.209  35.864  1.00  0.00     0.074 A 
ATOM     65  C   UNL A   1      42.603  35.126  31.816  1.00  0.00     0.029 A 
ATOM     66  N   UNL A   1      42.626  33.186  32.810  1.00  0.00    -0.354 N 
ATOM     67  N   UNL A   1      42.638  31.398  36.364  1.00  0.00    -0.248 NA
ATOM     68  C   UNL A   1      43.796  30.186  34.728  1.00  0.00     0.031 C 
ATOM     69  C   UNL A   1      42.585  35.312  33.244  1.00  0.00     0.029 A 
ATOM     70  C   UNL A   1      42.705  34.069  33.844  1.00  0.00     0.049 A 
ATOM     71  H   UNL A   1      42.533  32.214  32.939  1.00  0.00     0.167 HD
ATOM     72  C   UNL A   1      43.168  32.269  35.421  1.00  0.00     0.074 A 
ATOM     73  C   UNL A   1      44.021  31.483  34.554  1.00  0.00     0.031 C 
ATOM     74  C   UNL A   1      42.657  33.508  35.172  1.00  0.00     0.037 A 
BRANCH  61  75
ATOM     75  C   UNL A   1      43.884  33.040  29.486  1.00  0.00     0.064 A 
ATOM     76  C   UNL A   1      45.116  32.441  29.800  1.00  0.00     0.173 A 
ATOM     77  C   UNL A   1      43.823  33.888  28.381  1.00  0.00     0.173 A 
ATOM     78  F   UNL A   1      45.212  31.617  30.858  1.00  0.00    -0.203 F 
ATOM     79  C   UNL A   1      46.257  32.706  29.055  1.00  0.00     0.198 A 
ATOM     80  C   UNL A   1      44.970  34.144  27.627  1.00  0.00     0.198 A 
ATOM     81  F   UNL A   1      42.671  34.487  28.048  1.00  0.00    -0.203 F 
ATOM     82  F   UNL A   1      47.424  32.144  29.399  1.00  0.00    -0.200 F 
ATOM     83  C   UNL A   1      46.185  33.563  27.971  1.00  0.00     0.200 A 
ATOM     84  F   UNL A   1      44.909  34.973  26.575  1.00  0.00    -0.200 F 
ATOM     85  F   UNL A   1      47.289  33.835  27.261  1.00  0.00    -0.200 F 
ENDBRANCH  61  75
BRANCH  62  86
ATOM     86  C   UNL A   1      42.666  27.591  36.222  1.00  0.00     0.064 A 
ATOM     87  C   UNL A   1      43.860  27.396  36.948  1.00  0.00     0.173 A 
ATOM     88  C   UNL A   1      42.192  26.467  35.527  1.00  0.00     0.173 A 
ATOM     89  F   UNL A   1      44.472  28.435  37.536  1.00  0.00    -0.203 F 
ATOM     90  C   UNL A   1      44.469  26.142  37.063  1.00  0.00     0.198 A 
ATOM     91  C   UNL A   1      42.776  25.205  35.671  1.00  0.00     0.198 A 
ATOM     92  F   UNL A   1      41.161  26.565  34.678  1.00  0.00    -0.203 F 
ATOM     93  F   UNL A   1      45.600  26.012  37.769  1.00  0.00    -0.200 F 
ATOM     94  C   UNL A   1      43.907  25.041  36.449  1.00  0.00     0.200 A 
ATOM     95  F   UNL A   1      42.235  24.150  35.048  1.00  0.00    -0.200 F 
ATOM     96  F   UNL A   1      44.461  23.829  36.590  1.00  0.00    -0.200 F 
ENDBRANCH  62  86
BRANCH  74  97
ATOM     97  C   UNL A   1      41.869  34.143  36.253  1.00  0.00     0.064 A 
ATOM     98  C   UNL A   1      40.468  34.098  36.202  1.00  0.00     0.173 A 
ATOM     99  C   UNL A   1      42.473  34.736  37.368  1.00  0.00     0.173 A 
ATOM    100  F   UNL A   1      39.845  33.515  35.165  1.00  0.00    -0.203 F 
ATOM    101  C   UNL A   1      39.700  34.614  37.238  1.00  0.00     0.198 A 
ATOM    102  C   UNL A   1      41.699  35.233  38.415  1.00  0.00     0.198 A 
ATOM    103  F   UNL A   1      43.809  34.827  37.456  1.00  0.00    -0.203 F 
ATOM    104  F   UNL A   1      38.362  34.546  37.173  1.00  0.00    -0.200 F 
ATOM    105  C   UNL A   1      40.315  35.169  38.349  1.00  0.00     0.200 A 
ATOM    106  F   UNL A   1      42.296  35.744  39.501  1.00  0.00    -0.200 F 
ATOM    107  F   UNL A   1      39.571  35.623  39.366  1.00  0.00    -0.200 F 
ENDBRANCH  74  97
ENDBRANCH  48  49
ENDBRANCH  40  43
ENDBRANCH  38  39
ENDBRANCH  37  38
ENDBRANCH  36  37
ENDBRANCH   3  36
TORSDOF 16
ENDMDL
