MODEL 1
REMARK VINA RESULT:     -11.6      0.000      0.000
REMARK SMILES CCC[C@H](Cn1c(C)cc(=O)cc1C)C(=O)NCCCNC(=O)c1ccc(-c2c3nc(c(-c4c(F)c(F)c(F)c(F)c4F)c4ccc([nH]4)c(-c4c(F)c(F)c(F)c(F)c4F)c4nc(c(-c5c(F)c(F)c(F)c(F)c5F)c5ccc2[nH]5)C=C4)C=C3)cc1
REMARK SMILES IDX 19 1 18 2 17 3 15 4 16 5 4 7 3 8 2 9 1 10 5 11 6 12 7 13
REMARK SMILES IDX 13 14 8 15 9 16 12 17 14 18 10 19 11 20 20 21 21 22 22 23
REMARK SMILES IDX 23 25 24 26 25 27 86 28 26 29 85 30 27 31 28 32 29 33 79 34
REMARK SMILES IDX 30 35 84 36 78 37 80 38 31 39 83 40 77 41 76 42 32 44 64 45
REMARK SMILES IDX 44 46 63 47 45 48 48 49 62 50 81 51 46 52 47 53 61 55 82 56
REMARK SMILES IDX 49 57 33 58 34 59 42 60 35 61 36 62 40 63 43 64 37 65 38 66
REMARK SMILES IDX 41 67 39 68 65 69 66 70 74 71 67 72 68 73 72 74 75 75 69 76
REMARK SMILES IDX 70 77 73 78 71 79 50 80 51 81 59 82 52 83 53 84 57 85 60 86
REMARK SMILES IDX 54 87 55 88 58 89 56 90
REMARK H PARENT 17 6 21 24 80 43 48 54
REMARK Flexibility Score: inf
ROOT
ATOM      1  C   UNL A   1      38.105  19.588  24.999  1.00  0.00     0.042 C 
ENDROOT
BRANCH   1   2
ATOM      2  C   UNL A   1      36.926  20.551  24.919  1.00  0.00     0.117 C 
BRANCH   2   3
ATOM      3  N   UNL A   1      37.198  21.617  23.969  1.00  0.00    -0.356 N 
ATOM      4  C   UNL A   1      36.405  22.623  23.518  1.00  0.00     0.224 C 
ATOM      5  O   UNL A   1      36.844  23.319  22.599  1.00  0.00    -0.275 OA
ATOM      6  H   UNL A   1      38.107  21.608  23.591  1.00  0.00     0.163 HD
BRANCH   4   7
ATOM      7  C   UNL A   1      35.031  22.910  24.115  1.00  0.00     0.098 C 
BRANCH   7   8
ATOM      8  C   UNL A   1      33.976  23.208  23.026  1.00  0.00     0.015 C 
BRANCH   8   9
ATOM      9  C   UNL A   1      32.717  22.330  23.064  1.00  0.00    -0.003 C 
ATOM     10  C   UNL A   1      32.875  21.084  23.921  1.00  0.00     0.004 C 
ENDBRANCH   8   9
ENDBRANCH   7   8
BRANCH   7  11
ATOM     11  C   UNL A   1      35.167  23.872  25.330  1.00  0.00     0.135 C 
BRANCH  11  12
ATOM     12  N   UNL A   1      33.938  24.042  26.157  1.00  0.00    -0.348 N 
ATOM     13  C   UNL A   1      33.458  22.982  26.969  1.00  0.00     0.018 A 
ATOM     14  C   UNL A   1      33.133  25.206  26.066  1.00  0.00     0.018 A 
ATOM     15  C   UNL A   1      34.385  21.896  27.464  1.00  0.00     0.064 C 
ATOM     16  C   UNL A   1      32.159  22.885  27.308  1.00  0.00     0.073 A 
ATOM     17  C   UNL A   1      31.819  25.179  26.355  1.00  0.00     0.073 A 
ATOM     18  C   UNL A   1      33.722  26.557  25.742  1.00  0.00     0.064 C 
ATOM     19  C   UNL A   1      31.223  23.936  26.874  1.00  0.00     0.182 A 
ATOM     20  O   UNL A   1      30.010  23.814  27.007  1.00  0.00    -0.290 OA
ENDBRANCH  11  12
ENDBRANCH   7  11
ENDBRANCH   4   7
ENDBRANCH   2   3
ENDBRANCH   1   2
BRANCH   1  21
ATOM     21  C   UNL A   1      39.183  20.058  25.962  1.00  0.00     0.118 C 
BRANCH  21  22
ATOM     22  N   UNL A   1      40.337  19.172  25.951  1.00  0.00    -0.352 N 
ATOM     23  C   UNL A   1      41.686  19.427  26.019  1.00  0.00     0.251 C 
ATOM     24  H   UNL A   1      40.111  18.216  25.885  1.00  0.00     0.163 HD
ATOM     25  O   UNL A   1      42.467  18.525  25.716  1.00  0.00    -0.269 OA
BRANCH  23  26
ATOM     26  C   UNL A   1      42.230  20.745  26.426  1.00  0.00     0.039 A 
ATOM     27  C   UNL A   1      42.247  21.072  27.789  1.00  0.00     0.014 A 
ATOM     28  C   UNL A   1      42.628  21.708  25.499  1.00  0.00     0.014 A 
ATOM     29  C   UNL A   1      42.683  22.335  28.211  1.00  0.00     0.010 A 
ATOM     30  C   UNL A   1      43.172  22.921  25.923  1.00  0.00     0.010 A 
ATOM     31  C   UNL A   1      43.171  23.264  27.282  1.00  0.00    -0.014 A 
BRANCH  31  32
ATOM     32  C   UNL A   1      43.617  24.625  27.687  1.00  0.00     0.031 A 
ATOM     33  C   UNL A   1      42.593  25.680  28.026  1.00  0.00     0.074 A 
ATOM     34  C   UNL A   1      44.927  24.934  27.702  1.00  0.00     0.049 A 
ATOM     35  N   UNL A   1      42.765  26.950  28.293  1.00  0.00    -0.248 NA
ATOM     36  C   UNL A   1      41.182  25.256  28.036  1.00  0.00     0.031 C 
ATOM     37  C   UNL A   1      46.016  24.014  27.376  1.00  0.00     0.029 A 
ATOM     38  N   UNL A   1      45.567  26.112  27.999  1.00  0.00    -0.354 N 
ATOM     39  C   UNL A   1      41.491  27.473  28.482  1.00  0.00     0.074 A 
ATOM     40  C   UNL A   1      40.551  26.404  28.235  1.00  0.00     0.031 C 
ATOM     41  C   UNL A   1      47.189  24.651  27.521  1.00  0.00     0.029 A 
ATOM     42  C   UNL A   1      46.935  26.037  27.902  1.00  0.00     0.049 A 
ATOM     43  H   UNL A   1      45.090  26.935  28.257  1.00  0.00     0.167 HD
ATOM     44  C   UNL A   1      41.137  28.724  28.862  1.00  0.00     0.037 A 
ATOM     45  C   UNL A   1      47.878  26.980  28.092  1.00  0.00     0.037 A 
ATOM     46  C   UNL A   1      42.075  29.778  29.146  1.00  0.00     0.049 A 
ATOM     47  C   UNL A   1      47.457  28.372  28.485  1.00  0.00     0.074 A 
ATOM     48  C   UNL A   1      41.818  31.065  29.581  1.00  0.00     0.029 A 
ATOM     49  N   UNL A   1      43.453  29.660  29.030  1.00  0.00    -0.354 N 
ATOM     50  N   UNL A   1      46.253  28.843  28.697  1.00  0.00    -0.248 NA
ATOM     51  C   UNL A   1      48.528  29.362  28.664  1.00  0.00     0.031 C 
ATOM     52  C   UNL A   1      43.036  31.743  29.680  1.00  0.00     0.029 A 
ATOM     53  C   UNL A   1      44.057  30.862  29.362  1.00  0.00     0.049 A 
ATOM     54  H   UNL A   1      43.929  28.845  28.752  1.00  0.00     0.167 HD
ATOM     55  C   UNL A   1      46.420  30.173  29.058  1.00  0.00     0.074 A 
ATOM     56  C   UNL A   1      47.846  30.429  29.054  1.00  0.00     0.031 C 
ATOM     57  C   UNL A   1      45.478  31.100  29.360  1.00  0.00     0.037 A 
BRANCH  44  58
ATOM     58  C   UNL A   1      39.672  29.024  29.015  1.00  0.00     0.064 A 
ATOM     59  C   UNL A   1      38.876  29.377  27.914  1.00  0.00     0.173 A 
ATOM     60  C   UNL A   1      39.042  28.892  30.262  1.00  0.00     0.173 A 
ATOM     61  F   UNL A   1      39.429  29.528  26.701  1.00  0.00    -0.203 F 
ATOM     62  C   UNL A   1      37.510  29.609  28.060  1.00  0.00     0.198 A 
ATOM     63  C   UNL A   1      37.670  29.092  30.397  1.00  0.00     0.198 A 
ATOM     64  F   UNL A   1      39.754  28.551  31.348  1.00  0.00    -0.203 F 
ATOM     65  F   UNL A   1      36.780  29.988  27.002  1.00  0.00    -0.200 F 
ATOM     66  C   UNL A   1      36.907  29.455  29.299  1.00  0.00     0.200 A 
ATOM     67  F   UNL A   1      37.085  28.928  31.593  1.00  0.00    -0.200 F 
ATOM     68  F   UNL A   1      35.590  29.662  29.434  1.00  0.00    -0.200 F 
ENDBRANCH  44  58
BRANCH  45  69
ATOM     69  C   UNL A   1      49.315  26.626  27.948  1.00  0.00     0.064 A 
ATOM     70  C   UNL A   1      49.914  26.568  26.682  1.00  0.00     0.173 A 
ATOM     71  C   UNL A   1      50.124  26.360  29.064  1.00  0.00     0.173 A 
ATOM     72  F   UNL A   1      49.179  26.793  25.583  1.00  0.00    -0.203 F 
ATOM     73  C   UNL A   1      51.263  26.250  26.536  1.00  0.00     0.198 A 
ATOM     74  C   UNL A   1      51.478  26.071  28.919  1.00  0.00     0.198 A 
ATOM     75  F   UNL A   1      49.601  26.405  30.298  1.00  0.00    -0.203 F 
ATOM     76  F   UNL A   1      51.801  26.166  25.312  1.00  0.00    -0.200 F 
ATOM     77  C   UNL A   1      52.047  26.011  27.655  1.00  0.00     0.200 A 
ATOM     78  F   UNL A   1      52.236  25.858  30.003  1.00  0.00    -0.200 F 
ATOM     79  F   UNL A   1      53.347  25.719  27.515  1.00  0.00    -0.200 F 
ENDBRANCH  45  69
BRANCH  57  80
ATOM     80  C   UNL A   1      45.949  32.476  29.732  1.00  0.00     0.064 A 
ATOM     81  C   UNL A   1      46.293  32.802  31.052  1.00  0.00     0.173 A 
ATOM     82  C   UNL A   1      46.131  33.457  28.744  1.00  0.00     0.173 A 
ATOM     83  F   UNL A   1      46.127  31.903  32.034  1.00  0.00    -0.203 F 
ATOM     84  C   UNL A   1      46.783  34.065  31.372  1.00  0.00     0.198 A 
ATOM     85  C   UNL A   1      46.653  34.707  29.063  1.00  0.00     0.198 A 
ATOM     86  F   UNL A   1      45.828  33.193  27.464  1.00  0.00    -0.203 F 
ATOM     87  F   UNL A   1      47.067  34.368  32.647  1.00  0.00    -0.200 F 
ATOM     88  C   UNL A   1      46.973  35.013  30.377  1.00  0.00     0.200 A 
ATOM     89  F   UNL A   1      46.855  35.615  28.097  1.00  0.00    -0.200 F 
ATOM     90  F   UNL A   1      47.463  36.221  30.685  1.00  0.00    -0.200 F 
ENDBRANCH  57  80
ENDBRANCH  31  32
ENDBRANCH  23  26
ENDBRANCH  21  22
ENDBRANCH   1  21
TORSDOF 14
ENDMDL
MODEL 2
REMARK VINA RESULT:     -11.5      5.751     10.821
REMARK SMILES CCC[C@H](Cn1c(C)cc(=O)cc1C)C(=O)NCCCNC(=O)c1ccc(-c2c3nc(c(-c4c(F)c(F)c(F)c(F)c4F)c4ccc([nH]4)c(-c4c(F)c(F)c(F)c(F)c4F)c4nc(c(-c5c(F)c(F)c(F)c(F)c5F)c5ccc2[nH]5)C=C4)C=C3)cc1
REMARK SMILES IDX 19 1 18 2 17 3 15 4 16 5 4 7 3 8 2 9 1 10 5 11 6 12 7 13
REMARK SMILES IDX 13 14 8 15 9 16 12 17 14 18 10 19 11 20 20 21 21 22 22 23
REMARK SMILES IDX 23 25 24 26 25 27 86 28 26 29 85 30 27 31 28 32 29 33 79 34
REMARK SMILES IDX 30 35 84 36 78 37 80 38 31 39 83 40 77 41 76 42 32 44 64 45
REMARK SMILES IDX 44 46 63 47 45 48 48 49 62 50 81 51 46 52 47 53 61 55 82 56
REMARK SMILES IDX 49 57 33 58 34 59 42 60 35 61 36 62 40 63 43 64 37 65 38 66
REMARK SMILES IDX 41 67 39 68 65 69 66 70 74 71 67 72 68 73 72 74 75 75 69 76
REMARK SMILES IDX 70 77 73 78 71 79 50 80 51 81 59 82 52 83 53 84 57 85 60 86
REMARK SMILES IDX 54 87 55 88 58 89 56 90
REMARK H PARENT 17 6 21 24 80 43 48 54
REMARK Flexibility Score: inf
ROOT
ATOM      1  C   UNL A   1      31.426  32.066  26.475  1.00  0.00     0.042 C 
ENDROOT
BRANCH   1   2
ATOM      2  C   UNL A   1      31.519  30.617  26.010  1.00  0.00     0.117 C 
BRANCH   2   3
ATOM      3  N   UNL A   1      31.566  29.716  27.149  1.00  0.00    -0.356 N 
ATOM      4  C   UNL A   1      31.630  28.360  27.202  1.00  0.00     0.224 C 
ATOM      5  O   UNL A   1      31.518  27.832  28.312  1.00  0.00    -0.275 OA
ATOM      6  H   UNL A   1      31.548  30.161  28.027  1.00  0.00     0.163 HD
BRANCH   4   7
ATOM      7  C   UNL A   1      31.844  27.503  25.958  1.00  0.00     0.098 C 
BRANCH   7   8
ATOM      8  C   UNL A   1      30.921  26.265  25.941  1.00  0.00     0.015 C 
BRANCH   8   9
ATOM      9  C   UNL A   1      30.197  25.994  24.614  1.00  0.00    -0.003 C 
ATOM     10  C   UNL A   1      29.950  27.251  23.794  1.00  0.00     0.004 C 
ENDBRANCH   8   9
ENDBRANCH   7   8
BRANCH   7  11
ATOM     11  C   UNL A   1      33.366  27.326  25.688  1.00  0.00     0.135 C 
BRANCH  11  12
ATOM     12  N   UNL A   1      33.719  26.707  24.378  1.00  0.00    -0.348 N 
ATOM     13  C   UNL A   1      33.586  27.441  23.171  1.00  0.00     0.018 A 
ATOM     14  C   UNL A   1      34.068  25.337  24.270  1.00  0.00     0.018 A 
ATOM     15  C   UNL A   1      33.628  28.951  23.166  1.00  0.00     0.064 C 
ATOM     16  C   UNL A   1      33.394  26.826  21.989  1.00  0.00     0.073 A 
ATOM     17  C   UNL A   1      33.872  24.646  23.132  1.00  0.00     0.073 A 
ATOM     18  C   UNL A   1      34.771  24.606  25.388  1.00  0.00     0.064 C 
ATOM     19  C   UNL A   1      33.378  25.354  21.939  1.00  0.00     0.182 A 
ATOM     20  O   UNL A   1      33.039  24.747  20.929  1.00  0.00    -0.290 OA
ENDBRANCH  11  12
ENDBRANCH   7  11
ENDBRANCH   4   7
ENDBRANCH   2   3
ENDBRANCH   1   2
BRANCH   1  21
ATOM     21  C   UNL A   1      32.676  32.532  27.203  1.00  0.00     0.118 C 
BRANCH  21  22
ATOM     22  N   UNL A   1      32.587  33.934  27.582  1.00  0.00    -0.352 N 
ATOM     23  C   UNL A   1      33.179  34.646  28.597  1.00  0.00     0.251 C 
ATOM     24  H   UNL A   1      31.995  34.471  27.005  1.00  0.00     0.163 HD
ATOM     25  O   UNL A   1      32.729  35.758  28.870  1.00  0.00    -0.269 OA
BRANCH  23  26
ATOM     26  C   UNL A   1      34.323  34.119  29.381  1.00  0.00     0.039 A 
ATOM     27  C   UNL A   1      35.624  34.428  28.958  1.00  0.00     0.014 A 
ATOM     28  C   UNL A   1      34.155  33.246  30.455  1.00  0.00     0.014 A 
ATOM     29  C   UNL A   1      36.732  33.890  29.625  1.00  0.00     0.010 A 
ATOM     30  C   UNL A   1      35.254  32.804  31.190  1.00  0.00     0.010 A 
ATOM     31  C   UNL A   1      36.557  33.090  30.763  1.00  0.00    -0.014 A 
BRANCH  31  32
ATOM     32  C   UNL A   1      37.708  32.477  31.480  1.00  0.00     0.031 A 
ATOM     33  C   UNL A   1      38.462  31.332  30.851  1.00  0.00     0.074 A 
ATOM     34  C   UNL A   1      38.046  32.906  32.712  1.00  0.00     0.049 A 
ATOM     35  N   UNL A   1      39.417  30.590  31.353  1.00  0.00    -0.248 NA
ATOM     36  C   UNL A   1      38.069  30.951  29.484  1.00  0.00     0.031 C 
ATOM     37  C   UNL A   1      37.386  33.989  33.440  1.00  0.00     0.029 A 
ATOM     38  N   UNL A   1      39.028  32.478  33.571  1.00  0.00    -0.354 N 
ATOM     39  C   UNL A   1      39.720  29.650  30.374  1.00  0.00     0.074 A 
ATOM     40  C   UNL A   1      38.806  29.870  29.276  1.00  0.00     0.031 C 
ATOM     41  C   UNL A   1      38.000  34.162  34.622  1.00  0.00     0.029 A 
ATOM     42  C   UNL A   1      39.065  33.173  34.756  1.00  0.00     0.049 A 
ATOM     43  H   UNL A   1      39.647  31.742  33.359  1.00  0.00     0.167 HD
ATOM     44  C   UNL A   1      40.695  28.710  30.375  1.00  0.00     0.037 A 
ATOM     45  C   UNL A   1      39.861  33.023  35.832  1.00  0.00     0.037 A 
ATOM     46  C   UNL A   1      41.630  28.519  31.451  1.00  0.00     0.049 A 
ATOM     47  C   UNL A   1      40.918  31.951  35.821  1.00  0.00     0.074 A 
ATOM     48  C   UNL A   1      42.683  27.625  31.529  1.00  0.00     0.029 A 
ATOM     49  N   UNL A   1      41.628  29.240  32.637  1.00  0.00    -0.354 N 
ATOM     50  N   UNL A   1      41.219  31.095  34.875  1.00  0.00    -0.248 NA
ATOM     51  C   UNL A   1      41.747  31.826  37.028  1.00  0.00     0.031 C 
ATOM     52  C   UNL A   1      43.287  27.769  32.780  1.00  0.00     0.029 A 
ATOM     53  C   UNL A   1      42.648  28.793  33.461  1.00  0.00     0.049 A 
ATOM     54  H   UNL A   1      40.996  29.962  32.859  1.00  0.00     0.167 HD
ATOM     55  C   UNL A   1      42.283  30.347  35.360  1.00  0.00     0.074 A 
ATOM     56  C   UNL A   1      42.590  30.864  36.678  1.00  0.00     0.031 C 
ATOM     57  C   UNL A   1      42.945  29.322  34.769  1.00  0.00     0.037 A 
BRANCH  44  58
ATOM     58  C   UNL A   1      40.819  27.826  29.166  1.00  0.00     0.064 A 
ATOM     59  C   UNL A   1      41.801  28.052  28.189  1.00  0.00     0.173 A 
ATOM     60  C   UNL A   1      39.991  26.703  29.014  1.00  0.00     0.173 A 
ATOM     61  F   UNL A   1      42.612  29.117  28.280  1.00  0.00    -0.203 F 
ATOM     62  C   UNL A   1      41.935  27.200  27.095  1.00  0.00     0.198 A 
ATOM     63  C   UNL A   1      40.150  25.836  27.936  1.00  0.00     0.198 A 
ATOM     64  F   UNL A   1      39.038  26.436  29.920  1.00  0.00    -0.203 F 
ATOM     65  F   UNL A   1      42.852  27.462  26.153  1.00  0.00    -0.200 F 
ATOM     66  C   UNL A   1      41.117  26.087  26.976  1.00  0.00     0.200 A 
ATOM     67  F   UNL A   1      39.369  24.751  27.830  1.00  0.00    -0.200 F 
ATOM     68  F   UNL A   1      41.260  25.259  25.931  1.00  0.00    -0.200 F 
ENDBRANCH  44  58
BRANCH  45  69
ATOM     69  C   UNL A   1      39.709  33.938  36.995  1.00  0.00     0.064 A 
ATOM     70  C   UNL A   1      40.357  35.181  37.018  1.00  0.00     0.173 A 
ATOM     71  C   UNL A   1      38.902  33.603  38.094  1.00  0.00     0.173 A 
ATOM     72  F   UNL A   1      41.156  35.537  36.001  1.00  0.00    -0.203 F 
ATOM     73  C   UNL A   1      40.210  36.051  38.096  1.00  0.00     0.198 A 
ATOM     74  C   UNL A   1      38.734  34.486  39.158  1.00  0.00     0.198 A 
ATOM     75  F   UNL A   1      38.259  32.427  38.122  1.00  0.00    -0.203 F 
ATOM     76  F   UNL A   1      40.870  37.217  38.109  1.00  0.00    -0.200 F 
ATOM     77  C   UNL A   1      39.391  35.707  39.162  1.00  0.00     0.200 A 
ATOM     78  F   UNL A   1      37.928  34.158  40.177  1.00  0.00    -0.200 F 
ATOM     79  F   UNL A   1      39.240  36.549  40.193  1.00  0.00    -0.200 F 
ENDBRANCH  45  69
BRANCH  57  80
ATOM     80  C   UNL A   1      44.080  28.696  35.526  1.00  0.00     0.064 A 
ATOM     81  C   UNL A   1      45.396  29.162  35.394  1.00  0.00     0.173 A 
ATOM     82  C   UNL A   1      43.837  27.668  36.452  1.00  0.00     0.173 A 
ATOM     83  F   UNL A   1      45.682  30.135  34.515  1.00  0.00    -0.203 F 
ATOM     84  C   UNL A   1      46.429  28.610  36.146  1.00  0.00     0.198 A 
ATOM     85  C   UNL A   1      44.867  27.143  37.226  1.00  0.00     0.198 A 
ATOM     86  F   UNL A   1      42.594  27.194  36.625  1.00  0.00    -0.203 F 
ATOM     87  F   UNL A   1      47.686  29.044  35.973  1.00  0.00    -0.200 F 
ATOM     88  C   UNL A   1      46.163  27.609  37.068  1.00  0.00     0.200 A 
ATOM     89  F   UNL A   1      44.604  26.190  38.131  1.00  0.00    -0.200 F 
ATOM     90  F   UNL A   1      47.156  27.093  37.805  1.00  0.00    -0.200 F 
ENDBRANCH  57  80
ENDBRANCH  31  32
ENDBRANCH  23  26
ENDBRANCH  21  22
ENDBRANCH   1  21
TORSDOF 14
ENDMDL
MODEL 3
REMARK VINA RESULT:     -11.5      5.574     10.733
REMARK SMILES CCC[C@H](Cn1c(C)cc(=O)cc1C)C(=O)NCCCNC(=O)c1ccc(-c2c3nc(c(-c4c(F)c(F)c(F)c(F)c4F)c4ccc([nH]4)c(-c4c(F)c(F)c(F)c(F)c4F)c4nc(c(-c5c(F)c(F)c(F)c(F)c5F)c5ccc2[nH]5)C=C4)C=C3)cc1
REMARK SMILES IDX 19 1 18 2 17 3 15 4 16 5 4 7 3 8 2 9 1 10 5 11 6 12 7 13
REMARK SMILES IDX 13 14 8 15 9 16 12 17 14 18 10 19 11 20 20 21 21 22 22 23
REMARK SMILES IDX 23 25 24 26 25 27 86 28 26 29 85 30 27 31 28 32 29 33 79 34
REMARK SMILES IDX 30 35 84 36 78 37 80 38 31 39 83 40 77 41 76 42 32 44 64 45
REMARK SMILES IDX 44 46 63 47 45 48 48 49 62 50 81 51 46 52 47 53 61 55 82 56
REMARK SMILES IDX 49 57 33 58 34 59 42 60 35 61 36 62 40 63 43 64 37 65 38 66
REMARK SMILES IDX 41 67 39 68 65 69 66 70 74 71 67 72 68 73 72 74 75 75 69 76
REMARK SMILES IDX 70 77 73 78 71 79 50 80 51 81 59 82 52 83 53 84 57 85 60 86
REMARK SMILES IDX 54 87 55 88 58 89 56 90
REMARK H PARENT 17 6 21 24 80 43 48 54
REMARK Flexibility Score: inf
ROOT
ATOM      1  C   UNL A   1      31.346  31.973  26.382  1.00  0.00     0.042 C 
ENDROOT
BRANCH   1   2
ATOM      2  C   UNL A   1      31.464  30.513  25.958  1.00  0.00     0.117 C 
BRANCH   2   3
ATOM      3  N   UNL A   1      31.529  29.645  27.121  1.00  0.00    -0.356 N 
ATOM      4  C   UNL A   1      31.615  28.293  27.212  1.00  0.00     0.224 C 
ATOM      5  O   UNL A   1      31.515  27.794  28.336  1.00  0.00    -0.275 OA
ATOM      6  H   UNL A   1      31.506  30.114  27.987  1.00  0.00     0.163 HD
BRANCH   4   7
ATOM      7  C   UNL A   1      31.840  27.405  25.991  1.00  0.00     0.098 C 
BRANCH   7   8
ATOM      8  C   UNL A   1      30.959  26.137  26.026  1.00  0.00     0.015 C 
BRANCH   8   9
ATOM      9  C   UNL A   1      30.033  25.938  24.816  1.00  0.00    -0.003 C 
ATOM     10  C   UNL A   1      29.990  27.140  23.885  1.00  0.00     0.004 C 
ENDBRANCH   8   9
ENDBRANCH   7   8
BRANCH   7  11
ATOM     11  C   UNL A   1      33.363  27.269  25.703  1.00  0.00     0.135 C 
BRANCH  11  12
ATOM     12  N   UNL A   1      33.718  26.684  24.378  1.00  0.00    -0.348 N 
ATOM     13  C   UNL A   1      33.586  27.449  23.190  1.00  0.00     0.018 A 
ATOM     14  C   UNL A   1      34.068  25.318  24.236  1.00  0.00     0.018 A 
ATOM     15  C   UNL A   1      33.627  28.959  23.224  1.00  0.00     0.064 C 
ATOM     16  C   UNL A   1      33.396  26.864  21.993  1.00  0.00     0.073 A 
ATOM     17  C   UNL A   1      33.874  24.657  23.080  1.00  0.00     0.073 A 
ATOM     18  C   UNL A   1      34.770  24.559  25.336  1.00  0.00     0.064 C 
ATOM     19  C   UNL A   1      33.380  25.394  21.906  1.00  0.00     0.182 A 
ATOM     20  O   UNL A   1      33.044  24.813  20.879  1.00  0.00    -0.290 OA
ENDBRANCH  11  12
ENDBRANCH   7  11
ENDBRANCH   4   7
ENDBRANCH   2   3
ENDBRANCH   1   2
BRANCH   1  21
ATOM     21  C   UNL A   1      32.647  32.531  26.934  1.00  0.00     0.118 C 
BRANCH  21  22
ATOM     22  N   UNL A   1      32.486  33.895  27.416  1.00  0.00    -0.352 N 
ATOM     23  C   UNL A   1      33.032  34.555  28.490  1.00  0.00     0.251 C 
ATOM     24  H   UNL A   1      31.875  34.444  26.873  1.00  0.00     0.163 HD
ATOM     25  O   UNL A   1      32.526  35.621  28.840  1.00  0.00    -0.269 OA
BRANCH  23  26
ATOM     26  C   UNL A   1      34.193  34.026  29.247  1.00  0.00     0.039 A 
ATOM     27  C   UNL A   1      35.467  34.539  28.967  1.00  0.00     0.014 A 
ATOM     28  C   UNL A   1      34.078  32.969  30.149  1.00  0.00     0.014 A 
ATOM     29  C   UNL A   1      36.599  34.016  29.605  1.00  0.00     0.010 A 
ATOM     30  C   UNL A   1      35.187  32.526  30.870  1.00  0.00     0.010 A 
ATOM     31  C   UNL A   1      36.466  33.018  30.581  1.00  0.00    -0.014 A 
BRANCH  31  32
ATOM     32  C   UNL A   1      37.646  32.417  31.260  1.00  0.00     0.031 A 
ATOM     33  C   UNL A   1      38.414  31.305  30.587  1.00  0.00     0.074 A 
ATOM     34  C   UNL A   1      38.000  32.824  32.494  1.00  0.00     0.049 A 
ATOM     35  N   UNL A   1      39.397  30.575  31.051  1.00  0.00    -0.248 NA
ATOM     36  C   UNL A   1      38.001  30.947  29.220  1.00  0.00     0.031 C 
ATOM     37  C   UNL A   1      37.330  33.873  33.261  1.00  0.00     0.029 A 
ATOM     38  N   UNL A   1      39.010  32.400  33.322  1.00  0.00    -0.354 N 
ATOM     39  C   UNL A   1      39.701  29.666  30.044  1.00  0.00     0.074 A 
ATOM     40  C   UNL A   1      38.759  29.889  28.971  1.00  0.00     0.031 C 
ATOM     41  C   UNL A   1      37.965  34.034  34.434  1.00  0.00     0.029 A 
ATOM     42  C   UNL A   1      39.055  33.067  34.522  1.00  0.00     0.049 A 
ATOM     43  H   UNL A   1      39.642  31.685  33.079  1.00  0.00     0.167 HD
ATOM     44  C   UNL A   1      40.698  28.750  30.002  1.00  0.00     0.037 A 
ATOM     45  C   UNL A   1      39.878  32.912  35.578  1.00  0.00     0.037 A 
ATOM     46  C   UNL A   1      41.660  28.556  31.054  1.00  0.00     0.049 A 
ATOM     47  C   UNL A   1      40.960  31.866  35.519  1.00  0.00     0.074 A 
ATOM     48  C   UNL A   1      42.735  27.687  31.088  1.00  0.00     0.029 A 
ATOM     49  N   UNL A   1      41.666  29.249  32.256  1.00  0.00    -0.354 N 
ATOM     50  N   UNL A   1      41.260  31.041  34.547  1.00  0.00    -0.248 NA
ATOM     51  C   UNL A   1      41.817  31.733  36.705  1.00  0.00     0.031 C 
ATOM     52  C   UNL A   1      43.362  27.816  32.330  1.00  0.00     0.029 A 
ATOM     53  C   UNL A   1      42.713  28.808  33.048  1.00  0.00     0.049 A 
ATOM     54  H   UNL A   1      41.022  29.950  32.508  1.00  0.00     0.167 HD
ATOM     55  C   UNL A   1      42.353  30.308  34.991  1.00  0.00     0.074 A 
ATOM     56  C   UNL A   1      42.675  30.801  36.314  1.00  0.00     0.031 C 
ATOM     57  C   UNL A   1      43.025  29.313  34.362  1.00  0.00     0.037 A 
BRANCH  44  58
ATOM     58  C   UNL A   1      40.818  27.898  28.769  1.00  0.00     0.064 A 
ATOM     59  C   UNL A   1      40.083  26.711  28.623  1.00  0.00     0.173 A 
ATOM     60  C   UNL A   1      41.624  28.305  27.696  1.00  0.00     0.173 A 
ATOM     61  F   UNL A   1      39.306  26.271  29.624  1.00  0.00    -0.203 F 
ATOM     62  C   UNL A   1      40.168  25.953  27.458  1.00  0.00     0.198 A 
ATOM     63  C   UNL A   1      41.681  27.561  26.519  1.00  0.00     0.198 A 
ATOM     64  F   UNL A   1      42.344  29.434  27.778  1.00  0.00    -0.203 F 
ATOM     65  F   UNL A   1      39.491  24.801  27.361  1.00  0.00    -0.200 F 
ATOM     66  C   UNL A   1      40.959  26.384  26.404  1.00  0.00     0.200 A 
ATOM     67  F   UNL A   1      42.433  27.987  25.494  1.00  0.00    -0.200 F 
ATOM     68  F   UNL A   1      41.025  25.661  25.277  1.00  0.00    -0.200 F 
ENDBRANCH  44  58
BRANCH  45  69
ATOM     69  C   UNL A   1      39.729  33.795  36.765  1.00  0.00     0.064 A 
ATOM     70  C   UNL A   1      38.952  33.396  37.861  1.00  0.00     0.173 A 
ATOM     71  C   UNL A   1      40.372  35.040  36.841  1.00  0.00     0.173 A 
ATOM     72  F   UNL A   1      38.301  32.224  37.828  1.00  0.00    -0.203 F 
ATOM     73  C   UNL A   1      38.817  34.210  38.984  1.00  0.00     0.198 A 
ATOM     74  C   UNL A   1      40.259  35.840  37.976  1.00  0.00     0.198 A 
ATOM     75  F   UNL A   1      41.129  35.469  35.820  1.00  0.00    -0.203 F 
ATOM     76  F   UNL A   1      38.038  33.820  40.002  1.00  0.00    -0.200 F 
ATOM     77  C   UNL A   1      39.478  35.428  39.045  1.00  0.00     0.200 A 
ATOM     78  F   UNL A   1      40.914  37.008  38.038  1.00  0.00    -0.200 F 
ATOM     79  F   UNL A   1      39.358  36.204  40.130  1.00  0.00    -0.200 F 
ENDBRANCH  45  69
BRANCH  57  80
ATOM     80  C   UNL A   1      44.191  28.697  35.080  1.00  0.00     0.064 A 
ATOM     81  C   UNL A   1      45.479  29.245  34.995  1.00  0.00     0.173 A 
ATOM     82  C   UNL A   1      44.003  27.591  35.925  1.00  0.00     0.173 A 
ATOM     83  F   UNL A   1      45.713  30.295  34.193  1.00  0.00    -0.203 F 
ATOM     84  C   UNL A   1      46.538  28.698  35.713  1.00  0.00     0.198 A 
ATOM     85  C   UNL A   1      45.057  27.068  36.666  1.00  0.00     0.198 A 
ATOM     86  F   UNL A   1      42.788  27.036  36.051  1.00  0.00    -0.203 F 
ATOM     87  F   UNL A   1      47.769  29.214  35.583  1.00  0.00    -0.200 F 
ATOM     88  C   UNL A   1      46.326  27.617  36.555  1.00  0.00     0.200 A 
ATOM     89  F   UNL A   1      44.845  26.036  37.496  1.00  0.00    -0.200 F 
ATOM     90  F   UNL A   1      47.343  27.104  37.260  1.00  0.00    -0.200 F 
ENDBRANCH  57  80
ENDBRANCH  31  32
ENDBRANCH  23  26
ENDBRANCH  21  22
ENDBRANCH   1  21
TORSDOF 14
ENDMDL
