MODEL 1
REMARK VINA RESULT:     -11.6      0.000      0.000
REMARK SMILES Cc1cc(C(=O)NCCCNC(=O)c2ccc(-c3c4nc(c(-c5c(F)c(F)c(F)c(F)c5F)c5ccc([nH]5)c(-c5c(F)c(F)c(F)c(F)c5F)c5nc(c(-c6c(F)c(F)c(F)c(F)c6F)c6ccc3[nH]6)C=C5)C=C4)cc2)cc(S(=O)(=O)N[C@@H](C)CC(C)C)c1C
REMARK SMILES IDX 5 1 6 2 7 3 4 5 1 6 2 7 3 8 89 9 78 10 90 11 77 12 79 13
REMARK SMILES IDX 80 14 81 15 82 16 83 18 84 19 85 20 86 21 87 22 88 23 8 24
REMARK SMILES IDX 9 25 10 26 11 27 12 28 13 30 14 31 15 32 76 33 16 34 75 35
REMARK SMILES IDX 17 36 18 37 19 38 69 39 20 40 74 41 68 42 70 43 21 44 73 45
REMARK SMILES IDX 67 46 66 47 22 49 54 50 34 51 53 52 35 53 38 54 52 55 71 56
REMARK SMILES IDX 36 57 37 58 51 60 72 61 39 62 23 63 24 64 32 65 25 66 26 67
REMARK SMILES IDX 30 68 33 69 27 70 28 71 31 72 29 73 55 74 56 75 64 76 57 77
REMARK SMILES IDX 58 78 62 79 65 80 59 81 60 82 63 83 61 84 40 85 41 86 49 87
REMARK SMILES IDX 42 88 43 89 47 90 50 91 44 92 45 93 48 94 46 95
REMARK H PARENT 7 4 82 17 11 29 70 48 38 59
REMARK Flexibility Score: inf
ROOT
ATOM      1  C   UNL A   1      37.275  23.186  25.577  1.00  0.00     0.251 C 
ATOM      2  O   UNL A   1      38.003  24.100  25.967  1.00  0.00    -0.269 OA
ATOM      3  N   UNL A   1      37.896  22.072  25.087  1.00  0.00    -0.352 N 
ATOM      4  H   UNL A   1      38.878  22.105  25.158  1.00  0.00     0.163 HD
ENDROOT
BRANCH   1   5
ATOM      5  C   UNL A   1      35.800  23.343  25.690  1.00  0.00     0.041 A 
ATOM      6  C   UNL A   1      32.872  22.503  27.960  1.00  0.00     0.044 C 
ATOM      7  C   UNL A   1      33.626  23.009  26.755  1.00  0.00    -0.046 A 
ATOM      8  C   UNL A   1      35.021  22.817  26.718  1.00  0.00     0.017 A 
ATOM      9  C   UNL A   1      32.977  23.660  25.681  1.00  0.00    -0.028 A 
ATOM     10  C   UNL A   1      33.762  24.095  24.589  1.00  0.00     0.086 A 
ATOM     11  C   UNL A   1      31.479  23.847  25.687  1.00  0.00     0.046 C 
ATOM     12  C   UNL A   1      35.156  23.996  24.634  1.00  0.00     0.036 A 
BRANCH  10  13
ATOM     13  S   UNL A   1      32.994  24.712  23.098  1.00  0.00     0.241 S 
ATOM     14  O   UNL A   1      34.000  25.425  22.336  1.00  0.00    -0.207 OA
ATOM     15  O   UNL A   1      32.267  23.605  22.525  1.00  0.00    -0.207 OA
BRANCH  13  16
ATOM     16  N   UNL A   1      31.821  25.815  23.562  1.00  0.00    -0.208 NA
ATOM     17  H   UNL A   1      31.429  25.439  24.425  1.00  0.00     0.141 HD
BRANCH  16  18
ATOM     18  C   UNL A   1      32.025  27.250  23.827  1.00  0.00     0.067 C 
ATOM     19  C   UNL A   1      31.436  28.137  22.733  1.00  0.00     0.025 C 
BRANCH  18  20
ATOM     20  C   UNL A   1      31.354  27.620  25.174  1.00  0.00     0.022 C 
BRANCH  20  21
ATOM     21  C   UNL A   1      32.137  27.283  26.462  1.00  0.00    -0.016 C 
ATOM     22  C   UNL A   1      33.643  27.449  26.298  1.00  0.00     0.007 C 
ATOM     23  C   UNL A   1      31.662  28.178  27.610  1.00  0.00     0.007 C 
ENDBRANCH  20  21
ENDBRANCH  18  20
ENDBRANCH  16  18
ENDBRANCH  13  16
ENDBRANCH  10  13
ENDBRANCH   1   5
BRANCH   3  24
ATOM     24  C   UNL A   1      37.399  20.853  24.484  1.00  0.00     0.118 C 
BRANCH  24  25
ATOM     25  C   UNL A   1      38.286  19.668  24.866  1.00  0.00     0.042 C 
BRANCH  25  26
ATOM     26  C   UNL A   1      39.244  19.980  26.015  1.00  0.00     0.118 C 
BRANCH  26  27
ATOM     27  N   UNL A   1      40.408  19.106  26.000  1.00  0.00    -0.352 N 
ATOM     28  C   UNL A   1      41.742  19.417  26.029  1.00  0.00     0.251 C 
ATOM     29  H   UNL A   1      40.205  18.144  25.963  1.00  0.00     0.163 HD
ATOM     30  O   UNL A   1      42.572  18.555  25.757  1.00  0.00    -0.269 OA
BRANCH  28  31
ATOM     31  C   UNL A   1      42.194  20.780  26.384  1.00  0.00     0.039 A 
ATOM     32  C   UNL A   1      42.366  21.100  27.735  1.00  0.00     0.014 A 
ATOM     33  C   UNL A   1      42.387  21.758  25.403  1.00  0.00     0.014 A 
ATOM     34  C   UNL A   1      42.769  22.387  28.099  1.00  0.00     0.010 A 
ATOM     35  C   UNL A   1      42.848  23.022  25.764  1.00  0.00     0.010 A 
ATOM     36  C   UNL A   1      43.033  23.351  27.115  1.00  0.00    -0.014 A 
BRANCH  36  37
ATOM     37  C   UNL A   1      43.495  24.714  27.480  1.00  0.00     0.031 A 
ATOM     38  C   UNL A   1      42.517  25.726  28.010  1.00  0.00     0.074 A 
ATOM     39  C   UNL A   1      44.780  25.059  27.271  1.00  0.00     0.049 A 
ATOM     40  N   UNL A   1      42.706  26.988  28.299  1.00  0.00    -0.248 NA
ATOM     41  C   UNL A   1      41.137  25.262  28.218  1.00  0.00     0.031 C 
ATOM     42  C   UNL A   1      45.812  24.178  26.726  1.00  0.00     0.029 A 
ATOM     43  N   UNL A   1      45.432  26.248  27.479  1.00  0.00    -0.354 N 
ATOM     44  C   UNL A   1      41.469  27.473  28.702  1.00  0.00     0.074 A 
ATOM     45  C   UNL A   1      40.527  26.381  28.581  1.00  0.00     0.031 C 
ATOM     46  C   UNL A   1      46.972  24.851  26.655  1.00  0.00     0.029 A 
ATOM     47  C   UNL A   1      46.755  26.220  27.115  1.00  0.00     0.049 A 
ATOM     48  H   UNL A   1      44.993  27.046  27.854  1.00  0.00     0.167 HD
ATOM     49  C   UNL A   1      41.151  28.712  29.149  1.00  0.00     0.037 A 
ATOM     50  C   UNL A   1      47.686  27.192  27.141  1.00  0.00     0.037 A 
ATOM     51  C   UNL A   1      42.099  29.787  29.296  1.00  0.00     0.049 A 
ATOM     52  C   UNL A   1      47.311  28.556  27.650  1.00  0.00     0.074 A 
ATOM     53  C   UNL A   1      41.889  31.059  29.798  1.00  0.00     0.029 A 
ATOM     54  N   UNL A   1      43.438  29.711  28.944  1.00  0.00    -0.354 N 
ATOM     55  N   UNL A   1      46.151  28.987  28.082  1.00  0.00    -0.248 NA
ATOM     56  C   UNL A   1      48.375  29.568  27.680  1.00  0.00     0.031 C 
ATOM     57  C   UNL A   1      43.094  31.766  29.714  1.00  0.00     0.029 A 
ATOM     58  C   UNL A   1      44.064  30.920  29.202  1.00  0.00     0.049 A 
ATOM     59  H   UNL A   1      43.879  28.916  28.566  1.00  0.00     0.167 HD
ATOM     60  C   UNL A   1      46.350  30.307  28.460  1.00  0.00     0.074 A 
ATOM     61  C   UNL A   1      47.747  30.604  28.217  1.00  0.00     0.031 C 
ATOM     62  C   UNL A   1      45.457  31.194  28.962  1.00  0.00     0.037 A 
BRANCH  49  63
ATOM     63  C   UNL A   1      39.720  28.973  29.513  1.00  0.00     0.064 A 
ATOM     64  C   UNL A   1      38.792  29.432  28.566  1.00  0.00     0.173 A 
ATOM     65  C   UNL A   1      39.260  28.729  30.816  1.00  0.00     0.173 A 
ATOM     66  F   UNL A   1      39.183  29.692  27.309  1.00  0.00    -0.203 F 
ATOM     67  C   UNL A   1      37.464  29.664  28.916  1.00  0.00     0.198 A 
ATOM     68  C   UNL A   1      37.925  28.935  31.156  1.00  0.00     0.198 A 
ATOM     69  F   UNL A   1      40.104  28.284  31.759  1.00  0.00    -0.203 F 
ATOM     70  F   UNL A   1      36.607  30.147  28.006  1.00  0.00    -0.200 F 
ATOM     71  C   UNL A   1      37.031  29.408  30.208  1.00  0.00     0.200 A 
ATOM     72  F   UNL A   1      37.505  28.677  32.402  1.00  0.00    -0.200 F 
ATOM     73  F   UNL A   1      35.751  29.627  30.542  1.00  0.00    -0.200 F 
ENDBRANCH  49  63
BRANCH  50  74
ATOM     74  C   UNL A   1      49.072  26.900  26.693  1.00  0.00     0.064 A 
ATOM     75  C   UNL A   1      50.034  26.431  27.599  1.00  0.00     0.173 A 
ATOM     76  C   UNL A   1      49.461  27.075  25.358  1.00  0.00     0.173 A 
ATOM     77  F   UNL A   1      49.714  26.267  28.890  1.00  0.00    -0.203 F 
ATOM     78  C   UNL A   1      51.339  26.166  27.189  1.00  0.00     0.198 A 
ATOM     79  C   UNL A   1      50.759  26.786  24.944  1.00  0.00     0.198 A 
ATOM     80  F   UNL A   1      48.575  27.514  24.453  1.00  0.00    -0.203 F 
ATOM     81  F   UNL A   1      52.250  25.759  28.082  1.00  0.00    -0.200 F 
ATOM     82  C   UNL A   1      51.700  26.338  25.861  1.00  0.00     0.200 A 
ATOM     83  F   UNL A   1      51.100  26.938  23.657  1.00  0.00    -0.200 F 
ATOM     84  F   UNL A   1      52.953  26.077  25.466  1.00  0.00    -0.200 F 
ENDBRANCH  50  74
BRANCH  62  85
ATOM     85  C   UNL A   1      45.970  32.558  29.316  1.00  0.00     0.064 A 
ATOM     86  C   UNL A   1      45.965  33.608  28.387  1.00  0.00     0.173 A 
ATOM     87  C   UNL A   1      46.436  32.827  30.611  1.00  0.00     0.173 A 
ATOM     88  F   UNL A   1      45.545  33.397  27.131  1.00  0.00    -0.203 F 
ATOM     89  C   UNL A   1      46.428  34.874  28.737  1.00  0.00     0.198 A 
ATOM     90  C   UNL A   1      46.874  34.099  30.965  1.00  0.00     0.198 A 
ATOM     91  F   UNL A   1      46.456  31.856  31.538  1.00  0.00    -0.203 F 
ATOM     92  F   UNL A   1      46.455  35.852  27.822  1.00  0.00    -0.200 F 
ATOM     93  C   UNL A   1      46.876  35.120  30.027  1.00  0.00     0.200 A 
ATOM     94  F   UNL A   1      47.295  34.338  32.215  1.00  0.00    -0.200 F 
ATOM     95  F   UNL A   1      47.315  36.341  30.364  1.00  0.00    -0.200 F 
ENDBRANCH  62  85
ENDBRANCH  36  37
ENDBRANCH  28  31
ENDBRANCH  26  27
ENDBRANCH  25  26
ENDBRANCH  24  25
ENDBRANCH   3  24
TORSDOF 15
ENDMDL
MODEL 2
REMARK VINA RESULT:     -11.6      5.503     10.643
REMARK SMILES Cc1cc(C(=O)NCCCNC(=O)c2ccc(-c3c4nc(c(-c5c(F)c(F)c(F)c(F)c5F)c5ccc([nH]5)c(-c5c(F)c(F)c(F)c(F)c5F)c5nc(c(-c6c(F)c(F)c(F)c(F)c6F)c6ccc3[nH]6)C=C5)C=C4)cc2)cc(S(=O)(=O)N[C@@H](C)CC(C)C)c1C
REMARK SMILES IDX 5 1 6 2 7 3 4 5 1 6 2 7 3 8 89 9 78 10 90 11 77 12 79 13
REMARK SMILES IDX 80 14 81 15 82 16 83 18 84 19 85 20 86 21 87 22 88 23 8 24
REMARK SMILES IDX 9 25 10 26 11 27 12 28 13 30 14 31 15 32 76 33 16 34 75 35
REMARK SMILES IDX 17 36 18 37 19 38 69 39 20 40 74 41 68 42 70 43 21 44 73 45
REMARK SMILES IDX 67 46 66 47 22 49 54 50 34 51 53 52 35 53 38 54 52 55 71 56
REMARK SMILES IDX 36 57 37 58 51 60 72 61 39 62 23 63 24 64 32 65 25 66 26 67
REMARK SMILES IDX 30 68 33 69 27 70 28 71 31 72 29 73 55 74 56 75 64 76 57 77
REMARK SMILES IDX 58 78 62 79 65 80 59 81 60 82 63 83 61 84 40 85 41 86 49 87
REMARK SMILES IDX 42 88 43 89 47 90 50 91 44 92 45 93 48 94 46 95
REMARK H PARENT 7 4 82 17 11 29 70 48 38 59
REMARK Flexibility Score: inf
ROOT
ATOM      1  C   UNL A   1      33.754  29.134  26.728  1.00  0.00     0.251 C 
ATOM      2  O   UNL A   1      34.869  29.113  27.249  1.00  0.00    -0.269 OA
ATOM      3  N   UNL A   1      33.007  30.262  26.918  1.00  0.00    -0.352 N 
ATOM      4  H   UNL A   1      33.481  30.970  27.413  1.00  0.00     0.163 HD
ENDROOT
BRANCH   1   5
ATOM      5  C   UNL A   1      33.316  27.963  25.920  1.00  0.00     0.041 A 
ATOM      6  C   UNL A   1      34.382  24.458  24.918  1.00  0.00     0.044 C 
ATOM      7  C   UNL A   1      33.571  25.729  24.964  1.00  0.00    -0.046 A 
ATOM      8  C   UNL A   1      34.055  26.796  25.746  1.00  0.00     0.017 A 
ATOM      9  C   UNL A   1      32.358  25.873  24.252  1.00  0.00    -0.028 A 
ATOM     10  C   UNL A   1      31.667  27.103  24.347  1.00  0.00     0.086 A 
ATOM     11  C   UNL A   1      31.838  24.753  23.383  1.00  0.00     0.046 C 
ATOM     12  C   UNL A   1      32.110  28.098  25.223  1.00  0.00     0.036 A 
BRANCH  10  13
ATOM     13  S   UNL A   1      30.259  27.445  23.302  1.00  0.00     0.241 S 
ATOM     14  O   UNL A   1      30.717  27.476  21.928  1.00  0.00    -0.207 OA
ATOM     15  O   UNL A   1      29.212  26.545  23.721  1.00  0.00    -0.207 OA
BRANCH  13  16
ATOM     16  N   UNL A   1      29.707  28.977  23.697  1.00  0.00    -0.208 NA
ATOM     17  H   UNL A   1      30.544  29.557  23.743  1.00  0.00     0.141 HD
BRANCH  16  18
ATOM     18  C   UNL A   1      28.726  29.775  22.942  1.00  0.00     0.067 C 
ATOM     19  C   UNL A   1      27.312  29.207  23.035  1.00  0.00     0.025 C 
BRANCH  18  20
ATOM     20  C   UNL A   1      28.712  31.222  23.497  1.00  0.00     0.022 C 
BRANCH  20  21
ATOM     21  C   UNL A   1      29.049  32.356  22.504  1.00  0.00    -0.016 C 
ATOM     22  C   UNL A   1      28.052  32.452  21.356  1.00  0.00     0.007 C 
ATOM     23  C   UNL A   1      29.088  33.699  23.240  1.00  0.00     0.007 C 
ENDBRANCH  20  21
ENDBRANCH  18  20
ENDBRANCH  16  18
ENDBRANCH  13  16
ENDBRANCH  10  13
ENDBRANCH   1   5
BRANCH   3  24
ATOM     24  C   UNL A   1      31.657  30.625  26.538  1.00  0.00     0.118 C 
BRANCH  24  25
ATOM     25  C   UNL A   1      31.414  32.113  26.789  1.00  0.00     0.042 C 
BRANCH  25  26
ATOM     26  C   UNL A   1      32.705  32.923  26.901  1.00  0.00     0.118 C 
BRANCH  26  27
ATOM     27  N   UNL A   1      32.476  34.221  27.519  1.00  0.00    -0.352 N 
ATOM     28  C   UNL A   1      33.010  34.759  28.660  1.00  0.00     0.251 C 
ATOM     29  H   UNL A   1      31.839  34.801  27.043  1.00  0.00     0.163 HD
ATOM     30  O   UNL A   1      32.505  35.765  29.150  1.00  0.00    -0.269 OA
BRANCH  28  31
ATOM     31  C   UNL A   1      34.188  34.142  29.308  1.00  0.00     0.039 A 
ATOM     32  C   UNL A   1      35.464  34.564  28.922  1.00  0.00     0.014 A 
ATOM     33  C   UNL A   1      34.044  33.112  30.242  1.00  0.00     0.014 A 
ATOM     34  C   UNL A   1      36.594  33.981  29.500  1.00  0.00     0.010 A 
ATOM     35  C   UNL A   1      35.169  32.575  30.863  1.00  0.00     0.010 A 
ATOM     36  C   UNL A   1      36.455  32.997  30.491  1.00  0.00    -0.014 A 
BRANCH  36  37
ATOM     37  C   UNL A   1      37.642  32.390  31.142  1.00  0.00     0.031 A 
ATOM     38  C   UNL A   1      38.406  31.296  30.450  1.00  0.00     0.074 A 
ATOM     39  C   UNL A   1      37.991  32.778  32.384  1.00  0.00     0.049 A 
ATOM     40  N   UNL A   1      39.410  30.581  30.889  1.00  0.00    -0.248 NA
ATOM     41  C   UNL A   1      37.965  30.942  29.092  1.00  0.00     0.031 C 
ATOM     42  C   UNL A   1      37.303  33.800  33.172  1.00  0.00     0.029 A 
ATOM     43  N   UNL A   1      39.001  32.346  33.205  1.00  0.00    -0.354 N 
ATOM     44  C   UNL A   1      39.707  29.681  29.873  1.00  0.00     0.074 A 
ATOM     45  C   UNL A   1      38.751  29.912  28.812  1.00  0.00     0.031 C 
ATOM     46  C   UNL A   1      37.920  33.928  34.358  1.00  0.00     0.029 A 
ATOM     47  C   UNL A   1      39.021  32.972  34.427  1.00  0.00     0.049 A 
ATOM     48  H   UNL A   1      39.650  31.653  32.944  1.00  0.00     0.167 HD
ATOM     49  C   UNL A   1      40.698  28.759  29.824  1.00  0.00     0.037 A 
ATOM     50  C   UNL A   1      39.831  32.788  35.486  1.00  0.00     0.037 A 
ATOM     51  C   UNL A   1      41.666  28.554  30.870  1.00  0.00     0.049 A 
ATOM     52  C   UNL A   1      40.929  31.764  35.403  1.00  0.00     0.074 A 
ATOM     53  C   UNL A   1      42.746  27.688  30.890  1.00  0.00     0.029 A 
ATOM     54  N   UNL A   1      41.671  29.229  32.082  1.00  0.00    -0.354 N 
ATOM     55  N   UNL A   1      41.236  30.959  34.415  1.00  0.00    -0.248 NA
ATOM     56  C   UNL A   1      41.798  31.627  36.580  1.00  0.00     0.031 C 
ATOM     57  C   UNL A   1      43.382  27.811  32.130  1.00  0.00     0.029 A 
ATOM     58  C   UNL A   1      42.726  28.786  32.864  1.00  0.00     0.049 A 
ATOM     59  H   UNL A   1      41.022  29.919  32.348  1.00  0.00     0.167 HD
ATOM     60  C   UNL A   1      42.345  30.240  34.838  1.00  0.00     0.074 A 
ATOM     61  C   UNL A   1      42.667  30.713  36.168  1.00  0.00     0.031 C 
ATOM     62  C   UNL A   1      43.036  29.275  34.183  1.00  0.00     0.037 A 
BRANCH  49  63
ATOM     63  C   UNL A   1      40.788  27.901  28.596  1.00  0.00     0.064 A 
ATOM     64  C   UNL A   1      40.096  26.684  28.499  1.00  0.00     0.173 A 
ATOM     65  C   UNL A   1      41.545  28.316  27.490  1.00  0.00     0.173 A 
ATOM     66  F   UNL A   1      39.367  26.236  29.532  1.00  0.00    -0.203 F 
ATOM     67  C   UNL A   1      40.183  25.900  27.351  1.00  0.00     0.198 A 
ATOM     68  C   UNL A   1      41.607  27.543  26.333  1.00  0.00     0.198 A 
ATOM     69  F   UNL A   1      42.220  29.474  27.529  1.00  0.00    -0.203 F 
ATOM     70  F   UNL A   1      39.552  24.719  27.298  1.00  0.00    -0.200 F 
ATOM     71  C   UNL A   1      40.932  26.334  26.267  1.00  0.00     0.200 A 
ATOM     72  F   UNL A   1      42.321  27.969  25.282  1.00  0.00    -0.200 F 
ATOM     73  F   UNL A   1      41.009  25.581  25.160  1.00  0.00    -0.200 F 
ENDBRANCH  49  63
BRANCH  50  74
ATOM     74  C   UNL A   1      39.648  33.612  36.709  1.00  0.00     0.064 A 
ATOM     75  C   UNL A   1      40.310  34.839  36.851  1.00  0.00     0.173 A 
ATOM     76  C   UNL A   1      38.808  33.196  37.752  1.00  0.00     0.173 A 
ATOM     77  F   UNL A   1      41.139  35.268  35.890  1.00  0.00    -0.203 F 
ATOM     78  C   UNL A   1      40.152  35.611  38.000  1.00  0.00     0.198 A 
ATOM     79  C   UNL A   1      38.631  33.981  38.888  1.00  0.00     0.198 A 
ATOM     80  F   UNL A   1      38.148  32.033  37.658  1.00  0.00    -0.203 F 
ATOM     81  F   UNL A   1      40.828  36.761  38.130  1.00  0.00    -0.200 F 
ATOM     82  C   UNL A   1      39.308  35.185  39.015  1.00  0.00     0.200 A 
ATOM     83  F   UNL A   1      37.804  33.573  39.860  1.00  0.00    -0.200 F 
ATOM     84  F   UNL A   1      39.153  35.931  40.117  1.00  0.00    -0.200 F 
ENDBRANCH  50  74
BRANCH  62  85
ATOM     85  C   UNL A   1      44.228  28.691  34.881  1.00  0.00     0.064 A 
ATOM     86  C   UNL A   1      45.506  29.249  34.744  1.00  0.00     0.173 A 
ATOM     87  C   UNL A   1      44.080  27.583  35.728  1.00  0.00     0.173 A 
ATOM     88  F   UNL A   1      45.701  30.300  33.932  1.00  0.00    -0.203 F 
ATOM     89  C   UNL A   1      46.599  28.706  35.413  1.00  0.00     0.198 A 
ATOM     90  C   UNL A   1      45.170  27.058  36.416  1.00  0.00     0.198 A 
ATOM     91  F   UNL A   1      42.876  27.016  35.897  1.00  0.00    -0.203 F 
ATOM     92  F   UNL A   1      47.820  29.228  35.234  1.00  0.00    -0.200 F 
ATOM     93  C   UNL A   1      46.429  27.615  36.253  1.00  0.00     0.200 A 
ATOM     94  F   UNL A   1      45.002  26.011  37.237  1.00  0.00    -0.200 F 
ATOM     95  F   UNL A   1      47.481  27.098  36.903  1.00  0.00    -0.200 F 
ENDBRANCH  62  85
ENDBRANCH  36  37
ENDBRANCH  28  31
ENDBRANCH  26  27
ENDBRANCH  25  26
ENDBRANCH  24  25
ENDBRANCH   3  24
TORSDOF 15
ENDMDL
MODEL 3
REMARK VINA RESULT:     -11.6      5.244     10.591
REMARK SMILES Cc1cc(C(=O)NCCCNC(=O)c2ccc(-c3c4nc(c(-c5c(F)c(F)c(F)c(F)c5F)c5ccc([nH]5)c(-c5c(F)c(F)c(F)c(F)c5F)c5nc(c(-c6c(F)c(F)c(F)c(F)c6F)c6ccc3[nH]6)C=C5)C=C4)cc2)cc(S(=O)(=O)N[C@@H](C)CC(C)C)c1C
REMARK SMILES IDX 5 1 6 2 7 3 4 5 1 6 2 7 3 8 89 9 78 10 90 11 77 12 79 13
REMARK SMILES IDX 80 14 81 15 82 16 83 18 84 19 85 20 86 21 87 22 88 23 8 24
REMARK SMILES IDX 9 25 10 26 11 27 12 28 13 30 14 31 15 32 76 33 16 34 75 35
REMARK SMILES IDX 17 36 18 37 19 38 69 39 20 40 74 41 68 42 70 43 21 44 73 45
REMARK SMILES IDX 67 46 66 47 22 49 54 50 34 51 53 52 35 53 38 54 52 55 71 56
REMARK SMILES IDX 36 57 37 58 51 60 72 61 39 62 23 63 24 64 32 65 25 66 26 67
REMARK SMILES IDX 30 68 33 69 27 70 28 71 31 72 29 73 55 74 56 75 64 76 57 77
REMARK SMILES IDX 58 78 62 79 65 80 59 81 60 82 63 83 61 84 40 85 41 86 49 87
REMARK SMILES IDX 42 88 43 89 47 90 50 91 44 92 45 93 48 94 46 95
REMARK H PARENT 7 4 82 17 11 29 70 48 38 59
REMARK Flexibility Score: inf
ROOT
ATOM      1  C   UNL A   1      33.132  28.921  25.928  1.00  0.00     0.251 C 
ATOM      2  O   UNL A   1      34.279  28.691  26.314  1.00  0.00    -0.269 OA
ATOM      3  N   UNL A   1      32.678  30.201  26.080  1.00  0.00    -0.352 N 
ATOM      4  H   UNL A   1      33.356  30.821  26.435  1.00  0.00     0.163 HD
ENDROOT
BRANCH   1   5
ATOM      5  C   UNL A   1      32.347  27.819  25.310  1.00  0.00     0.041 A 
ATOM      6  C   UNL A   1      29.637  25.277  26.098  1.00  0.00     0.044 C 
ATOM      7  C   UNL A   1      30.709  26.006  25.327  1.00  0.00    -0.046 A 
ATOM      8  C   UNL A   1      31.414  27.033  25.983  1.00  0.00     0.017 A 
ATOM      9  C   UNL A   1      31.016  25.688  23.984  1.00  0.00    -0.028 A 
ATOM     10  C   UNL A   1      32.041  26.419  23.341  1.00  0.00     0.086 A 
ATOM     11  C   UNL A   1      30.294  24.570  23.273  1.00  0.00     0.046 C 
ATOM     12  C   UNL A   1      32.641  27.509  23.978  1.00  0.00     0.036 A 
BRANCH  10  13
ATOM     13  S   UNL A   1      32.646  25.926  21.733  1.00  0.00     0.241 S 
ATOM     14  O   UNL A   1      31.558  26.057  20.785  1.00  0.00    -0.207 OA
ATOM     15  O   UNL A   1      33.896  26.620  21.537  1.00  0.00    -0.207 OA
BRANCH  13  16
ATOM     16  N   UNL A   1      33.053  24.304  21.830  1.00  0.00    -0.208 NA
ATOM     17  H   UNL A   1      33.898  24.208  21.267  1.00  0.00     0.141 HD
BRANCH  16  18
ATOM     18  C   UNL A   1      33.324  23.542  23.062  1.00  0.00     0.067 C 
ATOM     19  C   UNL A   1      32.900  22.079  22.950  1.00  0.00     0.025 C 
BRANCH  18  20
ATOM     20  C   UNL A   1      34.842  23.591  23.368  1.00  0.00     0.022 C 
BRANCH  20  21
ATOM     21  C   UNL A   1      35.258  23.554  24.855  1.00  0.00    -0.016 C 
ATOM     22  C   UNL A   1      36.740  23.844  25.061  1.00  0.00     0.007 C 
ATOM     23  C   UNL A   1      34.439  24.574  25.651  1.00  0.00     0.007 C 
ENDBRANCH  20  21
ENDBRANCH  18  20
ENDBRANCH  16  18
ENDBRANCH  13  16
ENDBRANCH  10  13
ENDBRANCH   1   5
BRANCH   3  24
ATOM     24  C   UNL A   1      31.398  30.828  25.823  1.00  0.00     0.118 C 
BRANCH  24  25
ATOM     25  C   UNL A   1      31.272  32.128  26.617  1.00  0.00     0.042 C 
BRANCH  25  26
ATOM     26  C   UNL A   1      32.611  32.645  27.140  1.00  0.00     0.118 C 
BRANCH  26  27
ATOM     27  N   UNL A   1      32.520  34.029  27.582  1.00  0.00    -0.352 N 
ATOM     28  C   UNL A   1      33.176  34.673  28.598  1.00  0.00     0.251 C 
ATOM     29  H   UNL A   1      31.890  34.588  27.072  1.00  0.00     0.163 HD
ATOM     30  O   UNL A   1      32.780  35.773  28.974  1.00  0.00    -0.269 OA
BRANCH  28  31
ATOM     31  C   UNL A   1      34.354  34.059  29.247  1.00  0.00     0.039 A 
ATOM     32  C   UNL A   1      34.149  33.093  30.237  1.00  0.00     0.014 A 
ATOM     33  C   UNL A   1      35.652  34.475  28.934  1.00  0.00     0.014 A 
ATOM     34  C   UNL A   1      35.244  32.514  30.883  1.00  0.00     0.010 A 
ATOM     35  C   UNL A   1      36.744  33.853  29.534  1.00  0.00     0.010 A 
ATOM     36  C   UNL A   1      36.551  32.875  30.521  1.00  0.00    -0.014 A 
BRANCH  36  37
ATOM     37  C   UNL A   1      37.728  32.247  31.171  1.00  0.00     0.031 A 
ATOM     38  C   UNL A   1      38.504  31.177  30.456  1.00  0.00     0.074 A 
ATOM     39  C   UNL A   1      38.057  32.594  32.430  1.00  0.00     0.049 A 
ATOM     40  N   UNL A   1      39.502  30.448  30.887  1.00  0.00    -0.248 NA
ATOM     41  C   UNL A   1      38.085  30.867  29.080  1.00  0.00     0.031 C 
ATOM     42  C   UNL A   1      37.356  33.591  33.241  1.00  0.00     0.029 A 
ATOM     43  N   UNL A   1      39.054  32.136  33.253  1.00  0.00    -0.354 N 
ATOM     44  C   UNL A   1      39.815  29.582  29.847  1.00  0.00     0.074 A 
ATOM     45  C   UNL A   1      38.875  29.848  28.779  1.00  0.00     0.031 C 
ATOM     46  C   UNL A   1      37.954  33.680  34.440  1.00  0.00     0.029 A 
ATOM     47  C   UNL A   1      39.055  32.722  34.495  1.00  0.00     0.049 A 
ATOM     48  H   UNL A   1      39.708  31.453  32.979  1.00  0.00     0.167 HD
ATOM     49  C   UNL A   1      40.807  28.662  29.783  1.00  0.00     0.037 A 
ATOM     50  C   UNL A   1      39.848  32.504  35.560  1.00  0.00     0.037 A 
ATOM     51  C   UNL A   1      41.759  28.424  30.838  1.00  0.00     0.049 A 
ATOM     52  C   UNL A   1      40.948  31.484  35.460  1.00  0.00     0.074 A 
ATOM     53  C   UNL A   1      42.839  27.558  30.847  1.00  0.00     0.029 A 
ATOM     54  N   UNL A   1      41.745  29.058  32.071  1.00  0.00    -0.354 N 
ATOM     55  N   UNL A   1      41.271  30.711  34.451  1.00  0.00    -0.248 NA
ATOM     56  C   UNL A   1      41.799  31.308  36.646  1.00  0.00     0.031 C 
ATOM     57  C   UNL A   1      43.456  27.641  32.099  1.00  0.00     0.029 A 
ATOM     58  C   UNL A   1      42.787  28.590  32.855  1.00  0.00     0.049 A 
ATOM     59  H   UNL A   1      41.091  29.740  32.348  1.00  0.00     0.167 HD
ATOM     60  C   UNL A   1      42.374  29.980  34.869  1.00  0.00     0.074 A 
ATOM     61  C   UNL A   1      42.674  30.409  36.219  1.00  0.00     0.031 C 
ATOM     62  C   UNL A   1      43.076  29.037  34.194  1.00  0.00     0.037 A 
BRANCH  49  63
ATOM     63  C   UNL A   1      40.917  27.845  28.530  1.00  0.00     0.064 A 
ATOM     64  C   UNL A   1      40.229  26.630  28.382  1.00  0.00     0.173 A 
ATOM     65  C   UNL A   1      41.690  28.296  27.450  1.00  0.00     0.173 A 
ATOM     66  F   UNL A   1      39.486  26.149  29.390  1.00  0.00    -0.203 F 
ATOM     67  C   UNL A   1      40.335  25.885  27.211  1.00  0.00     0.198 A 
ATOM     68  C   UNL A   1      41.771  27.562  26.269  1.00  0.00     0.198 A 
ATOM     69  F   UNL A   1      42.362  29.454  27.537  1.00  0.00    -0.203 F 
ATOM     70  F   UNL A   1      39.707  24.705  27.110  1.00  0.00    -0.200 F 
ATOM     71  C   UNL A   1      41.099  26.354  26.153  1.00  0.00     0.200 A 
ATOM     72  F   UNL A   1      42.500  28.023  25.244  1.00  0.00    -0.200 F 
ATOM     73  F   UNL A   1      41.195  25.638  25.024  1.00  0.00    -0.200 F 
ENDBRANCH  49  63
BRANCH  50  74
ATOM     74  C   UNL A   1      39.645  33.287  36.806  1.00  0.00     0.064 A 
ATOM     75  C   UNL A   1      40.354  34.476  37.028  1.00  0.00     0.173 A 
ATOM     76  C   UNL A   1      38.740  32.870  37.792  1.00  0.00     0.173 A 
ATOM     77  F   UNL A   1      41.244  34.903  36.122  1.00  0.00    -0.203 F 
ATOM     78  C   UNL A   1      40.177  35.210  38.199  1.00  0.00     0.198 A 
ATOM     79  C   UNL A   1      38.546  33.619  38.951  1.00  0.00     0.198 A 
ATOM     80  F   UNL A   1      38.034  31.743  37.622  1.00  0.00    -0.203 F 
ATOM     81  F   UNL A   1      40.896  36.321  38.405  1.00  0.00    -0.200 F 
ATOM     82  C   UNL A   1      39.269  34.784  39.157  1.00  0.00     0.200 A 
ATOM     83  F   UNL A   1      37.657  33.212  39.867  1.00  0.00    -0.200 F 
ATOM     84  F   UNL A   1      39.095  35.493  40.280  1.00  0.00    -0.200 F 
ENDBRANCH  50  74
BRANCH  62  85
ATOM     85  C   UNL A   1      44.257  28.431  34.891  1.00  0.00     0.064 A 
ATOM     86  C   UNL A   1      44.142  27.252  35.642  1.00  0.00     0.173 A 
ATOM     87  C   UNL A   1      45.526  29.015  34.774  1.00  0.00     0.173 A 
ATOM     88  F   UNL A   1      42.946  26.665  35.797  1.00  0.00    -0.203 F 
ATOM     89  C   UNL A   1      45.251  26.692  36.268  1.00  0.00     0.198 A 
ATOM     90  C   UNL A   1      46.639  28.439  35.380  1.00  0.00     0.198 A 
ATOM     91  F   UNL A   1      45.690  30.141  34.062  1.00  0.00    -0.203 F 
ATOM     92  F   UNL A   1      45.112  25.590  37.016  1.00  0.00    -0.200 F 
ATOM     93  C   UNL A   1      46.500  27.282  36.132  1.00  0.00     0.200 A 
ATOM     94  F   UNL A   1      47.846  29.004  35.237  1.00  0.00    -0.200 F 
ATOM     95  F   UNL A   1      47.569  26.738  36.730  1.00  0.00    -0.200 F 
ENDBRANCH  62  85
ENDBRANCH  36  37
ENDBRANCH  28  31
ENDBRANCH  26  27
ENDBRANCH  25  26
ENDBRANCH  24  25
ENDBRANCH   3  24
TORSDOF 15
ENDMDL
