MODEL 1
REMARK VINA RESULT:     -12.9      0.000      0.000
REMARK SMILES CC(C)(C)OC(=O)N1C[C@H](c2ccc(C(F)(F)F)cc2)[C@H](C(=O)NCCCNC(=O)c2ccc(-c3c4nc(c(-c5c(F)c(F)c(F)c(F)c5F)c5ccc([nH]5)c(-c5c(F)c(F)c(F)c(F)c5F)c5nc(c(-c6c(F)c(F)c(F)c(F)c6F)c6ccc3[nH]6)C=C5)C=C4)cc2)C1
REMARK SMILES IDX 25 1 24 2 22 3 23 4 21 6 8 7 9 8 94 9 10 10 6 11 7 12 5 13
REMARK SMILES IDX 2 14 1 15 3 16 4 17 11 18 12 19 20 20 13 21 19 22 14 23
REMARK SMILES IDX 15 24 16 25 17 26 18 27 26 28 27 29 28 30 29 31 30 33 31 34
REMARK SMILES IDX 32 35 93 36 33 37 92 38 34 39 35 40 36 41 86 42 37 43 91 44
REMARK SMILES IDX 85 45 87 46 38 47 90 48 84 49 83 50 39 52 71 53 51 54 70 55
REMARK SMILES IDX 52 56 55 57 69 58 88 59 53 60 54 61 68 63 89 64 56 65 40 66
REMARK SMILES IDX 41 67 49 68 42 69 43 70 47 71 50 72 44 73 45 74 48 75 46 76
REMARK SMILES IDX 72 77 73 78 81 79 74 80 75 81 79 82 82 83 76 84 77 85 80 86
REMARK SMILES IDX 78 87 57 88 58 89 66 90 59 91 60 92 64 93 67 94 61 95 62 96
REMARK SMILES IDX 65 97 63 98
REMARK H PARENT 24 5 28 32 87 51 55 62
REMARK Flexibility Score: inf
ROOT
ATOM      1  C   UNL A   1      31.955  27.258  26.424  1.00  0.00     0.117 C 
ENDROOT
BRANCH   1   2
ATOM      2  N   UNL A   1      30.758  26.504  26.764  1.00  0.00    -0.356 N 
ATOM      3  C   UNL A   1      30.108  25.458  26.200  1.00  0.00     0.225 C 
ATOM      4  O   UNL A   1      29.098  25.067  26.802  1.00  0.00    -0.275 OA
ATOM      5  H   UNL A   1      30.323  26.825  27.587  1.00  0.00     0.163 HD
BRANCH   3   6
ATOM      6  C   UNL A   1      30.502  24.761  24.908  1.00  0.00     0.107 C 
ATOM      7  N   UNL A   1      32.553  24.894  23.787  1.00  0.00    -0.307 N 
ATOM      8  C   UNL A   1      31.565  25.109  22.758  1.00  0.00     0.132 C 
ATOM      9  C   UNL A   1      31.950  24.269  24.932  1.00  0.00     0.137 C 
ATOM     10  C   UNL A   1      30.243  25.423  23.507  1.00  0.00     0.053 C 
BRANCH   7  11
ATOM     11  C   UNL A   1      33.887  25.201  23.735  1.00  0.00     0.410 C 
ATOM     12  O   UNL A   1      34.330  26.289  24.080  1.00  0.00    -0.224 OA
BRANCH  11  13
ATOM     13  O   UNL A   1      34.620  24.199  23.184  1.00  0.00    -0.444 OA
BRANCH  13  14
ATOM     14  C   UNL A   1      35.382  23.277  24.011  1.00  0.00     0.106 C 
ATOM     15  C   UNL A   1      36.645  22.952  23.196  1.00  0.00     0.056 C 
ATOM     16  C   UNL A   1      34.563  22.000  24.204  1.00  0.00     0.056 C 
ATOM     17  C   UNL A   1      35.839  23.868  25.353  1.00  0.00     0.056 C 
ENDBRANCH  13  14
ENDBRANCH  11  13
ENDBRANCH   7  11
BRANCH  10  18
ATOM     18  C   UNL A   1      29.767  26.868  23.394  1.00  0.00    -0.042 A 
ATOM     19  C   UNL A   1      30.660  27.934  23.207  1.00  0.00     0.005 A 
ATOM     20  C   UNL A   1      28.412  27.207  23.551  1.00  0.00     0.005 A 
ATOM     21  C   UNL A   1      30.197  29.227  22.923  1.00  0.00     0.013 A 
ATOM     22  C   UNL A   1      27.941  28.491  23.276  1.00  0.00     0.013 A 
ATOM     23  C   UNL A   1      28.823  29.496  22.885  1.00  0.00     0.056 A 
BRANCH  23  24
ATOM     24  C   UNL A   1      28.278  30.778  22.315  1.00  0.00     0.416 C 
ATOM     25  F   UNL A   1      29.234  31.709  22.059  1.00  0.00    -0.166 F 
ATOM     26  F   UNL A   1      27.645  30.549  21.128  1.00  0.00    -0.166 F 
ATOM     27  F   UNL A   1      27.355  31.377  23.111  1.00  0.00    -0.166 F 
ENDBRANCH  23  24
ENDBRANCH  10  18
ENDBRANCH   3   6
ENDBRANCH   1   2
BRANCH   1  28
ATOM     28  C   UNL A   1      31.811  28.771  26.587  1.00  0.00     0.042 C 
BRANCH  28  29
ATOM     29  C   UNL A   1      32.970  29.612  26.052  1.00  0.00     0.118 C 
BRANCH  29  30
ATOM     30  N   UNL A   1      32.788  31.026  26.324  1.00  0.00    -0.352 N 
ATOM     31  C   UNL A   1      33.437  31.832  27.228  1.00  0.00     0.251 C 
ATOM     32  H   UNL A   1      32.098  31.473  25.782  1.00  0.00     0.163 HD
ATOM     33  O   UNL A   1      32.959  32.930  27.503  1.00  0.00    -0.269 OA
BRANCH  31  34
ATOM     34  C   UNL A   1      34.701  31.410  27.884  1.00  0.00     0.039 A 
ATOM     35  C   UNL A   1      34.767  30.128  28.441  1.00  0.00     0.014 A 
ATOM     36  C   UNL A   1      35.783  32.281  28.044  1.00  0.00     0.014 A 
ATOM     37  C   UNL A   1      35.917  29.711  29.124  1.00  0.00     0.010 A 
ATOM     38  C   UNL A   1      36.954  31.841  28.677  1.00  0.00     0.010 A 
ATOM     39  C   UNL A   1      37.036  30.555  29.233  1.00  0.00    -0.014 A 
BRANCH  39  40
ATOM     40  C   UNL A   1      38.270  30.099  29.944  1.00  0.00     0.031 A 
ATOM     41  C   UNL A   1      38.592  30.601  31.330  1.00  0.00     0.074 A 
ATOM     42  C   UNL A   1      39.119  29.235  29.350  1.00  0.00     0.049 A 
ATOM     43  N   UNL A   1      39.618  30.322  32.099  1.00  0.00    -0.248 NA
ATOM     44  C   UNL A   1      37.646  31.555  31.927  1.00  0.00     0.031 C 
ATOM     45  C   UNL A   1      38.960  28.686  28.004  1.00  0.00     0.029 A 
ATOM     46  N   UNL A   1      40.287  28.664  29.802  1.00  0.00    -0.354 N 
ATOM     47  C   UNL A   1      39.441  31.066  33.259  1.00  0.00     0.074 A 
ATOM     48  C   UNL A   1      38.242  31.854  33.072  1.00  0.00     0.031 C 
ATOM     49  C   UNL A   1      39.972  27.839  27.749  1.00  0.00     0.029 A 
ATOM     50  C   UNL A   1      40.876  27.813  28.897  1.00  0.00     0.049 A 
ATOM     51  H   UNL A   1      40.666  28.848  30.692  1.00  0.00     0.167 HD
ATOM     52  C   UNL A   1      40.189  31.075  34.391  1.00  0.00     0.037 A 
ATOM     53  C   UNL A   1      42.018  27.100  28.973  1.00  0.00     0.037 A 
ATOM     54  C   UNL A   1      41.374  30.282  34.597  1.00  0.00     0.049 A 
ATOM     55  C   UNL A   1      42.852  27.160  30.228  1.00  0.00     0.074 A 
ATOM     56  C   UNL A   1      42.168  30.196  35.728  1.00  0.00     0.029 A 
ATOM     57  N   UNL A   1      41.940  29.442  33.650  1.00  0.00    -0.354 N 
ATOM     58  N   UNL A   1      42.632  27.814  31.341  1.00  0.00    -0.248 NA
ATOM     59  C   UNL A   1      44.095  26.372  30.237  1.00  0.00     0.031 C 
ATOM     60  C   UNL A   1      43.245  29.349  35.448  1.00  0.00     0.029 A 
ATOM     61  C   UNL A   1      43.088  28.856  34.164  1.00  0.00     0.049 A 
ATOM     62  H   UNL A   1      41.581  29.285  32.747  1.00  0.00     0.167 HD
ATOM     63  C   UNL A   1      43.683  27.489  32.191  1.00  0.00     0.074 A 
ATOM     64  C   UNL A   1      44.532  26.565  31.472  1.00  0.00     0.031 C 
ATOM     65  C   UNL A   1      43.922  27.921  33.453  1.00  0.00     0.037 A 
BRANCH  52  66
ATOM     66  C   UNL A   1      39.745  31.971  35.513  1.00  0.00     0.064 A 
ATOM     67  C   UNL A   1      40.218  33.287  35.633  1.00  0.00     0.173 A 
ATOM     68  C   UNL A   1      38.789  31.532  36.443  1.00  0.00     0.173 A 
ATOM     69  F   UNL A   1      41.136  33.755  34.775  1.00  0.00    -0.203 F 
ATOM     70  C   UNL A   1      39.773  34.119  36.657  1.00  0.00     0.198 A 
ATOM     71  C   UNL A   1      38.321  32.378  37.445  1.00  0.00     0.198 A 
ATOM     72  F   UNL A   1      38.293  30.289  36.368  1.00  0.00    -0.203 F 
ATOM     73  F   UNL A   1      40.274  35.357  36.778  1.00  0.00    -0.200 F 
ATOM     74  C   UNL A   1      38.819  33.668  37.556  1.00  0.00     0.200 A 
ATOM     75  F   UNL A   1      37.385  31.947  38.300  1.00  0.00    -0.200 F 
ATOM     76  F   UNL A   1      38.381  34.475  38.532  1.00  0.00    -0.200 F 
ENDBRANCH  52  66
BRANCH  53  77
ATOM     77  C   UNL A   1      42.453  26.251  27.829  1.00  0.00     0.064 A 
ATOM     78  C   UNL A   1      43.364  26.733  26.877  1.00  0.00     0.173 A 
ATOM     79  C   UNL A   1      41.929  24.966  27.634  1.00  0.00     0.173 A 
ATOM     80  F   UNL A   1      43.875  27.966  27.004  1.00  0.00    -0.203 F 
ATOM     81  C   UNL A   1      43.708  25.975  25.759  1.00  0.00     0.198 A 
ATOM     82  C   UNL A   1      42.301  24.194  26.534  1.00  0.00     0.198 A 
ATOM     83  F   UNL A   1      41.052  24.455  28.511  1.00  0.00    -0.203 F 
ATOM     84  F   UNL A   1      44.527  26.488  24.831  1.00  0.00    -0.200 F 
ATOM     85  C   UNL A   1      43.179  24.704  25.591  1.00  0.00     0.200 A 
ATOM     86  F   UNL A   1      41.798  22.961  26.382  1.00  0.00    -0.200 F 
ATOM     87  F   UNL A   1      43.504  23.979  24.513  1.00  0.00    -0.200 F 
ENDBRANCH  53  77
BRANCH  65  88
ATOM     88  C   UNL A   1      45.123  27.364  34.166  1.00  0.00     0.064 A 
ATOM     89  C   UNL A   1      46.370  28.007  34.134  1.00  0.00     0.173 A 
ATOM     90  C   UNL A   1      45.013  26.188  34.926  1.00  0.00     0.173 A 
ATOM     91  F   UNL A   1      46.534  29.126  33.414  1.00  0.00    -0.203 F 
ATOM     92  C   UNL A   1      47.467  27.479  34.811  1.00  0.00     0.198 A 
ATOM     93  C   UNL A   1      46.104  25.682  35.629  1.00  0.00     0.198 A 
ATOM     94  F   UNL A   1      43.844  25.535  34.998  1.00  0.00    -0.203 F 
ATOM     95  F   UNL A   1      48.660  28.081  34.722  1.00  0.00    -0.200 F 
ATOM     96  C   UNL A   1      47.331  26.322  35.564  1.00  0.00     0.200 A 
ATOM     97  F   UNL A   1      45.965  24.573  36.370  1.00  0.00    -0.200 F 
ATOM     98  F   UNL A   1      48.386  25.821  36.222  1.00  0.00    -0.200 F 
ENDBRANCH  65  88
ENDBRANCH  39  40
ENDBRANCH  31  34
ENDBRANCH  29  30
ENDBRANCH  28  29
ENDBRANCH   1  28
TORSDOF 15
ENDMDL
MODEL 2
REMARK VINA RESULT:     -12.8      2.508      3.610
REMARK SMILES CC(C)(C)OC(=O)N1C[C@H](c2ccc(C(F)(F)F)cc2)[C@H](C(=O)NCCCNC(=O)c2ccc(-c3c4nc(c(-c5c(F)c(F)c(F)c(F)c5F)c5ccc([nH]5)c(-c5c(F)c(F)c(F)c(F)c5F)c5nc(c(-c6c(F)c(F)c(F)c(F)c6F)c6ccc3[nH]6)C=C5)C=C4)cc2)C1
REMARK SMILES IDX 25 1 24 2 22 3 23 4 21 6 8 7 9 8 94 9 10 10 6 11 7 12 5 13
REMARK SMILES IDX 2 14 1 15 3 16 4 17 11 18 12 19 20 20 13 21 19 22 14 23
REMARK SMILES IDX 15 24 16 25 17 26 18 27 26 28 27 29 28 30 29 31 30 33 31 34
REMARK SMILES IDX 32 35 93 36 33 37 92 38 34 39 35 40 36 41 86 42 37 43 91 44
REMARK SMILES IDX 85 45 87 46 38 47 90 48 84 49 83 50 39 52 71 53 51 54 70 55
REMARK SMILES IDX 52 56 55 57 69 58 88 59 53 60 54 61 68 63 89 64 56 65 40 66
REMARK SMILES IDX 41 67 49 68 42 69 43 70 47 71 50 72 44 73 45 74 48 75 46 76
REMARK SMILES IDX 72 77 73 78 81 79 74 80 75 81 79 82 82 83 76 84 77 85 80 86
REMARK SMILES IDX 78 87 57 88 58 89 66 90 59 91 60 92 64 93 67 94 61 95 62 96
REMARK SMILES IDX 65 97 63 98
REMARK H PARENT 24 5 28 32 87 51 55 62
REMARK Flexibility Score: inf
ROOT
ATOM      1  C   UNL A   1      32.791  25.927  26.109  1.00  0.00     0.117 C 
ENDROOT
BRANCH   1   2
ATOM      2  N   UNL A   1      31.623  25.271  26.679  1.00  0.00    -0.356 N 
ATOM      3  C   UNL A   1      30.843  24.233  26.295  1.00  0.00     0.225 C 
ATOM      4  O   UNL A   1      29.919  23.944  27.068  1.00  0.00    -0.275 OA
ATOM      5  H   UNL A   1      31.336  25.671  27.532  1.00  0.00     0.163 HD
BRANCH   3   6
ATOM      6  C   UNL A   1      30.999  23.431  25.014  1.00  0.00     0.107 C 
ATOM      7  N   UNL A   1      32.918  23.226  23.688  1.00  0.00    -0.307 N 
ATOM      8  C   UNL A   1      31.864  23.531  22.752  1.00  0.00     0.132 C 
ATOM      9  C   UNL A   1      32.362  22.743  24.923  1.00  0.00     0.137 C 
ATOM     10  C   UNL A   1      30.684  24.060  23.609  1.00  0.00     0.053 C 
BRANCH   7  11
ATOM     11  C   UNL A   1      34.268  23.339  23.485  1.00  0.00     0.410 C 
ATOM     12  O   UNL A   1      34.768  24.270  22.866  1.00  0.00    -0.224 OA
BRANCH  11  13
ATOM     13  O   UNL A   1      34.949  22.271  23.971  1.00  0.00    -0.444 OA
BRANCH  13  14
ATOM     14  C   UNL A   1      35.872  22.405  25.088  1.00  0.00     0.106 C 
ATOM     15  C   UNL A   1      37.222  21.891  24.561  1.00  0.00     0.056 C 
ATOM     16  C   UNL A   1      35.397  21.504  26.228  1.00  0.00     0.056 C 
ATOM     17  C   UNL A   1      36.081  23.853  25.556  1.00  0.00     0.056 C 
ENDBRANCH  13  14
ENDBRANCH  11  13
ENDBRANCH   7  11
BRANCH  10  18
ATOM     18  C   UNL A   1      30.398  25.551  23.460  1.00  0.00    -0.042 A 
ATOM     19  C   UNL A   1      31.316  26.430  22.865  1.00  0.00     0.005 A 
ATOM     20  C   UNL A   1      29.229  26.129  23.984  1.00  0.00     0.005 A 
ATOM     21  C   UNL A   1      30.965  27.755  22.571  1.00  0.00     0.013 A 
ATOM     22  C   UNL A   1      28.872  27.447  23.703  1.00  0.00     0.013 A 
ATOM     23  C   UNL A   1      29.705  28.252  22.927  1.00  0.00     0.056 A 
BRANCH  23  24
ATOM     24  C   UNL A   1      29.182  29.557  22.390  1.00  0.00     0.416 C 
ATOM     25  F   UNL A   1      30.011  30.145  21.488  1.00  0.00    -0.166 F 
ATOM     26  F   UNL A   1      27.992  29.375  21.748  1.00  0.00    -0.166 F 
ATOM     27  F   UNL A   1      28.939  30.481  23.355  1.00  0.00    -0.166 F 
ENDBRANCH  23  24
ENDBRANCH  10  18
ENDBRANCH   3   6
ENDBRANCH   1   2
BRANCH   1  28
ATOM     28  C   UNL A   1      32.732  27.455  26.144  1.00  0.00     0.042 C 
BRANCH  28  29
ATOM     29  C   UNL A   1      34.027  28.163  26.540  1.00  0.00     0.118 C 
BRANCH  29  30
ATOM     30  N   UNL A   1      33.799  29.546  26.917  1.00  0.00    -0.352 N 
ATOM     31  C   UNL A   1      34.536  30.359  27.742  1.00  0.00     0.251 C 
ATOM     32  H   UNL A   1      32.998  29.962  26.523  1.00  0.00     0.163 HD
ATOM     33  O   UNL A   1      34.038  31.405  28.153  1.00  0.00    -0.269 OA
BRANCH  31  34
ATOM     34  C   UNL A   1      35.919  30.008  28.154  1.00  0.00     0.039 A 
ATOM     35  C   UNL A   1      36.954  30.182  27.229  1.00  0.00     0.014 A 
ATOM     36  C   UNL A   1      36.201  29.424  29.392  1.00  0.00     0.014 A 
ATOM     37  C   UNL A   1      38.264  29.804  27.553  1.00  0.00     0.010 A 
ATOM     38  C   UNL A   1      37.522  29.101  29.736  1.00  0.00     0.010 A 
ATOM     39  C   UNL A   1      38.570  29.278  28.819  1.00  0.00    -0.014 A 
BRANCH  39  40
ATOM     40  C   UNL A   1      39.973  28.896  29.169  1.00  0.00     0.031 A 
ATOM     41  C   UNL A   1      40.818  29.785  30.047  1.00  0.00     0.074 A 
ATOM     42  C   UNL A   1      40.505  27.749  28.697  1.00  0.00     0.049 A 
ATOM     43  N   UNL A   1      42.056  29.621  30.452  1.00  0.00    -0.248 NA
ATOM     44  C   UNL A   1      40.200  31.032  30.521  1.00  0.00     0.031 C 
ATOM     45  C   UNL A   1      39.824  26.803  27.814  1.00  0.00     0.029 A 
ATOM     46  N   UNL A   1      41.743  27.183  28.894  1.00  0.00    -0.354 N 
ATOM     47  C   UNL A   1      42.360  30.739  31.219  1.00  0.00     0.074 A 
ATOM     48  C   UNL A   1      41.200  31.604  31.175  1.00  0.00     0.031 C 
ATOM     49  C   UNL A   1      40.639  25.763  27.568  1.00  0.00     0.029 A 
ATOM     50  C   UNL A   1      41.916  25.984  28.242  1.00  0.00     0.049 A 
ATOM     51  H   UNL A   1      42.442  27.597  29.451  1.00  0.00     0.167 HD
ATOM     52  C   UNL A   1      43.488  31.014  31.919  1.00  0.00     0.037 A 
ATOM     53  C   UNL A   1      42.982  25.160  28.182  1.00  0.00     0.037 A 
ATOM     54  C   UNL A   1      44.642  30.154  31.986  1.00  0.00     0.049 A 
ATOM     55  C   UNL A   1      44.238  25.509  28.939  1.00  0.00     0.074 A 
ATOM     56  C   UNL A   1      45.811  30.333  32.707  1.00  0.00     0.029 A 
ATOM     57  N   UNL A   1      44.777  28.955  31.302  1.00  0.00    -0.354 N 
ATOM     58  N   UNL A   1      44.482  26.536  29.715  1.00  0.00    -0.248 NA
ATOM     59  C   UNL A   1      45.369  24.576  28.814  1.00  0.00     0.031 C 
ATOM     60  C   UNL A   1      46.675  29.273  32.416  1.00  0.00     0.029 A 
ATOM     61  C   UNL A   1      46.021  28.399  31.565  1.00  0.00     0.049 A 
ATOM     62  H   UNL A   1      44.092  28.558  30.717  1.00  0.00     0.167 HD
ATOM     63  C   UNL A   1      45.772  26.354  30.197  1.00  0.00     0.074 A 
ATOM     64  C   UNL A   1      46.255  25.109  29.642  1.00  0.00     0.031 C 
ATOM     65  C   UNL A   1      46.492  27.149  31.026  1.00  0.00     0.037 A 
BRANCH  52  66
ATOM     66  C   UNL A   1      43.535  32.305  32.688  1.00  0.00     0.064 A 
ATOM     67  C   UNL A   1      44.000  33.493  32.102  1.00  0.00     0.173 A 
ATOM     68  C   UNL A   1      43.051  32.371  34.005  1.00  0.00     0.173 A 
ATOM     69  F   UNL A   1      44.478  33.485  30.849  1.00  0.00    -0.203 F 
ATOM     70  C   UNL A   1      44.005  34.690  32.814  1.00  0.00     0.198 A 
ATOM     71  C   UNL A   1      43.027  33.576  34.701  1.00  0.00     0.198 A 
ATOM     72  F   UNL A   1      42.582  31.269  34.609  1.00  0.00    -0.203 F 
ATOM     73  F   UNL A   1      44.497  35.801  32.248  1.00  0.00    -0.200 F 
ATOM     74  C   UNL A   1      43.511  34.733  34.109  1.00  0.00     0.200 A 
ATOM     75  F   UNL A   1      42.530  33.619  35.945  1.00  0.00    -0.200 F 
ATOM     76  F   UNL A   1      43.504  35.888  34.787  1.00  0.00    -0.200 F 
ENDBRANCH  52  66
BRANCH  53  77
ATOM     77  C   UNL A   1      42.919  23.907  27.379  1.00  0.00     0.064 A 
ATOM     78  C   UNL A   1      42.449  22.711  27.942  1.00  0.00     0.173 A 
ATOM     79  C   UNL A   1      43.374  23.867  26.053  1.00  0.00     0.173 A 
ATOM     80  F   UNL A   1      42.027  22.690  29.214  1.00  0.00    -0.203 F 
ATOM     81  C   UNL A   1      42.469  21.518  27.221  1.00  0.00     0.198 A 
ATOM     82  C   UNL A   1      43.359  22.680  25.322  1.00  0.00     0.198 A 
ATOM     83  F   UNL A   1      43.835  24.981  25.466  1.00  0.00    -0.203 F 
ATOM     84  F   UNL A   1      42.079  20.377  27.806  1.00  0.00    -0.200 F 
ATOM     85  C   UNL A   1      42.920  21.505  25.910  1.00  0.00     0.200 A 
ATOM     86  F   UNL A   1      43.784  22.675  24.050  1.00  0.00    -0.200 F 
ATOM     87  F   UNL A   1      42.946  20.357  25.219  1.00  0.00    -0.200 F 
ENDBRANCH  53  77
BRANCH  65  88
ATOM     88  C   UNL A   1      47.863  26.680  31.428  1.00  0.00     0.064 A 
ATOM     89  C   UNL A   1      48.063  25.827  32.525  1.00  0.00     0.173 A 
ATOM     90  C   UNL A   1      48.989  27.058  30.680  1.00  0.00     0.173 A 
ATOM     91  F   UNL A   1      47.025  25.445  33.282  1.00  0.00    -0.203 F 
ATOM     92  C   UNL A   1      49.342  25.396  32.874  1.00  0.00     0.198 A 
ATOM     93  C   UNL A   1      50.261  26.597  31.011  1.00  0.00     0.198 A 
ATOM     94  F   UNL A   1      48.856  27.865  29.617  1.00  0.00    -0.203 F 
ATOM     95  F   UNL A   1      49.514  24.627  33.957  1.00  0.00    -0.200 F 
ATOM     96  C   UNL A   1      50.437  25.774  32.112  1.00  0.00     0.200 A 
ATOM     97  F   UNL A   1      51.315  26.949  30.263  1.00  0.00    -0.200 F 
ATOM     98  F   UNL A   1      51.665  25.350  32.444  1.00  0.00    -0.200 F 
ENDBRANCH  65  88
ENDBRANCH  39  40
ENDBRANCH  31  34
ENDBRANCH  29  30
ENDBRANCH  28  29
ENDBRANCH   1  28
TORSDOF 15
ENDMDL
MODEL 3
REMARK VINA RESULT:     -12.6      4.124      9.112
REMARK SMILES CC(C)(C)OC(=O)N1C[C@H](c2ccc(C(F)(F)F)cc2)[C@H](C(=O)NCCCNC(=O)c2ccc(-c3c4nc(c(-c5c(F)c(F)c(F)c(F)c5F)c5ccc([nH]5)c(-c5c(F)c(F)c(F)c(F)c5F)c5nc(c(-c6c(F)c(F)c(F)c(F)c6F)c6ccc3[nH]6)C=C5)C=C4)cc2)C1
REMARK SMILES IDX 25 1 24 2 22 3 23 4 21 6 8 7 9 8 94 9 10 10 6 11 7 12 5 13
REMARK SMILES IDX 2 14 1 15 3 16 4 17 11 18 12 19 20 20 13 21 19 22 14 23
REMARK SMILES IDX 15 24 16 25 17 26 18 27 26 28 27 29 28 30 29 31 30 33 31 34
REMARK SMILES IDX 32 35 93 36 33 37 92 38 34 39 35 40 36 41 86 42 37 43 91 44
REMARK SMILES IDX 85 45 87 46 38 47 90 48 84 49 83 50 39 52 71 53 51 54 70 55
REMARK SMILES IDX 52 56 55 57 69 58 88 59 53 60 54 61 68 63 89 64 56 65 40 66
REMARK SMILES IDX 41 67 49 68 42 69 43 70 47 71 50 72 44 73 45 74 48 75 46 76
REMARK SMILES IDX 72 77 73 78 81 79 74 80 75 81 79 82 82 83 76 84 77 85 80 86
REMARK SMILES IDX 78 87 57 88 58 89 66 90 59 91 60 92 64 93 67 94 61 95 62 96
REMARK SMILES IDX 65 97 63 98
REMARK H PARENT 24 5 28 32 87 51 55 62
REMARK Flexibility Score: inf
ROOT
ATOM      1  C   UNL A   1      34.550  24.410  24.256  1.00  0.00     0.117 C 
ENDROOT
BRANCH   1   2
ATOM      2  N   UNL A   1      34.251  24.613  22.846  1.00  0.00    -0.356 N 
ATOM      3  C   UNL A   1      33.161  25.038  22.164  1.00  0.00     0.225 C 
ATOM      4  O   UNL A   1      33.290  25.095  20.933  1.00  0.00    -0.275 OA
ATOM      5  H   UNL A   1      35.009  24.392  22.258  1.00  0.00     0.163 HD
BRANCH   3   6
ATOM      6  C   UNL A   1      31.824  25.418  22.776  1.00  0.00     0.107 C 
ATOM      7  N   UNL A   1      31.417  26.165  24.957  1.00  0.00    -0.307 N 
ATOM      8  C   UNL A   1      30.434  25.133  24.741  1.00  0.00     0.132 C 
ATOM      9  C   UNL A   1      31.932  26.633  23.699  1.00  0.00     0.137 C 
ATOM     10  C   UNL A   1      30.915  24.353  23.488  1.00  0.00     0.053 C 
BRANCH   7  11
ATOM     11  C   UNL A   1      31.829  26.682  26.157  1.00  0.00     0.410 C 
ATOM     12  O   UNL A   1      31.168  26.578  27.183  1.00  0.00    -0.224 OA
BRANCH  11  13
ATOM     13  O   UNL A   1      32.989  27.377  26.043  1.00  0.00    -0.444 OA
BRANCH  13  14
ATOM     14  C   UNL A   1      33.078  28.772  26.442  1.00  0.00     0.106 C 
ATOM     15  C   UNL A   1      33.055  29.571  25.128  1.00  0.00     0.056 C 
ATOM     16  C   UNL A   1      34.415  28.998  27.148  1.00  0.00     0.056 C 
ATOM     17  C   UNL A   1      31.896  29.256  27.297  1.00  0.00     0.056 C 
ENDBRANCH  13  14
ENDBRANCH  11  13
ENDBRANCH   7  11
BRANCH  10  18
ATOM     18  C   UNL A   1      31.424  22.942  23.766  1.00  0.00    -0.042 A 
ATOM     19  C   UNL A   1      31.738  22.047  22.731  1.00  0.00     0.005 A 
ATOM     20  C   UNL A   1      31.526  22.444  25.076  1.00  0.00     0.005 A 
ATOM     21  C   UNL A   1      32.374  20.826  22.998  1.00  0.00     0.013 A 
ATOM     22  C   UNL A   1      32.151  21.229  25.353  1.00  0.00     0.013 A 
ATOM     23  C   UNL A   1      32.651  20.442  24.316  1.00  0.00     0.056 A 
BRANCH  23  24
ATOM     24  C   UNL A   1      33.570  19.295  24.636  1.00  0.00     0.416 C 
ATOM     25  F   UNL A   1      33.185  18.576  25.723  1.00  0.00    -0.166 F 
ATOM     26  F   UNL A   1      33.623  18.411  23.598  1.00  0.00    -0.166 F 
ATOM     27  F   UNL A   1      34.856  19.675  24.857  1.00  0.00    -0.166 F 
ENDBRANCH  23  24
ENDBRANCH  10  18
ENDBRANCH   3   6
ENDBRANCH   1   2
BRANCH   1  28
ATOM     28  C   UNL A   1      35.576  23.309  24.529  1.00  0.00     0.042 C 
BRANCH  28  29
ATOM     29  C   UNL A   1      36.266  23.364  25.891  1.00  0.00     0.118 C 
BRANCH  29  30
ATOM     30  N   UNL A   1      37.417  22.481  25.954  1.00  0.00    -0.352 N 
ATOM     31  C   UNL A   1      38.731  22.777  26.226  1.00  0.00     0.251 C 
ATOM     32  H   UNL A   1      37.228  21.531  25.776  1.00  0.00     0.163 HD
ATOM     33  O   UNL A   1      39.598  21.945  25.967  1.00  0.00    -0.269 OA
BRANCH  31  34
ATOM     34  C   UNL A   1      39.132  24.076  26.824  1.00  0.00     0.039 A 
ATOM     35  C   UNL A   1      39.860  24.975  26.038  1.00  0.00     0.014 A 
ATOM     36  C   UNL A   1      38.888  24.383  28.166  1.00  0.00     0.014 A 
ATOM     37  C   UNL A   1      40.313  26.184  26.581  1.00  0.00     0.010 A 
ATOM     38  C   UNL A   1      39.291  25.620  28.690  1.00  0.00     0.010 A 
ATOM     39  C   UNL A   1      40.017  26.534  27.909  1.00  0.00    -0.014 A 
BRANCH  39  40
ATOM     40  C   UNL A   1      40.483  27.835  28.479  1.00  0.00     0.031 A 
ATOM     41  C   UNL A   1      41.943  28.070  28.773  1.00  0.00     0.074 A 
ATOM     42  C   UNL A   1      39.597  28.819  28.745  1.00  0.00     0.049 A 
ATOM     43  N   UNL A   1      42.532  29.131  29.274  1.00  0.00    -0.248 NA
ATOM     44  C   UNL A   1      42.866  26.962  28.483  1.00  0.00     0.031 C 
ATOM     45  C   UNL A   1      38.151  28.731  28.545  1.00  0.00     0.029 A 
ATOM     46  N   UNL A   1      39.784  30.088  29.243  1.00  0.00    -0.354 N 
ATOM     47  C   UNL A   1      43.882  28.815  29.360  1.00  0.00     0.074 A 
ATOM     48  C   UNL A   1      44.021  27.444  28.918  1.00  0.00     0.031 C 
ATOM     49  C   UNL A   1      37.586  29.901  28.887  1.00  0.00     0.029 A 
ATOM     50  C   UNL A   1      38.621  30.811  29.371  1.00  0.00     0.049 A 
ATOM     51  H   UNL A   1      40.668  30.446  29.486  1.00  0.00     0.167 HD
ATOM     52  C   UNL A   1      44.920  29.599  29.745  1.00  0.00     0.037 A 
ATOM     53  C   UNL A   1      38.406  32.060  29.833  1.00  0.00     0.037 A 
ATOM     54  C   UNL A   1      44.799  30.970  30.170  1.00  0.00     0.049 A 
ATOM     55  C   UNL A   1      39.574  32.895  30.292  1.00  0.00     0.074 A 
ATOM     56  C   UNL A   1      45.802  31.852  30.536  1.00  0.00     0.029 A 
ATOM     57  N   UNL A   1      43.601  31.658  30.293  1.00  0.00    -0.354 N 
ATOM     58  N   UNL A   1      40.851  32.605  30.301  1.00  0.00    -0.248 NA
ATOM     59  C   UNL A   1      39.267  34.241  30.802  1.00  0.00     0.031 C 
ATOM     60  C   UNL A   1      45.209  33.054  30.934  1.00  0.00     0.029 A 
ATOM     61  C   UNL A   1      43.841  32.945  30.755  1.00  0.00     0.049 A 
ATOM     62  H   UNL A   1      42.713  31.289  30.085  1.00  0.00     0.167 HD
ATOM     63  C   UNL A   1      41.499  33.738  30.779  1.00  0.00     0.074 A 
ATOM     64  C   UNL A   1      40.477  34.729  31.032  1.00  0.00     0.031 C 
ATOM     65  C   UNL A   1      42.823  33.937  30.989  1.00  0.00     0.037 A 
BRANCH  52  66
ATOM     66  C   UNL A   1      46.297  28.996  29.719  1.00  0.00     0.064 A 
ATOM     67  C   UNL A   1      46.832  28.337  30.837  1.00  0.00     0.173 A 
ATOM     68  C   UNL A   1      47.066  29.022  28.545  1.00  0.00     0.173 A 
ATOM     69  F   UNL A   1      46.141  28.288  31.986  1.00  0.00    -0.203 F 
ATOM     70  C   UNL A   1      48.095  27.752  30.789  1.00  0.00     0.198 A 
ATOM     71  C   UNL A   1      48.314  28.406  28.491  1.00  0.00     0.198 A 
ATOM     72  F   UNL A   1      46.599  29.626  27.443  1.00  0.00    -0.203 F 
ATOM     73  F   UNL A   1      48.602  27.168  31.884  1.00  0.00    -0.200 F 
ATOM     74  C   UNL A   1      48.831  27.778  29.615  1.00  0.00     0.200 A 
ATOM     75  F   UNL A   1      49.015  28.415  27.349  1.00  0.00    -0.200 F 
ATOM     76  F   UNL A   1      50.040  27.202  29.566  1.00  0.00    -0.200 F 
ENDBRANCH  52  66
BRANCH  53  77
ATOM     77  C   UNL A   1      37.025  32.616  29.884  1.00  0.00     0.064 A 
ATOM     78  C   UNL A   1      36.519  33.392  28.831  1.00  0.00     0.173 A 
ATOM     79  C   UNL A   1      36.204  32.427  31.004  1.00  0.00     0.173 A 
ATOM     80  F   UNL A   1      37.274  33.624  27.747  1.00  0.00    -0.203 F 
ATOM     81  C   UNL A   1      35.261  33.985  28.912  1.00  0.00     0.198 A 
ATOM     82  C   UNL A   1      34.931  32.991  31.068  1.00  0.00     0.198 A 
ATOM     83  F   UNL A   1      36.638  31.695  32.041  1.00  0.00    -0.203 F 
ATOM     84  F   UNL A   1      34.831  34.778  27.921  1.00  0.00    -0.200 F 
ATOM     85  C   UNL A   1      34.466  33.780  30.029  1.00  0.00     0.200 A 
ATOM     86  F   UNL A   1      34.160  32.779  32.145  1.00  0.00    -0.200 F 
ATOM     87  F   UNL A   1      33.259  34.356  30.110  1.00  0.00    -0.200 F 
ENDBRANCH  53  77
BRANCH  65  88
ATOM     88  C   UNL A   1      43.257  35.292  31.473  1.00  0.00     0.064 A 
ATOM     89  C   UNL A   1      43.288  35.619  32.837  1.00  0.00     0.173 A 
ATOM     90  C   UNL A   1      43.687  36.267  30.557  1.00  0.00     0.173 A 
ATOM     91  F   UNL A   1      42.877  34.731  33.754  1.00  0.00    -0.203 F 
ATOM     92  C   UNL A   1      43.704  36.879  33.264  1.00  0.00     0.198 A 
ATOM     93  C   UNL A   1      44.135  37.512  30.991  1.00  0.00     0.198 A 
ATOM     94  F   UNL A   1      43.686  36.007  29.242  1.00  0.00    -0.203 F 
ATOM     95  F   UNL A   1      43.674  37.185  34.568  1.00  0.00    -0.200 F 
ATOM     96  C   UNL A   1      44.135  37.820  32.342  1.00  0.00     0.200 A 
ATOM     97  F   UNL A   1      44.567  38.414  30.099  1.00  0.00    -0.200 F 
ATOM     98  F   UNL A   1      44.544  39.028  32.756  1.00  0.00    -0.200 F 
ENDBRANCH  65  88
ENDBRANCH  39  40
ENDBRANCH  31  34
ENDBRANCH  29  30
ENDBRANCH  28  29
ENDBRANCH   1  28
TORSDOF 15
ENDMDL
