MODEL 1
REMARK VINA RESULT:     -12.5      0.000      0.000
REMARK SMILES CCOc1ccc(-c2cnc(N)cc2C(=O)NCCCNC(=O)c2ccc(-c3c4nc(c(-c5c(F)c(F)c(F)c(F)c5F)c5ccc([nH]5)c(-c5c(F)c(F)c(F)c(F)c5F)c5nc(c(-c6c(F)c(F)c(F)c(F)c6F)c6ccc3[nH]6)C=C5)C=C4)cc2)c(Cl)c1
REMARK SMILES IDX 18 1 17 2 15 3 16 4 14 6 8 7 9 8 10 9 13 10 11 11 7 12 4 13
REMARK SMILES IDX 5 14 89 15 6 16 87 17 88 18 3 19 2 20 1 21 12 22 19 25 20 26
REMARK SMILES IDX 21 27 22 28 23 30 24 31 25 32 86 33 26 34 85 35 27 36 28 37
REMARK SMILES IDX 29 38 79 39 30 40 84 41 78 42 80 43 31 44 83 45 77 46 76 47
REMARK SMILES IDX 32 49 64 50 44 51 63 52 45 53 48 54 62 55 81 56 46 57 47 58
REMARK SMILES IDX 61 60 82 61 49 62 33 63 34 64 42 65 35 66 36 67 40 68 43 69
REMARK SMILES IDX 37 70 38 71 41 72 39 73 65 74 66 75 74 76 67 77 68 78 72 79
REMARK SMILES IDX 75 80 69 81 70 82 73 83 71 84 50 85 51 86 59 87 52 88 53 89
REMARK SMILES IDX 57 90 60 91 54 92 55 93 58 94 56 95
REMARK H PARENT 17 5 12 23 12 24 21 29 80 48 48 59
REMARK Flexibility Score: inf
ROOT
ATOM      1  C   UNL A   1      37.126  20.953  24.567  1.00  0.00     0.118 C 
ENDROOT
BRANCH   1   2
ATOM      2  N   UNL A   1      36.098  21.223  25.552  1.00  0.00    -0.352 N 
ATOM      3  C   UNL A   1      34.771  20.916  25.698  1.00  0.00     0.252 C 
ATOM      4  O   UNL A   1      34.300  21.284  26.775  1.00  0.00    -0.269 OA
ATOM      5  H   UNL A   1      36.438  21.760  26.304  1.00  0.00     0.163 HD
BRANCH   3   6
ATOM      6  C   UNL A   1      33.937  20.146  24.708  1.00  0.00     0.052 A 
ATOM      7  C   UNL A   1      33.008  20.812  23.876  1.00  0.00     0.014 A 
ATOM      8  C   UNL A   1      32.156  19.999  23.120  1.00  0.00     0.123 A 
ATOM      9  N   UNL A   1      32.149  18.649  23.125  1.00  0.00    -0.239 NA
ATOM     10  C   UNL A   1      34.015  18.753  24.605  1.00  0.00     0.061 A 
ATOM     11  C   UNL A   1      33.076  18.047  23.868  1.00  0.00     0.124 A 
BRANCH   7  12
ATOM     12  C   UNL A   1      32.849  22.274  23.742  1.00  0.00     0.003 A 
ATOM     13  C   UNL A   1      32.665  25.070  23.416  1.00  0.00     0.120 A 
ATOM     14  C   UNL A   1      33.589  24.341  22.677  1.00  0.00     0.047 A 
ATOM     15  C   UNL A   1      31.870  24.430  24.362  1.00  0.00     0.067 A 
ATOM     16  C   UNL A   1      33.661  22.956  22.818  1.00  0.00     0.014 A 
ATOM     17  C   UNL A   1      31.974  23.044  24.538  1.00  0.00     0.052 A 
ATOM     18  Cl  UNL A   1      31.027  22.331  25.806  1.00  0.00    -0.084 Cl
BRANCH  13  19
ATOM     19  O   UNL A   1      32.605  26.433  23.340  1.00  0.00    -0.494 OA
BRANCH  19  20
ATOM     20  C   UNL A   1      33.491  26.995  22.361  1.00  0.00     0.226 C 
ATOM     21  C   UNL A   1      33.865  28.432  22.690  1.00  0.00     0.049 C 
ENDBRANCH  19  20
ENDBRANCH  13  19
ENDBRANCH   7  12
BRANCH  11  22
ATOM     22  N   UNL A   1      33.084  16.666  23.850  1.00  0.00    -0.384 N 
ATOM     23  H   UNL A   1      33.487  16.187  23.091  1.00  0.00     0.158 HD
ATOM     24  H   UNL A   1      32.687  16.162  24.596  1.00  0.00     0.158 HD
ENDBRANCH  11  22
ENDBRANCH   3   6
ENDBRANCH   1   2
BRANCH   1  25
ATOM     25  C   UNL A   1      38.013  19.789  25.001  1.00  0.00     0.042 C 
BRANCH  25  26
ATOM     26  C   UNL A   1      39.140  20.222  25.939  1.00  0.00     0.118 C 
BRANCH  26  27
ATOM     27  N   UNL A   1      40.178  19.203  26.048  1.00  0.00    -0.352 N 
ATOM     28  C   UNL A   1      41.541  19.337  26.121  1.00  0.00     0.251 C 
ATOM     29  H   UNL A   1      39.850  18.274  26.071  1.00  0.00     0.163 HD
ATOM     30  O   UNL A   1      42.265  18.365  25.939  1.00  0.00    -0.269 OA
BRANCH  28  31
ATOM     31  C   UNL A   1      42.135  20.653  26.422  1.00  0.00     0.039 A 
ATOM     32  C   UNL A   1      42.574  21.461  25.369  1.00  0.00     0.014 A 
ATOM     33  C   UNL A   1      42.283  21.077  27.745  1.00  0.00     0.014 A 
ATOM     34  C   UNL A   1      43.099  22.726  25.642  1.00  0.00     0.010 A 
ATOM     35  C   UNL A   1      42.731  22.363  28.010  1.00  0.00     0.010 A 
ATOM     36  C   UNL A   1      43.144  23.201  26.963  1.00  0.00    -0.014 A 
BRANCH  36  37
ATOM     37  C   UNL A   1      43.614  24.571  27.281  1.00  0.00     0.031 A 
ATOM     38  C   UNL A   1      42.641  25.597  27.791  1.00  0.00     0.074 A 
ATOM     39  C   UNL A   1      44.890  24.912  27.024  1.00  0.00     0.049 A 
ATOM     40  N   UNL A   1      42.821  26.875  28.006  1.00  0.00    -0.248 NA
ATOM     41  C   UNL A   1      41.274  25.128  28.063  1.00  0.00     0.031 C 
ATOM     42  C   UNL A   1      45.916  24.011  26.496  1.00  0.00     0.029 A 
ATOM     43  N   UNL A   1      45.539  26.114  27.155  1.00  0.00    -0.354 N 
ATOM     44  C   UNL A   1      41.590  27.363  28.425  1.00  0.00     0.074 A 
ATOM     45  C   UNL A   1      40.657  26.258  28.375  1.00  0.00     0.031 C 
ATOM     46  C   UNL A   1      47.069  24.687  26.365  1.00  0.00     0.029 A 
ATOM     47  C   UNL A   1      46.852  26.077  26.754  1.00  0.00     0.049 A 
ATOM     48  H   UNL A   1      45.105  26.926  27.503  1.00  0.00     0.167 HD
ATOM     49  C   UNL A   1      41.273  28.615  28.835  1.00  0.00     0.037 A 
ATOM     50  C   UNL A   1      47.771  27.058  26.692  1.00  0.00     0.037 A 
ATOM     51  C   UNL A   1      42.211  29.705  28.890  1.00  0.00     0.049 A 
ATOM     52  C   UNL A   1      47.384  28.448  27.118  1.00  0.00     0.074 A 
ATOM     53  C   UNL A   1      42.006  31.001  29.329  1.00  0.00     0.029 A 
ATOM     54  N   UNL A   1      43.537  29.626  28.486  1.00  0.00    -0.354 N 
ATOM     55  N   UNL A   1      46.234  28.887  27.568  1.00  0.00    -0.248 NA
ATOM     56  C   UNL A   1      48.427  29.480  27.031  1.00  0.00     0.031 C 
ATOM     57  C   UNL A   1      43.190  31.719  29.142  1.00  0.00     0.029 A 
ATOM     58  C   UNL A   1      44.154  30.857  28.644  1.00  0.00     0.049 A 
ATOM     59  H   UNL A   1      43.975  28.815  28.138  1.00  0.00     0.167 HD
ATOM     60  C   UNL A   1      46.422  30.233  27.852  1.00  0.00     0.074 A 
ATOM     61  C   UNL A   1      47.803  30.536  27.534  1.00  0.00     0.031 C 
ATOM     62  C   UNL A   1      45.534  31.136  28.337  1.00  0.00     0.037 A 
BRANCH  49  63
ATOM     63  C   UNL A   1      39.852  28.869  29.250  1.00  0.00     0.064 A 
ATOM     64  C   UNL A   1      38.880  29.293  28.329  1.00  0.00     0.173 A 
ATOM     65  C   UNL A   1      39.447  28.667  30.578  1.00  0.00     0.173 A 
ATOM     66  F   UNL A   1      39.213  29.512  27.048  1.00  0.00    -0.203 F 
ATOM     67  C   UNL A   1      37.569  29.541  28.730  1.00  0.00     0.198 A 
ATOM     68  C   UNL A   1      38.128  28.882  30.968  1.00  0.00     0.198 A 
ATOM     69  F   UNL A   1      40.332  28.256  31.500  1.00  0.00    -0.203 F 
ATOM     70  F   UNL A   1      36.677  30.004  27.845  1.00  0.00    -0.200 F 
ATOM     71  C   UNL A   1      37.193  29.328  30.047  1.00  0.00     0.200 A 
ATOM     72  F   UNL A   1      37.763  28.661  32.239  1.00  0.00    -0.200 F 
ATOM     73  F   UNL A   1      35.931  29.564  30.431  1.00  0.00    -0.200 F 
ENDBRANCH  49  63
BRANCH  50  74
ATOM     74  C   UNL A   1      49.152  26.757  26.232  1.00  0.00     0.064 A 
ATOM     75  C   UNL A   1      50.118  26.282  27.131  1.00  0.00     0.173 A 
ATOM     76  C   UNL A   1      49.539  26.938  24.897  1.00  0.00     0.173 A 
ATOM     77  F   UNL A   1      49.803  26.111  28.424  1.00  0.00    -0.203 F 
ATOM     78  C   UNL A   1      51.423  26.024  26.719  1.00  0.00     0.198 A 
ATOM     79  C   UNL A   1      50.836  26.649  24.477  1.00  0.00     0.198 A 
ATOM     80  F   UNL A   1      48.652  27.382  23.994  1.00  0.00    -0.203 F 
ATOM     81  F   UNL A   1      52.338  25.619  27.609  1.00  0.00    -0.200 F 
ATOM     82  C   UNL A   1      51.780  26.202  25.390  1.00  0.00     0.200 A 
ATOM     83  F   UNL A   1      51.173  26.806  23.190  1.00  0.00    -0.200 F 
ATOM     84  F   UNL A   1      53.034  25.949  24.992  1.00  0.00    -0.200 F 
ENDBRANCH  50  74
BRANCH  62  85
ATOM     85  C   UNL A   1      46.040  32.524  28.606  1.00  0.00     0.064 A 
ATOM     86  C   UNL A   1      46.620  32.878  29.833  1.00  0.00     0.173 A 
ATOM     87  C   UNL A   1      45.982  33.503  27.601  1.00  0.00     0.173 A 
ATOM     88  F   UNL A   1      46.685  31.985  30.832  1.00  0.00    -0.203 F 
ATOM     89  C   UNL A   1      47.100  34.167  30.052  1.00  0.00     0.198 A 
ATOM     90  C   UNL A   1      46.495  34.779  27.811  1.00  0.00     0.198 A 
ATOM     91  F   UNL A   1      45.443  33.215  26.408  1.00  0.00    -0.203 F 
ATOM     92  F   UNL A   1      47.606  34.496  31.248  1.00  0.00    -0.200 F 
ATOM     93  C   UNL A   1      47.046  35.112  29.039  1.00  0.00     0.200 A 
ATOM     94  F   UNL A   1      46.456  35.686  26.827  1.00  0.00    -0.200 F 
ATOM     95  F   UNL A   1      47.519  36.348  29.248  1.00  0.00    -0.200 F 
ENDBRANCH  62  85
ENDBRANCH  36  37
ENDBRANCH  28  31
ENDBRANCH  26  27
ENDBRANCH  25  26
ENDBRANCH   1  25
TORSDOF 14
ENDMDL
MODEL 2
REMARK VINA RESULT:     -12.5      0.119      1.596
REMARK SMILES CCOc1ccc(-c2cnc(N)cc2C(=O)NCCCNC(=O)c2ccc(-c3c4nc(c(-c5c(F)c(F)c(F)c(F)c5F)c5ccc([nH]5)c(-c5c(F)c(F)c(F)c(F)c5F)c5nc(c(-c6c(F)c(F)c(F)c(F)c6F)c6ccc3[nH]6)C=C5)C=C4)cc2)c(Cl)c1
REMARK SMILES IDX 18 1 17 2 15 3 16 4 14 6 8 7 9 8 10 9 13 10 11 11 7 12 4 13
REMARK SMILES IDX 5 14 89 15 6 16 87 17 88 18 3 19 2 20 1 21 12 22 19 25 20 26
REMARK SMILES IDX 21 27 22 28 23 30 24 31 25 32 86 33 26 34 85 35 27 36 28 37
REMARK SMILES IDX 29 38 79 39 30 40 84 41 78 42 80 43 31 44 83 45 77 46 76 47
REMARK SMILES IDX 32 49 64 50 44 51 63 52 45 53 48 54 62 55 81 56 46 57 47 58
REMARK SMILES IDX 61 60 82 61 49 62 33 63 34 64 42 65 35 66 36 67 40 68 43 69
REMARK SMILES IDX 37 70 38 71 41 72 39 73 65 74 66 75 74 76 67 77 68 78 72 79
REMARK SMILES IDX 75 80 69 81 70 82 73 83 71 84 50 85 51 86 59 87 52 88 53 89
REMARK SMILES IDX 57 90 60 91 54 92 55 93 58 94 56 95
REMARK H PARENT 17 5 12 23 12 24 21 29 80 48 48 59
REMARK Flexibility Score: inf
ROOT
ATOM      1  C   UNL A   1      37.073  21.029  24.606  1.00  0.00     0.118 C 
ENDROOT
BRANCH   1   2
ATOM      2  N   UNL A   1      36.038  21.257  25.593  1.00  0.00    -0.352 N 
ATOM      3  C   UNL A   1      34.718  20.917  25.731  1.00  0.00     0.252 C 
ATOM      4  O   UNL A   1      34.237  21.253  26.813  1.00  0.00    -0.269 OA
ATOM      5  H   UNL A   1      36.364  21.787  26.355  1.00  0.00     0.163 HD
BRANCH   3   6
ATOM      6  C   UNL A   1      33.904  20.145  24.724  1.00  0.00     0.052 A 
ATOM      7  C   UNL A   1      32.993  20.811  23.872  1.00  0.00     0.014 A 
ATOM      8  C   UNL A   1      32.156  19.999  23.100  1.00  0.00     0.123 A 
ATOM      9  N   UNL A   1      32.146  18.648  23.107  1.00  0.00    -0.239 NA
ATOM     10  C   UNL A   1      33.981  18.752  24.626  1.00  0.00     0.061 A 
ATOM     11  C   UNL A   1      33.057  18.047  23.870  1.00  0.00     0.124 A 
BRANCH   7  12
ATOM     12  C   UNL A   1      32.839  22.273  23.732  1.00  0.00     0.003 A 
ATOM     13  C   UNL A   1      32.666  25.070  23.398  1.00  0.00     0.120 A 
ATOM     14  C   UNL A   1      33.607  24.338  22.682  1.00  0.00     0.047 A 
ATOM     15  C   UNL A   1      31.848  24.432  24.326  1.00  0.00     0.067 A 
ATOM     16  C   UNL A   1      33.674  22.953  22.827  1.00  0.00     0.014 A 
ATOM     17  C   UNL A   1      31.946  23.046  24.506  1.00  0.00     0.052 A 
ATOM     18  Cl  UNL A   1      30.968  22.336  25.751  1.00  0.00    -0.084 Cl
BRANCH  13  19
ATOM     19  O   UNL A   1      32.609  26.433  23.318  1.00  0.00    -0.494 OA
BRANCH  19  20
ATOM     20  C   UNL A   1      33.651  27.006  22.515  1.00  0.00     0.226 C 
ATOM     21  C   UNL A   1      33.789  28.504  22.746  1.00  0.00     0.049 C 
ENDBRANCH  19  20
ENDBRANCH  13  19
ENDBRANCH   7  12
BRANCH  11  22
ATOM     22  N   UNL A   1      33.064  16.666  23.855  1.00  0.00    -0.384 N 
ATOM     23  H   UNL A   1      33.486  16.184  23.108  1.00  0.00     0.158 HD
ATOM     24  H   UNL A   1      32.646  16.163  24.591  1.00  0.00     0.158 HD
ENDBRANCH  11  22
ENDBRANCH   3   6
ENDBRANCH   1   2
BRANCH   1  25
ATOM     25  C   UNL A   1      37.963  19.854  25.001  1.00  0.00     0.042 C 
BRANCH  25  26
ATOM     26  C   UNL A   1      39.067  20.251  25.981  1.00  0.00     0.118 C 
BRANCH  26  27
ATOM     27  N   UNL A   1      40.108  19.233  26.070  1.00  0.00    -0.352 N 
ATOM     28  C   UNL A   1      41.472  19.369  26.126  1.00  0.00     0.251 C 
ATOM     29  H   UNL A   1      39.781  18.304  26.094  1.00  0.00     0.163 HD
ATOM     30  O   UNL A   1      42.194  18.399  25.928  1.00  0.00    -0.269 OA
BRANCH  28  31
ATOM     31  C   UNL A   1      42.068  20.684  26.425  1.00  0.00     0.039 A 
ATOM     32  C   UNL A   1      42.445  21.519  25.369  1.00  0.00     0.014 A 
ATOM     33  C   UNL A   1      42.279  21.081  27.748  1.00  0.00     0.014 A 
ATOM     34  C   UNL A   1      42.971  22.783  25.644  1.00  0.00     0.010 A 
ATOM     35  C   UNL A   1      42.728  22.366  28.019  1.00  0.00     0.010 A 
ATOM     36  C   UNL A   1      43.080  23.230  26.971  1.00  0.00    -0.014 A 
BRANCH  36  37
ATOM     37  C   UNL A   1      43.552  24.598  27.295  1.00  0.00     0.031 A 
ATOM     38  C   UNL A   1      42.584  25.619  27.824  1.00  0.00     0.074 A 
ATOM     39  C   UNL A   1      44.825  24.942  27.026  1.00  0.00     0.049 A 
ATOM     40  N   UNL A   1      42.766  26.895  28.049  1.00  0.00    -0.248 NA
ATOM     41  C   UNL A   1      41.221  25.147  28.109  1.00  0.00     0.031 C 
ATOM     42  C   UNL A   1      45.845  24.046  26.479  1.00  0.00     0.029 A 
ATOM     43  N   UNL A   1      45.475  26.143  27.160  1.00  0.00    -0.354 N 
ATOM     44  C   UNL A   1      41.540  27.379  28.485  1.00  0.00     0.074 A 
ATOM     45  C   UNL A   1      40.607  26.274  28.437  1.00  0.00     0.031 C 
ATOM     46  C   UNL A   1      46.996  24.723  26.341  1.00  0.00     0.029 A 
ATOM     47  C   UNL A   1      46.783  26.110  26.744  1.00  0.00     0.049 A 
ATOM     48  H   UNL A   1      45.044  26.952  27.519  1.00  0.00     0.167 HD
ATOM     49  C   UNL A   1      41.227  28.627  28.909  1.00  0.00     0.037 A 
ATOM     50  C   UNL A   1      47.701  27.092  26.680  1.00  0.00     0.037 A 
ATOM     51  C   UNL A   1      42.165  29.718  28.963  1.00  0.00     0.049 A 
ATOM     52  C   UNL A   1      47.318  28.479  27.122  1.00  0.00     0.074 A 
ATOM     53  C   UNL A   1      41.964  31.009  29.416  1.00  0.00     0.029 A 
ATOM     54  N   UNL A   1      43.486  29.643  28.544  1.00  0.00    -0.354 N 
ATOM     55  N   UNL A   1      46.173  28.913  27.588  1.00  0.00    -0.248 NA
ATOM     56  C   UNL A   1      48.359  29.511  27.031  1.00  0.00     0.031 C 
ATOM     57  C   UNL A   1      43.146  31.730  29.221  1.00  0.00     0.029 A 
ATOM     58  C   UNL A   1      44.105  30.872  28.705  1.00  0.00     0.049 A 
ATOM     59  H   UNL A   1      43.921  28.835  28.183  1.00  0.00     0.167 HD
ATOM     60  C   UNL A   1      46.364  30.257  27.882  1.00  0.00     0.074 A 
ATOM     61  C   UNL A   1      47.741  30.563  27.550  1.00  0.00     0.031 C 
ATOM     62  C   UNL A   1      45.481  31.155  28.385  1.00  0.00     0.037 A 
BRANCH  49  63
ATOM     63  C   UNL A   1      39.810  28.877  29.343  1.00  0.00     0.064 A 
ATOM     64  C   UNL A   1      38.833  29.328  28.441  1.00  0.00     0.173 A 
ATOM     65  C   UNL A   1      39.416  28.643  30.669  1.00  0.00     0.173 A 
ATOM     66  F   UNL A   1      39.157  29.579  27.164  1.00  0.00    -0.203 F 
ATOM     67  C   UNL A   1      37.527  29.573  28.859  1.00  0.00     0.198 A 
ATOM     68  C   UNL A   1      38.101  28.854  31.075  1.00  0.00     0.198 A 
ATOM     69  F   UNL A   1      40.306  28.204  31.573  1.00  0.00    -0.203 F 
ATOM     70  F   UNL A   1      36.629  30.061  27.994  1.00  0.00    -0.200 F 
ATOM     71  C   UNL A   1      37.161  29.328  30.174  1.00  0.00     0.200 A 
ATOM     72  F   UNL A   1      37.745  28.602  32.343  1.00  0.00    -0.200 F 
ATOM     73  F   UNL A   1      35.903  29.559  30.574  1.00  0.00    -0.200 F 
ENDBRANCH  49  63
BRANCH  50  74
ATOM     74  C   UNL A   1      49.077  26.796  26.202  1.00  0.00     0.064 A 
ATOM     75  C   UNL A   1      49.429  27.003  24.861  1.00  0.00     0.173 A 
ATOM     76  C   UNL A   1      50.065  26.300  27.065  1.00  0.00     0.173 A 
ATOM     77  F   UNL A   1      48.514  27.458  23.991  1.00  0.00    -0.203 F 
ATOM     78  C   UNL A   1      50.707  26.702  24.395  1.00  0.00     0.198 A 
ATOM     79  C   UNL A   1      51.352  26.030  26.606  1.00  0.00     0.198 A 
ATOM     80  F   UNL A   1      49.784  26.092  28.360  1.00  0.00    -0.203 F 
ATOM     81  F   UNL A   1      51.001  26.862  23.098  1.00  0.00    -0.200 F 
ATOM     82  C   UNL A   1      51.669  26.221  25.270  1.00  0.00     0.200 A 
ATOM     83  F   UNL A   1      52.285  25.581  27.457  1.00  0.00    -0.200 F 
ATOM     84  F   UNL A   1      52.901  25.936  24.823  1.00  0.00    -0.200 F 
ENDBRANCH  50  74
BRANCH  62  85
ATOM     85  C   UNL A   1      45.989  32.541  28.660  1.00  0.00     0.064 A 
ATOM     86  C   UNL A   1      45.902  33.566  27.706  1.00  0.00     0.173 A 
ATOM     87  C   UNL A   1      46.530  32.858  29.916  1.00  0.00     0.173 A 
ATOM     88  F   UNL A   1      45.408  33.312  26.485  1.00  0.00    -0.203 F 
ATOM     89  C   UNL A   1      46.361  34.849  27.992  1.00  0.00     0.198 A 
ATOM     90  C   UNL A   1      46.955  34.149  30.209  1.00  0.00     0.198 A 
ATOM     91  F   UNL A   1      46.630  31.916  30.866  1.00  0.00    -0.203 F 
ATOM     92  F   UNL A   1      46.314  35.800  27.049  1.00  0.00    -0.200 F 
ATOM     93  C   UNL A   1      46.878  35.142  29.245  1.00  0.00     0.200 A 
ATOM     94  F   UNL A   1      47.440  34.434  31.426  1.00  0.00    -0.200 F 
ATOM     95  F   UNL A   1      47.310  36.380  29.521  1.00  0.00    -0.200 F 
ENDBRANCH  62  85
ENDBRANCH  36  37
ENDBRANCH  28  31
ENDBRANCH  26  27
ENDBRANCH  25  26
ENDBRANCH   1  25
TORSDOF 14
ENDMDL
MODEL 3
REMARK VINA RESULT:     -12.4      5.975     11.162
REMARK SMILES CCOc1ccc(-c2cnc(N)cc2C(=O)NCCCNC(=O)c2ccc(-c3c4nc(c(-c5c(F)c(F)c(F)c(F)c5F)c5ccc([nH]5)c(-c5c(F)c(F)c(F)c(F)c5F)c5nc(c(-c6c(F)c(F)c(F)c(F)c6F)c6ccc3[nH]6)C=C5)C=C4)cc2)c(Cl)c1
REMARK SMILES IDX 18 1 17 2 15 3 16 4 14 6 8 7 9 8 10 9 13 10 11 11 7 12 4 13
REMARK SMILES IDX 5 14 89 15 6 16 87 17 88 18 3 19 2 20 1 21 12 22 19 25 20 26
REMARK SMILES IDX 21 27 22 28 23 30 24 31 25 32 86 33 26 34 85 35 27 36 28 37
REMARK SMILES IDX 29 38 79 39 30 40 84 41 78 42 80 43 31 44 83 45 77 46 76 47
REMARK SMILES IDX 32 49 64 50 44 51 63 52 45 53 48 54 62 55 81 56 46 57 47 58
REMARK SMILES IDX 61 60 82 61 49 62 33 63 34 64 42 65 35 66 36 67 40 68 43 69
REMARK SMILES IDX 37 70 38 71 41 72 39 73 65 74 66 75 74 76 67 77 68 78 72 79
REMARK SMILES IDX 75 80 69 81 70 82 73 83 71 84 50 85 51 86 59 87 52 88 53 89
REMARK SMILES IDX 57 90 60 91 54 92 55 93 58 94 56 95
REMARK H PARENT 17 5 12 23 12 24 21 29 80 48 48 59
REMARK Flexibility Score: inf
ROOT
ATOM      1  C   UNL A   1      32.070  30.225  25.785  1.00  0.00     0.118 C 
ENDROOT
BRANCH   1   2
ATOM      2  N   UNL A   1      31.499  29.083  26.471  1.00  0.00    -0.352 N 
ATOM      3  C   UNL A   1      31.608  27.721  26.370  1.00  0.00     0.252 C 
ATOM      4  O   UNL A   1      30.995  27.115  27.250  1.00  0.00    -0.269 OA
ATOM      5  H   UNL A   1      30.881  29.352  27.187  1.00  0.00     0.163 HD
BRANCH   3   6
ATOM      6  C   UNL A   1      32.436  26.982  25.351  1.00  0.00     0.052 A 
ATOM      7  C   UNL A   1      32.051  26.956  23.991  1.00  0.00     0.014 A 
ATOM      8  C   UNL A   1      32.778  26.102  23.155  1.00  0.00     0.123 A 
ATOM      9  N   UNL A   1      33.800  25.308  23.540  1.00  0.00    -0.239 NA
ATOM     10  C   UNL A   1      33.579  26.262  25.713  1.00  0.00     0.061 A 
ATOM     11  C   UNL A   1      34.184  25.399  24.812  1.00  0.00     0.124 A 
BRANCH   7  12
ATOM     12  C   UNL A   1      30.955  27.735  23.380  1.00  0.00     0.003 A 
ATOM     13  C   UNL A   1      28.949  29.326  22.194  1.00  0.00     0.120 A 
ATOM     14  C   UNL A   1      30.285  29.699  22.097  1.00  0.00     0.047 A 
ATOM     15  C   UNL A   1      28.594  28.199  22.930  1.00  0.00     0.067 A 
ATOM     16  C   UNL A   1      31.278  28.898  22.659  1.00  0.00     0.014 A 
ATOM     17  C   UNL A   1      29.588  27.419  23.535  1.00  0.00     0.052 A 
ATOM     18  Cl  UNL A   1      29.064  26.089  24.519  1.00  0.00    -0.084 Cl
BRANCH  13  19
ATOM     19  O   UNL A   1      27.949  30.116  21.700  1.00  0.00    -0.494 OA
BRANCH  19  20
ATOM     20  C   UNL A   1      28.077  31.499  22.060  1.00  0.00     0.226 C 
ATOM     21  C   UNL A   1      27.653  31.755  23.498  1.00  0.00     0.049 C 
ENDBRANCH  19  20
ENDBRANCH  13  19
ENDBRANCH   7  12
BRANCH  11  22
ATOM     22  N   UNL A   1      35.247  24.607  25.196  1.00  0.00    -0.384 N 
ATOM     23  H   UNL A   1      35.358  24.357  26.142  1.00  0.00     0.158 HD
ATOM     24  H   UNL A   1      35.894  24.291  24.525  1.00  0.00     0.158 HD
ENDBRANCH  11  22
ENDBRANCH   3   6
ENDBRANCH   1   2
BRANCH   1  25
ATOM     25  C   UNL A   1      31.702  31.529  26.487  1.00  0.00     0.042 C 
BRANCH  25  26
ATOM     26  C   UNL A   1      32.886  32.162  27.217  1.00  0.00     0.118 C 
BRANCH  26  27
ATOM     27  N   UNL A   1      32.656  33.574  27.505  1.00  0.00    -0.352 N 
ATOM     28  C   UNL A   1      33.150  34.360  28.514  1.00  0.00     0.251 C 
ATOM     29  H   UNL A   1      32.051  34.034  26.879  1.00  0.00     0.163 HD
ATOM     30  O   UNL A   1      32.639  35.448  28.752  1.00  0.00    -0.269 OA
BRANCH  28  31
ATOM     31  C   UNL A   1      34.300  33.895  29.313  1.00  0.00     0.039 A 
ATOM     32  C   UNL A   1      34.079  33.036  30.393  1.00  0.00     0.014 A 
ATOM     33  C   UNL A   1      35.593  34.329  29.009  1.00  0.00     0.014 A 
ATOM     34  C   UNL A   1      35.166  32.557  31.127  1.00  0.00     0.010 A 
ATOM     35  C   UNL A   1      36.677  33.791  29.690  1.00  0.00     0.010 A 
ATOM     36  C   UNL A   1      36.476  32.902  30.755  1.00  0.00    -0.014 A 
BRANCH  36  37
ATOM     37  C   UNL A   1      37.656  32.343  31.458  1.00  0.00     0.031 A 
ATOM     38  C   UNL A   1      38.408  31.188  30.858  1.00  0.00     0.074 A 
ATOM     39  C   UNL A   1      37.991  32.815  32.673  1.00  0.00     0.049 A 
ATOM     40  N   UNL A   1      39.381  30.477  31.369  1.00  0.00    -0.248 NA
ATOM     41  C   UNL A   1      37.986  30.753  29.518  1.00  0.00     0.031 C 
ATOM     42  C   UNL A   1      37.313  33.909  33.371  1.00  0.00     0.029 A 
ATOM     43  N   UNL A   1      38.974  32.423  33.546  1.00  0.00    -0.354 N 
ATOM     44  C   UNL A   1      39.676  29.507  30.420  1.00  0.00     0.074 A 
ATOM     45  C   UNL A   1      38.740  29.681  29.331  1.00  0.00     0.031 C 
ATOM     46  C   UNL A   1      37.912  34.113  34.555  1.00  0.00     0.029 A 
ATOM     47  C   UNL A   1      38.983  33.135  34.721  1.00  0.00     0.049 A 
ATOM     48  H   UNL A   1      39.613  31.700  33.350  1.00  0.00     0.167 HD
ATOM     49  C   UNL A   1      40.655  28.571  30.447  1.00  0.00     0.037 A 
ATOM     50  C   UNL A   1      39.756  33.001  35.813  1.00  0.00     0.037 A 
ATOM     51  C   UNL A   1      41.588  28.412  31.531  1.00  0.00     0.049 A 
ATOM     52  C   UNL A   1      40.812  31.929  35.834  1.00  0.00     0.074 A 
ATOM     53  C   UNL A   1      42.644  27.524  31.641  1.00  0.00     0.029 A 
ATOM     54  N   UNL A   1      41.573  29.160  32.701  1.00  0.00    -0.354 N 
ATOM     55  N   UNL A   1      41.122  31.054  34.908  1.00  0.00    -0.248 NA
ATOM     56  C   UNL A   1      41.628  31.828  37.051  1.00  0.00     0.031 C 
ATOM     57  C   UNL A   1      43.233  27.698  32.896  1.00  0.00     0.029 A 
ATOM     58  C   UNL A   1      42.586  28.737  33.546  1.00  0.00     0.049 A 
ATOM     59  H   UNL A   1      40.935  29.884  32.901  1.00  0.00     0.167 HD
ATOM     60  C   UNL A   1      42.191  30.325  35.413  1.00  0.00     0.074 A 
ATOM     61  C   UNL A   1      42.482  30.868  36.724  1.00  0.00     0.031 C 
ATOM     62  C   UNL A   1      42.872  29.301  34.841  1.00  0.00     0.037 A 
BRANCH  49  63
ATOM     63  C   UNL A   1      40.759  27.644  29.269  1.00  0.00     0.064 A 
ATOM     64  C   UNL A   1      41.751  27.808  28.288  1.00  0.00     0.173 A 
ATOM     65  C   UNL A   1      39.874  26.564  29.127  1.00  0.00     0.173 A 
ATOM     66  F   UNL A   1      42.617  28.829  28.368  1.00  0.00    -0.203 F 
ATOM     67  C   UNL A   1      41.827  26.952  27.192  1.00  0.00     0.198 A 
ATOM     68  C   UNL A   1      39.976  25.688  28.049  1.00  0.00     0.198 A 
ATOM     69  F   UNL A   1      38.911  26.354  30.038  1.00  0.00    -0.203 F 
ATOM     70  F   UNL A   1      42.743  27.168  26.239  1.00  0.00    -0.200 F 
ATOM     71  C   UNL A   1      40.945  25.889  27.078  1.00  0.00     0.200 A 
ATOM     72  F   UNL A   1      39.132  24.652  27.948  1.00  0.00    -0.200 F 
ATOM     73  F   UNL A   1      41.021  25.063  26.026  1.00  0.00    -0.200 F 
ENDBRANCH  49  63
BRANCH  50  74
ATOM     74  C   UNL A   1      39.580  33.921  36.968  1.00  0.00     0.064 A 
ATOM     75  C   UNL A   1      40.209  35.174  36.987  1.00  0.00     0.173 A 
ATOM     76  C   UNL A   1      38.790  33.571  38.073  1.00  0.00     0.173 A 
ATOM     77  F   UNL A   1      40.991  35.547  35.963  1.00  0.00    -0.203 F 
ATOM     78  C   UNL A   1      40.074  36.032  38.076  1.00  0.00     0.198 A 
ATOM     79  C   UNL A   1      38.630  34.443  39.148  1.00  0.00     0.198 A 
ATOM     80  F   UNL A   1      38.160  32.387  38.102  1.00  0.00    -0.203 F 
ATOM     81  F   UNL A   1      40.726  37.202  38.090  1.00  0.00    -0.200 F 
ATOM     82  C   UNL A   1      39.280  35.668  39.153  1.00  0.00     0.200 A 
ATOM     83  F   UNL A   1      37.848  34.096  40.179  1.00  0.00    -0.200 F 
ATOM     84  F   UNL A   1      39.147  36.496  40.200  1.00  0.00    -0.200 F 
ENDBRANCH  50  74
BRANCH  62  85
ATOM     85  C   UNL A   1      44.035  28.735  35.605  1.00  0.00     0.064 A 
ATOM     86  C   UNL A   1      43.885  27.668  36.502  1.00  0.00     0.173 A 
ATOM     87  C   UNL A   1      45.328  29.243  35.399  1.00  0.00     0.173 A 
ATOM     88  F   UNL A   1      42.669  27.158  36.747  1.00  0.00    -0.203 F 
ATOM     89  C   UNL A   1      44.982  27.147  37.183  1.00  0.00     0.198 A 
ATOM     90  C   UNL A   1      46.426  28.697  36.055  1.00  0.00     0.198 A 
ATOM     91  F   UNL A   1      45.527  30.259  34.546  1.00  0.00    -0.203 F 
ATOM     92  F   UNL A   1      44.808  26.161  38.073  1.00  0.00    -0.200 F 
ATOM     93  C   UNL A   1      46.252  27.655  36.952  1.00  0.00     0.200 A 
ATOM     94  F   UNL A   1      47.654  29.178  35.818  1.00  0.00    -0.200 F 
ATOM     95  F   UNL A   1      47.308  27.145  37.601  1.00  0.00    -0.200 F 
ENDBRANCH  62  85
ENDBRANCH  36  37
ENDBRANCH  28  31
ENDBRANCH  26  27
ENDBRANCH  25  26
ENDBRANCH   1  25
TORSDOF 14
ENDMDL
