MODEL 1
REMARK VINA RESULT:     -13.2      0.000      0.000
REMARK SMILES O=C(COc1ccccc1/C=N/N1[C@@H](S)N=N[C@H]1[C@@H]1C=C(c2ccccc2)N=N1)NCCCNC(=O)c1ccc(-c2c3nc(c(-c4c(F)c(F)c(F)c(F)c4F)c4ccc([nH]4)c(-c4c(F)c(F)c(F)c(F)c4F)c4nc(c(-c5c(F)c(F)c(F)c(F)c5F)c5ccc2[nH]5)C=C4)C=C3)cc1
REMARK SMILES IDX 1 1 2 2 30 3 3 5 4 6 5 7 6 8 10 9 7 10 9 11 8 12 11 13 12 14
REMARK SMILES IDX 13 15 14 16 18 17 16 18 17 19 15 20 19 22 20 23 29 24 21 25
REMARK SMILES IDX 28 26 22 27 23 28 27 29 24 30 26 31 25 32 31 33 32 34 33 35
REMARK SMILES IDX 34 36 35 37 36 39 37 40 38 41 99 42 39 43 98 44 40 45 41 46
REMARK SMILES IDX 42 47 92 48 43 49 97 50 91 51 93 52 44 53 96 54 90 55 89 56
REMARK SMILES IDX 45 58 77 59 57 60 76 61 58 62 61 63 75 64 94 65 59 66 60 67
REMARK SMILES IDX 74 69 95 70 62 71 46 72 47 73 55 74 48 75 49 76 53 77 56 78
REMARK SMILES IDX 50 79 51 80 54 81 52 82 78 83 79 84 87 85 80 86 81 87 85 88
REMARK SMILES IDX 88 89 82 90 83 91 86 92 84 93 63 94 64 95 72 96 65 97 66 98
REMARK SMILES IDX 70 99 73 100 67 101 68 102 71 103 69 104
REMARK H PARENT 30 4 15 21 34 38 93 57 61 68
REMARK Flexibility Score: inf
ROOT
ATOM      1  O   UNL A   1      40.153  29.452  32.384  1.00  0.00    -0.271 OA
ATOM      2  C   UNL A   1      39.989  29.485  33.584  1.00  0.00     0.257 C 
ATOM      3  N   UNL A   1      40.787  28.983  34.619  1.00  0.00    -0.353 N 
ATOM      4  H   UNL A   1      40.811  29.571  35.408  1.00  0.00     0.163 HD
ENDROOT
BRANCH   2   5
ATOM      5  C   UNL A   1      38.673  30.131  33.880  1.00  0.00     0.329 C 
BRANCH   5   6
ATOM      6  O   UNL A   1      38.837  31.482  33.672  1.00  0.00    -0.483 OA
BRANCH   6   7
ATOM      7  C   UNL A   1      38.216  32.228  34.634  1.00  0.00     0.128 A 
ATOM      8  C   UNL A   1      38.899  31.919  35.820  1.00  0.00     0.047 A 
ATOM      9  C   UNL A   1      37.106  33.137  34.565  1.00  0.00     0.037 A 
ATOM     10  C   UNL A   1      38.523  32.495  37.003  1.00  0.00     0.004 A 
ATOM     11  C   UNL A   1      36.724  33.674  35.800  1.00  0.00     0.013 A 
ATOM     12  C   UNL A   1      37.423  33.349  36.996  1.00  0.00     0.001 A 
BRANCH   9  13
ATOM     13  C   UNL A   1      36.502  33.773  33.262  1.00  0.00     0.145 C 
ATOM     14  N   UNL A   1      36.102  35.020  33.057  1.00  0.00    -0.180 NA
BRANCH  14  15
ATOM     15  N   UNL A   1      35.215  35.200  31.897  1.00  0.00    -0.233 NA
ATOM     16  C   UNL A   1      33.823  35.628  32.191  1.00  0.00     0.298 C 
ATOM     17  C   UNL A   1      34.825  33.998  30.928  1.00  0.00     0.274 C 
ATOM     18  N   UNL A   1      32.942  35.234  31.063  1.00  0.00    -0.153 NA
ATOM     19  N   UNL A   1      33.508  34.392  30.327  1.00  0.00    -0.161 NA
BRANCH  16  20
ATOM     20  S   UNL A   1      33.743  37.399  32.607  1.00  0.00    -0.128 SA
ATOM     21  H   UNL A   1      32.772  37.604  33.537  1.00  0.00     0.106 HD
ENDBRANCH  16  20
BRANCH  17  22
ATOM     22  C   UNL A   1      35.595  33.071  29.609  1.00  0.00     0.202 C 
ATOM     23  C   UNL A   1      34.986  32.588  28.278  1.00  0.00     0.037 C 
ATOM     24  N   UNL A   1      36.191  31.761  30.076  1.00  0.00    -0.177 NA
ATOM     25  C   UNL A   1      35.110  31.249  28.216  1.00  0.00     0.091 C 
ATOM     26  N   UNL A   1      35.880  30.805  29.275  1.00  0.00    -0.155 NA
BRANCH  25  27
ATOM     27  C   UNL A   1      34.200  30.346  27.393  1.00  0.00     0.002 A 
ATOM     28  C   UNL A   1      34.621  29.058  27.004  1.00  0.00     0.010 A 
ATOM     29  C   UNL A   1      32.846  30.629  27.139  1.00  0.00     0.010 A 
ATOM     30  C   UNL A   1      33.713  28.065  26.563  1.00  0.00     0.001 A 
ATOM     31  C   UNL A   1      31.945  29.667  26.625  1.00  0.00     0.001 A 
ATOM     32  C   UNL A   1      32.370  28.367  26.383  1.00  0.00     0.000 A 
ENDBRANCH  25  27
ENDBRANCH  17  22
ENDBRANCH  14  15
ENDBRANCH   9  13
ENDBRANCH   6   7
ENDBRANCH   5   6
ENDBRANCH   2   5
BRANCH   3  33
ATOM     33  C   UNL A   1      41.621  27.732  34.789  1.00  0.00     0.117 C 
BRANCH  33  34
ATOM     34  C   UNL A   1      41.546  26.702  35.952  1.00  0.00     0.042 C 
BRANCH  34  35
ATOM     35  C   UNL A   1      42.594  25.608  36.060  1.00  0.00     0.118 C 
BRANCH  35  36
ATOM     36  N   UNL A   1      43.791  25.920  36.818  1.00  0.00    -0.352 N 
ATOM     37  C   UNL A   1      45.103  25.702  36.402  1.00  0.00     0.251 C 
ATOM     38  H   UNL A   1      43.665  26.322  37.709  1.00  0.00     0.163 HD
ATOM     39  O   UNL A   1      46.002  25.567  37.206  1.00  0.00    -0.269 OA
BRANCH  37  40
ATOM     40  C   UNL A   1      45.373  25.609  34.947  1.00  0.00     0.039 A 
ATOM     41  C   UNL A   1      45.676  24.389  34.340  1.00  0.00     0.014 A 
ATOM     42  C   UNL A   1      45.269  26.762  34.176  1.00  0.00     0.014 A 
ATOM     43  C   UNL A   1      45.788  24.340  32.949  1.00  0.00     0.010 A 
ATOM     44  C   UNL A   1      45.169  26.663  32.810  1.00  0.00     0.010 A 
ATOM     45  C   UNL A   1      45.498  25.480  32.178  1.00  0.00    -0.014 A 
BRANCH  45  46
ATOM     46  C   UNL A   1      45.483  25.426  30.715  1.00  0.00     0.031 A 
ATOM     47  C   UNL A   1      46.509  26.281  30.064  1.00  0.00     0.074 A 
ATOM     48  C   UNL A   1      44.688  24.628  29.966  1.00  0.00     0.049 A 
ATOM     49  N   UNL A   1      46.297  27.404  29.466  1.00  0.00    -0.248 NA
ATOM     50  C   UNL A   1      47.930  25.944  30.225  1.00  0.00     0.031 C 
ATOM     51  C   UNL A   1      43.807  23.528  30.379  1.00  0.00     0.029 A 
ATOM     52  N   UNL A   1      44.542  24.620  28.608  1.00  0.00    -0.354 N 
ATOM     53  C   UNL A   1      47.533  27.843  29.012  1.00  0.00     0.074 A 
ATOM     54  C   UNL A   1      48.515  26.990  29.634  1.00  0.00     0.031 C 
ATOM     55  C   UNL A   1      43.393  22.832  29.296  1.00  0.00     0.029 A 
ATOM     56  C   UNL A   1      43.809  23.550  28.108  1.00  0.00     0.049 A 
ATOM     57  H   UNL A   1      44.925  25.318  28.030  1.00  0.00     0.167 HD
ATOM     58  C   UNL A   1      47.607  28.733  27.985  1.00  0.00     0.037 A 
ATOM     59  C   UNL A   1      43.530  23.286  26.808  1.00  0.00     0.037 A 
ATOM     60  C   UNL A   1      46.339  29.394  27.787  1.00  0.00     0.049 A 
ATOM     61  C   UNL A   1      43.654  24.562  26.069  1.00  0.00     0.074 A 
ATOM     62  C   UNL A   1      45.536  30.217  28.554  1.00  0.00     0.029 A 
ATOM     63  N   UNL A   1      45.533  28.926  26.780  1.00  0.00    -0.354 N 
ATOM     64  N   UNL A   1      42.836  25.565  26.213  1.00  0.00    -0.248 NA
ATOM     65  C   UNL A   1      44.942  24.881  25.479  1.00  0.00     0.031 C 
ATOM     66  C   UNL A   1      44.197  29.823  28.245  1.00  0.00     0.029 A 
ATOM     67  C   UNL A   1      44.255  28.833  27.265  1.00  0.00     0.049 A 
ATOM     68  H   UNL A   1      45.824  28.696  25.867  1.00  0.00     0.167 HD
ATOM     69  C   UNL A   1      43.650  26.684  26.163  1.00  0.00     0.074 A 
ATOM     70  C   UNL A   1      44.910  26.210  25.595  1.00  0.00     0.031 C 
ATOM     71  C   UNL A   1      43.315  27.820  26.843  1.00  0.00     0.037 A 
BRANCH  58  72
ATOM     72  C   UNL A   1      48.670  28.709  26.910  1.00  0.00     0.064 A 
ATOM     73  C   UNL A   1      48.783  27.566  26.092  1.00  0.00     0.173 A 
ATOM     74  C   UNL A   1      49.768  29.596  26.869  1.00  0.00     0.173 A 
ATOM     75  F   UNL A   1      47.804  26.651  26.056  1.00  0.00    -0.203 F 
ATOM     76  C   UNL A   1      49.949  27.283  25.375  1.00  0.00     0.198 A 
ATOM     77  C   UNL A   1      50.909  29.334  26.113  1.00  0.00     0.198 A 
ATOM     78  F   UNL A   1      49.838  30.686  27.640  1.00  0.00    -0.203 F 
ATOM     79  F   UNL A   1      50.064  26.117  24.727  1.00  0.00    -0.200 F 
ATOM     80  C   UNL A   1      51.016  28.162  25.396  1.00  0.00     0.200 A 
ATOM     81  F   UNL A   1      51.940  30.190  26.161  1.00  0.00    -0.200 F 
ATOM     82  F   UNL A   1      52.161  27.859  24.771  1.00  0.00    -0.200 F 
ENDBRANCH  58  72
BRANCH  59  83
ATOM     83  C   UNL A   1      43.432  21.983  26.112  1.00  0.00     0.064 A 
ATOM     84  C   UNL A   1      44.586  21.296  25.699  1.00  0.00     0.173 A 
ATOM     85  C   UNL A   1      42.233  21.244  26.133  1.00  0.00     0.173 A 
ATOM     86  F   UNL A   1      45.773  21.918  25.685  1.00  0.00    -0.203 F 
ATOM     87  C   UNL A   1      44.552  19.937  25.374  1.00  0.00     0.198 A 
ATOM     88  C   UNL A   1      42.202  19.888  25.806  1.00  0.00     0.198 A 
ATOM     89  F   UNL A   1      41.095  21.799  26.574  1.00  0.00    -0.203 F 
ATOM     90  F   UNL A   1      45.688  19.297  25.057  1.00  0.00    -0.200 F 
ATOM     91  C   UNL A   1      43.364  19.230  25.443  1.00  0.00     0.200 A 
ATOM     92  F   UNL A   1      41.054  19.204  25.913  1.00  0.00    -0.200 F 
ATOM     93  F   UNL A   1      43.344  17.911  25.205  1.00  0.00    -0.200 F 
ENDBRANCH  59  83
BRANCH  71  94
ATOM     94  C   UNL A   1      41.907  27.924  27.367  1.00  0.00     0.064 A 
ATOM     95  C   UNL A   1      41.469  27.395  28.594  1.00  0.00     0.173 A 
ATOM     96  C   UNL A   1      40.989  28.687  26.633  1.00  0.00     0.173 A 
ATOM     97  F   UNL A   1      42.308  26.734  29.403  1.00  0.00    -0.203 F 
ATOM     98  C   UNL A   1      40.158  27.577  29.033  1.00  0.00     0.198 A 
ATOM     99  C   UNL A   1      39.693  28.900  27.092  1.00  0.00     0.198 A 
ATOM    100  F   UNL A   1      41.362  29.258  25.477  1.00  0.00    -0.203 F 
ATOM    101  F   UNL A   1      39.757  27.041  30.196  1.00  0.00    -0.200 F 
ATOM    102  C   UNL A   1      39.273  28.335  28.285  1.00  0.00     0.200 A 
ATOM    103  F   UNL A   1      38.855  29.673  26.386  1.00  0.00    -0.200 F 
ATOM    104  F   UNL A   1      38.023  28.540  28.723  1.00  0.00    -0.200 F 
ENDBRANCH  71  94
ENDBRANCH  45  46
ENDBRANCH  37  40
ENDBRANCH  35  36
ENDBRANCH  34  35
ENDBRANCH  33  34
ENDBRANCH   3  33
TORSDOF 17
ENDMDL
MODEL 2
REMARK VINA RESULT:     -13.0      4.741     12.991
REMARK SMILES O=C(COc1ccccc1/C=N/N1[C@@H](S)N=N[C@H]1[C@@H]1C=C(c2ccccc2)N=N1)NCCCNC(=O)c1ccc(-c2c3nc(c(-c4c(F)c(F)c(F)c(F)c4F)c4ccc([nH]4)c(-c4c(F)c(F)c(F)c(F)c4F)c4nc(c(-c5c(F)c(F)c(F)c(F)c5F)c5ccc2[nH]5)C=C4)C=C3)cc1
REMARK SMILES IDX 1 1 2 2 30 3 3 5 4 6 5 7 6 8 10 9 7 10 9 11 8 12 11 13 12 14
REMARK SMILES IDX 13 15 14 16 18 17 16 18 17 19 15 20 19 22 20 23 29 24 21 25
REMARK SMILES IDX 28 26 22 27 23 28 27 29 24 30 26 31 25 32 31 33 32 34 33 35
REMARK SMILES IDX 34 36 35 37 36 39 37 40 38 41 99 42 39 43 98 44 40 45 41 46
REMARK SMILES IDX 42 47 92 48 43 49 97 50 91 51 93 52 44 53 96 54 90 55 89 56
REMARK SMILES IDX 45 58 77 59 57 60 76 61 58 62 61 63 75 64 94 65 59 66 60 67
REMARK SMILES IDX 74 69 95 70 62 71 46 72 47 73 55 74 48 75 49 76 53 77 56 78
REMARK SMILES IDX 50 79 51 80 54 81 52 82 78 83 79 84 87 85 80 86 81 87 85 88
REMARK SMILES IDX 88 89 82 90 83 91 86 92 84 93 63 94 64 95 72 96 65 97 66 98
REMARK SMILES IDX 70 99 73 100 67 101 68 102 71 103 69 104
REMARK H PARENT 30 4 15 21 34 38 93 57 61 68
REMARK Flexibility Score: inf
ROOT
ATOM      1  O   UNL A   1      46.338  30.328  25.623  1.00  0.00    -0.271 OA
ATOM      2  C   UNL A   1      45.297  30.398  26.241  1.00  0.00     0.257 C 
ATOM      3  N   UNL A   1      44.238  31.307  26.125  1.00  0.00    -0.353 N 
ATOM      4  H   UNL A   1      43.355  30.887  26.245  1.00  0.00     0.163 HD
ENDROOT
BRANCH   2   5
ATOM      5  C   UNL A   1      45.283  29.340  27.297  1.00  0.00     0.329 C 
BRANCH   5   6
ATOM      6  O   UNL A   1      44.108  28.641  27.146  1.00  0.00    -0.483 OA
BRANCH   6   7
ATOM      7  C   UNL A   1      43.723  28.026  28.304  1.00  0.00     0.128 A 
ATOM      8  C   UNL A   1      43.858  29.013  29.293  1.00  0.00     0.047 A 
ATOM      9  C   UNL A   1      43.281  26.685  28.569  1.00  0.00     0.037 A 
ATOM     10  C   UNL A   1      43.560  28.727  30.597  1.00  0.00     0.004 A 
ATOM     11  C   UNL A   1      43.026  26.419  29.919  1.00  0.00     0.013 A 
ATOM     12  C   UNL A   1      43.171  27.428  30.912  1.00  0.00     0.001 A 
BRANCH   9  13
ATOM     13  C   UNL A   1      42.806  25.634  27.503  1.00  0.00     0.145 C 
ATOM     14  N   UNL A   1      42.250  24.446  27.701  1.00  0.00    -0.180 NA
BRANCH  14  15
ATOM     15  N   UNL A   1      42.302  23.540  26.544  1.00  0.00    -0.233 NA
ATOM     16  C   UNL A   1      41.685  22.201  26.725  1.00  0.00     0.298 C 
ATOM     17  C   UNL A   1      43.677  23.015  25.933  1.00  0.00     0.274 C 
ATOM     18  N   UNL A   1      42.280  21.253  25.751  1.00  0.00    -0.153 NA
ATOM     19  N   UNL A   1      43.336  21.718  25.261  1.00  0.00    -0.161 NA
BRANCH  16  20
ATOM     20  S   UNL A   1      39.868  22.289  26.654  1.00  0.00    -0.128 SA
ATOM     21  H   UNL A   1      39.339  21.105  27.065  1.00  0.00     0.106 HD
ENDBRANCH  16  20
BRANCH  17  22
ATOM     22  C   UNL A   1      44.987  23.657  24.902  1.00  0.00     0.202 C 
ATOM     23  C   UNL A   1      46.511  23.600  25.122  1.00  0.00     0.037 C 
ATOM     24  N   UNL A   1      44.852  25.139  24.627  1.00  0.00    -0.177 NA
ATOM     25  C   UNL A   1      46.986  24.860  25.133  1.00  0.00     0.091 C 
ATOM     26  N   UNL A   1      45.978  25.738  24.780  1.00  0.00    -0.155 NA
BRANCH  25  27
ATOM     27  C   UNL A   1      48.269  25.282  25.839  1.00  0.00     0.002 A 
ATOM     28  C   UNL A   1      48.554  24.835  27.145  1.00  0.00     0.010 A 
ATOM     29  C   UNL A   1      49.325  25.953  25.197  1.00  0.00     0.010 A 
ATOM     30  C   UNL A   1      49.855  24.894  27.699  1.00  0.00     0.001 A 
ATOM     31  C   UNL A   1      50.609  26.087  25.774  1.00  0.00     0.001 A 
ATOM     32  C   UNL A   1      50.889  25.514  27.007  1.00  0.00     0.000 A 
ENDBRANCH  25  27
ENDBRANCH  17  22
ENDBRANCH  14  15
ENDBRANCH   9  13
ENDBRANCH   6   7
ENDBRANCH   5   6
ENDBRANCH   2   5
BRANCH   3  33
ATOM     33  C   UNL A   1      44.154  32.793  25.857  1.00  0.00     0.117 C 
BRANCH  33  34
ATOM     34  C   UNL A   1      45.096  33.902  26.405  1.00  0.00     0.042 C 
BRANCH  34  35
ATOM     35  C   UNL A   1      45.854  33.676  27.702  1.00  0.00     0.118 C 
BRANCH  35  36
ATOM     36  N   UNL A   1      46.565  34.814  28.253  1.00  0.00    -0.352 N 
ATOM     37  C   UNL A   1      46.003  35.845  29.003  1.00  0.00     0.251 C 
ATOM     38  H   UNL A   1      47.534  34.864  28.080  1.00  0.00     0.163 HD
ATOM     39  O   UNL A   1      46.522  36.940  29.052  1.00  0.00    -0.269 OA
BRANCH  37  40
ATOM     40  C   UNL A   1      44.733  35.579  29.722  1.00  0.00     0.039 A 
ATOM     41  C   UNL A   1      43.520  36.108  29.274  1.00  0.00     0.014 A 
ATOM     42  C   UNL A   1      44.759  34.744  30.832  1.00  0.00     0.014 A 
ATOM     43  C   UNL A   1      42.341  35.716  29.911  1.00  0.00     0.010 A 
ATOM     44  C   UNL A   1      43.589  34.203  31.308  1.00  0.00     0.010 A 
ATOM     45  C   UNL A   1      42.376  34.730  30.913  1.00  0.00    -0.014 A 
BRANCH  45  46
ATOM     46  C   UNL A   1      41.145  34.207  31.510  1.00  0.00     0.031 A 
ATOM     47  C   UNL A   1      41.224  33.992  32.977  1.00  0.00     0.074 A 
ATOM     48  C   UNL A   1      39.981  33.995  30.853  1.00  0.00     0.049 A 
ATOM     49  N   UNL A   1      41.332  32.854  33.576  1.00  0.00    -0.248 NA
ATOM     50  C   UNL A   1      41.354  35.154  33.866  1.00  0.00     0.031 C 
ATOM     51  C   UNL A   1      39.590  34.380  29.490  1.00  0.00     0.029 A 
ATOM     52  N   UNL A   1      38.845  33.400  31.322  1.00  0.00    -0.354 N 
ATOM     53  C   UNL A   1      41.368  33.132  34.936  1.00  0.00     0.074 A 
ATOM     54  C   UNL A   1      41.530  34.559  35.050  1.00  0.00     0.031 C 
ATOM     55  C   UNL A   1      38.260  34.204  29.322  1.00  0.00     0.029 A 
ATOM     56  C   UNL A   1      37.742  33.509  30.484  1.00  0.00     0.049 A 
ATOM     57  H   UNL A   1      38.811  32.930  32.186  1.00  0.00     0.167 HD
ATOM     58  C   UNL A   1      41.033  32.170  35.839  1.00  0.00     0.037 A 
ATOM     59  C   UNL A   1      36.493  33.034  30.709  1.00  0.00     0.037 A 
ATOM     60  C   UNL A   1      41.074  30.860  35.232  1.00  0.00     0.049 A 
ATOM     61  C   UNL A   1      36.616  31.942  31.700  1.00  0.00     0.074 A 
ATOM     62  C   UNL A   1      42.055  30.086  34.643  1.00  0.00     0.029 A 
ATOM     63  N   UNL A   1      39.881  30.316  34.826  1.00  0.00    -0.354 N 
ATOM     64  N   UNL A   1      37.186  30.797  31.450  1.00  0.00    -0.248 NA
ATOM     65  C   UNL A   1      36.480  32.283  33.105  1.00  0.00     0.031 C 
ATOM     66  C   UNL A   1      41.407  29.427  33.553  1.00  0.00     0.029 A 
ATOM     67  C   UNL A   1      40.058  29.783  33.576  1.00  0.00     0.049 A 
ATOM     68  H   UNL A   1      39.044  30.309  35.344  1.00  0.00     0.167 HD
ATOM     69  C   UNL A   1      37.877  30.496  32.612  1.00  0.00     0.074 A 
ATOM     70  C   UNL A   1      37.313  31.381  33.628  1.00  0.00     0.031 C 
ATOM     71  C   UNL A   1      39.024  29.757  32.568  1.00  0.00     0.037 A 
BRANCH  58  72
ATOM     72  C   UNL A   1      40.280  32.430  37.123  1.00  0.00     0.064 A 
ATOM     73  C   UNL A   1      38.911  32.763  37.052  1.00  0.00     0.173 A 
ATOM     74  C   UNL A   1      40.902  32.688  38.363  1.00  0.00     0.173 A 
ATOM     75  F   UNL A   1      38.217  32.568  35.920  1.00  0.00    -0.203 F 
ATOM     76  C   UNL A   1      38.249  33.402  38.104  1.00  0.00     0.198 A 
ATOM     77  C   UNL A   1      40.226  33.280  39.428  1.00  0.00     0.198 A 
ATOM     78  F   UNL A   1      42.209  32.490  38.563  1.00  0.00    -0.203 F 
ATOM     79  F   UNL A   1      36.991  33.827  37.938  1.00  0.00    -0.200 F 
ATOM     80  C   UNL A   1      38.912  33.671  39.288  1.00  0.00     0.200 A 
ATOM     81  F   UNL A   1      40.890  33.549  40.560  1.00  0.00    -0.200 F 
ATOM     82  F   UNL A   1      38.304  34.349  40.269  1.00  0.00    -0.200 F 
ENDBRANCH  58  72
BRANCH  59  83
ATOM     83  C   UNL A   1      35.183  33.619  30.346  1.00  0.00     0.064 A 
ATOM     84  C   UNL A   1      34.663  34.720  31.048  1.00  0.00     0.173 A 
ATOM     85  C   UNL A   1      34.578  33.320  29.110  1.00  0.00     0.173 A 
ATOM     86  F   UNL A   1      35.207  35.092  32.216  1.00  0.00    -0.203 F 
ATOM     87  C   UNL A   1      33.633  35.505  30.523  1.00  0.00     0.198 A 
ATOM     88  C   UNL A   1      33.548  34.104  28.588  1.00  0.00     0.198 A 
ATOM     89  F   UNL A   1      35.048  32.327  28.341  1.00  0.00    -0.203 F 
ATOM     90  F   UNL A   1      33.216  36.593  31.188  1.00  0.00    -0.200 F 
ATOM     91  C   UNL A   1      33.088  35.207  29.286  1.00  0.00     0.200 A 
ATOM     92  F   UNL A   1      33.052  33.829  27.373  1.00  0.00    -0.200 F 
ATOM     93  F   UNL A   1      32.153  36.002  28.748  1.00  0.00    -0.200 F 
ENDBRANCH  59  83
BRANCH  71  94
ATOM     94  C   UNL A   1      39.326  29.022  31.289  1.00  0.00     0.064 A 
ATOM     95  C   UNL A   1      38.900  27.713  30.998  1.00  0.00     0.173 A 
ATOM     96  C   UNL A   1      39.993  29.720  30.273  1.00  0.00     0.173 A 
ATOM     97  F   UNL A   1      38.175  27.009  31.877  1.00  0.00    -0.203 F 
ATOM     98  C   UNL A   1      39.179  27.119  29.767  1.00  0.00     0.198 A 
ATOM     99  C   UNL A   1      40.235  29.139  29.032  1.00  0.00     0.198 A 
ATOM    100  F   UNL A   1      40.381  30.989  30.473  1.00  0.00    -0.203 F 
ATOM    101  F   UNL A   1      38.784  25.860  29.523  1.00  0.00    -0.200 F 
ATOM    102  C   UNL A   1      39.841  27.834  28.783  1.00  0.00     0.200 A 
ATOM    103  F   UNL A   1      40.834  29.852  28.068  1.00  0.00    -0.200 F 
ATOM    104  F   UNL A   1      40.078  27.276  27.588  1.00  0.00    -0.200 F 
ENDBRANCH  71  94
ENDBRANCH  45  46
ENDBRANCH  37  40
ENDBRANCH  35  36
ENDBRANCH  34  35
ENDBRANCH  33  34
ENDBRANCH   3  33
TORSDOF 17
ENDMDL
MODEL 3
REMARK VINA RESULT:     -13.0      5.334     10.693
REMARK SMILES O=C(COc1ccccc1/C=N/N1[C@@H](S)N=N[C@H]1[C@@H]1C=C(c2ccccc2)N=N1)NCCCNC(=O)c1ccc(-c2c3nc(c(-c4c(F)c(F)c(F)c(F)c4F)c4ccc([nH]4)c(-c4c(F)c(F)c(F)c(F)c4F)c4nc(c(-c5c(F)c(F)c(F)c(F)c5F)c5ccc2[nH]5)C=C4)C=C3)cc1
REMARK SMILES IDX 1 1 2 2 30 3 3 5 4 6 5 7 6 8 10 9 7 10 9 11 8 12 11 13 12 14
REMARK SMILES IDX 13 15 14 16 18 17 16 18 17 19 15 20 19 22 20 23 29 24 21 25
REMARK SMILES IDX 28 26 22 27 23 28 27 29 24 30 26 31 25 32 31 33 32 34 33 35
REMARK SMILES IDX 34 36 35 37 36 39 37 40 38 41 99 42 39 43 98 44 40 45 41 46
REMARK SMILES IDX 42 47 92 48 43 49 97 50 91 51 93 52 44 53 96 54 90 55 89 56
REMARK SMILES IDX 45 58 77 59 57 60 76 61 58 62 61 63 75 64 94 65 59 66 60 67
REMARK SMILES IDX 74 69 95 70 62 71 46 72 47 73 55 74 48 75 49 76 53 77 56 78
REMARK SMILES IDX 50 79 51 80 54 81 52 82 78 83 79 84 87 85 80 86 81 87 85 88
REMARK SMILES IDX 88 89 82 90 83 91 86 92 84 93 63 94 64 95 72 96 65 97 66 98
REMARK SMILES IDX 70 99 73 100 67 101 68 102 71 103 69 104
REMARK H PARENT 30 4 15 21 34 38 93 57 61 68
REMARK Flexibility Score: inf
ROOT
ATOM      1  O   UNL A   1      37.025  23.493  23.964  1.00  0.00    -0.271 OA
ATOM      2  C   UNL A   1      36.842  22.630  24.795  1.00  0.00     0.257 C 
ATOM      3  N   UNL A   1      37.393  22.475  26.074  1.00  0.00    -0.353 N 
ATOM      4  H   UNL A   1      36.747  22.131  26.732  1.00  0.00     0.163 HD
ENDROOT
BRANCH   2   5
ATOM      5  C   UNL A   1      35.917  21.599  24.233  1.00  0.00     0.329 C 
BRANCH   5   6
ATOM      6  O   UNL A   1      35.738  20.648  25.212  1.00  0.00    -0.483 OA
BRANCH   6   7
ATOM      7  C   UNL A   1      34.713  19.793  24.916  1.00  0.00     0.128 A 
ATOM      8  C   UNL A   1      35.345  18.595  24.546  1.00  0.00     0.047 A 
ATOM      9  C   UNL A   1      33.288  19.973  24.930  1.00  0.00     0.037 A 
ATOM     10  C   UNL A   1      34.601  17.511  24.172  1.00  0.00     0.004 A 
ATOM     11  C   UNL A   1      32.563  18.856  24.502  1.00  0.00     0.013 A 
ATOM     12  C   UNL A   1      33.216  17.649  24.125  1.00  0.00     0.001 A 
BRANCH   9  13
ATOM     13  C   UNL A   1      32.505  21.146  25.621  1.00  0.00     0.145 C 
ATOM     14  N   UNL A   1      31.556  21.921  25.113  1.00  0.00    -0.180 NA
BRANCH  14  15
ATOM     15  N   UNL A   1      31.319  23.171  25.851  1.00  0.00    -0.233 NA
ATOM     16  C   UNL A   1      29.902  23.511  26.137  1.00  0.00     0.298 C 
ATOM     17  C   UNL A   1      31.723  24.596  25.263  1.00  0.00     0.274 C 
ATOM     18  N   UNL A   1      29.784  24.974  26.354  1.00  0.00    -0.153 NA
ATOM     19  N   UNL A   1      30.806  25.571  25.940  1.00  0.00    -0.161 NA
BRANCH  16  20
ATOM     20  S   UNL A   1      29.238  22.506  27.503  1.00  0.00    -0.128 SA
ATOM     21  H   UNL A   1      28.125  21.848  27.084  1.00  0.00     0.106 HD
ENDBRANCH  16  20
BRANCH  17  22
ATOM     22  C   UNL A   1      33.216  25.552  25.043  1.00  0.00     0.202 C 
ATOM     23  C   UNL A   1      33.877  26.556  26.007  1.00  0.00     0.037 C 
ATOM     24  N   UNL A   1      33.190  26.412  23.799  1.00  0.00    -0.177 NA
ATOM     25  C   UNL A   1      33.975  27.744  25.380  1.00  0.00     0.091 C 
ATOM     26  N   UNL A   1      33.608  27.600  24.055  1.00  0.00    -0.155 NA
BRANCH  25  27
ATOM     27  C   UNL A   1      34.042  29.085  26.100  1.00  0.00     0.002 A 
ATOM     28  C   UNL A   1      32.946  29.971  26.080  1.00  0.00     0.010 A 
ATOM     29  C   UNL A   1      35.080  29.445  26.979  1.00  0.00     0.010 A 
ATOM     30  C   UNL A   1      32.816  31.037  27.002  1.00  0.00     0.001 A 
ATOM     31  C   UNL A   1      34.995  30.555  27.851  1.00  0.00     0.001 A 
ATOM     32  C   UNL A   1      33.839  31.324  27.897  1.00  0.00     0.000 A 
ENDBRANCH  25  27
ENDBRANCH  17  22
ENDBRANCH  14  15
ENDBRANCH   9  13
ENDBRANCH   6   7
ENDBRANCH   5   6
ENDBRANCH   2   5
BRANCH   3  33
ATOM     33  C   UNL A   1      38.764  22.722  26.663  1.00  0.00     0.117 C 
BRANCH  33  34
ATOM     34  C   UNL A   1      40.081  21.966  26.330  1.00  0.00     0.042 C 
BRANCH  34  35
ATOM     35  C   UNL A   1      41.346  22.272  27.113  1.00  0.00     0.118 C 
BRANCH  35  36
ATOM     36  N   UNL A   1      42.551  22.517  26.342  1.00  0.00    -0.352 N 
ATOM     37  C   UNL A   1      43.011  23.762  25.918  1.00  0.00     0.251 C 
ATOM     38  H   UNL A   1      43.092  21.732  26.095  1.00  0.00     0.163 HD
ATOM     39  O   UNL A   1      43.735  23.866  24.950  1.00  0.00    -0.269 OA
BRANCH  37  40
ATOM     40  C   UNL A   1      42.573  24.966  26.665  1.00  0.00     0.039 A 
ATOM     41  C   UNL A   1      43.154  25.315  27.886  1.00  0.00     0.014 A 
ATOM     42  C   UNL A   1      41.598  25.781  26.100  1.00  0.00     0.014 A 
ATOM     43  C   UNL A   1      42.796  26.529  28.476  1.00  0.00     0.010 A 
ATOM     44  C   UNL A   1      41.416  27.057  26.575  1.00  0.00     0.010 A 
ATOM     45  C   UNL A   1      41.946  27.421  27.796  1.00  0.00    -0.014 A 
BRANCH  45  46
ATOM     46  C   UNL A   1      41.655  28.752  28.331  1.00  0.00     0.031 A 
ATOM     47  C   UNL A   1      42.701  29.766  28.041  1.00  0.00     0.074 A 
ATOM     48  C   UNL A   1      40.517  29.112  28.968  1.00  0.00     0.049 A 
ATOM     49  N   UNL A   1      43.563  30.233  28.879  1.00  0.00    -0.248 NA
ATOM     50  C   UNL A   1      42.921  30.192  26.652  1.00  0.00     0.031 C 
ATOM     51  C   UNL A   1      39.258  28.373  29.128  1.00  0.00     0.029 A 
ATOM     52  N   UNL A   1      40.238  30.295  29.591  1.00  0.00    -0.354 N 
ATOM     53  C   UNL A   1      44.332  31.150  28.176  1.00  0.00     0.074 A 
ATOM     54  C   UNL A   1      43.996  30.975  26.786  1.00  0.00     0.031 C 
ATOM     55  C   UNL A   1      38.296  29.193  29.608  1.00  0.00     0.029 A 
ATOM     56  C   UNL A   1      38.912  30.451  29.977  1.00  0.00     0.049 A 
ATOM     57  H   UNL A   1      40.923  30.982  29.754  1.00  0.00     0.167 HD
ATOM     58  C   UNL A   1      45.013  32.123  28.841  1.00  0.00     0.037 A 
ATOM     59  C   UNL A   1      38.360  31.526  30.591  1.00  0.00     0.037 A 
ATOM     60  C   UNL A   1      45.140  31.795  30.241  1.00  0.00     0.049 A 
ATOM     61  C   UNL A   1      39.460  32.258  31.258  1.00  0.00     0.074 A 
ATOM     62  C   UNL A   1      45.736  30.772  30.955  1.00  0.00     0.029 A 
ATOM     63  N   UNL A   1      44.260  32.388  31.111  1.00  0.00    -0.354 N 
ATOM     64  N   UNL A   1      40.117  31.800  32.286  1.00  0.00    -0.248 NA
ATOM     65  C   UNL A   1      40.115  33.320  30.516  1.00  0.00     0.031 C 
ATOM     66  C   UNL A   1      44.849  30.511  32.044  1.00  0.00     0.029 A 
ATOM     67  C   UNL A   1      43.799  31.427  31.973  1.00  0.00     0.049 A 
ATOM     68  H   UNL A   1      44.004  33.339  31.116  1.00  0.00     0.167 HD
ATOM     69  C   UNL A   1      41.428  32.180  32.054  1.00  0.00     0.074 A 
ATOM     70  C   UNL A   1      41.347  33.206  31.017  1.00  0.00     0.031 C 
ATOM     71  C   UNL A   1      42.465  31.428  32.527  1.00  0.00     0.037 A 
BRANCH  58  72
ATOM     72  C   UNL A   1      45.195  33.536  28.334  1.00  0.00     0.064 A 
ATOM     73  C   UNL A   1      46.495  34.080  28.290  1.00  0.00     0.173 A 
ATOM     74  C   UNL A   1      44.143  34.469  28.208  1.00  0.00     0.173 A 
ATOM     75  F   UNL A   1      47.572  33.288  28.406  1.00  0.00    -0.203 F 
ATOM     76  C   UNL A   1      46.719  35.458  28.233  1.00  0.00     0.198 A 
ATOM     77  C   UNL A   1      44.371  35.839  28.101  1.00  0.00     0.198 A 
ATOM     78  F   UNL A   1      42.857  34.115  28.299  1.00  0.00    -0.203 F 
ATOM     79  F   UNL A   1      47.966  35.934  28.338  1.00  0.00    -0.200 F 
ATOM     80  C   UNL A   1      45.655  36.338  28.150  1.00  0.00     0.200 A 
ATOM     81  F   UNL A   1      43.327  36.677  28.040  1.00  0.00    -0.200 F 
ATOM     82  F   UNL A   1      45.862  37.661  28.171  1.00  0.00    -0.200 F 
ENDBRANCH  58  72
BRANCH  59  83
ATOM     83  C   UNL A   1      37.013  32.116  30.424  1.00  0.00     0.064 A 
ATOM     84  C   UNL A   1      36.028  31.962  31.415  1.00  0.00     0.173 A 
ATOM     85  C   UNL A   1      36.776  33.106  29.451  1.00  0.00     0.173 A 
ATOM     86  F   UNL A   1      36.195  31.066  32.398  1.00  0.00    -0.203 F 
ATOM     87  C   UNL A   1      34.898  32.783  31.458  1.00  0.00     0.198 A 
ATOM     88  C   UNL A   1      35.646  33.923  29.494  1.00  0.00     0.198 A 
ATOM     89  F   UNL A   1      37.690  33.366  28.504  1.00  0.00    -0.203 F 
ATOM     90  F   UNL A   1      34.018  32.657  32.463  1.00  0.00    -0.200 F 
ATOM     91  C   UNL A   1      34.715  33.773  30.508  1.00  0.00     0.200 A 
ATOM     92  F   UNL A   1      35.497  34.903  28.592  1.00  0.00    -0.200 F 
ATOM     93  F   UNL A   1      33.672  34.609  30.592  1.00  0.00    -0.200 F 
ENDBRANCH  59  83
BRANCH  71  94
ATOM     94  C   UNL A   1      42.146  30.380  33.560  1.00  0.00     0.064 A 
ATOM     95  C   UNL A   1      41.711  29.075  33.268  1.00  0.00     0.173 A 
ATOM     96  C   UNL A   1      42.394  30.688  34.905  1.00  0.00     0.173 A 
ATOM     97  F   UNL A   1      41.542  28.668  32.003  1.00  0.00    -0.203 F 
ATOM     98  C   UNL A   1      41.485  28.144  34.282  1.00  0.00     0.198 A 
ATOM     99  C   UNL A   1      42.205  29.745  35.911  1.00  0.00     0.198 A 
ATOM    100  F   UNL A   1      42.856  31.902  35.242  1.00  0.00    -0.203 F 
ATOM    101  F   UNL A   1      41.046  26.913  33.979  1.00  0.00    -0.200 F 
ATOM    102  C   UNL A   1      41.737  28.478  35.602  1.00  0.00     0.200 A 
ATOM    103  F   UNL A   1      42.495  30.060  37.181  1.00  0.00    -0.200 F 
ATOM    104  F   UNL A   1      41.553  27.574  36.574  1.00  0.00    -0.200 F 
ENDBRANCH  71  94
ENDBRANCH  45  46
ENDBRANCH  37  40
ENDBRANCH  35  36
ENDBRANCH  34  35
ENDBRANCH  33  34
ENDBRANCH   3  33
TORSDOF 17
ENDMDL
