MODEL 1
REMARK VINA RESULT:     -13.8      0.000      0.000
REMARK SMILES O=C(CN1C(=O)CN(C(=O)OCC2c3ccccc3-c3ccccc32)c2ccccc21)NCCCNC(=O)c1ccc(-c2c3nc(c(-c4c(F)c(F)c(F)c(F)c4F)c4ccc([nH]4)c(-c4c(F)c(F)c(F)c(F)c4F)c4nc(c(-c5c(F)c(F)c(F)c(F)c5F)c5ccc2[nH]5)C=C4)C=C3)cc1
REMARK SMILES IDX 1 1 2 2 32 3 3 5 4 6 5 7 31 8 6 9 7 10 26 11 30 12 8 13
REMARK SMILES IDX 27 14 29 15 28 16 9 17 10 18 11 19 12 20 13 21 14 22 25 23
REMARK SMILES IDX 15 24 19 25 20 26 24 27 16 28 18 29 21 30 23 31 17 32 22 33
REMARK SMILES IDX 33 34 34 35 35 36 36 37 37 38 38 40 39 41 40 42 101 43 41 44
REMARK SMILES IDX 100 45 42 46 43 47 44 48 94 49 45 50 99 51 93 52 95 53 46 54
REMARK SMILES IDX 98 55 92 56 91 57 47 59 79 60 59 61 78 62 60 63 63 64 77 65
REMARK SMILES IDX 96 66 61 67 62 68 76 70 97 71 64 72 48 73 49 74 57 75 50 76
REMARK SMILES IDX 51 77 55 78 58 79 52 80 53 81 56 82 54 83 80 84 81 85 89 86
REMARK SMILES IDX 82 87 83 88 87 89 90 90 84 91 85 92 88 93 86 94 65 95 66 96
REMARK SMILES IDX 74 97 67 98 68 99 72 100 75 101 69 102 70 103 73 104 71 105
REMARK H PARENT 32 4 36 39 95 58 63 69
REMARK Flexibility Score: inf
ROOT
ATOM      1  O   UNL A   1      34.015  18.312  24.375  1.00  0.00    -0.273 OA
ATOM      2  C   UNL A   1      34.204  19.454  24.782  1.00  0.00     0.240 C 
ATOM      3  N   UNL A   1      35.453  19.969  25.056  1.00  0.00    -0.354 N 
ATOM      4  H   UNL A   1      35.518  20.917  25.314  1.00  0.00     0.163 HD
ENDROOT
BRANCH   2   5
ATOM      5  C   UNL A   1      33.064  20.468  24.909  1.00  0.00     0.225 C 
BRANCH   5   6
ATOM      6  N   UNL A   1      33.231  21.613  24.007  1.00  0.00    -0.299 N 
ATOM      7  C   UNL A   1      32.658  21.529  22.749  1.00  0.00     0.247 C 
ATOM      8  C   UNL A   1      33.946  22.782  24.420  1.00  0.00     0.068 A 
ATOM      9  O   UNL A   1      32.177  20.473  22.324  1.00  0.00    -0.272 OA
ATOM     10  C   UNL A   1      32.855  22.705  21.823  1.00  0.00     0.229 C 
ATOM     11  C   UNL A   1      33.864  23.977  23.662  1.00  0.00     0.071 A 
ATOM     12  C   UNL A   1      34.682  22.781  25.620  1.00  0.00     0.028 A 
ATOM     13  N   UNL A   1      33.089  23.991  22.459  1.00  0.00    -0.266 N 
ATOM     14  C   UNL A   1      34.475  25.136  24.171  1.00  0.00     0.029 A 
ATOM     15  C   UNL A   1      35.290  23.942  26.097  1.00  0.00     0.002 A 
ATOM     16  C   UNL A   1      35.177  25.120  25.378  1.00  0.00     0.002 A 
BRANCH  13  17
ATOM     17  C   UNL A   1      32.631  25.149  21.834  1.00  0.00     0.414 C 
ATOM     18  O   UNL A   1      33.246  25.836  21.034  1.00  0.00    -0.224 OA
BRANCH  17  19
ATOM     19  O   UNL A   1      31.413  25.520  22.329  1.00  0.00    -0.448 OA
BRANCH  19  20
ATOM     20  C   UNL A   1      31.286  26.877  22.804  1.00  0.00     0.248 C 
BRANCH  20  21
ATOM     21  C   UNL A   1      30.604  26.911  24.187  1.00  0.00     0.088 C 
ATOM     22  C   UNL A   1      30.780  25.625  24.995  1.00  0.00    -0.029 A 
ATOM     23  C   UNL A   1      31.270  27.933  25.105  1.00  0.00    -0.029 A 
ATOM     24  C   UNL A   1      30.272  24.359  24.746  1.00  0.00     0.005 A 
ATOM     25  C   UNL A   1      31.551  25.875  26.150  1.00  0.00    -0.014 A 
ATOM     26  C   UNL A   1      31.833  27.291  26.229  1.00  0.00    -0.014 A 
ATOM     27  C   UNL A   1      31.336  29.311  24.959  1.00  0.00     0.005 A 
ATOM     28  C   UNL A   1      30.616  23.318  25.612  1.00  0.00     0.000 A 
ATOM     29  C   UNL A   1      31.887  24.844  27.016  1.00  0.00     0.009 A 
ATOM     30  C   UNL A   1      32.478  28.024  27.211  1.00  0.00     0.009 A 
ATOM     31  C   UNL A   1      31.986  30.049  25.950  1.00  0.00     0.000 A 
ATOM     32  C   UNL A   1      31.427  23.556  26.731  1.00  0.00     0.001 A 
ATOM     33  C   UNL A   1      32.554  29.412  27.065  1.00  0.00     0.001 A 
ENDBRANCH  20  21
ENDBRANCH  19  20
ENDBRANCH  17  19
ENDBRANCH  13  17
ENDBRANCH   5   6
ENDBRANCH   2   5
BRANCH   3  34
ATOM     34  C   UNL A   1      36.673  19.196  24.985  1.00  0.00     0.117 C 
BRANCH  34  35
ATOM     35  C   UNL A   1      37.888  20.057  24.655  1.00  0.00     0.042 C 
BRANCH  35  36
ATOM     36  C   UNL A   1      38.890  20.215  25.798  1.00  0.00     0.118 C 
BRANCH  36  37
ATOM     37  N   UNL A   1      39.909  19.174  25.822  1.00  0.00    -0.352 N 
ATOM     38  C   UNL A   1      41.262  19.253  26.044  1.00  0.00     0.251 C 
ATOM     39  H   UNL A   1      39.572  18.265  25.651  1.00  0.00     0.163 HD
ATOM     40  O   UNL A   1      41.959  18.254  25.901  1.00  0.00    -0.269 OA
BRANCH  38  41
ATOM     41  C   UNL A   1      41.899  20.535  26.423  1.00  0.00     0.039 A 
ATOM     42  C   UNL A   1      42.426  21.343  25.410  1.00  0.00     0.014 A 
ATOM     43  C   UNL A   1      42.003  20.937  27.757  1.00  0.00     0.014 A 
ATOM     44  C   UNL A   1      42.977  22.588  25.723  1.00  0.00     0.010 A 
ATOM     45  C   UNL A   1      42.499  22.204  28.064  1.00  0.00     0.010 A 
ATOM     46  C   UNL A   1      42.975  23.049  27.049  1.00  0.00    -0.014 A 
BRANCH  46  47
ATOM     47  C   UNL A   1      43.419  24.426  27.387  1.00  0.00     0.031 A 
ATOM     48  C   UNL A   1      42.439  25.446  27.888  1.00  0.00     0.074 A 
ATOM     49  C   UNL A   1      44.701  24.778  27.166  1.00  0.00     0.049 A 
ATOM     50  N   UNL A   1      42.623  26.720  28.133  1.00  0.00    -0.248 NA
ATOM     51  C   UNL A   1      41.065  24.981  28.124  1.00  0.00     0.031 C 
ATOM     52  C   UNL A   1      45.743  23.890  26.648  1.00  0.00     0.029 A 
ATOM     53  N   UNL A   1      45.341  25.982  27.329  1.00  0.00    -0.354 N 
ATOM     54  C   UNL A   1      41.390  27.211  28.538  1.00  0.00     0.074 A 
ATOM     55  C   UNL A   1      40.455  26.107  28.472  1.00  0.00     0.031 C 
ATOM     56  C   UNL A   1      46.893  24.576  26.545  1.00  0.00     0.029 A 
ATOM     57  C   UNL A   1      46.660  25.958  26.949  1.00  0.00     0.049 A 
ATOM     58  H   UNL A   1      44.896  26.785  27.684  1.00  0.00     0.167 HD
ATOM     59  C   UNL A   1      41.070  28.463  28.943  1.00  0.00     0.037 A 
ATOM     60  C   UNL A   1      47.577  26.944  26.911  1.00  0.00     0.037 A 
ATOM     61  C   UNL A   1      42.005  29.556  29.032  1.00  0.00     0.049 A 
ATOM     62  C   UNL A   1      47.190  28.330  27.346  1.00  0.00     0.074 A 
ATOM     63  C   UNL A   1      41.788  30.841  29.497  1.00  0.00     0.029 A 
ATOM     64  N   UNL A   1      43.334  29.492  28.641  1.00  0.00    -0.354 N 
ATOM     65  N   UNL A   1      46.034  28.767  27.783  1.00  0.00    -0.248 NA
ATOM     66  C   UNL A   1      48.236  29.360  27.282  1.00  0.00     0.031 C 
ATOM     67  C   UNL A   1      42.974  31.568  29.349  1.00  0.00     0.029 A 
ATOM     68  C   UNL A   1      43.941  30.724  28.831  1.00  0.00     0.049 A 
ATOM     69  H   UNL A   1      43.780  28.691  28.283  1.00  0.00     0.167 HD
ATOM     70  C   UNL A   1      46.218  30.114  28.061  1.00  0.00     0.074 A 
ATOM     71  C   UNL A   1      47.600  30.420  27.761  1.00  0.00     0.031 C 
ATOM     72  C   UNL A   1      45.317  31.016  28.523  1.00  0.00     0.037 A 
BRANCH  59  73
ATOM     73  C   UNL A   1      39.643  28.726  29.326  1.00  0.00     0.064 A 
ATOM     74  C   UNL A   1      39.184  28.518  30.634  1.00  0.00     0.173 A 
ATOM     75  C   UNL A   1      38.737  29.236  28.384  1.00  0.00     0.173 A 
ATOM     76  F   UNL A   1      40.010  28.023  31.569  1.00  0.00    -0.203 F 
ATOM     77  C   UNL A   1      37.863  28.788  30.981  1.00  0.00     0.198 A 
ATOM     78  C   UNL A   1      37.423  29.530  28.741  1.00  0.00     0.198 A 
ATOM     79  F   UNL A   1      39.127  29.459  27.121  1.00  0.00    -0.203 F 
ATOM     80  F   UNL A   1      37.436  28.545  32.228  1.00  0.00    -0.200 F 
ATOM     81  C   UNL A   1      36.986  29.299  30.036  1.00  0.00     0.200 A 
ATOM     82  F   UNL A   1      36.580  30.034  27.830  1.00  0.00    -0.200 F 
ATOM     83  F   UNL A   1      35.717  29.567  30.374  1.00  0.00    -0.200 F 
ENDBRANCH  59  73
BRANCH  60  84
ATOM     84  C   UNL A   1      48.957  26.652  26.447  1.00  0.00     0.064 A 
ATOM     85  C   UNL A   1      49.331  26.885  25.118  1.00  0.00     0.173 A 
ATOM     86  C   UNL A   1      49.926  26.137  27.320  1.00  0.00     0.173 A 
ATOM     87  F   UNL A   1      48.430  27.354  24.242  1.00  0.00    -0.203 F 
ATOM     88  C   UNL A   1      50.619  26.598  24.673  1.00  0.00     0.198 A 
ATOM     89  C   UNL A   1      51.222  25.875  26.881  1.00  0.00     0.198 A 
ATOM     90  F   UNL A   1      49.617  25.900  28.604  1.00  0.00    -0.203 F 
ATOM     91  F   UNL A   1      50.940  26.791  23.387  1.00  0.00    -0.200 F 
ATOM     92  C   UNL A   1      51.566  26.100  25.556  1.00  0.00     0.200 A 
ATOM     93  F   UNL A   1      52.136  25.404  27.740  1.00  0.00    -0.200 F 
ATOM     94  F   UNL A   1      52.806  25.829  25.129  1.00  0.00    -0.200 F 
ENDBRANCH  60  84
BRANCH  72  95
ATOM     95  C   UNL A   1      45.806  32.417  28.746  1.00  0.00     0.064 A 
ATOM     96  C   UNL A   1      45.780  33.374  27.721  1.00  0.00     0.173 A 
ATOM     97  C   UNL A   1      46.276  32.816  30.007  1.00  0.00     0.173 A 
ATOM     98  F   UNL A   1      45.357  33.035  26.494  1.00  0.00    -0.203 F 
ATOM     99  C   UNL A   1      46.225  34.674  27.944  1.00  0.00     0.198 A 
ATOM    100  C   UNL A   1      46.695  34.123  30.234  1.00  0.00     0.198 A 
ATOM    101  F   UNL A   1      46.317  31.939  31.022  1.00  0.00    -0.203 F 
ATOM    102  F   UNL A   1      46.231  35.560  26.939  1.00  0.00    -0.200 F 
ATOM    103  C   UNL A   1      46.676  35.049  29.202  1.00  0.00     0.200 A 
ATOM    104  F   UNL A   1      47.123  34.487  31.450  1.00  0.00    -0.200 F 
ATOM    105  F   UNL A   1      47.100  36.302  29.415  1.00  0.00    -0.200 F 
ENDBRANCH  72  95
ENDBRANCH  46  47
ENDBRANCH  38  41
ENDBRANCH  36  37
ENDBRANCH  35  36
ENDBRANCH  34  35
ENDBRANCH   3  34
TORSDOF 15
ENDMDL
MODEL 2
REMARK VINA RESULT:     -13.4      1.071      2.165
REMARK SMILES O=C(CN1C(=O)CN(C(=O)OCC2c3ccccc3-c3ccccc32)c2ccccc21)NCCCNC(=O)c1ccc(-c2c3nc(c(-c4c(F)c(F)c(F)c(F)c4F)c4ccc([nH]4)c(-c4c(F)c(F)c(F)c(F)c4F)c4nc(c(-c5c(F)c(F)c(F)c(F)c5F)c5ccc2[nH]5)C=C4)C=C3)cc1
REMARK SMILES IDX 1 1 2 2 32 3 3 5 4 6 5 7 31 8 6 9 7 10 26 11 30 12 8 13
REMARK SMILES IDX 27 14 29 15 28 16 9 17 10 18 11 19 12 20 13 21 14 22 25 23
REMARK SMILES IDX 15 24 19 25 20 26 24 27 16 28 18 29 21 30 23 31 17 32 22 33
REMARK SMILES IDX 33 34 34 35 35 36 36 37 37 38 38 40 39 41 40 42 101 43 41 44
REMARK SMILES IDX 100 45 42 46 43 47 44 48 94 49 45 50 99 51 93 52 95 53 46 54
REMARK SMILES IDX 98 55 92 56 91 57 47 59 79 60 59 61 78 62 60 63 63 64 77 65
REMARK SMILES IDX 96 66 61 67 62 68 76 70 97 71 64 72 48 73 49 74 57 75 50 76
REMARK SMILES IDX 51 77 55 78 58 79 52 80 53 81 56 82 54 83 80 84 81 85 89 86
REMARK SMILES IDX 82 87 83 88 87 89 90 90 84 91 85 92 88 93 86 94 65 95 66 96
REMARK SMILES IDX 74 97 67 98 68 99 72 100 75 101 69 102 70 103 73 104 71 105
REMARK H PARENT 32 4 36 39 95 58 63 69
REMARK Flexibility Score: inf
ROOT
ATOM      1  O   UNL A   1      34.107  18.272  24.214  1.00  0.00    -0.273 OA
ATOM      2  C   UNL A   1      34.220  19.384  24.721  1.00  0.00     0.240 C 
ATOM      3  N   UNL A   1      35.429  19.937  25.084  1.00  0.00    -0.354 N 
ATOM      4  H   UNL A   1      35.434  20.862  25.423  1.00  0.00     0.163 HD
ENDROOT
BRANCH   2   5
ATOM      5  C   UNL A   1      33.024  20.324  24.887  1.00  0.00     0.225 C 
BRANCH   5   6
ATOM      6  N   UNL A   1      33.112  21.502  24.016  1.00  0.00    -0.299 N 
ATOM      7  C   UNL A   1      32.526  21.420  22.764  1.00  0.00     0.247 C 
ATOM      8  C   UNL A   1      33.766  22.697  24.453  1.00  0.00     0.068 A 
ATOM      9  O   UNL A   1      32.099  20.350  22.315  1.00  0.00    -0.272 OA
ATOM     10  C   UNL A   1      32.642  22.631  21.870  1.00  0.00     0.229 C 
ATOM     11  C   UNL A   1      33.605  23.907  23.731  1.00  0.00     0.071 A 
ATOM     12  C   UNL A   1      34.518  22.704  25.643  1.00  0.00     0.028 A 
ATOM     13  N   UNL A   1      32.813  23.910  22.540  1.00  0.00    -0.266 N 
ATOM     14  C   UNL A   1      34.157  25.084  24.266  1.00  0.00     0.029 A 
ATOM     15  C   UNL A   1      35.066  23.884  26.146  1.00  0.00     0.002 A 
ATOM     16  C   UNL A   1      34.876  25.074  25.462  1.00  0.00     0.002 A 
BRANCH  13  17
ATOM     17  C   UNL A   1      32.281  25.057  21.954  1.00  0.00     0.414 C 
ATOM     18  O   UNL A   1      32.568  25.516  20.860  1.00  0.00    -0.224 OA
BRANCH  17  19
ATOM     19  O   UNL A   1      31.458  25.712  22.826  1.00  0.00    -0.448 OA
BRANCH  19  20
ATOM     20  C   UNL A   1      31.662  27.133  22.976  1.00  0.00     0.248 C 
BRANCH  20  21
ATOM     21  C   UNL A   1      30.786  27.695  24.113  1.00  0.00     0.088 C 
ATOM     22  C   UNL A   1      31.572  28.456  25.182  1.00  0.00    -0.029 A 
ATOM     23  C   UNL A   1      29.848  28.786  23.601  1.00  0.00    -0.029 A 
ATOM     24  C   UNL A   1      32.497  27.974  26.096  1.00  0.00     0.005 A 
ATOM     25  C   UNL A   1      31.209  29.819  25.178  1.00  0.00    -0.014 A 
ATOM     26  C   UNL A   1      30.138  30.017  24.226  1.00  0.00    -0.014 A 
ATOM     27  C   UNL A   1      28.814  28.674  22.683  1.00  0.00     0.005 A 
ATOM     28  C   UNL A   1      33.129  28.881  26.950  1.00  0.00     0.000 A 
ATOM     29  C   UNL A   1      31.829  30.721  26.031  1.00  0.00     0.009 A 
ATOM     30  C   UNL A   1      29.402  31.152  23.927  1.00  0.00     0.009 A 
ATOM     31  C   UNL A   1      28.071  29.817  22.384  1.00  0.00     0.000 A 
ATOM     32  C   UNL A   1      32.806  30.245  26.909  1.00  0.00     0.001 A 
ATOM     33  C   UNL A   1      28.364  31.046  22.998  1.00  0.00     0.001 A 
ENDBRANCH  20  21
ENDBRANCH  19  20
ENDBRANCH  17  19
ENDBRANCH  13  17
ENDBRANCH   5   6
ENDBRANCH   2   5
BRANCH   3  34
ATOM     34  C   UNL A   1      36.691  19.236  24.997  1.00  0.00     0.117 C 
BRANCH  34  35
ATOM     35  C   UNL A   1      37.851  20.168  24.663  1.00  0.00     0.042 C 
BRANCH  35  36
ATOM     36  C   UNL A   1      38.880  20.335  25.780  1.00  0.00     0.118 C 
BRANCH  36  37
ATOM     37  N   UNL A   1      39.905  19.300  25.783  1.00  0.00    -0.352 N 
ATOM     38  C   UNL A   1      41.251  19.375  26.050  1.00  0.00     0.251 C 
ATOM     39  H   UNL A   1      39.581  18.399  25.555  1.00  0.00     0.163 HD
ATOM     40  O   UNL A   1      41.959  18.388  25.877  1.00  0.00    -0.269 OA
BRANCH  38  41
ATOM     41  C   UNL A   1      41.866  20.640  26.512  1.00  0.00     0.039 A 
ATOM     42  C   UNL A   1      42.352  21.535  25.553  1.00  0.00     0.014 A 
ATOM     43  C   UNL A   1      41.993  20.941  27.870  1.00  0.00     0.014 A 
ATOM     44  C   UNL A   1      42.881  22.765  25.949  1.00  0.00     0.010 A 
ATOM     45  C   UNL A   1      42.467  22.192  28.264  1.00  0.00     0.010 A 
ATOM     46  C   UNL A   1      42.900  23.123  27.306  1.00  0.00    -0.014 A 
BRANCH  46  47
ATOM     47  C   UNL A   1      43.320  24.481  27.740  1.00  0.00     0.031 A 
ATOM     48  C   UNL A   1      42.300  25.533  28.063  1.00  0.00     0.074 A 
ATOM     49  C   UNL A   1      44.632  24.788  27.765  1.00  0.00     0.049 A 
ATOM     50  N   UNL A   1      42.478  26.798  28.355  1.00  0.00    -0.248 NA
ATOM     51  C   UNL A   1      40.890  25.117  28.033  1.00  0.00     0.031 C 
ATOM     52  C   UNL A   1      45.721  23.867  27.438  1.00  0.00     0.029 A 
ATOM     53  N   UNL A   1      45.271  25.967  28.061  1.00  0.00    -0.354 N 
ATOM     54  C   UNL A   1      41.209  27.330  28.531  1.00  0.00     0.074 A 
ATOM     55  C   UNL A   1      40.265  26.261  28.277  1.00  0.00     0.031 C 
ATOM     56  C   UNL A   1      46.893  24.511  27.559  1.00  0.00     0.029 A 
ATOM     57  C   UNL A   1      46.637  25.898  27.932  1.00  0.00     0.049 A 
ATOM     58  H   UNL A   1      44.796  26.783  28.338  1.00  0.00     0.167 HD
ATOM     59  C   UNL A   1      40.863  28.590  28.886  1.00  0.00     0.037 A 
ATOM     60  C   UNL A   1      47.578  26.850  28.079  1.00  0.00     0.037 A 
ATOM     61  C   UNL A   1      41.801  29.648  29.162  1.00  0.00     0.049 A 
ATOM     62  C   UNL A   1      47.164  28.246  28.453  1.00  0.00     0.074 A 
ATOM     63  C   UNL A   1      41.546  30.937  29.596  1.00  0.00     0.029 A 
ATOM     64  N   UNL A   1      43.177  29.539  29.024  1.00  0.00    -0.354 N 
ATOM     65  N   UNL A   1      45.964  28.722  28.673  1.00  0.00    -0.248 NA
ATOM     66  C   UNL A   1      48.239  29.238  28.598  1.00  0.00     0.031 C 
ATOM     67  C   UNL A   1      42.763  31.622  29.681  1.00  0.00     0.029 A 
ATOM     68  C   UNL A   1      43.781  30.747  29.340  1.00  0.00     0.049 A 
ATOM     69  H   UNL A   1      43.654  28.725  28.745  1.00  0.00     0.167 HD
ATOM     70  C   UNL A   1      46.138  30.059  28.999  1.00  0.00     0.074 A 
ATOM     71  C   UNL A   1      47.562  30.317  28.964  1.00  0.00     0.031 C 
ATOM     72  C   UNL A   1      45.199  30.990  29.297  1.00  0.00     0.037 A 
BRANCH  59  73
ATOM     73  C   UNL A   1      39.399  28.902  29.001  1.00  0.00     0.064 A 
ATOM     74  C   UNL A   1      38.723  28.809  30.226  1.00  0.00     0.173 A 
ATOM     75  C   UNL A   1      38.677  29.344  27.882  1.00  0.00     0.173 A 
ATOM     76  F   UNL A   1      39.368  28.383  31.322  1.00  0.00    -0.203 F 
ATOM     77  C   UNL A   1      37.371  29.124  30.322  1.00  0.00     0.198 A 
ATOM     78  C   UNL A   1      37.330  29.683  27.988  1.00  0.00     0.198 A 
ATOM     79  F   UNL A   1      39.278  29.456  26.689  1.00  0.00    -0.203 F 
ATOM     80  F   UNL A   1      36.734  28.991  31.494  1.00  0.00    -0.200 F 
ATOM     81  C   UNL A   1      36.677  29.566  29.205  1.00  0.00     0.200 A 
ATOM     82  F   UNL A   1      36.665  30.120  26.910  1.00  0.00    -0.200 F 
ATOM     83  F   UNL A   1      35.377  29.877  29.301  1.00  0.00    -0.200 F 
ENDBRANCH  59  73
BRANCH  60  84
ATOM     84  C   UNL A   1      49.009  26.512  27.875  1.00  0.00     0.064 A 
ATOM     85  C   UNL A   1      49.841  26.227  28.966  1.00  0.00     0.173 A 
ATOM     86  C   UNL A   1      49.573  26.467  26.592  1.00  0.00     0.173 A 
ATOM     87  F   UNL A   1      49.351  26.281  30.213  1.00  0.00    -0.203 F 
ATOM     88  C   UNL A   1      51.188  25.925  28.783  1.00  0.00     0.198 A 
ATOM     89  C   UNL A   1      50.914  26.140  26.408  1.00  0.00     0.198 A 
ATOM     90  F   UNL A   1      48.817  26.730  25.516  1.00  0.00    -0.203 F 
ATOM     91  F   UNL A   1      51.972  25.695  29.845  1.00  0.00    -0.200 F 
ATOM     92  C   UNL A   1      51.723  25.875  27.503  1.00  0.00     0.200 A 
ATOM     93  F   UNL A   1      51.424  26.082  25.170  1.00  0.00    -0.200 F 
ATOM     94  F   UNL A   1      53.017  25.580  27.328  1.00  0.00    -0.200 F 
ENDBRANCH  60  84
BRANCH  72  95
ATOM     95  C   UNL A   1      45.685  32.371  29.626  1.00  0.00     0.064 A 
ATOM     96  C   UNL A   1      45.905  33.328  28.625  1.00  0.00     0.173 A 
ATOM     97  C   UNL A   1      45.904  32.751  30.959  1.00  0.00     0.173 A 
ATOM     98  F   UNL A   1      45.728  33.006  27.335  1.00  0.00    -0.203 F 
ATOM     99  C   UNL A   1      46.345  34.609  28.944  1.00  0.00     0.198 A 
ATOM    100  C   UNL A   1      46.318  34.041  31.277  1.00  0.00     0.198 A 
ATOM    101  F   UNL A   1      45.704  31.873  31.954  1.00  0.00    -0.203 F 
ATOM    102  F   UNL A   1      46.590  35.495  27.968  1.00  0.00    -0.200 F 
ATOM    103  C   UNL A   1      46.545  34.967  30.270  1.00  0.00     0.200 A 
ATOM    104  F   UNL A   1      46.503  34.388  32.558  1.00  0.00    -0.200 F 
ATOM    105  F   UNL A   1      46.965  36.203  30.575  1.00  0.00    -0.200 F 
ENDBRANCH  72  95
ENDBRANCH  46  47
ENDBRANCH  38  41
ENDBRANCH  36  37
ENDBRANCH  35  36
ENDBRANCH  34  35
ENDBRANCH   3  34
TORSDOF 15
ENDMDL
MODEL 3
REMARK VINA RESULT:     -13.2      1.312      7.242
REMARK SMILES O=C(CN1C(=O)CN(C(=O)OCC2c3ccccc3-c3ccccc32)c2ccccc21)NCCCNC(=O)c1ccc(-c2c3nc(c(-c4c(F)c(F)c(F)c(F)c4F)c4ccc([nH]4)c(-c4c(F)c(F)c(F)c(F)c4F)c4nc(c(-c5c(F)c(F)c(F)c(F)c5F)c5ccc2[nH]5)C=C4)C=C3)cc1
REMARK SMILES IDX 1 1 2 2 32 3 3 5 4 6 5 7 31 8 6 9 7 10 26 11 30 12 8 13
REMARK SMILES IDX 27 14 29 15 28 16 9 17 10 18 11 19 12 20 13 21 14 22 25 23
REMARK SMILES IDX 15 24 19 25 20 26 24 27 16 28 18 29 21 30 23 31 17 32 22 33
REMARK SMILES IDX 33 34 34 35 35 36 36 37 37 38 38 40 39 41 40 42 101 43 41 44
REMARK SMILES IDX 100 45 42 46 43 47 44 48 94 49 45 50 99 51 93 52 95 53 46 54
REMARK SMILES IDX 98 55 92 56 91 57 47 59 79 60 59 61 78 62 60 63 63 64 77 65
REMARK SMILES IDX 96 66 61 67 62 68 76 70 97 71 64 72 48 73 49 74 57 75 50 76
REMARK SMILES IDX 51 77 55 78 58 79 52 80 53 81 56 82 54 83 80 84 81 85 89 86
REMARK SMILES IDX 82 87 83 88 87 89 90 90 84 91 85 92 88 93 86 94 65 95 66 96
REMARK SMILES IDX 74 97 67 98 68 99 72 100 75 101 69 102 70 103 73 104 71 105
REMARK H PARENT 32 4 36 39 95 58 63 69
REMARK Flexibility Score: inf
ROOT
ATOM      1  O   UNL A   1      36.877  21.204  24.308  1.00  0.00    -0.273 OA
ATOM      2  C   UNL A   1      36.618  21.590  25.444  1.00  0.00     0.240 C 
ATOM      3  N   UNL A   1      37.557  22.125  26.301  1.00  0.00    -0.354 N 
ATOM      4  H   UNL A   1      37.249  22.471  27.170  1.00  0.00     0.163 HD
ENDROOT
BRANCH   2   5
ATOM      5  C   UNL A   1      35.185  21.628  25.980  1.00  0.00     0.225 C 
BRANCH   5   6
ATOM      6  N   UNL A   1      34.327  22.543  25.219  1.00  0.00    -0.299 N 
ATOM      7  C   UNL A   1      34.453  23.899  25.470  1.00  0.00     0.247 C 
ATOM      8  C   UNL A   1      33.406  22.051  24.240  1.00  0.00     0.068 A 
ATOM      9  O   UNL A   1      35.125  24.325  26.416  1.00  0.00    -0.272 OA
ATOM     10  C   UNL A   1      33.550  24.829  24.695  1.00  0.00     0.229 C 
ATOM     11  C   UNL A   1      32.794  22.941  23.322  1.00  0.00     0.071 A 
ATOM     12  C   UNL A   1      33.152  20.671  24.130  1.00  0.00     0.028 A 
ATOM     13  N   UNL A   1      33.077  24.341  23.410  1.00  0.00    -0.266 N 
ATOM     14  C   UNL A   1      31.998  22.401  22.297  1.00  0.00     0.029 A 
ATOM     15  C   UNL A   1      32.348  20.162  23.111  1.00  0.00     0.002 A 
ATOM     16  C   UNL A   1      31.780  21.027  22.189  1.00  0.00     0.002 A 
BRANCH  13  17
ATOM     17  C   UNL A   1      32.849  25.254  22.382  1.00  0.00     0.414 C 
ATOM     18  O   UNL A   1      33.634  25.571  21.503  1.00  0.00    -0.224 OA
BRANCH  17  19
ATOM     19  O   UNL A   1      31.644  25.877  22.543  1.00  0.00    -0.448 OA
BRANCH  19  20
ATOM     20  C   UNL A   1      31.663  27.315  22.664  1.00  0.00     0.248 C 
BRANCH  20  21
ATOM     21  C   UNL A   1      30.765  27.778  23.829  1.00  0.00     0.088 C 
ATOM     22  C   UNL A   1      31.528  28.459  24.967  1.00  0.00    -0.029 A 
ATOM     23  C   UNL A   1      29.824  28.898  23.390  1.00  0.00    -0.029 A 
ATOM     24  C   UNL A   1      32.444  27.914  25.854  1.00  0.00     0.005 A 
ATOM     25  C   UNL A   1      31.151  29.815  25.065  1.00  0.00    -0.014 A 
ATOM     26  C   UNL A   1      30.093  30.079  24.115  1.00  0.00    -0.014 A 
ATOM     27  C   UNL A   1      28.804  28.850  22.451  1.00  0.00     0.005 A 
ATOM     28  C   UNL A   1      33.054  28.757  26.786  1.00  0.00     0.000 A 
ATOM     29  C   UNL A   1      31.751  30.652  25.995  1.00  0.00     0.009 A 
ATOM     30  C   UNL A   1      29.351  31.227  23.895  1.00  0.00     0.009 A 
ATOM     31  C   UNL A   1      28.055  30.007  22.231  1.00  0.00     0.000 A 
ATOM     32  C   UNL A   1      32.719  30.117  26.848  1.00  0.00     0.001 A 
ATOM     33  C   UNL A   1      28.327  31.186  22.944  1.00  0.00     0.001 A 
ENDBRANCH  20  21
ENDBRANCH  19  20
ENDBRANCH  17  19
ENDBRANCH  13  17
ENDBRANCH   5   6
ENDBRANCH   2   5
BRANCH   3  34
ATOM     34  C   UNL A   1      38.968  22.205  25.995  1.00  0.00     0.117 C 
BRANCH  34  35
ATOM     35  C   UNL A   1      39.749  21.014  26.541  1.00  0.00     0.042 C 
BRANCH  35  36
ATOM     36  C   UNL A   1      39.705  19.764  25.662  1.00  0.00     0.118 C 
BRANCH  36  37
ATOM     37  N   UNL A   1      40.790  18.830  25.931  1.00  0.00    -0.352 N 
ATOM     38  C   UNL A   1      42.109  19.057  26.241  1.00  0.00     0.251 C 
ATOM     39  H   UNL A   1      40.537  17.880  25.881  1.00  0.00     0.163 HD
ATOM     40  O   UNL A   1      42.887  18.110  26.313  1.00  0.00    -0.269 OA
BRANCH  38  41
ATOM     41  C   UNL A   1      42.615  20.432  26.458  1.00  0.00     0.039 A 
ATOM     42  C   UNL A   1      43.028  21.173  25.346  1.00  0.00     0.014 A 
ATOM     43  C   UNL A   1      42.710  20.985  27.737  1.00  0.00     0.014 A 
ATOM     44  C   UNL A   1      43.451  22.495  25.505  1.00  0.00     0.010 A 
ATOM     45  C   UNL A   1      43.076  22.322  27.890  1.00  0.00     0.010 A 
ATOM     46  C   UNL A   1      43.433  23.095  26.773  1.00  0.00    -0.014 A 
BRANCH  46  47
ATOM     47  C   UNL A   1      43.737  24.540  26.947  1.00  0.00     0.031 A 
ATOM     48  C   UNL A   1      45.122  25.066  26.708  1.00  0.00     0.074 A 
ATOM     49  C   UNL A   1      42.774  25.366  27.400  1.00  0.00     0.049 A 
ATOM     50  N   UNL A   1      45.597  26.270  26.910  1.00  0.00    -0.248 NA
ATOM     51  C   UNL A   1      46.113  24.108  26.196  1.00  0.00     0.031 C 
ATOM     52  C   UNL A   1      41.397  24.972  27.704  1.00  0.00     0.029 A 
ATOM     53  N   UNL A   1      42.810  26.705  27.701  1.00  0.00    -0.354 N 
ATOM     54  C   UNL A   1      46.939  26.213  26.563  1.00  0.00     0.074 A 
ATOM     55  C   UNL A   1      47.215  24.846  26.173  1.00  0.00     0.031 C 
ATOM     56  C   UNL A   1      40.719  26.045  28.140  1.00  0.00     0.029 A 
ATOM     57  C   UNL A   1      41.621  27.191  28.185  1.00  0.00     0.049 A 
ATOM     58  H   UNL A   1      43.613  27.262  27.583  1.00  0.00     0.167 HD
ATOM     59  C   UNL A   1      47.854  27.213  26.556  1.00  0.00     0.037 A 
ATOM     60  C   UNL A   1      41.295  28.419  28.633  1.00  0.00     0.037 A 
ATOM     61  C   UNL A   1      47.574  28.577  26.922  1.00  0.00     0.049 A 
ATOM     62  C   UNL A   1      42.336  29.505  28.634  1.00  0.00     0.074 A 
ATOM     63  C   UNL A   1      48.419  29.673  26.880  1.00  0.00     0.029 A 
ATOM     64  N   UNL A   1      46.355  29.032  27.404  1.00  0.00    -0.354 N 
ATOM     65  N   UNL A   1      43.586  29.452  28.248  1.00  0.00    -0.248 NA
ATOM     66  C   UNL A   1      41.917  30.822  29.135  1.00  0.00     0.031 C 
ATOM     67  C   UNL A   1      47.726  30.782  27.376  1.00  0.00     0.029 A 
ATOM     68  C   UNL A   1      46.436  30.388  27.687  1.00  0.00     0.049 A 
ATOM     69  H   UNL A   1      45.552  28.477  27.525  1.00  0.00     0.167 HD
ATOM     70  C   UNL A   1      44.099  30.726  28.442  1.00  0.00     0.074 A 
ATOM     71  C   UNL A   1      43.020  31.537  28.964  1.00  0.00     0.031 C 
ATOM     72  C   UNL A   1      45.354  31.182  28.210  1.00  0.00     0.037 A 
BRANCH  59  73
ATOM     73  C   UNL A   1      49.253  26.870  26.138  1.00  0.00     0.064 A 
ATOM     74  C   UNL A   1      49.669  26.984  24.803  1.00  0.00     0.173 A 
ATOM     75  C   UNL A   1      50.202  26.467  27.089  1.00  0.00     0.173 A 
ATOM     76  F   UNL A   1      48.796  27.357  23.854  1.00  0.00    -0.203 F 
ATOM     77  C   UNL A   1      50.976  26.686  24.433  1.00  0.00     0.198 A 
ATOM     78  C   UNL A   1      51.516  26.194  26.719  1.00  0.00     0.198 A 
ATOM     79  F   UNL A   1      49.857  26.348  28.380  1.00  0.00    -0.203 F 
ATOM     80  F   UNL A   1      51.342  26.764  23.145  1.00  0.00    -0.200 F 
ATOM     81  C   UNL A   1      51.900  26.297  25.391  1.00  0.00     0.200 A 
ATOM     82  F   UNL A   1      52.410  25.829  27.648  1.00  0.00    -0.200 F 
ATOM     83  F   UNL A   1      53.162  26.018  25.034  1.00  0.00    -0.200 F 
ENDBRANCH  59  73
BRANCH  60  84
ATOM     84  C   UNL A   1      39.917  28.689  29.114  1.00  0.00     0.064 A 
ATOM     85  C   UNL A   1      38.930  29.159  28.237  1.00  0.00     0.173 A 
ATOM     86  C   UNL A   1      39.559  28.484  30.454  1.00  0.00     0.173 A 
ATOM     87  F   UNL A   1      39.233  29.392  26.952  1.00  0.00    -0.203 F 
ATOM     88  C   UNL A   1      37.640  29.429  28.687  1.00  0.00     0.198 A 
ATOM     89  C   UNL A   1      38.262  28.730  30.897  1.00  0.00     0.198 A 
ATOM     90  F   UNL A   1      40.468  28.033  31.331  1.00  0.00    -0.203 F 
ATOM     91  F   UNL A   1      36.725  29.916  27.838  1.00  0.00    -0.200 F 
ATOM     92  C   UNL A   1      37.304  29.208  30.015  1.00  0.00     0.200 A 
ATOM     93  F   UNL A   1      37.939  28.505  32.178  1.00  0.00    -0.200 F 
ATOM     94  F   UNL A   1      36.062  29.464  30.445  1.00  0.00    -0.200 F 
ENDBRANCH  60  84
BRANCH  72  95
ATOM     95  C   UNL A   1      45.623  32.628  28.504  1.00  0.00     0.064 A 
ATOM     96  C   UNL A   1      45.441  33.620  27.530  1.00  0.00     0.173 A 
ATOM     97  C   UNL A   1      46.036  33.030  29.784  1.00  0.00     0.173 A 
ATOM     98  F   UNL A   1      45.065  33.283  26.287  1.00  0.00    -0.203 F 
ATOM     99  C   UNL A   1      45.683  34.960  27.819  1.00  0.00     0.198 A 
ATOM    100  C   UNL A   1      46.251  34.374  30.077  1.00  0.00     0.198 A 
ATOM    101  F   UNL A   1      46.220  32.120  30.752  1.00  0.00    -0.203 F 
ATOM    102  F   UNL A   1      45.544  35.887  26.860  1.00  0.00    -0.200 F 
ATOM    103  C   UNL A   1      46.081  35.337  29.094  1.00  0.00     0.200 A 
ATOM    104  F   UNL A   1      46.627  34.737  31.311  1.00  0.00    -0.200 F 
ATOM    105  F   UNL A   1      46.309  36.628  29.372  1.00  0.00    -0.200 F 
ENDBRANCH  72  95
ENDBRANCH  46  47
ENDBRANCH  38  41
ENDBRANCH  36  37
ENDBRANCH  35  36
ENDBRANCH  34  35
ENDBRANCH   3  34
TORSDOF 15
ENDMDL
