MODEL 1
REMARK VINA RESULT:     -13.5      0.000      0.000
REMARK SMILES COc1c(C)cc(Br)cc1C(=O)Nc1ccc(O)c(C(=O)NCCCNC(=O)c2ccc(-c3c4nc(c(-c5c(F)c(F)c(F)c(F)c5F)c5ccc([nH]5)c(-c5c(F)c(F)c(F)c(F)c5F)c5nc(c(-c6c(F)c(F)c(F)c(F)c6F)c6ccc3[nH]6)C=C5)C=C4)cc2)c1
REMARK SMILES IDX 23 1 22 2 20 3 21 4 19 6 14 7 15 8 92 9 16 10 17 11 13 12
REMARK SMILES IDX 11 13 12 14 10 16 3 17 4 18 5 19 6 20 9 21 7 22 8 23 2 24
REMARK SMILES IDX 1 25 18 26 24 28 25 29 26 30 27 31 28 33 29 34 30 35 91 36
REMARK SMILES IDX 31 37 90 38 32 39 33 40 34 41 84 42 35 43 89 44 83 45 85 46
REMARK SMILES IDX 36 47 88 48 82 49 81 50 37 52 69 53 49 54 68 55 50 56 53 57
REMARK SMILES IDX 67 58 86 59 51 60 52 61 66 63 87 64 54 65 38 66 39 67 47 68
REMARK SMILES IDX 40 69 41 70 45 71 48 72 42 73 43 74 46 75 44 76 70 77 71 78
REMARK SMILES IDX 79 79 72 80 73 81 77 82 80 83 74 84 75 85 78 86 76 87 55 88
REMARK SMILES IDX 56 89 64 90 57 91 58 92 62 93 65 94 59 95 60 96 63 97 61 98
REMARK H PARENT 22 5 13 15 18 27 26 32 85 51 53 62
REMARK Flexibility Score: inf
ROOT
ATOM      1  C   UNL A   1      31.518  30.455  26.234  1.00  0.00     0.118 C 
ENDROOT
BRANCH   1   2
ATOM      2  N   UNL A   1      32.406  30.163  25.128  1.00  0.00    -0.352 N 
ATOM      3  C   UNL A   1      32.442  29.127  24.232  1.00  0.00     0.255 C 
ATOM      4  O   UNL A   1      33.250  29.234  23.304  1.00  0.00    -0.269 OA
ATOM      5  H   UNL A   1      33.115  30.833  24.997  1.00  0.00     0.163 HD
BRANCH   3   6
ATOM      6  C   UNL A   1      31.574  27.916  24.258  1.00  0.00     0.083 A 
ATOM      7  C   UNL A   1      30.775  26.070  25.627  1.00  0.00     0.042 A 
ATOM      8  C   UNL A   1      29.762  25.808  24.714  1.00  0.00     0.030 A 
ATOM      9  C   UNL A   1      31.586  27.194  25.469  1.00  0.00     0.043 A 
ATOM     10  C   UNL A   1      29.737  26.503  23.516  1.00  0.00     0.049 A 
ATOM     11  C   UNL A   1      30.698  27.480  23.261  1.00  0.00     0.128 A 
BRANCH   7  12
ATOM     12  N   UNL A   1      30.983  25.216  26.713  1.00  0.00    -0.322 N 
ATOM     13  C   UNL A   1      31.092  23.838  26.675  1.00  0.00     0.259 C 
ATOM     14  O   UNL A   1      30.439  23.168  27.477  1.00  0.00    -0.269 OA
ATOM     15  H   UNL A   1      31.060  25.640  27.598  1.00  0.00     0.170 HD
BRANCH  13  16
ATOM     16  C   UNL A   1      32.250  23.185  25.949  1.00  0.00     0.083 A 
ATOM     17  C   UNL A   1      33.600  23.577  25.895  1.00  0.00     0.134 A 
ATOM     18  C   UNL A   1      34.614  22.689  25.471  1.00  0.00    -0.007 A 
ATOM     19  C   UNL A   1      36.072  23.023  25.633  1.00  0.00     0.048 C 
ATOM     20  C   UNL A   1      34.245  21.501  24.841  1.00  0.00     0.023 A 
ATOM     21  C   UNL A   1      31.917  21.978  25.304  1.00  0.00     0.033 A 
ATOM     22  C   UNL A   1      32.899  21.177  24.719  1.00  0.00     0.019 A 
ATOM     23  Br  UNL A   1      32.399  19.621  23.770  1.00  0.00    -0.051 Br
BRANCH  17  24
ATOM     24  O   UNL A   1      33.989  24.874  26.097  1.00  0.00    -0.496 OA
ATOM     25  C   UNL A   1      34.339  25.475  24.838  1.00  0.00     0.278 C 
ENDBRANCH  17  24
ENDBRANCH  13  16
ENDBRANCH   7  12
BRANCH  11  26
ATOM     26  O   UNL A   1      30.720  27.920  21.979  1.00  0.00    -0.507 OA
ATOM     27  H   UNL A   1      30.558  28.823  21.791  1.00  0.00     0.293 HD
ENDBRANCH  11  26
ENDBRANCH   3   6
ENDBRANCH   1   2
BRANCH   1  28
ATOM     28  C   UNL A   1      31.402  31.954  26.497  1.00  0.00     0.042 C 
BRANCH  28  29
ATOM     29  C   UNL A   1      32.569  32.570  27.242  1.00  0.00     0.118 C 
BRANCH  29  30
ATOM     30  N   UNL A   1      32.361  33.975  27.548  1.00  0.00    -0.352 N 
ATOM     31  C   UNL A   1      32.985  34.766  28.480  1.00  0.00     0.251 C 
ATOM     32  H   UNL A   1      31.673  34.426  27.008  1.00  0.00     0.163 HD
ATOM     33  O   UNL A   1      32.533  35.883  28.735  1.00  0.00    -0.269 OA
BRANCH  31  34
ATOM     34  C   UNL A   1      34.183  34.279  29.201  1.00  0.00     0.039 A 
ATOM     35  C   UNL A   1      34.024  33.651  30.439  1.00  0.00     0.014 A 
ATOM     36  C   UNL A   1      35.464  34.450  28.668  1.00  0.00     0.014 A 
ATOM     37  C   UNL A   1      35.138  33.137  31.109  1.00  0.00     0.010 A 
ATOM     38  C   UNL A   1      36.557  33.855  29.286  1.00  0.00     0.010 A 
ATOM     39  C   UNL A   1      36.410  33.202  30.519  1.00  0.00    -0.014 A 
BRANCH  39  40
ATOM     40  C   UNL A   1      37.612  32.625  31.172  1.00  0.00     0.031 A 
ATOM     41  C   UNL A   1      38.347  31.495  30.503  1.00  0.00     0.074 A 
ATOM     42  C   UNL A   1      37.982  33.046  32.396  1.00  0.00     0.049 A 
ATOM     43  N   UNL A   1      39.318  30.749  30.964  1.00  0.00    -0.248 NA
ATOM     44  C   UNL A   1      37.905  31.136  29.146  1.00  0.00     0.031 C 
ATOM     45  C   UNL A   1      37.331  34.113  33.156  1.00  0.00     0.029 A 
ATOM     46  N   UNL A   1      38.985  32.612  33.227  1.00  0.00    -0.354 N 
ATOM     47  C   UNL A   1      39.582  29.818  29.966  1.00  0.00     0.074 A 
ATOM     48  C   UNL A   1      38.637  30.059  28.898  1.00  0.00     0.031 C 
ATOM     49  C   UNL A   1      37.956  34.258  34.335  1.00  0.00     0.029 A 
ATOM     50  C   UNL A   1      39.018  33.261  34.437  1.00  0.00     0.049 A 
ATOM     51  H   UNL A   1      39.620  31.902  32.979  1.00  0.00     0.167 HD
ATOM     52  C   UNL A   1      40.539  28.862  29.938  1.00  0.00     0.037 A 
ATOM     53  C   UNL A   1      39.800  33.058  35.514  1.00  0.00     0.037 A 
ATOM     54  C   UNL A   1      41.492  28.647  30.994  1.00  0.00     0.049 A 
ATOM     55  C   UNL A   1      40.841  31.970  35.467  1.00  0.00     0.074 A 
ATOM     56  C   UNL A   1      42.541  27.746  31.040  1.00  0.00     0.029 A 
ATOM     57  N   UNL A   1      41.506  29.340  32.196  1.00  0.00    -0.354 N 
ATOM     58  N   UNL A   1      41.123  31.137  34.496  1.00  0.00    -0.248 NA
ATOM     59  C   UNL A   1      41.673  31.795  36.666  1.00  0.00     0.031 C 
ATOM     60  C   UNL A   1      43.154  27.854  32.292  1.00  0.00     0.029 A 
ATOM     61  C   UNL A   1      42.529  28.867  33.001  1.00  0.00     0.049 A 
ATOM     62  H   UNL A   1      40.882  30.061  32.441  1.00  0.00     0.167 HD
ATOM     63  C   UNL A   1      42.186  30.366  34.949  1.00  0.00     0.074 A 
ATOM     64  C   UNL A   1      42.503  30.835  36.282  1.00  0.00     0.031 C 
ATOM     65  C   UNL A   1      42.843  29.363  34.318  1.00  0.00     0.037 A 
BRANCH  52  66
ATOM     66  C   UNL A   1      40.602  27.970  28.730  1.00  0.00     0.064 A 
ATOM     67  C   UNL A   1      39.888  26.763  28.664  1.00  0.00     0.173 A 
ATOM     68  C   UNL A   1      41.356  28.345  27.608  1.00  0.00     0.173 A 
ATOM     69  F   UNL A   1      39.160  26.351  29.712  1.00  0.00    -0.203 F 
ATOM     70  C   UNL A   1      39.954  25.951  27.535  1.00  0.00     0.198 A 
ATOM     71  C   UNL A   1      41.391  27.548  26.467  1.00  0.00     0.198 A 
ATOM     72  F   UNL A   1      42.052  29.492  27.613  1.00  0.00    -0.203 F 
ATOM     73  F   UNL A   1      39.309  24.777  27.518  1.00  0.00    -0.200 F 
ATOM     74  C   UNL A   1      40.699  26.348  26.434  1.00  0.00     0.200 A 
ATOM     75  F   UNL A   1      42.099  27.942  25.398  1.00  0.00    -0.200 F 
ATOM     76  F   UNL A   1      40.754  25.570  25.345  1.00  0.00    -0.200 F 
ENDBRANCH  52  66
BRANCH  53  77
ATOM     77  C   UNL A   1      39.640  33.909  36.724  1.00  0.00     0.064 A 
ATOM     78  C   UNL A   1      40.289  35.147  36.823  1.00  0.00     0.173 A 
ATOM     79  C   UNL A   1      38.844  33.503  37.806  1.00  0.00     0.173 A 
ATOM     80  F   UNL A   1      41.078  35.572  35.824  1.00  0.00    -0.203 F 
ATOM     81  C   UNL A   1      40.170  35.935  37.967  1.00  0.00     0.198 A 
ATOM     82  C   UNL A   1      38.699  34.307  38.934  1.00  0.00     0.198 A 
ATOM     83  F   UNL A   1      38.195  32.332  37.761  1.00  0.00    -0.203 F 
ATOM     84  F   UNL A   1      40.842  37.091  38.054  1.00  0.00    -0.200 F 
ATOM     85  C   UNL A   1      39.369  35.518  39.019  1.00  0.00     0.200 A 
ATOM     86  F   UNL A   1      37.909  33.909  39.942  1.00  0.00    -0.200 F 
ATOM     87  F   UNL A   1      39.248  36.278  40.115  1.00  0.00    -0.200 F 
ENDBRANCH  53  77
BRANCH  65  88
ATOM     88  C   UNL A   1      44.007  28.736  35.029  1.00  0.00     0.064 A 
ATOM     89  C   UNL A   1      43.861  27.587  35.820  1.00  0.00     0.173 A 
ATOM     90  C   UNL A   1      45.300  29.253  34.853  1.00  0.00     0.173 A 
ATOM     91  F   UNL A   1      42.643  27.063  36.031  1.00  0.00    -0.203 F 
ATOM     92  C   UNL A   1      44.964  26.989  36.420  1.00  0.00     0.198 A 
ATOM     93  C   UNL A   1      46.405  28.633  35.428  1.00  0.00     0.198 A 
ATOM     94  F   UNL A   1      45.494  30.347  34.100  1.00  0.00    -0.203 F 
ATOM     95  F   UNL A   1      44.798  25.914  37.204  1.00  0.00    -0.200 F 
ATOM     96  C   UNL A   1      46.236  27.505  36.215  1.00  0.00     0.200 A 
ATOM     97  F   UNL A   1      47.634  29.123  35.213  1.00  0.00    -0.200 F 
ATOM     98  F   UNL A   1      47.299  26.914  36.778  1.00  0.00    -0.200 F 
ENDBRANCH  65  88
ENDBRANCH  39  40
ENDBRANCH  31  34
ENDBRANCH  29  30
ENDBRANCH  28  29
ENDBRANCH   1  28
TORSDOF 14
ENDMDL
MODEL 2
REMARK VINA RESULT:     -13.4      5.435     10.827
REMARK SMILES COc1c(C)cc(Br)cc1C(=O)Nc1ccc(O)c(C(=O)NCCCNC(=O)c2ccc(-c3c4nc(c(-c5c(F)c(F)c(F)c(F)c5F)c5ccc([nH]5)c(-c5c(F)c(F)c(F)c(F)c5F)c5nc(c(-c6c(F)c(F)c(F)c(F)c6F)c6ccc3[nH]6)C=C5)C=C4)cc2)c1
REMARK SMILES IDX 23 1 22 2 20 3 21 4 19 6 14 7 15 8 92 9 16 10 17 11 13 12
REMARK SMILES IDX 11 13 12 14 10 16 3 17 4 18 5 19 6 20 9 21 7 22 8 23 2 24
REMARK SMILES IDX 1 25 18 26 24 28 25 29 26 30 27 31 28 33 29 34 30 35 91 36
REMARK SMILES IDX 31 37 90 38 32 39 33 40 34 41 84 42 35 43 89 44 83 45 85 46
REMARK SMILES IDX 36 47 88 48 82 49 81 50 37 52 69 53 49 54 68 55 50 56 53 57
REMARK SMILES IDX 67 58 86 59 51 60 52 61 66 63 87 64 54 65 38 66 39 67 47 68
REMARK SMILES IDX 40 69 41 70 45 71 48 72 42 73 43 74 46 75 44 76 70 77 71 78
REMARK SMILES IDX 79 79 72 80 73 81 77 82 80 83 74 84 75 85 78 86 76 87 55 88
REMARK SMILES IDX 56 89 64 90 57 91 58 92 62 93 65 94 59 95 60 96 63 97 61 98
REMARK H PARENT 22 5 13 15 18 27 26 32 85 51 53 62
REMARK Flexibility Score: inf
ROOT
ATOM      1  C   UNL A   1      36.446  20.690  25.136  1.00  0.00     0.118 C 
ENDROOT
BRANCH   1   2
ATOM      2  N   UNL A   1      35.276  19.878  24.875  1.00  0.00    -0.352 N 
ATOM      3  C   UNL A   1      33.939  20.107  25.074  1.00  0.00     0.255 C 
ATOM      4  O   UNL A   1      33.165  19.263  24.614  1.00  0.00    -0.269 OA
ATOM      5  H   UNL A   1      35.479  18.999  24.481  1.00  0.00     0.163 HD
BRANCH   3   6
ATOM      6  C   UNL A   1      33.346  21.292  25.756  1.00  0.00     0.083 A 
ATOM      7  C   UNL A   1      31.675  23.053  25.590  1.00  0.00     0.042 A 
ATOM      8  C   UNL A   1      31.805  23.328  26.945  1.00  0.00     0.030 A 
ATOM      9  C   UNL A   1      32.337  21.959  25.031  1.00  0.00     0.043 A 
ATOM     10  C   UNL A   1      32.795  22.688  27.671  1.00  0.00     0.049 A 
ATOM     11  C   UNL A   1      33.616  21.749  27.048  1.00  0.00     0.128 A 
BRANCH   7  12
ATOM     12  N   UNL A   1      30.874  23.861  24.780  1.00  0.00    -0.322 N 
ATOM     13  C   UNL A   1      30.689  25.227  24.898  1.00  0.00     0.259 C 
ATOM     14  O   UNL A   1      29.541  25.675  24.867  1.00  0.00    -0.269 OA
ATOM     15  H   UNL A   1      30.391  23.413  24.049  1.00  0.00     0.170 HD
BRANCH  13  16
ATOM     16  C   UNL A   1      31.850  26.175  24.684  1.00  0.00     0.083 A 
ATOM     17  C   UNL A   1      32.556  26.464  23.501  1.00  0.00     0.134 A 
ATOM     18  C   UNL A   1      33.375  27.610  23.387  1.00  0.00    -0.007 A 
ATOM     19  C   UNL A   1      33.939  28.045  22.062  1.00  0.00     0.048 C 
ATOM     20  C   UNL A   1      33.705  28.317  24.543  1.00  0.00     0.023 A 
ATOM     21  C   UNL A   1      32.210  26.912  25.829  1.00  0.00     0.033 A 
ATOM     22  C   UNL A   1      33.158  27.934  25.762  1.00  0.00     0.019 A 
ATOM     23  Br  UNL A   1      33.691  28.825  27.340  1.00  0.00    -0.051 Br
BRANCH  17  24
ATOM     24  O   UNL A   1      32.616  25.580  22.457  1.00  0.00    -0.496 OA
ATOM     25  C   UNL A   1      33.630  24.594  22.716  1.00  0.00     0.278 C 
ENDBRANCH  17  24
ENDBRANCH  13  16
ENDBRANCH   7  12
BRANCH  11  26
ATOM     26  O   UNL A   1      34.688  21.368  27.785  1.00  0.00    -0.507 OA
ATOM     27  H   UNL A   1      34.637  21.367  28.721  1.00  0.00     0.293 HD
ENDBRANCH  11  26
ENDBRANCH   3   6
ENDBRANCH   1   2
BRANCH   1  28
ATOM     28  C   UNL A   1      37.742  19.934  24.863  1.00  0.00     0.042 C 
BRANCH  28  29
ATOM     29  C   UNL A   1      38.919  20.339  25.728  1.00  0.00     0.118 C 
BRANCH  29  30
ATOM     30  N   UNL A   1      39.917  19.289  25.846  1.00  0.00    -0.352 N 
ATOM     31  C   UNL A   1      41.270  19.392  26.050  1.00  0.00     0.251 C 
ATOM     32  H   UNL A   1      39.572  18.370  25.770  1.00  0.00     0.163 HD
ATOM     33  O   UNL A   1      41.985  18.397  25.919  1.00  0.00    -0.269 OA
BRANCH  31  34
ATOM     34  C   UNL A   1      41.883  20.693  26.402  1.00  0.00     0.039 A 
ATOM     35  C   UNL A   1      42.147  21.617  25.386  1.00  0.00     0.014 A 
ATOM     36  C   UNL A   1      42.211  21.001  27.724  1.00  0.00     0.014 A 
ATOM     37  C   UNL A   1      42.675  22.871  25.705  1.00  0.00     0.010 A 
ATOM     38  C   UNL A   1      42.644  22.281  28.052  1.00  0.00     0.010 A 
ATOM     39  C   UNL A   1      42.893  23.226  27.046  1.00  0.00    -0.014 A 
BRANCH  39  40
ATOM     40  C   UNL A   1      43.405  24.565  27.433  1.00  0.00     0.031 A 
ATOM     41  C   UNL A   1      42.453  25.592  27.982  1.00  0.00     0.074 A 
ATOM     42  C   UNL A   1      44.692  24.887  27.203  1.00  0.00     0.049 A 
ATOM     43  N   UNL A   1      42.655  26.860  28.238  1.00  0.00    -0.248 NA
ATOM     44  C   UNL A   1      41.078  25.137  28.249  1.00  0.00     0.031 C 
ATOM     45  C   UNL A   1      45.703  23.987  26.647  1.00  0.00     0.029 A 
ATOM     46  N   UNL A   1      45.367  26.068  27.388  1.00  0.00    -0.354 N 
ATOM     47  C   UNL A   1      41.430  27.356  28.666  1.00  0.00     0.074 A 
ATOM     48  C   UNL A   1      40.479  26.269  28.589  1.00  0.00     0.031 C 
ATOM     49  C   UNL A   1      46.870  24.643  26.547  1.00  0.00     0.029 A 
ATOM     50  C   UNL A   1      46.678  26.024  26.981  1.00  0.00     0.049 A 
ATOM     51  H   UNL A   1      44.950  26.871  27.775  1.00  0.00     0.167 HD
ATOM     52  C   UNL A   1      41.132  28.602  29.103  1.00  0.00     0.037 A 
ATOM     53  C   UNL A   1      47.612  26.993  26.940  1.00  0.00     0.037 A 
ATOM     54  C   UNL A   1      42.091  29.670  29.200  1.00  0.00     0.049 A 
ATOM     55  C   UNL A   1      47.248  28.379  27.408  1.00  0.00     0.074 A 
ATOM     56  C   UNL A   1      41.908  30.952  29.687  1.00  0.00     0.029 A 
ATOM     57  N   UNL A   1      43.416  29.579  28.798  1.00  0.00    -0.354 N 
ATOM     58  N   UNL A   1      46.104  28.822  27.868  1.00  0.00    -0.248 NA
ATOM     59  C   UNL A   1      48.305  29.398  27.349  1.00  0.00     0.031 C 
ATOM     60  C   UNL A   1      43.105  31.655  29.525  1.00  0.00     0.029 A 
ATOM     61  C   UNL A   1      44.054  30.792  28.999  1.00  0.00     0.049 A 
ATOM     62  H   UNL A   1      43.840  28.773  28.425  1.00  0.00     0.167 HD
ATOM     63  C   UNL A   1      46.312  30.157  28.190  1.00  0.00     0.074 A 
ATOM     64  C   UNL A   1      47.696  30.451  27.876  1.00  0.00     0.031 C 
ATOM     65  C   UNL A   1      45.439  31.058  28.702  1.00  0.00     0.037 A 
BRANCH  52  66
ATOM     66  C   UNL A   1      39.710  28.883  29.501  1.00  0.00     0.064 A 
ATOM     67  C   UNL A   1      38.773  29.392  28.588  1.00  0.00     0.173 A 
ATOM     68  C   UNL A   1      39.270  28.605  30.804  1.00  0.00     0.173 A 
ATOM     69  F   UNL A   1      39.143  29.685  27.333  1.00  0.00    -0.203 F 
ATOM     70  C   UNL A   1      37.458  29.641  28.974  1.00  0.00     0.198 A 
ATOM     71  C   UNL A   1      37.945  28.822  31.176  1.00  0.00     0.198 A 
ATOM     72  F   UNL A   1      40.121  28.111  31.715  1.00  0.00    -0.203 F 
ATOM     73  F   UNL A   1      36.596  30.179  28.100  1.00  0.00    -0.200 F 
ATOM     74  C   UNL A   1      37.044  29.349  30.264  1.00  0.00     0.200 A 
ATOM     75  F   UNL A   1      37.544  28.523  32.419  1.00  0.00    -0.200 F 
ATOM     76  F   UNL A   1      35.776  29.581  30.631  1.00  0.00    -0.200 F 
ENDBRANCH  52  66
BRANCH  53  77
ATOM     77  C   UNL A   1      48.983  26.689  26.451  1.00  0.00     0.064 A 
ATOM     78  C   UNL A   1      49.967  26.203  27.324  1.00  0.00     0.173 A 
ATOM     79  C   UNL A   1      49.343  26.882  25.109  1.00  0.00     0.173 A 
ATOM     80  F   UNL A   1      49.678  26.020  28.621  1.00  0.00    -0.203 F 
ATOM     81  C   UNL A   1      51.262  25.946  26.880  1.00  0.00     0.198 A 
ATOM     82  C   UNL A   1      50.630  26.594  24.660  1.00  0.00     0.198 A 
ATOM     83  F   UNL A   1      48.440  27.339  24.230  1.00  0.00    -0.203 F 
ATOM     84  F   UNL A   1      52.195  25.529  27.748  1.00  0.00    -0.200 F 
ATOM     85  C   UNL A   1      51.592  26.135  25.547  1.00  0.00     0.200 A 
ATOM     86  F   UNL A   1      50.939  26.760  23.366  1.00  0.00    -0.200 F 
ATOM     87  F   UNL A   1      52.835  25.881  25.118  1.00  0.00    -0.200 F 
ENDBRANCH  53  77
BRANCH  65  88
ATOM     88  C   UNL A   1      45.956  32.433  29.011  1.00  0.00     0.064 A 
ATOM     89  C   UNL A   1      46.564  32.739  30.237  1.00  0.00     0.173 A 
ATOM     90  C   UNL A   1      45.907  33.439  28.032  1.00  0.00     0.173 A 
ATOM     91  F   UNL A   1      46.622  31.816  31.210  1.00  0.00    -0.203 F 
ATOM     92  C   UNL A   1      47.090  34.004  30.477  1.00  0.00     0.198 A 
ATOM     93  C   UNL A   1      46.464  34.693  28.264  1.00  0.00     0.198 A 
ATOM     94  F   UNL A   1      45.342  33.195  26.839  1.00  0.00    -0.203 F 
ATOM     95  F   UNL A   1      47.632  34.287  31.670  1.00  0.00    -0.200 F 
ATOM     96  C   UNL A   1      47.050  34.977  29.488  1.00  0.00     0.200 A 
ATOM     97  F   UNL A   1      46.439  35.624  27.300  1.00  0.00    -0.200 F 
ATOM     98  F   UNL A   1      47.575  36.188  29.716  1.00  0.00    -0.200 F 
ENDBRANCH  65  88
ENDBRANCH  39  40
ENDBRANCH  31  34
ENDBRANCH  29  30
ENDBRANCH  28  29
ENDBRANCH   1  28
TORSDOF 14
ENDMDL
MODEL 3
REMARK VINA RESULT:     -13.3      5.348     10.305
REMARK SMILES COc1c(C)cc(Br)cc1C(=O)Nc1ccc(O)c(C(=O)NCCCNC(=O)c2ccc(-c3c4nc(c(-c5c(F)c(F)c(F)c(F)c5F)c5ccc([nH]5)c(-c5c(F)c(F)c(F)c(F)c5F)c5nc(c(-c6c(F)c(F)c(F)c(F)c6F)c6ccc3[nH]6)C=C5)C=C4)cc2)c1
REMARK SMILES IDX 23 1 22 2 20 3 21 4 19 6 14 7 15 8 92 9 16 10 17 11 13 12
REMARK SMILES IDX 11 13 12 14 10 16 3 17 4 18 5 19 6 20 9 21 7 22 8 23 2 24
REMARK SMILES IDX 1 25 18 26 24 28 25 29 26 30 27 31 28 33 29 34 30 35 91 36
REMARK SMILES IDX 31 37 90 38 32 39 33 40 34 41 84 42 35 43 89 44 83 45 85 46
REMARK SMILES IDX 36 47 88 48 82 49 81 50 37 52 69 53 49 54 68 55 50 56 53 57
REMARK SMILES IDX 67 58 86 59 51 60 52 61 66 63 87 64 54 65 38 66 39 67 47 68
REMARK SMILES IDX 40 69 41 70 45 71 48 72 42 73 43 74 46 75 44 76 70 77 71 78
REMARK SMILES IDX 79 79 72 80 73 81 77 82 80 83 74 84 75 85 78 86 76 87 55 88
REMARK SMILES IDX 56 89 64 90 57 91 58 92 62 93 65 94 59 95 60 96 63 97 61 98
REMARK H PARENT 22 5 13 15 18 27 26 32 85 51 53 62
REMARK Flexibility Score: inf
ROOT
ATOM      1  C   UNL A   1      42.015  20.390  27.932  1.00  0.00     0.118 C 
ENDROOT
BRANCH   1   2
ATOM      2  N   UNL A   1      41.996  19.192  27.119  1.00  0.00    -0.352 N 
ATOM      3  C   UNL A   1      42.841  18.734  26.143  1.00  0.00     0.255 C 
ATOM      4  O   UNL A   1      42.629  17.592  25.725  1.00  0.00    -0.269 OA
ATOM      5  H   UNL A   1      41.234  18.597  27.303  1.00  0.00     0.163 HD
BRANCH   3   6
ATOM      6  C   UNL A   1      44.005  19.473  25.576  1.00  0.00     0.083 A 
ATOM      7  C   UNL A   1      44.803  21.638  24.801  1.00  0.00     0.042 A 
ATOM      8  C   UNL A   1      46.116  21.189  24.845  1.00  0.00     0.030 A 
ATOM      9  C   UNL A   1      43.772  20.833  25.290  1.00  0.00     0.043 A 
ATOM     10  C   UNL A   1      46.365  19.854  25.118  1.00  0.00     0.049 A 
ATOM     11  C   UNL A   1      45.303  18.991  25.385  1.00  0.00     0.128 A 
BRANCH   7  12
ATOM     12  N   UNL A   1      44.505  22.898  24.278  1.00  0.00    -0.322 N 
ATOM     13  C   UNL A   1      44.090  24.011  24.985  1.00  0.00     0.259 C 
ATOM     14  O   UNL A   1      43.119  24.648  24.572  1.00  0.00    -0.269 OA
ATOM     15  H   UNL A   1      44.603  23.005  23.304  1.00  0.00     0.170 HD
BRANCH  13  16
ATOM     16  C   UNL A   1      45.010  24.658  26.000  1.00  0.00     0.083 A 
ATOM     17  C   UNL A   1      45.982  25.658  25.809  1.00  0.00     0.134 A 
ATOM     18  C   UNL A   1      46.510  26.395  26.892  1.00  0.00    -0.007 A 
ATOM     19  C   UNL A   1      47.366  27.614  26.673  1.00  0.00     0.048 C 
ATOM     20  C   UNL A   1      46.271  25.944  28.190  1.00  0.00     0.023 A 
ATOM     21  C   UNL A   1      44.796  24.232  27.324  1.00  0.00     0.033 A 
ATOM     22  C   UNL A   1      45.456  24.838  28.395  1.00  0.00     0.019 A 
ATOM     23  Br  UNL A   1      45.222  24.166  30.145  1.00  0.00    -0.051 Br
BRANCH  17  24
ATOM     24  O   UNL A   1      46.581  25.867  24.596  1.00  0.00    -0.496 OA
ATOM     25  C   UNL A   1      47.602  24.876  24.384  1.00  0.00     0.278 C 
ENDBRANCH  17  24
ENDBRANCH  13  16
ENDBRANCH   7  12
BRANCH  11  26
ATOM     26  O   UNL A   1      45.641  17.679  25.401  1.00  0.00    -0.507 OA
ATOM     27  H   UNL A   1      46.537  17.427  25.505  1.00  0.00     0.293 HD
ENDBRANCH  11  26
ENDBRANCH   3   6
ENDBRANCH   1   2
BRANCH   1  28
ATOM     28  C   UNL A   1      40.791  21.268  27.689  1.00  0.00     0.042 C 
BRANCH  28  29
ATOM     29  C   UNL A   1      40.862  22.149  26.458  1.00  0.00     0.118 C 
BRANCH  29  30
ATOM     30  N   UNL A   1      39.552  22.455  25.910  1.00  0.00    -0.352 N 
ATOM     31  C   UNL A   1      38.744  23.541  26.138  1.00  0.00     0.251 C 
ATOM     32  H   UNL A   1      39.191  21.787  25.284  1.00  0.00     0.163 HD
ATOM     33  O   UNL A   1      37.578  23.529  25.741  1.00  0.00    -0.269 OA
BRANCH  31  34
ATOM     34  C   UNL A   1      39.254  24.718  26.878  1.00  0.00     0.039 A 
ATOM     35  C   UNL A   1      40.029  25.664  26.201  1.00  0.00     0.014 A 
ATOM     36  C   UNL A   1      38.983  24.886  28.238  1.00  0.00     0.014 A 
ATOM     37  C   UNL A   1      40.474  26.808  26.869  1.00  0.00     0.010 A 
ATOM     38  C   UNL A   1      39.343  26.068  28.876  1.00  0.00     0.010 A 
ATOM     39  C   UNL A   1      40.102  27.037  28.203  1.00  0.00    -0.014 A 
BRANCH  39  40
ATOM     40  C   UNL A   1      40.510  28.262  28.937  1.00  0.00     0.031 A 
ATOM     41  C   UNL A   1      41.899  28.353  29.510  1.00  0.00     0.074 A 
ATOM     42  C   UNL A   1      39.614  29.239  29.169  1.00  0.00     0.049 A 
ATOM     43  N   UNL A   1      42.410  29.255  30.308  1.00  0.00    -0.248 NA
ATOM     44  C   UNL A   1      42.826  27.264  29.162  1.00  0.00     0.031 C 
ATOM     45  C   UNL A   1      38.231  29.250  28.692  1.00  0.00     0.029 A 
ATOM     46  N   UNL A   1      39.725  30.404  29.886  1.00  0.00    -0.354 N 
ATOM     47  C   UNL A   1      43.703  28.827  30.579  1.00  0.00     0.074 A 
ATOM     48  C   UNL A   1      43.884  27.562  29.902  1.00  0.00     0.031 C 
ATOM     49  C   UNL A   1      37.626  30.369  29.118  1.00  0.00     0.029 A 
ATOM     50  C   UNL A   1      38.561  31.131  29.942  1.00  0.00     0.049 A 
ATOM     51  H   UNL A   1      40.561  30.692  30.320  1.00  0.00     0.167 HD
ATOM     52  C   UNL A   1      44.660  29.446  31.310  1.00  0.00     0.037 A 
ATOM     53  C   UNL A   1      38.274  32.268  30.603  1.00  0.00     0.037 A 
ATOM     54  C   UNL A   1      44.479  30.717  31.958  1.00  0.00     0.049 A 
ATOM     55  C   UNL A   1      39.348  32.924  31.432  1.00  0.00     0.074 A 
ATOM     56  C   UNL A   1      45.402  31.461  32.672  1.00  0.00     0.029 A 
ATOM     57  N   UNL A   1      43.290  31.433  31.973  1.00  0.00    -0.354 N 
ATOM     58  N   UNL A   1      40.586  32.543  31.631  1.00  0.00    -0.248 NA
ATOM     59  C   UNL A   1      38.985  34.167  32.127  1.00  0.00     0.031 C 
ATOM     60  C   UNL A   1      44.757  32.596  33.169  1.00  0.00     0.029 A 
ATOM     61  C   UNL A   1      43.449  32.595  32.709  1.00  0.00     0.049 A 
ATOM     62  H   UNL A   1      42.457  31.155  31.527  1.00  0.00     0.167 HD
ATOM     63  C   UNL A   1      41.160  33.515  32.440  1.00  0.00     0.074 A 
ATOM     64  C   UNL A   1      40.135  34.508  32.691  1.00  0.00     0.031 C 
ATOM     65  C   UNL A   1      42.422  33.583  32.928  1.00  0.00     0.037 A 
BRANCH  52  66
ATOM     66  C   UNL A   1      45.986  28.753  31.456  1.00  0.00     0.064 A 
ATOM     67  C   UNL A   1      46.995  28.877  30.488  1.00  0.00     0.173 A 
ATOM     68  C   UNL A   1      46.265  27.986  32.597  1.00  0.00     0.173 A 
ATOM     69  F   UNL A   1      46.778  29.590  29.373  1.00  0.00    -0.203 F 
ATOM     70  C   UNL A   1      48.220  28.232  30.643  1.00  0.00     0.198 A 
ATOM     71  C   UNL A   1      47.503  27.372  32.765  1.00  0.00     0.198 A 
ATOM     72  F   UNL A   1      45.340  27.840  33.558  1.00  0.00    -0.203 F 
ATOM     73  F   UNL A   1      49.147  28.320  29.679  1.00  0.00    -0.200 F 
ATOM     74  C   UNL A   1      48.476  27.487  31.784  1.00  0.00     0.200 A 
ATOM     75  F   UNL A   1      47.754  26.666  33.877  1.00  0.00    -0.200 F 
ATOM     76  F   UNL A   1      49.658  26.875  31.935  1.00  0.00    -0.200 F 
ENDBRANCH  52  66
BRANCH  53  77
ATOM     77  C   UNL A   1      36.917  32.869  30.502  1.00  0.00     0.064 A 
ATOM     78  C   UNL A   1      36.553  33.639  29.388  1.00  0.00     0.173 A 
ATOM     79  C   UNL A   1      35.959  32.694  31.512  1.00  0.00     0.173 A 
ATOM     80  F   UNL A   1      37.439  33.852  28.403  1.00  0.00    -0.203 F 
ATOM     81  C   UNL A   1      35.294  34.231  29.299  1.00  0.00     0.198 A 
ATOM     82  C   UNL A   1      34.690  33.260  31.407  1.00  0.00     0.198 A 
ATOM     83  F   UNL A   1      36.252  31.962  32.596  1.00  0.00    -0.203 F 
ATOM     84  F   UNL A   1      34.992  35.002  28.246  1.00  0.00    -0.200 F 
ATOM     85  C   UNL A   1      34.361  34.036  30.306  1.00  0.00     0.200 A 
ATOM     86  F   UNL A   1      33.785  33.053  32.374  1.00  0.00    -0.200 F 
ATOM     87  F   UNL A   1      33.149  34.599  30.219  1.00  0.00    -0.200 F 
ENDBRANCH  53  77
BRANCH  65  88
ATOM     88  C   UNL A   1      42.793  34.791  33.738  1.00  0.00     0.064 A 
ATOM     89  C   UNL A   1      43.179  35.998  33.136  1.00  0.00     0.173 A 
ATOM     90  C   UNL A   1      42.688  34.759  35.138  1.00  0.00     0.173 A 
ATOM     91  F   UNL A   1      43.308  36.075  31.802  1.00  0.00    -0.203 F 
ATOM     92  C   UNL A   1      43.459  37.122  33.906  1.00  0.00     0.198 A 
ATOM     93  C   UNL A   1      42.938  35.895  35.902  1.00  0.00     0.198 A 
ATOM     94  F   UNL A   1      42.317  33.631  35.762  1.00  0.00    -0.203 F 
ATOM     95  F   UNL A   1      43.863  38.254  33.313  1.00  0.00    -0.200 F 
ATOM     96  C   UNL A   1      43.328  37.074  35.286  1.00  0.00     0.200 A 
ATOM     97  F   UNL A   1      42.793  35.850  37.234  1.00  0.00    -0.200 F 
ATOM     98  F   UNL A   1      43.580  38.164  36.023  1.00  0.00    -0.200 F 
ENDBRANCH  65  88
ENDBRANCH  39  40
ENDBRANCH  31  34
ENDBRANCH  29  30
ENDBRANCH  28  29
ENDBRANCH   1  28
TORSDOF 14
ENDMDL
