MODEL 1
REMARK VINA RESULT:     -11.7      0.000      0.000
REMARK SMILES C[C@H](O)C[C@H](Cc1cccc(Br)c1)C(=O)NCCCNC(=O)c1ccc(-c2c3nc(c(-c4c(F)c(F)c(F)c(F)c4F)c4ccc([nH]4)c(-c4c(F)c(F)c(F)c(F)c4F)c4nc(c(-c5c(F)c(F)c(F)c(F)c5F)c5ccc2[nH]5)C=C4)C=C3)cc1
REMARK SMILES IDX 17 1 16 2 14 3 15 4 5 6 4 7 2 8 1 9 3 10 6 12 7 13 8 14
REMARK SMILES IDX 13 15 9 16 11 17 10 18 12 19 18 20 19 21 20 22 21 23 22 25
REMARK SMILES IDX 23 26 24 27 85 28 25 29 84 30 26 31 27 32 28 33 78 34 29 35
REMARK SMILES IDX 83 36 77 37 79 38 30 39 82 40 76 41 75 42 31 44 63 45 43 46
REMARK SMILES IDX 62 47 44 48 47 49 61 50 80 51 45 52 46 53 60 55 81 56 48 57
REMARK SMILES IDX 32 58 33 59 41 60 34 61 35 62 39 63 42 64 36 65 37 66 40 67
REMARK SMILES IDX 38 68 64 69 65 70 73 71 66 72 67 73 71 74 74 75 68 76 69 77
REMARK SMILES IDX 72 78 70 79 49 80 50 81 58 82 51 83 52 84 56 85 59 86 53 87
REMARK SMILES IDX 54 88 57 89 55 90
REMARK H PARENT 16 5 3 11 20 24 79 43 47 54
REMARK Flexibility Score: inf
ROOT
ATOM      1  C   UNL A   1      32.097  29.918  26.042  1.00  0.00     0.117 C 
ENDROOT
BRANCH   1   2
ATOM      2  N   UNL A   1      33.024  29.802  24.942  1.00  0.00    -0.356 N 
ATOM      3  C   UNL A   1      33.013  28.968  23.877  1.00  0.00     0.223 C 
ATOM      4  O   UNL A   1      33.722  29.299  22.920  1.00  0.00    -0.275 OA
ATOM      5  H   UNL A   1      33.783  30.427  24.971  1.00  0.00     0.163 HD
BRANCH   3   6
ATOM      6  C   UNL A   1      32.136  27.720  23.763  1.00  0.00     0.085 C 
BRANCH   6   7
ATOM      7  C   UNL A   1      32.835  26.365  23.997  1.00  0.00     0.045 C 
BRANCH   7   8
ATOM      8  C   UNL A   1      33.177  25.529  22.755  1.00  0.00     0.112 C 
ATOM      9  C   UNL A   1      34.043  24.330  23.123  1.00  0.00     0.038 C 
BRANCH   8  10
ATOM     10  O   UNL A   1      33.899  26.307  21.807  1.00  0.00    -0.393 OA
ATOM     11  H   UNL A   1      34.619  25.776  21.434  1.00  0.00     0.210 HD
ENDBRANCH   8  10
ENDBRANCH   7   8
ENDBRANCH   6   7
BRANCH   6  12
ATOM     12  C   UNL A   1      30.967  27.773  22.744  1.00  0.00     0.049 C 
BRANCH  12  13
ATOM     13  C   UNL A   1      29.672  28.545  22.901  1.00  0.00    -0.046 A 
ATOM     14  C   UNL A   1      28.411  27.981  23.119  1.00  0.00     0.004 A 
ATOM     15  C   UNL A   1      29.757  29.952  22.887  1.00  0.00     0.019 A 
ATOM     16  C   UNL A   1      27.265  28.779  23.225  1.00  0.00     0.001 A 
ATOM     17  C   UNL A   1      28.615  30.749  23.016  1.00  0.00     0.018 A 
ATOM     18  C   UNL A   1      27.365  30.165  23.167  1.00  0.00     0.016 A 
ATOM     19  Br  UNL A   1      28.772  32.633  22.978  1.00  0.00    -0.051 Br
ENDBRANCH  12  13
ENDBRANCH   6  12
ENDBRANCH   3   6
ENDBRANCH   1   2
BRANCH   1  20
ATOM     20  C   UNL A   1      31.717  31.353  26.354  1.00  0.00     0.042 C 
BRANCH  20  21
ATOM     21  C   UNL A   1      32.779  32.067  27.172  1.00  0.00     0.118 C 
BRANCH  21  22
ATOM     22  N   UNL A   1      32.448  33.472  27.411  1.00  0.00    -0.352 N 
ATOM     23  C   UNL A   1      32.972  34.366  28.312  1.00  0.00     0.251 C 
ATOM     24  H   UNL A   1      31.737  33.834  26.834  1.00  0.00     0.163 HD
ATOM     25  O   UNL A   1      32.437  35.460  28.475  1.00  0.00    -0.269 OA
BRANCH  23  26
ATOM     26  C   UNL A   1      34.161  34.001  29.106  1.00  0.00     0.039 A 
ATOM     27  C   UNL A   1      34.009  33.202  30.243  1.00  0.00     0.014 A 
ATOM     28  C   UNL A   1      35.430  34.428  28.714  1.00  0.00     0.014 A 
ATOM     29  C   UNL A   1      35.140  32.755  30.931  1.00  0.00     0.010 A 
ATOM     30  C   UNL A   1      36.553  33.897  29.331  1.00  0.00     0.010 A 
ATOM     31  C   UNL A   1      36.421  33.057  30.447  1.00  0.00    -0.014 A 
BRANCH  31  32
ATOM     32  C   UNL A   1      37.657  32.539  31.082  1.00  0.00     0.031 A 
ATOM     33  C   UNL A   1      38.432  31.447  30.398  1.00  0.00     0.074 A 
ATOM     34  C   UNL A   1      38.004  32.948  32.318  1.00  0.00     0.049 A 
ATOM     35  N   UNL A   1      39.387  30.686  30.866  1.00  0.00    -0.248 NA
ATOM     36  C   UNL A   1      38.038  31.134  29.015  1.00  0.00     0.031 C 
ATOM     37  C   UNL A   1      37.306  33.968  33.104  1.00  0.00     0.029 A 
ATOM     38  N   UNL A   1      39.020  32.533  33.142  1.00  0.00    -0.354 N 
ATOM     39  C   UNL A   1      39.669  29.776  29.856  1.00  0.00     0.074 A 
ATOM     40  C   UNL A   1      38.757  30.049  28.769  1.00  0.00     0.031 C 
ATOM     41  C   UNL A   1      37.923  34.109  34.288  1.00  0.00     0.029 A 
ATOM     42  C   UNL A   1      39.026  33.158  34.365  1.00  0.00     0.049 A 
ATOM     43  H   UNL A   1      39.681  31.852  32.881  1.00  0.00     0.167 HD
ATOM     44  C   UNL A   1      40.618  28.810  29.833  1.00  0.00     0.037 A 
ATOM     45  C   UNL A   1      39.822  32.967  35.435  1.00  0.00     0.037 A 
ATOM     46  C   UNL A   1      41.564  28.590  30.894  1.00  0.00     0.049 A 
ATOM     47  C   UNL A   1      40.901  31.920  35.366  1.00  0.00     0.074 A 
ATOM     48  C   UNL A   1      42.610  27.687  30.944  1.00  0.00     0.029 A 
ATOM     49  N   UNL A   1      41.584  29.297  32.088  1.00  0.00    -0.354 N 
ATOM     50  N   UNL A   1      41.185  31.089  34.393  1.00  0.00    -0.248 NA
ATOM     51  C   UNL A   1      41.771  31.786  36.543  1.00  0.00     0.031 C 
ATOM     52  C   UNL A   1      43.248  27.829  32.181  1.00  0.00     0.029 A 
ATOM     53  C   UNL A   1      42.625  28.849  32.882  1.00  0.00     0.049 A 
ATOM     54  H   UNL A   1      40.951  30.011  32.333  1.00  0.00     0.167 HD
ATOM     55  C   UNL A   1      42.284  30.359  34.823  1.00  0.00     0.074 A 
ATOM     56  C   UNL A   1      42.619  30.848  36.145  1.00  0.00     0.031 C 
ATOM     57  C   UNL A   1      42.957  29.373  34.182  1.00  0.00     0.037 A 
BRANCH  44  58
ATOM     58  C   UNL A   1      40.685  27.929  28.620  1.00  0.00     0.064 A 
ATOM     59  C   UNL A   1      41.464  28.271  27.503  1.00  0.00     0.173 A 
ATOM     60  C   UNL A   1      39.978  26.719  28.581  1.00  0.00     0.173 A 
ATOM     61  F   UNL A   1      42.148  29.424  27.484  1.00  0.00    -0.203 F 
ATOM     62  C   UNL A   1      41.506  27.449  26.380  1.00  0.00     0.198 A 
ATOM     63  C   UNL A   1      40.047  25.884  27.468  1.00  0.00     0.198 A 
ATOM     64  F   UNL A   1      39.221  26.343  29.622  1.00  0.00    -0.203 F 
ATOM     65  F   UNL A   1      42.212  27.824  25.305  1.00  0.00    -0.200 F 
ATOM     66  C   UNL A   1      40.803  26.254  26.367  1.00  0.00     0.200 A 
ATOM     67  F   UNL A   1      39.377  24.723  27.461  1.00  0.00    -0.200 F 
ATOM     68  F   UNL A   1      40.848  25.462  25.286  1.00  0.00    -0.200 F 
ENDBRANCH  44  58
BRANCH  45  69
ATOM     69  C   UNL A   1      39.649  33.807  36.648  1.00  0.00     0.064 A 
ATOM     70  C   UNL A   1      40.272  35.059  36.745  1.00  0.00     0.173 A 
ATOM     71  C   UNL A   1      38.859  33.385  37.727  1.00  0.00     0.173 A 
ATOM     72  F   UNL A   1      41.053  35.495  35.746  1.00  0.00    -0.203 F 
ATOM     73  C   UNL A   1      40.128  35.849  37.883  1.00  0.00     0.198 A 
ATOM     74  C   UNL A   1      38.695  34.188  38.855  1.00  0.00     0.198 A 
ATOM     75  F   UNL A   1      38.236  32.198  37.681  1.00  0.00    -0.203 F 
ATOM     76  F   UNL A   1      40.770  37.022  37.966  1.00  0.00    -0.200 F 
ATOM     77  C   UNL A   1      39.335  35.415  38.935  1.00  0.00     0.200 A 
ATOM     78  F   UNL A   1      37.919  33.772  39.864  1.00  0.00    -0.200 F 
ATOM     79  F   UNL A   1      39.195  36.177  40.028  1.00  0.00    -0.200 F 
ENDBRANCH  45  69
BRANCH  57  80
ATOM     80  C   UNL A   1      44.160  28.799  34.866  1.00  0.00     0.064 A 
ATOM     81  C   UNL A   1      45.433  29.366  34.718  1.00  0.00     0.173 A 
ATOM     82  C   UNL A   1      44.019  27.708  35.737  1.00  0.00     0.173 A 
ATOM     83  F   UNL A   1      45.618  30.402  33.886  1.00  0.00    -0.203 F 
ATOM     84  C   UNL A   1      46.527  28.851  35.407  1.00  0.00     0.198 A 
ATOM     85  C   UNL A   1      45.110  27.212  36.444  1.00  0.00     0.198 A 
ATOM     86  F   UNL A   1      42.819  27.137  35.916  1.00  0.00    -0.203 F 
ATOM     87  F   UNL A   1      47.742  29.387  35.229  1.00  0.00    -0.200 F 
ATOM     88  C   UNL A   1      46.362  27.782  36.276  1.00  0.00     0.200 A 
ATOM     89  F   UNL A   1      44.947  26.186  37.292  1.00  0.00    -0.200 F 
ATOM     90  F   UNL A   1      47.415  27.297  36.950  1.00  0.00    -0.200 F 
ENDBRANCH  57  80
ENDBRANCH  31  32
ENDBRANCH  23  26
ENDBRANCH  21  22
ENDBRANCH  20  21
ENDBRANCH   1  20
TORSDOF 15
ENDMDL
MODEL 2
REMARK VINA RESULT:     -11.7      6.329     11.582
REMARK SMILES C[C@H](O)C[C@H](Cc1cccc(Br)c1)C(=O)NCCCNC(=O)c1ccc(-c2c3nc(c(-c4c(F)c(F)c(F)c(F)c4F)c4ccc([nH]4)c(-c4c(F)c(F)c(F)c(F)c4F)c4nc(c(-c5c(F)c(F)c(F)c(F)c5F)c5ccc2[nH]5)C=C4)C=C3)cc1
REMARK SMILES IDX 17 1 16 2 14 3 15 4 5 6 4 7 2 8 1 9 3 10 6 12 7 13 8 14
REMARK SMILES IDX 13 15 9 16 11 17 10 18 12 19 18 20 19 21 20 22 21 23 22 25
REMARK SMILES IDX 23 26 24 27 85 28 25 29 84 30 26 31 27 32 28 33 78 34 29 35
REMARK SMILES IDX 83 36 77 37 79 38 30 39 82 40 76 41 75 42 31 44 63 45 43 46
REMARK SMILES IDX 62 47 44 48 47 49 61 50 80 51 45 52 46 53 60 55 81 56 48 57
REMARK SMILES IDX 32 58 33 59 41 60 34 61 35 62 39 63 42 64 36 65 37 66 40 67
REMARK SMILES IDX 38 68 64 69 65 70 73 71 66 72 67 73 71 74 74 75 68 76 69 77
REMARK SMILES IDX 72 78 70 79 49 80 50 81 58 82 51 83 52 84 56 85 59 86 53 87
REMARK SMILES IDX 54 88 57 89 55 90
REMARK H PARENT 16 5 3 11 20 24 79 43 47 54
REMARK Flexibility Score: inf
ROOT
ATOM      1  C   UNL A   1      36.829  21.207  24.908  1.00  0.00     0.117 C 
ENDROOT
BRANCH   1   2
ATOM      2  N   UNL A   1      36.104  21.434  26.135  1.00  0.00    -0.356 N 
ATOM      3  C   UNL A   1      34.784  21.653  26.341  1.00  0.00     0.223 C 
ATOM      4  O   UNL A   1      34.378  21.478  27.496  1.00  0.00    -0.275 OA
ATOM      5  H   UNL A   1      36.655  21.431  26.950  1.00  0.00     0.163 HD
BRANCH   3   6
ATOM      6  C   UNL A   1      33.785  22.011  25.241  1.00  0.00     0.085 C 
BRANCH   6   7
ATOM      7  C   UNL A   1      33.454  23.509  25.075  1.00  0.00     0.045 C 
BRANCH   7   8
ATOM      8  C   UNL A   1      34.368  24.513  25.793  1.00  0.00     0.112 C 
ATOM      9  C   UNL A   1      33.808  25.927  25.703  1.00  0.00     0.038 C 
BRANCH   8  10
ATOM     10  O   UNL A   1      35.664  24.524  25.205  1.00  0.00    -0.393 OA
ATOM     11  H   UNL A   1      36.000  23.617  25.145  1.00  0.00     0.210 HD
ENDBRANCH   8  10
ENDBRANCH   7   8
ENDBRANCH   6   7
BRANCH   6  12
ATOM     12  C   UNL A   1      32.665  20.979  24.944  1.00  0.00     0.049 C 
BRANCH  12  13
ATOM     13  C   UNL A   1      32.832  19.653  24.228  1.00  0.00    -0.046 A 
ATOM     14  C   UNL A   1      32.302  19.334  22.974  1.00  0.00     0.004 A 
ATOM     15  C   UNL A   1      33.643  18.683  24.853  1.00  0.00     0.019 A 
ATOM     16  C   UNL A   1      32.489  18.068  22.405  1.00  0.00     0.001 A 
ATOM     17  C   UNL A   1      33.849  17.428  24.273  1.00  0.00     0.018 A 
ATOM     18  C   UNL A   1      33.259  17.110  23.057  1.00  0.00     0.016 A 
ATOM     19  Br  UNL A   1      34.933  16.151  25.151  1.00  0.00    -0.051 Br
ENDBRANCH  12  13
ENDBRANCH   6  12
ENDBRANCH   3   6
ENDBRANCH   1   2
BRANCH   1  20
ATOM     20  C   UNL A   1      37.808  20.052  24.999  1.00  0.00     0.042 C 
BRANCH  20  21
ATOM     21  C   UNL A   1      39.074  20.425  25.750  1.00  0.00     0.118 C 
BRANCH  21  22
ATOM     22  N   UNL A   1      40.006  19.303  25.864  1.00  0.00    -0.352 N 
ATOM     23  C   UNL A   1      41.364  19.295  26.069  1.00  0.00     0.251 C 
ATOM     24  H   UNL A   1      39.595  18.413  25.781  1.00  0.00     0.163 HD
ATOM     25  O   UNL A   1      41.996  18.247  25.963  1.00  0.00    -0.269 OA
BRANCH  23  26
ATOM     26  C   UNL A   1      42.069  20.552  26.390  1.00  0.00     0.039 A 
ATOM     27  C   UNL A   1      42.516  21.373  25.350  1.00  0.00     0.014 A 
ATOM     28  C   UNL A   1      42.267  20.932  27.717  1.00  0.00     0.014 A 
ATOM     29  C   UNL A   1      43.077  22.617  25.644  1.00  0.00     0.010 A 
ATOM     30  C   UNL A   1      42.722  22.210  28.004  1.00  0.00     0.010 A 
ATOM     31  C   UNL A   1      43.135  23.066  26.971  1.00  0.00    -0.014 A 
BRANCH  31  32
ATOM     32  C   UNL A   1      43.638  24.412  27.338  1.00  0.00     0.031 A 
ATOM     33  C   UNL A   1      42.678  25.430  27.888  1.00  0.00     0.074 A 
ATOM     34  C   UNL A   1      44.909  24.758  27.055  1.00  0.00     0.049 A 
ATOM     35  N   UNL A   1      42.834  26.719  28.051  1.00  0.00    -0.248 NA
ATOM     36  C   UNL A   1      41.340  24.936  28.255  1.00  0.00     0.031 C 
ATOM     37  C   UNL A   1      45.924  23.874  26.478  1.00  0.00     0.029 A 
ATOM     38  N   UNL A   1      45.556  25.961  27.192  1.00  0.00    -0.354 N 
ATOM     39  C   UNL A   1      41.603  27.192  28.486  1.00  0.00     0.074 A 
ATOM     40  C   UNL A   1      40.700  26.064  28.521  1.00  0.00     0.031 C 
ATOM     41  C   UNL A   1      47.068  24.559  26.325  1.00  0.00     0.029 A 
ATOM     42  C   UNL A   1      46.855  25.940  26.744  1.00  0.00     0.049 A 
ATOM     43  H   UNL A   1      45.131  26.762  27.574  1.00  0.00     0.167 HD
ATOM     44  C   UNL A   1      41.264  28.453  28.843  1.00  0.00     0.037 A 
ATOM     45  C   UNL A   1      47.763  26.931  26.664  1.00  0.00     0.037 A 
ATOM     46  C   UNL A   1      42.188  29.555  28.867  1.00  0.00     0.049 A 
ATOM     47  C   UNL A   1      47.376  28.315  27.111  1.00  0.00     0.074 A 
ATOM     48  C   UNL A   1      41.969  30.858  29.277  1.00  0.00     0.029 A 
ATOM     49  N   UNL A   1      43.518  29.475  28.476  1.00  0.00    -0.354 N 
ATOM     50  N   UNL A   1      46.221  28.747  27.556  1.00  0.00    -0.248 NA
ATOM     51  C   UNL A   1      48.418  29.349  27.046  1.00  0.00     0.031 C 
ATOM     52  C   UNL A   1      43.159  31.573  29.110  1.00  0.00     0.029 A 
ATOM     53  C   UNL A   1      44.130  30.706  28.635  1.00  0.00     0.049 A 
ATOM     54  H   UNL A   1      43.959  28.663  28.136  1.00  0.00     0.167 HD
ATOM     55  C   UNL A   1      46.406  30.089  27.858  1.00  0.00     0.074 A 
ATOM     56  C   UNL A   1      47.786  30.400  27.548  1.00  0.00     0.031 C 
ATOM     57  C   UNL A   1      45.514  30.983  28.349  1.00  0.00     0.037 A 
BRANCH  44  58
ATOM     58  C   UNL A   1      39.840  28.704  29.244  1.00  0.00     0.064 A 
ATOM     59  C   UNL A   1      39.398  28.500  30.560  1.00  0.00     0.173 A 
ATOM     60  C   UNL A   1      38.910  29.175  28.305  1.00  0.00     0.173 A 
ATOM     61  F   UNL A   1      40.244  28.037  31.492  1.00  0.00    -0.203 F 
ATOM     62  C   UNL A   1      38.070  28.725  30.914  1.00  0.00     0.198 A 
ATOM     63  C   UNL A   1      37.590  29.429  28.670  1.00  0.00     0.198 A 
ATOM     64  F   UNL A   1      39.280  29.391  27.035  1.00  0.00    -0.203 F 
ATOM     65  F   UNL A   1      37.660  28.469  32.163  1.00  0.00    -0.200 F 
ATOM     66  C   UNL A   1      37.170  29.196  29.970  1.00  0.00     0.200 A 
ATOM     67  F   UNL A   1      36.723  29.896  27.760  1.00  0.00    -0.200 F 
ATOM     68  F   UNL A   1      35.893  29.416  30.314  1.00  0.00    -0.200 F 
ENDBRANCH  44  58
BRANCH  45  69
ATOM     69  C   UNL A   1      49.133  26.644  26.168  1.00  0.00     0.064 A 
ATOM     70  C   UNL A   1      49.488  26.933  24.843  1.00  0.00     0.173 A 
ATOM     71  C   UNL A   1      50.114  26.085  26.999  1.00  0.00     0.173 A 
ATOM     72  F   UNL A   1      48.578  27.450  24.005  1.00  0.00    -0.203 F 
ATOM     73  C   UNL A   1      50.766  26.655  24.363  1.00  0.00     0.198 A 
ATOM     74  C   UNL A   1      51.400  25.832  26.525  1.00  0.00     0.198 A 
ATOM     75  F   UNL A   1      49.827  25.797  28.278  1.00  0.00    -0.203 F 
ATOM     76  F   UNL A   1      51.064  26.902  23.080  1.00  0.00    -0.200 F 
ATOM     77  C   UNL A   1      51.722  26.110  25.205  1.00  0.00     0.200 A 
ATOM     78  F   UNL A   1      52.325  25.316  27.344  1.00  0.00    -0.200 F 
ATOM     79  F   UNL A   1      52.952  25.846  24.743  1.00  0.00    -0.200 F 
ENDBRANCH  45  69
BRANCH  57  80
ATOM     80  C   UNL A   1      46.012  32.365  28.643  1.00  0.00     0.064 A 
ATOM     81  C   UNL A   1      45.996  33.376  27.671  1.00  0.00     0.173 A 
ATOM     82  C   UNL A   1      46.445  32.697  29.935  1.00  0.00     0.173 A 
ATOM     83  F   UNL A   1      45.603  33.101  26.418  1.00  0.00    -0.203 F 
ATOM     84  C   UNL A   1      46.410  34.668  27.981  1.00  0.00     0.198 A 
ATOM     85  C   UNL A   1      46.833  33.996  30.248  1.00  0.00     0.198 A 
ATOM     86  F   UNL A   1      46.470  31.765  30.899  1.00  0.00    -0.203 F 
ATOM     87  F   UNL A   1      46.417  35.613  27.031  1.00  0.00    -0.200 F 
ATOM     88  C   UNL A   1      46.819  34.979  29.270  1.00  0.00     0.200 A 
ATOM     89  F   UNL A   1      47.216  34.297  31.497  1.00  0.00    -0.200 F 
ATOM     90  F   UNL A   1      47.203  36.227  29.569  1.00  0.00    -0.200 F 
ENDBRANCH  57  80
ENDBRANCH  31  32
ENDBRANCH  23  26
ENDBRANCH  21  22
ENDBRANCH  20  21
ENDBRANCH   1  20
TORSDOF 15
ENDMDL
MODEL 3
REMARK VINA RESULT:     -11.6      2.182      3.558
REMARK SMILES C[C@H](O)C[C@H](Cc1cccc(Br)c1)C(=O)NCCCNC(=O)c1ccc(-c2c3nc(c(-c4c(F)c(F)c(F)c(F)c4F)c4ccc([nH]4)c(-c4c(F)c(F)c(F)c(F)c4F)c4nc(c(-c5c(F)c(F)c(F)c(F)c5F)c5ccc2[nH]5)C=C4)C=C3)cc1
REMARK SMILES IDX 17 1 16 2 14 3 15 4 5 6 4 7 2 8 1 9 3 10 6 12 7 13 8 14
REMARK SMILES IDX 13 15 9 16 11 17 10 18 12 19 18 20 19 21 20 22 21 23 22 25
REMARK SMILES IDX 23 26 24 27 85 28 25 29 84 30 26 31 27 32 28 33 78 34 29 35
REMARK SMILES IDX 83 36 77 37 79 38 30 39 82 40 76 41 75 42 31 44 63 45 43 46
REMARK SMILES IDX 62 47 44 48 47 49 61 50 80 51 45 52 46 53 60 55 81 56 48 57
REMARK SMILES IDX 32 58 33 59 41 60 34 61 35 62 39 63 42 64 36 65 37 66 40 67
REMARK SMILES IDX 38 68 64 69 65 70 73 71 66 72 67 73 71 74 74 75 68 76 69 77
REMARK SMILES IDX 72 78 70 79 49 80 50 81 58 82 51 83 52 84 56 85 59 86 53 87
REMARK SMILES IDX 54 88 57 89 55 90
REMARK H PARENT 16 5 3 11 20 24 79 43 47 54
REMARK Flexibility Score: inf
ROOT
ATOM      1  C   UNL A   1      32.216  26.494  26.436  1.00  0.00     0.117 C 
ENDROOT
BRANCH   1   2
ATOM      2  N   UNL A   1      31.189  25.581  26.878  1.00  0.00    -0.356 N 
ATOM      3  C   UNL A   1      30.798  24.393  26.363  1.00  0.00     0.223 C 
ATOM      4  O   UNL A   1      30.143  23.663  27.116  1.00  0.00    -0.275 OA
ATOM      5  H   UNL A   1      30.696  25.868  27.680  1.00  0.00     0.163 HD
BRANCH   3   6
ATOM      6  C   UNL A   1      31.180  23.884  24.973  1.00  0.00     0.085 C 
BRANCH   6   7
ATOM      7  C   UNL A   1      32.567  23.221  24.840  1.00  0.00     0.045 C 
BRANCH   7   8
ATOM      8  C   UNL A   1      32.606  21.689  24.754  1.00  0.00     0.112 C 
ATOM      9  C   UNL A   1      32.259  21.210  23.349  1.00  0.00     0.038 C 
BRANCH   8  10
ATOM     10  O   UNL A   1      31.667  21.109  25.652  1.00  0.00    -0.393 OA
ATOM     11  H   UNL A   1      32.137  20.720  26.405  1.00  0.00     0.210 HD
ENDBRANCH   8  10
ENDBRANCH   7   8
ENDBRANCH   6   7
BRANCH   6  12
ATOM     12  C   UNL A   1      30.631  24.678  23.758  1.00  0.00     0.049 C 
BRANCH  12  13
ATOM     13  C   UNL A   1      31.063  26.065  23.322  1.00  0.00    -0.046 A 
ATOM     14  C   UNL A   1      32.339  26.415  22.869  1.00  0.00     0.004 A 
ATOM     15  C   UNL A   1      30.076  27.072  23.313  1.00  0.00     0.019 A 
ATOM     16  C   UNL A   1      32.650  27.732  22.513  1.00  0.00     0.001 A 
ATOM     17  C   UNL A   1      30.380  28.383  22.934  1.00  0.00     0.018 A 
ATOM     18  C   UNL A   1      31.671  28.721  22.550  1.00  0.00     0.016 A 
ATOM     19  Br  UNL A   1      29.030  29.706  22.950  1.00  0.00    -0.051 Br
ENDBRANCH  12  13
ENDBRANCH   6  12
ENDBRANCH   3   6
ENDBRANCH   1   2
BRANCH   1  20
ATOM     20  C   UNL A   1      31.769  27.944  26.442  1.00  0.00     0.042 C 
BRANCH  20  21
ATOM     21  C   UNL A   1      32.896  28.896  26.082  1.00  0.00     0.118 C 
BRANCH  21  22
ATOM     22  N   UNL A   1      32.536  30.296  26.312  1.00  0.00    -0.352 N 
ATOM     23  C   UNL A   1      33.162  31.261  27.063  1.00  0.00     0.251 C 
ATOM     24  H   UNL A   1      31.716  30.593  25.857  1.00  0.00     0.163 HD
ATOM     25  O   UNL A   1      32.606  32.337  27.268  1.00  0.00    -0.269 OA
BRANCH  23  26
ATOM     26  C   UNL A   1      34.492  30.995  27.645  1.00  0.00     0.039 A 
ATOM     27  C   UNL A   1      35.420  32.036  27.741  1.00  0.00     0.014 A 
ATOM     28  C   UNL A   1      34.813  29.722  28.118  1.00  0.00     0.014 A 
ATOM     29  C   UNL A   1      36.634  31.821  28.398  1.00  0.00     0.010 A 
ATOM     30  C   UNL A   1      35.969  29.540  28.863  1.00  0.00     0.010 A 
ATOM     31  C   UNL A   1      36.893  30.585  29.009  1.00  0.00    -0.014 A 
BRANCH  31  32
ATOM     32  C   UNL A   1      38.125  30.326  29.794  1.00  0.00     0.031 A 
ATOM     33  C   UNL A   1      39.164  29.391  29.241  1.00  0.00     0.074 A 
ATOM     34  C   UNL A   1      38.244  30.815  31.044  1.00  0.00     0.049 A 
ATOM     35  N   UNL A   1      40.187  28.836  29.839  1.00  0.00    -0.248 NA
ATOM     36  C   UNL A   1      38.997  28.984  27.836  1.00  0.00     0.031 C 
ATOM     37  C   UNL A   1      37.281  31.695  31.709  1.00  0.00     0.029 A 
ATOM     38  N   UNL A   1      39.220  30.617  31.988  1.00  0.00    -0.354 N 
ATOM     39  C   UNL A   1      40.749  27.980  28.901  1.00  0.00     0.074 A 
ATOM     40  C   UNL A   1      39.932  28.054  27.712  1.00  0.00     0.031 C 
ATOM     41  C   UNL A   1      37.722  31.972  32.947  1.00  0.00     0.029 A 
ATOM     42  C   UNL A   1      38.969  31.252  33.180  1.00  0.00     0.049 A 
ATOM     43  H   UNL A   1      40.023  30.071  31.828  1.00  0.00     0.167 HD
ATOM     44  C   UNL A   1      41.860  27.215  29.019  1.00  0.00     0.037 A 
ATOM     45  C   UNL A   1      39.659  31.237  34.337  1.00  0.00     0.037 A 
ATOM     46  C   UNL A   1      42.703  27.199  30.184  1.00  0.00     0.049 A 
ATOM     47  C   UNL A   1      40.917  30.415  34.426  1.00  0.00     0.074 A 
ATOM     48  C   UNL A   1      43.888  26.514  30.382  1.00  0.00     0.029 A 
ATOM     49  N   UNL A   1      42.453  27.916  31.345  1.00  0.00    -0.354 N 
ATOM     50  N   UNL A   1      41.462  29.637  33.522  1.00  0.00    -0.248 NA
ATOM     51  C   UNL A   1      41.657  30.470  35.695  1.00  0.00     0.031 C 
ATOM     52  C   UNL A   1      44.343  26.797  31.675  1.00  0.00     0.029 A 
ATOM     53  C   UNL A   1      43.462  27.691  32.264  1.00  0.00     0.049 A 
ATOM     54  H   UNL A   1      41.673  28.499  31.492  1.00  0.00     0.167 HD
ATOM     55  C   UNL A   1      42.623  29.139  34.097  1.00  0.00     0.074 A 
ATOM     56  C   UNL A   1      42.706  29.706  35.428  1.00  0.00     0.031 C 
ATOM     57  C   UNL A   1      43.539  28.291  33.571  1.00  0.00     0.037 A 
BRANCH  44  58
ATOM     58  C   UNL A   1      42.230  26.343  27.855  1.00  0.00     0.064 A 
ATOM     59  C   UNL A   1      41.687  25.059  27.695  1.00  0.00     0.173 A 
ATOM     60  C   UNL A   1      43.122  26.804  26.876  1.00  0.00     0.173 A 
ATOM     61  F   UNL A   1      40.839  24.564  28.609  1.00  0.00    -0.203 F 
ATOM     62  C   UNL A   1      42.049  24.256  26.616  1.00  0.00     0.198 A 
ATOM     63  C   UNL A   1      43.458  26.011  25.782  1.00  0.00     0.198 A 
ATOM     64  F   UNL A   1      43.667  28.025  26.979  1.00  0.00    -0.203 F 
ATOM     65  F   UNL A   1      41.561  23.013  26.515  1.00  0.00    -0.200 F 
ATOM     66  C   UNL A   1      42.929  24.736  25.657  1.00  0.00     0.200 A 
ATOM     67  F   UNL A   1      44.299  26.480  24.849  1.00  0.00    -0.200 F 
ATOM     68  F   UNL A   1      43.274  23.964  24.617  1.00  0.00    -0.200 F 
ENDBRANCH  44  58
BRANCH  45  69
ATOM     69  C   UNL A   1      39.193  32.047  35.490  1.00  0.00     0.064 A 
ATOM     70  C   UNL A   1      38.398  31.472  36.492  1.00  0.00     0.173 A 
ATOM     71  C   UNL A   1      39.531  33.402  35.622  1.00  0.00     0.173 A 
ATOM     72  F   UNL A   1      38.033  30.185  36.399  1.00  0.00    -0.203 F 
ATOM     73  C   UNL A   1      37.943  32.226  37.572  1.00  0.00     0.198 A 
ATOM     74  C   UNL A   1      39.096  34.148  36.716  1.00  0.00     0.198 A 
ATOM     75  F   UNL A   1      40.294  33.997  34.694  1.00  0.00    -0.203 F 
ATOM     76  F   UNL A   1      37.150  31.661  38.492  1.00  0.00    -0.200 F 
ATOM     77  C   UNL A   1      38.297  33.562  37.686  1.00  0.00     0.200 A 
ATOM     78  F   UNL A   1      39.449  35.435  36.830  1.00  0.00    -0.200 F 
ATOM     79  F   UNL A   1      37.861  34.285  38.726  1.00  0.00    -0.200 F 
ENDBRANCH  45  69
BRANCH  57  80
ATOM     80  C   UNL A   1      44.742  27.971  34.404  1.00  0.00     0.064 A 
ATOM     81  C   UNL A   1      44.781  26.846  35.240  1.00  0.00     0.173 A 
ATOM     82  C   UNL A   1      45.896  28.764  34.307  1.00  0.00     0.173 A 
ATOM     83  F   UNL A   1      43.698  26.067  35.374  1.00  0.00    -0.203 F 
ATOM     84  C   UNL A   1      45.930  26.535  35.962  1.00  0.00     0.198 A 
ATOM     85  C   UNL A   1      47.051  28.435  35.011  1.00  0.00     0.198 A 
ATOM     86  F   UNL A   1      45.908  29.845  33.514  1.00  0.00    -0.203 F 
ATOM     87  F   UNL A   1      45.938  25.474  36.780  1.00  0.00    -0.200 F 
ATOM     88  C   UNL A   1      47.065  27.324  35.839  1.00  0.00     0.200 A 
ATOM     89  F   UNL A   1      48.150  29.191  34.882  1.00  0.00    -0.200 F 
ATOM     90  F   UNL A   1      48.175  27.014  36.525  1.00  0.00    -0.200 F 
ENDBRANCH  57  80
ENDBRANCH  31  32
ENDBRANCH  23  26
ENDBRANCH  21  22
ENDBRANCH  20  21
ENDBRANCH   1  20
TORSDOF 15
ENDMDL
