MODEL 1
REMARK VINA RESULT:     -13.3      0.000      0.000
REMARK SMILES C[C@]12C[C@@H](O)[C@H]3[C@@H](CCC4=CC(=O)C=C[C@]43C)[C@H]1CC[C@]2(O)C(=O)COC(=O)CCC(=O)NCCCNC(=O)c1ccc(-c2c3nc(c(-c4c(F)c(F)c(F)c(F)c4F)c4ccc([nH]4)c(-c4c(F)c(F)c(F)c(F)c4F)c4nc(c(-c5c(F)c(F)c(F)c(F)c5F)c5ccc2[nH]5)C=C4)C=C3)cc1
REMARK SMILES IDX 31 1 32 2 33 3 30 5 29 6 27 7 28 8 26 9 25 10 23 11 24 12
REMARK SMILES IDX 21 13 17 14 16 15 15 16 10 17 6 18 14 19 11 20 9 21 7 22
REMARK SMILES IDX 4 23 12 24 8 25 18 26 3 27 13 28 2 29 19 30 1 31 20 32 5 33
REMARK SMILES IDX 22 35 34 37 35 38 36 39 37 40 38 41 39 43 40 44 41 45 102 46
REMARK SMILES IDX 42 47 101 48 43 49 44 50 45 51 95 52 46 53 100 54 94 55
REMARK SMILES IDX 96 56 47 57 99 58 93 59 92 60 48 62 80 63 60 64 79 65 61 66
REMARK SMILES IDX 64 67 78 68 97 69 62 70 63 71 77 73 98 74 65 75 49 76 50 77
REMARK SMILES IDX 58 78 51 79 52 80 56 81 59 82 53 83 54 84 57 85 55 86 81 87
REMARK SMILES IDX 82 88 90 89 83 90 84 91 88 92 91 93 85 94 86 95 89 96 87 97
REMARK SMILES IDX 66 98 67 99 75 100 68 101 69 102 73 103 76 104 70 105 71 106
REMARK SMILES IDX 74 107 72 108
REMARK H PARENT 33 4 5 34 22 36 37 42 96 61 64 72
REMARK Flexibility Score: inf
ROOT
ATOM      1  C   UNL A   1      35.337  32.040  27.943  1.00  0.00     0.220 C 
ATOM      2  O   UNL A   1      36.412  31.434  27.956  1.00  0.00    -0.275 OA
ATOM      3  N   UNL A   1      35.368  33.379  28.164  1.00  0.00    -0.356 N 
ATOM      4  H   UNL A   1      36.207  33.713  28.556  1.00  0.00     0.163 HD
ENDROOT
BRANCH   1   5
ATOM      5  C   UNL A   1      34.047  31.301  27.643  1.00  0.00     0.111 C 
BRANCH   5   6
ATOM      6  C   UNL A   1      34.212  29.832  27.264  1.00  0.00     0.132 C 
BRANCH   6   7
ATOM      7  C   UNL A   1      32.869  29.169  27.065  1.00  0.00     0.306 C 
ATOM      8  O   UNL A   1      31.786  29.716  27.275  1.00  0.00    -0.252 OA
BRANCH   7   9
ATOM      9  O   UNL A   1      33.005  27.858  26.762  1.00  0.00    -0.458 OA
BRANCH   9  10
ATOM     10  C   UNL A   1      33.697  27.515  25.569  1.00  0.00     0.311 C 
BRANCH  10  11
ATOM     11  C   UNL A   1      33.162  26.695  24.359  1.00  0.00     0.202 C 
ATOM     12  O   UNL A   1      33.245  27.211  23.234  1.00  0.00    -0.293 OA
BRANCH  11  13
ATOM     13  C   UNL A   1      32.491  25.305  24.536  1.00  0.00     0.132 C 
ATOM     14  C   UNL A   1      32.519  18.773  25.785  1.00  0.00     0.021 C 
ATOM     15  C   UNL A   1      33.330  19.396  24.597  1.00  0.00     0.013 C 
ATOM     16  C   UNL A   1      34.793  18.967  24.779  1.00  0.00    -0.012 C 
ATOM     17  C   UNL A   1      32.840  18.695  23.312  1.00  0.00    -0.056 C 
ATOM     18  C   UNL A   1      33.050  20.960  24.657  1.00  0.00     0.035 C 
ATOM     19  C   UNL A   1      35.191  17.709  24.519  1.00  0.00     0.048 C 
ATOM     20  C   UNL A   1      33.176  17.409  23.072  1.00  0.00     0.052 C 
ATOM     21  C   UNL A   1      32.183  19.449  22.192  1.00  0.00     0.032 C 
ATOM     22  C   UNL A   1      32.898  21.617  23.272  1.00  0.00    -0.000 C 
ATOM     23  C   UNL A   1      34.047  21.773  25.510  1.00  0.00     0.119 C 
ATOM     24  C   UNL A   1      34.229  16.765  23.896  1.00  0.00     0.178 C 
ATOM     25  C   UNL A   1      31.803  20.883  22.493  1.00  0.00     0.009 C 
ATOM     26  C   UNL A   1      32.615  23.141  23.280  1.00  0.00     0.002 C 
ATOM     27  C   UNL A   1      33.585  23.219  25.624  1.00  0.00     0.042 C 
ATOM     28  O   UNL A   1      34.375  15.554  23.948  1.00  0.00    -0.290 OA
ATOM     29  C   UNL A   1      33.408  24.001  24.307  1.00  0.00     0.009 C 
ATOM     30  C   UNL A   1      31.175  23.616  23.462  1.00  0.00     0.008 C 
ATOM     31  C   UNL A   1      34.792  24.302  23.702  1.00  0.00     0.015 C 
ATOM     32  C   UNL A   1      31.371  25.131  23.495  1.00  0.00     0.044 C 
BRANCH  23  33
ATOM     33  O   UNL A   1      34.132  21.307  26.859  1.00  0.00    -0.393 OA
ATOM     34  H   UNL A   1      33.238  21.201  27.222  1.00  0.00     0.210 HD
ENDBRANCH  23  33
BRANCH  13  35
ATOM     35  O   UNL A   1      31.820  25.193  25.783  1.00  0.00    -0.381 OA
ATOM     36  H   UNL A   1      31.678  26.078  26.154  1.00  0.00     0.212 HD
ENDBRANCH  13  35
ENDBRANCH  11  13
ENDBRANCH  10  11
ENDBRANCH   9  10
ENDBRANCH   7   9
ENDBRANCH   6   7
ENDBRANCH   5   6
ENDBRANCH   1   5
BRANCH   3  37
ATOM     37  C   UNL A   1      34.365  34.392  27.918  1.00  0.00     0.117 C 
BRANCH  37  38
ATOM     38  C   UNL A   1      33.409  34.600  29.084  1.00  0.00     0.042 C 
BRANCH  38  39
ATOM     39  C   UNL A   1      33.231  36.064  29.473  1.00  0.00     0.118 C 
BRANCH  39  40
ATOM     40  N   UNL A   1      32.501  36.326  30.712  1.00  0.00    -0.352 N 
ATOM     41  C   UNL A   1      32.765  36.076  32.038  1.00  0.00     0.251 C 
ATOM     42  H   UNL A   1      31.639  36.777  30.567  1.00  0.00     0.163 HD
ATOM     43  O   UNL A   1      32.034  36.557  32.902  1.00  0.00    -0.269 OA
BRANCH  41  44
ATOM     44  C   UNL A   1      33.889  35.234  32.473  1.00  0.00     0.039 A 
ATOM     45  C   UNL A   1      33.633  33.929  32.915  1.00  0.00     0.014 A 
ATOM     46  C   UNL A   1      35.182  35.737  32.516  1.00  0.00     0.014 A 
ATOM     47  C   UNL A   1      34.688  33.119  33.334  1.00  0.00     0.010 A 
ATOM     48  C   UNL A   1      36.241  34.891  32.779  1.00  0.00     0.010 A 
ATOM     49  C   UNL A   1      36.005  33.586  33.226  1.00  0.00    -0.014 A 
BRANCH  49  50
ATOM     50  C   UNL A   1      37.176  32.777  33.624  1.00  0.00     0.031 A 
ATOM     51  C   UNL A   1      37.861  33.080  34.928  1.00  0.00     0.074 A 
ATOM     52  C   UNL A   1      37.680  31.875  32.763  1.00  0.00     0.049 A 
ATOM     53  N   UNL A   1      39.015  32.662  35.377  1.00  0.00    -0.248 NA
ATOM     54  C   UNL A   1      37.180  34.031  35.826  1.00  0.00     0.031 C 
ATOM     55  C   UNL A   1      37.111  31.539  31.457  1.00  0.00     0.029 A 
ATOM     56  N   UNL A   1      38.802  31.094  32.848  1.00  0.00    -0.354 N 
ATOM     57  C   UNL A   1      39.210  33.324  36.582  1.00  0.00     0.074 A 
ATOM     58  C   UNL A   1      38.094  34.224  36.764  1.00  0.00     0.031 C 
ATOM     59  C   UNL A   1      37.874  30.603  30.873  1.00  0.00     0.029 A 
ATOM     60  C   UNL A   1      39.014  30.319  31.736  1.00  0.00     0.049 A 
ATOM     61  H   UNL A   1      39.399  31.090  33.631  1.00  0.00     0.167 HD
ATOM     62  C   UNL A   1      40.220  33.172  37.470  1.00  0.00     0.037 A 
ATOM     63  C   UNL A   1      40.031  29.488  31.444  1.00  0.00     0.037 A 
ATOM     64  C   UNL A   1      41.299  32.240  37.286  1.00  0.00     0.049 A 
ATOM     65  C   UNL A   1      41.141  29.335  32.447  1.00  0.00     0.074 A 
ATOM     66  C   UNL A   1      42.346  31.949  38.139  1.00  0.00     0.029 A 
ATOM     67  N   UNL A   1      41.460  31.439  36.162  1.00  0.00    -0.354 N 
ATOM     68  N   UNL A   1      41.295  29.928  33.608  1.00  0.00    -0.248 NA
ATOM     69  C   UNL A   1      42.215  28.397  32.103  1.00  0.00     0.031 C 
ATOM     70  C   UNL A   1      43.170  31.010  37.510  1.00  0.00     0.029 A 
ATOM     71  C   UNL A   1      42.603  30.669  36.291  1.00  0.00     0.049 A 
ATOM     72  H   UNL A   1      40.853  31.422  35.388  1.00  0.00     0.167 HD
ATOM     73  C   UNL A   1      42.466  29.413  34.146  1.00  0.00     0.074 A 
ATOM     74  C   UNL A   1      42.971  28.448  33.190  1.00  0.00     0.031 C 
ATOM     75  C   UNL A   1      43.072  29.710  35.323  1.00  0.00     0.037 A 
BRANCH  62  76
ATOM     76  C   UNL A   1      40.197  34.021  38.709  1.00  0.00     0.064 A 
ATOM     77  C   UNL A   1      39.521  33.616  39.872  1.00  0.00     0.173 A 
ATOM     78  C   UNL A   1      40.874  35.250  38.744  1.00  0.00     0.173 A 
ATOM     79  F   UNL A   1      38.843  32.459  39.891  1.00  0.00    -0.203 F 
ATOM     80  C   UNL A   1      39.496  34.423  41.007  1.00  0.00     0.198 A 
ATOM     81  C   UNL A   1      40.878  36.036  39.893  1.00  0.00     0.198 A 
ATOM     82  F   UNL A   1      41.536  35.688  37.663  1.00  0.00    -0.203 F 
ATOM     83  F   UNL A   1      38.792  34.041  42.082  1.00  0.00    -0.200 F 
ATOM     84  C   UNL A   1      40.181  35.627  41.021  1.00  0.00     0.200 A 
ATOM     85  F   UNL A   1      41.550  37.195  39.908  1.00  0.00    -0.200 F 
ATOM     86  F   UNL A   1      40.162  36.399  42.116  1.00  0.00    -0.200 F 
ENDBRANCH  62  76
BRANCH  63  87
ATOM     87  C   UNL A   1      40.026  28.726  30.169  1.00  0.00     0.064 A 
ATOM     88  C   UNL A   1      39.417  27.465  30.092  1.00  0.00     0.173 A 
ATOM     89  C   UNL A   1      40.611  29.238  29.002  1.00  0.00     0.173 A 
ATOM     90  F   UNL A   1      38.855  26.927  31.184  1.00  0.00    -0.203 F 
ATOM     91  C   UNL A   1      39.413  26.737  28.904  1.00  0.00     0.198 A 
ATOM     92  C   UNL A   1      40.579  28.523  27.805  1.00  0.00     0.198 A 
ATOM     93  F   UNL A   1      41.195  30.445  29.016  1.00  0.00    -0.203 F 
ATOM     94  F   UNL A   1      38.864  25.515  28.872  1.00  0.00    -0.200 F 
ATOM     95  C   UNL A   1      39.990  27.270  27.760  1.00  0.00     0.200 A 
ATOM     96  F   UNL A   1      41.118  29.050  26.698  1.00  0.00    -0.200 F 
ATOM     97  F   UNL A   1      39.980  26.572  26.617  1.00  0.00    -0.200 F 
ENDBRANCH  63  87
BRANCH  75  98
ATOM     98  C   UNL A   1      44.323  28.950  35.655  1.00  0.00     0.064 A 
ATOM     99  C   UNL A   1      44.282  27.731  36.347  1.00  0.00     0.173 A 
ATOM    100  C   UNL A   1      45.573  29.432  35.238  1.00  0.00     0.173 A 
ATOM    101  F   UNL A   1      43.112  27.237  36.778  1.00  0.00    -0.203 F 
ATOM    102  C   UNL A   1      45.452  27.036  36.635  1.00  0.00     0.198 A 
ATOM    103  C   UNL A   1      46.737  28.716  35.498  1.00  0.00     0.198 A 
ATOM    104  F   UNL A   1      45.663  30.589  34.566  1.00  0.00    -0.203 F 
ATOM    105  F   UNL A   1      45.397  25.901  37.345  1.00  0.00    -0.200 F 
ATOM    106  C   UNL A   1      46.677  27.524  36.203  1.00  0.00     0.200 A 
ATOM    107  F   UNL A   1      47.918  29.180  35.064  1.00  0.00    -0.200 F 
ATOM    108  F   UNL A   1      47.802  26.848  36.474  1.00  0.00    -0.200 F 
ENDBRANCH  75  98
ENDBRANCH  49  50
ENDBRANCH  41  44
ENDBRANCH  39  40
ENDBRANCH  38  39
ENDBRANCH  37  38
ENDBRANCH   3  37
TORSDOF 18
ENDMDL
MODEL 2
REMARK VINA RESULT:     -13.2      6.813     12.553
REMARK SMILES C[C@]12C[C@@H](O)[C@H]3[C@@H](CCC4=CC(=O)C=C[C@]43C)[C@H]1CC[C@]2(O)C(=O)COC(=O)CCC(=O)NCCCNC(=O)c1ccc(-c2c3nc(c(-c4c(F)c(F)c(F)c(F)c4F)c4ccc([nH]4)c(-c4c(F)c(F)c(F)c(F)c4F)c4nc(c(-c5c(F)c(F)c(F)c(F)c5F)c5ccc2[nH]5)C=C4)C=C3)cc1
REMARK SMILES IDX 31 1 32 2 33 3 30 5 29 6 27 7 28 8 26 9 25 10 23 11 24 12
REMARK SMILES IDX 21 13 17 14 16 15 15 16 10 17 6 18 14 19 11 20 9 21 7 22
REMARK SMILES IDX 4 23 12 24 8 25 18 26 3 27 13 28 2 29 19 30 1 31 20 32 5 33
REMARK SMILES IDX 22 35 34 37 35 38 36 39 37 40 38 41 39 43 40 44 41 45 102 46
REMARK SMILES IDX 42 47 101 48 43 49 44 50 45 51 95 52 46 53 100 54 94 55
REMARK SMILES IDX 96 56 47 57 99 58 93 59 92 60 48 62 80 63 60 64 79 65 61 66
REMARK SMILES IDX 64 67 78 68 97 69 62 70 63 71 77 73 98 74 65 75 49 76 50 77
REMARK SMILES IDX 58 78 51 79 52 80 56 81 59 82 53 83 54 84 57 85 55 86 81 87
REMARK SMILES IDX 82 88 90 89 83 90 84 91 88 92 91 93 85 94 86 95 89 96 87 97
REMARK SMILES IDX 66 98 67 99 75 100 68 101 69 102 73 103 76 104 70 105 71 106
REMARK SMILES IDX 74 107 72 108
REMARK H PARENT 33 4 5 34 22 36 37 42 96 61 64 72
REMARK Flexibility Score: inf
ROOT
ATOM      1  C   UNL A   1      41.765  22.219  28.278  1.00  0.00     0.220 C 
ATOM      2  O   UNL A   1      42.488  22.953  28.956  1.00  0.00    -0.275 OA
ATOM      3  N   UNL A   1      42.221  20.971  28.000  1.00  0.00    -0.356 N 
ATOM      4  H   UNL A   1      43.186  20.840  28.152  1.00  0.00     0.163 HD
ENDROOT
BRANCH   1   5
ATOM      5  C   UNL A   1      40.402  22.701  27.821  1.00  0.00     0.111 C 
BRANCH   5   6
ATOM      6  C   UNL A   1      40.132  22.567  26.325  1.00  0.00     0.132 C 
BRANCH   6   7
ATOM      7  C   UNL A   1      38.654  22.668  26.029  1.00  0.00     0.306 C 
ATOM      8  O   UNL A   1      37.996  23.703  26.124  1.00  0.00    -0.252 OA
BRANCH   7   9
ATOM      9  O   UNL A   1      38.116  21.452  25.780  1.00  0.00    -0.458 OA
BRANCH   9  10
ATOM     10  C   UNL A   1      37.108  21.358  24.783  1.00  0.00     0.311 C 
BRANCH  10  11
ATOM     11  C   UNL A   1      35.645  20.855  24.952  1.00  0.00     0.202 C 
ATOM     12  O   UNL A   1      35.399  19.684  24.626  1.00  0.00    -0.293 OA
BRANCH  11  13
ATOM     13  C   UNL A   1      34.505  21.785  25.452  1.00  0.00     0.132 C 
ATOM     14  C   UNL A   1      29.629  26.233  24.626  1.00  0.00     0.021 C 
ATOM     15  C   UNL A   1      31.109  26.531  24.200  1.00  0.00     0.013 C 
ATOM     16  C   UNL A   1      31.079  26.913  22.713  1.00  0.00    -0.012 C 
ATOM     17  C   UNL A   1      31.537  27.807  24.956  1.00  0.00    -0.056 C 
ATOM     18  C   UNL A   1      31.935  25.224  24.567  1.00  0.00     0.035 C 
ATOM     19  C   UNL A   1      30.618  28.109  22.307  1.00  0.00     0.048 C 
ATOM     20  C   UNL A   1      31.028  29.007  24.602  1.00  0.00     0.052 C 
ATOM     21  C   UNL A   1      32.676  27.811  25.935  1.00  0.00     0.032 C 
ATOM     22  C   UNL A   1      33.343  25.514  25.122  1.00  0.00    -0.000 C 
ATOM     23  C   UNL A   1      32.029  24.169  23.444  1.00  0.00     0.119 C 
ATOM     24  C   UNL A   1      30.279  29.134  23.327  1.00  0.00     0.178 C 
ATOM     25  C   UNL A   1      33.217  26.452  26.327  1.00  0.00     0.009 C 
ATOM     26  C   UNL A   1      34.184  24.270  25.503  1.00  0.00     0.002 C 
ATOM     27  C   UNL A   1      32.698  22.904  23.963  1.00  0.00     0.042 C 
ATOM     28  O   UNL A   1      29.547  30.079  23.085  1.00  0.00    -0.290 OA
ATOM     29  C   UNL A   1      34.123  23.053  24.534  1.00  0.00     0.009 C 
ATOM     30  C   UNL A   1      33.971  23.635  26.876  1.00  0.00     0.008 C 
ATOM     31  C   UNL A   1      35.109  23.316  23.382  1.00  0.00     0.015 C 
ATOM     32  C   UNL A   1      34.909  22.432  26.788  1.00  0.00     0.044 C 
BRANCH  23  33
ATOM     33  O   UNL A   1      30.747  23.741  22.977  1.00  0.00    -0.393 OA
ATOM     34  H   UNL A   1      30.201  24.517  22.775  1.00  0.00     0.210 HD
ENDBRANCH  23  33
BRANCH  13  35
ATOM     35  O   UNL A   1      33.325  21.060  25.764  1.00  0.00    -0.381 OA
ATOM     36  H   UNL A   1      33.563  20.235  26.216  1.00  0.00     0.212 HD
ENDBRANCH  13  35
ENDBRANCH  11  13
ENDBRANCH  10  11
ENDBRANCH   9  10
ENDBRANCH   7   9
ENDBRANCH   6   7
ENDBRANCH   5   6
ENDBRANCH   1   5
BRANCH   3  37
ATOM     37  C   UNL A   1      41.518  19.804  27.515  1.00  0.00     0.117 C 
BRANCH  37  38
ATOM     38  C   UNL A   1      42.018  19.308  26.165  1.00  0.00     0.042 C 
BRANCH  38  39
ATOM     39  C   UNL A   1      43.373  18.614  26.234  1.00  0.00     0.118 C 
BRANCH  39  40
ATOM     40  N   UNL A   1      44.097  18.469  24.971  1.00  0.00    -0.352 N 
ATOM     41  C   UNL A   1      44.906  19.307  24.242  1.00  0.00     0.251 C 
ATOM     42  H   UNL A   1      43.981  17.584  24.557  1.00  0.00     0.163 HD
ATOM     43  O   UNL A   1      45.526  18.862  23.276  1.00  0.00    -0.269 OA
BRANCH  41  44
ATOM     44  C   UNL A   1      45.055  20.734  24.560  1.00  0.00     0.039 A 
ATOM     45  C   UNL A   1      44.645  21.689  23.619  1.00  0.00     0.014 A 
ATOM     46  C   UNL A   1      45.654  21.143  25.743  1.00  0.00     0.014 A 
ATOM     47  C   UNL A   1      44.783  23.047  23.905  1.00  0.00     0.010 A 
ATOM     48  C   UNL A   1      45.646  22.478  26.094  1.00  0.00     0.010 A 
ATOM     49  C   UNL A   1      45.245  23.446  25.165  1.00  0.00    -0.014 A 
BRANCH  49  50
ATOM     50  C   UNL A   1      45.391  24.866  25.551  1.00  0.00     0.031 A 
ATOM     51  C   UNL A   1      46.749  25.506  25.469  1.00  0.00     0.074 A 
ATOM     52  C   UNL A   1      44.342  25.518  26.083  1.00  0.00     0.049 A 
ATOM     53  N   UNL A   1      47.160  26.649  25.953  1.00  0.00    -0.248 NA
ATOM     54  C   UNL A   1      47.808  24.727  24.801  1.00  0.00     0.031 C 
ATOM     55  C   UNL A   1      42.994  24.970  26.243  1.00  0.00     0.029 A 
ATOM     56  N   UNL A   1      44.254  26.778  26.612  1.00  0.00    -0.354 N 
ATOM     57  C   UNL A   1      48.520  26.704  25.681  1.00  0.00     0.074 A 
ATOM     58  C   UNL A   1      48.884  25.454  25.052  1.00  0.00     0.031 C 
ATOM     59  C   UNL A   1      42.207  25.896  26.808  1.00  0.00     0.029 A 
ATOM     60  C   UNL A   1      43.008  27.078  27.104  1.00  0.00     0.049 A 
ATOM     61  H   UNL A   1      45.010  27.407  26.638  1.00  0.00     0.167 HD
ATOM     62  C   UNL A   1      49.382  27.722  25.910  1.00  0.00     0.037 A 
ATOM     63  C   UNL A   1      42.574  28.180  27.740  1.00  0.00     0.037 A 
ATOM     64  C   UNL A   1      48.988  28.972  26.500  1.00  0.00     0.049 A 
ATOM     65  C   UNL A   1      43.550  29.298  27.983  1.00  0.00     0.074 A 
ATOM     66  C   UNL A   1      49.752  30.100  26.728  1.00  0.00     0.029 A 
ATOM     67  N   UNL A   1      47.704  29.256  26.950  1.00  0.00    -0.354 N 
ATOM     68  N   UNL A   1      44.825  29.364  27.679  1.00  0.00    -0.248 NA
ATOM     69  C   UNL A   1      43.028  30.495  28.654  1.00  0.00     0.031 C 
ATOM     70  C   UNL A   1      48.944  31.050  27.362  1.00  0.00     0.029 A 
ATOM     71  C   UNL A   1      47.661  30.537  27.474  1.00  0.00     0.049 A 
ATOM     72  H   UNL A   1      46.939  28.639  26.904  1.00  0.00     0.167 HD
ATOM     73  C   UNL A   1      45.251  30.619  28.093  1.00  0.00     0.074 A 
ATOM     74  C   UNL A   1      44.093  31.284  28.654  1.00  0.00     0.031 C 
ATOM     75  C   UNL A   1      46.487  31.172  28.018  1.00  0.00     0.037 A 
BRANCH  62  76
ATOM     76  C   UNL A   1      50.819  27.524  25.520  1.00  0.00     0.064 A 
ATOM     77  C   UNL A   1      51.276  27.789  24.218  1.00  0.00     0.173 A 
ATOM     78  C   UNL A   1      51.760  27.081  26.462  1.00  0.00     0.173 A 
ATOM     79  F   UNL A   1      50.418  28.198  23.271  1.00  0.00    -0.203 F 
ATOM     80  C   UNL A   1      52.608  27.584  23.867  1.00  0.00     0.198 A 
ATOM     81  C   UNL A   1      53.099  26.914  26.118  1.00  0.00     0.198 A 
ATOM     82  F   UNL A   1      51.382  26.812  27.720  1.00  0.00    -0.203 F 
ATOM     83  F   UNL A   1      53.005  27.786  22.603  1.00  0.00    -0.200 F 
ATOM     84  C   UNL A   1      53.521  27.157  24.819  1.00  0.00     0.200 A 
ATOM     85  F   UNL A   1      53.982  26.511  27.042  1.00  0.00    -0.200 F 
ATOM     86  F   UNL A   1      54.804  26.968  24.482  1.00  0.00    -0.200 F 
ENDBRANCH  62  76
BRANCH  63  87
ATOM     87  C   UNL A   1      41.152  28.286  28.160  1.00  0.00     0.064 A 
ATOM     88  C   UNL A   1      40.743  27.824  29.419  1.00  0.00     0.173 A 
ATOM     89  C   UNL A   1      40.179  28.860  27.329  1.00  0.00     0.173 A 
ATOM     90  F   UNL A   1      41.634  27.257  30.245  1.00  0.00    -0.203 F 
ATOM     91  C   UNL A   1      39.411  27.910  29.821  1.00  0.00     0.198 A 
ATOM     92  C   UNL A   1      38.853  28.975  27.745  1.00  0.00     0.198 A 
ATOM     93  F   UNL A   1      40.519  29.330  26.120  1.00  0.00    -0.203 F 
ATOM     94  F   UNL A   1      39.040  27.419  31.011  1.00  0.00    -0.200 F 
ATOM     95  C   UNL A   1      38.469  28.491  28.985  1.00  0.00     0.200 A 
ATOM     96  F   UNL A   1      37.951  29.556  26.943  1.00  0.00    -0.200 F 
ATOM     97  F   UNL A   1      37.190  28.580  29.375  1.00  0.00    -0.200 F 
ENDBRANCH  63  87
BRANCH  75  98
ATOM     98  C   UNL A   1      46.633  32.580  28.517  1.00  0.00     0.064 A 
ATOM     99  C   UNL A   1      46.412  33.685  27.683  1.00  0.00     0.173 A 
ATOM    100  C   UNL A   1      46.961  32.821  29.860  1.00  0.00     0.173 A 
ATOM    101  F   UNL A   1      46.109  33.504  26.388  1.00  0.00    -0.203 F 
ATOM    102  C   UNL A   1      46.542  34.982  28.168  1.00  0.00     0.198 A 
ATOM    103  C   UNL A   1      47.056  34.120  30.350  1.00  0.00     0.198 A 
ATOM    104  F   UNL A   1      47.175  31.798  30.700  1.00  0.00    -0.203 F 
ATOM    105  F   UNL A   1      46.379  36.023  27.341  1.00  0.00    -0.200 F 
ATOM    106  C   UNL A   1      46.855  35.198  29.502  1.00  0.00     0.200 A 
ATOM    107  F   UNL A   1      47.340  34.327  31.643  1.00  0.00    -0.200 F 
ATOM    108  F   UNL A   1      46.970  36.449  29.969  1.00  0.00    -0.200 F 
ENDBRANCH  75  98
ENDBRANCH  49  50
ENDBRANCH  41  44
ENDBRANCH  39  40
ENDBRANCH  38  39
ENDBRANCH  37  38
ENDBRANCH   3  37
TORSDOF 18
ENDMDL
MODEL 3
REMARK VINA RESULT:     -12.8      1.084      2.537
REMARK SMILES C[C@]12C[C@@H](O)[C@H]3[C@@H](CCC4=CC(=O)C=C[C@]43C)[C@H]1CC[C@]2(O)C(=O)COC(=O)CCC(=O)NCCCNC(=O)c1ccc(-c2c3nc(c(-c4c(F)c(F)c(F)c(F)c4F)c4ccc([nH]4)c(-c4c(F)c(F)c(F)c(F)c4F)c4nc(c(-c5c(F)c(F)c(F)c(F)c5F)c5ccc2[nH]5)C=C4)C=C3)cc1
REMARK SMILES IDX 31 1 32 2 33 3 30 5 29 6 27 7 28 8 26 9 25 10 23 11 24 12
REMARK SMILES IDX 21 13 17 14 16 15 15 16 10 17 6 18 14 19 11 20 9 21 7 22
REMARK SMILES IDX 4 23 12 24 8 25 18 26 3 27 13 28 2 29 19 30 1 31 20 32 5 33
REMARK SMILES IDX 22 35 34 37 35 38 36 39 37 40 38 41 39 43 40 44 41 45 102 46
REMARK SMILES IDX 42 47 101 48 43 49 44 50 45 51 95 52 46 53 100 54 94 55
REMARK SMILES IDX 96 56 47 57 99 58 93 59 92 60 48 62 80 63 60 64 79 65 61 66
REMARK SMILES IDX 64 67 78 68 97 69 62 70 63 71 77 73 98 74 65 75 49 76 50 77
REMARK SMILES IDX 58 78 51 79 52 80 56 81 59 82 53 83 54 84 57 85 55 86 81 87
REMARK SMILES IDX 82 88 90 89 83 90 84 91 88 92 91 93 85 94 86 95 89 96 87 97
REMARK SMILES IDX 66 98 67 99 75 100 68 101 69 102 73 103 76 104 70 105 71 106
REMARK SMILES IDX 74 107 72 108
REMARK H PARENT 33 4 5 34 22 36 37 42 96 61 64 72
REMARK Flexibility Score: inf
ROOT
ATOM      1  C   UNL A   1      35.384  32.180  27.994  1.00  0.00     0.220 C 
ATOM      2  O   UNL A   1      36.361  31.534  27.606  1.00  0.00    -0.275 OA
ATOM      3  N   UNL A   1      35.470  33.534  27.953  1.00  0.00    -0.356 N 
ATOM      4  H   UNL A   1      36.383  33.887  27.850  1.00  0.00     0.163 HD
ENDROOT
BRANCH   1   5
ATOM      5  C   UNL A   1      34.129  31.464  28.454  1.00  0.00     0.111 C 
BRANCH   5   6
ATOM      6  C   UNL A   1      33.044  31.306  27.393  1.00  0.00     0.132 C 
BRANCH   6   7
ATOM      7  C   UNL A   1      33.112  29.943  26.745  1.00  0.00     0.306 C 
ATOM      8  O   UNL A   1      33.451  28.913  27.327  1.00  0.00    -0.252 OA
BRANCH   7   9
ATOM      9  O   UNL A   1      32.890  30.018  25.412  1.00  0.00    -0.458 OA
BRANCH   9  10
ATOM     10  C   UNL A   1      31.551  30.184  24.966  1.00  0.00     0.311 C 
BRANCH  10  11
ATOM     11  C   UNL A   1      30.810  29.384  23.857  1.00  0.00     0.202 C 
ATOM     12  O   UNL A   1      29.662  29.744  23.558  1.00  0.00    -0.293 OA
BRANCH  11  13
ATOM     13  C   UNL A   1      31.442  28.138  23.176  1.00  0.00     0.132 C 
ATOM     14  C   UNL A   1      32.355  21.602  22.344  1.00  0.00     0.021 C 
ATOM     15  C   UNL A   1      32.666  22.320  23.703  1.00  0.00     0.013 C 
ATOM     16  C   UNL A   1      31.854  21.599  24.788  1.00  0.00    -0.012 C 
ATOM     17  C   UNL A   1      34.149  22.033  24.024  1.00  0.00    -0.056 C 
ATOM     18  C   UNL A   1      32.314  23.853  23.472  1.00  0.00     0.035 C 
ATOM     19  C   UNL A   1      32.211  20.382  25.236  1.00  0.00     0.048 C 
ATOM     20  C   UNL A   1      34.531  20.796  24.409  1.00  0.00     0.052 C 
ATOM     21  C   UNL A   1      35.167  23.130  24.144  1.00  0.00     0.032 C 
ATOM     22  C   UNL A   1      33.295  24.825  24.156  1.00  0.00    -0.000 C 
ATOM     23  C   UNL A   1      30.863  24.252  23.817  1.00  0.00     0.119 C 
ATOM     24  C   UNL A   1      33.499  19.798  24.785  1.00  0.00     0.178 C 
ATOM     25  C   UNL A   1      34.717  24.503  23.690  1.00  0.00     0.009 C 
ATOM     26  C   UNL A   1      32.996  26.332  23.952  1.00  0.00     0.002 C 
ATOM     27  C   UNL A   1      30.602  25.693  23.404  1.00  0.00     0.042 C 
ATOM     28  O   UNL A   1      33.732  18.602  24.849  1.00  0.00    -0.290 OA
ATOM     29  C   UNL A   1      31.506  26.774  24.031  1.00  0.00     0.009 C 
ATOM     30  C   UNL A   1      33.497  27.011  22.678  1.00  0.00     0.008 C 
ATOM     31  C   UNL A   1      31.142  26.945  25.517  1.00  0.00     0.015 C 
ATOM     32  C   UNL A   1      32.921  28.416  22.852  1.00  0.00     0.044 C 
BRANCH  23  33
ATOM     33  O   UNL A   1      29.892  23.483  23.103  1.00  0.00    -0.393 OA
ATOM     34  H   UNL A   1      30.136  23.444  22.165  1.00  0.00     0.210 HD
ENDBRANCH  23  33
BRANCH  13  35
ATOM     35  O   UNL A   1      30.859  27.871  21.910  1.00  0.00    -0.381 OA
ATOM     36  H   UNL A   1      29.950  27.553  22.033  1.00  0.00     0.212 HD
ENDBRANCH  13  35
ENDBRANCH  11  13
ENDBRANCH  10  11
ENDBRANCH   9  10
ENDBRANCH   7   9
ENDBRANCH   6   7
ENDBRANCH   5   6
ENDBRANCH   1   5
BRANCH   3  37
ATOM     37  C   UNL A   1      34.435  34.541  28.039  1.00  0.00     0.117 C 
BRANCH  37  38
ATOM     38  C   UNL A   1      34.260  35.119  29.436  1.00  0.00     0.042 C 
BRANCH  38  39
ATOM     39  C   UNL A   1      33.284  36.289  29.493  1.00  0.00     0.118 C 
BRANCH  39  40
ATOM     40  N   UNL A   1      32.454  36.388  30.693  1.00  0.00    -0.352 N 
ATOM     41  C   UNL A   1      32.634  36.012  32.003  1.00  0.00     0.251 C 
ATOM     42  H   UNL A   1      31.582  36.813  30.528  1.00  0.00     0.163 HD
ATOM     43  O   UNL A   1      31.819  36.368  32.853  1.00  0.00    -0.269 OA
BRANCH  41  44
ATOM     44  C   UNL A   1      33.765  35.180  32.437  1.00  0.00     0.039 A 
ATOM     45  C   UNL A   1      33.541  33.831  32.744  1.00  0.00     0.014 A 
ATOM     46  C   UNL A   1      35.029  35.728  32.609  1.00  0.00     0.014 A 
ATOM     47  C   UNL A   1      34.604  33.030  33.161  1.00  0.00     0.010 A 
ATOM     48  C   UNL A   1      36.107  34.905  32.867  1.00  0.00     0.010 A 
ATOM     49  C   UNL A   1      35.902  33.557  33.181  1.00  0.00    -0.014 A 
BRANCH  49  50
ATOM     50  C   UNL A   1      37.082  32.761  33.584  1.00  0.00     0.031 A 
ATOM     51  C   UNL A   1      37.759  33.073  34.890  1.00  0.00     0.074 A 
ATOM     52  C   UNL A   1      37.600  31.866  32.724  1.00  0.00     0.049 A 
ATOM     53  N   UNL A   1      38.916  32.669  35.343  1.00  0.00    -0.248 NA
ATOM     54  C   UNL A   1      37.063  34.016  35.785  1.00  0.00     0.031 C 
ATOM     55  C   UNL A   1      37.040  31.522  31.416  1.00  0.00     0.029 A 
ATOM     56  N   UNL A   1      38.732  31.099  32.814  1.00  0.00    -0.354 N 
ATOM     57  C   UNL A   1      39.099  33.335  36.548  1.00  0.00     0.074 A 
ATOM     58  C   UNL A   1      37.971  34.220  36.726  1.00  0.00     0.031 C 
ATOM     59  C   UNL A   1      37.816  30.595  30.835  1.00  0.00     0.029 A 
ATOM     60  C   UNL A   1      38.957  30.326  31.703  1.00  0.00     0.049 A 
ATOM     61  H   UNL A   1      39.325  31.102  33.599  1.00  0.00     0.167 HD
ATOM     62  C   UNL A   1      40.107  33.195  37.440  1.00  0.00     0.037 A 
ATOM     63  C   UNL A   1      39.985  29.508  31.415  1.00  0.00     0.037 A 
ATOM     64  C   UNL A   1      41.199  32.276  37.260  1.00  0.00     0.049 A 
ATOM     65  C   UNL A   1      41.093  29.368  32.422  1.00  0.00     0.074 A 
ATOM     66  C   UNL A   1      42.246  31.999  38.117  1.00  0.00     0.029 A 
ATOM     67  N   UNL A   1      41.373  31.477  36.137  1.00  0.00    -0.354 N 
ATOM     68  N   UNL A   1      41.236  29.963  33.583  1.00  0.00    -0.248 NA
ATOM     69  C   UNL A   1      42.180  28.443  32.081  1.00  0.00     0.031 C 
ATOM     70  C   UNL A   1      43.083  31.069  37.491  1.00  0.00     0.029 A 
ATOM     71  C   UNL A   1      42.525  30.721  36.271  1.00  0.00     0.049 A 
ATOM     72  H   UNL A   1      40.769  31.453  35.361  1.00  0.00     0.167 HD
ATOM     73  C   UNL A   1      42.411  29.463  34.125  1.00  0.00     0.074 A 
ATOM     74  C   UNL A   1      42.931  28.503  33.172  1.00  0.00     0.031 C 
ATOM     75  C   UNL A   1      43.009  29.768  35.304  1.00  0.00     0.037 A 
BRANCH  62  76
ATOM     76  C   UNL A   1      40.070  34.044  38.678  1.00  0.00     0.064 A 
ATOM     77  C   UNL A   1      39.394  33.631  39.839  1.00  0.00     0.173 A 
ATOM     78  C   UNL A   1      40.732  35.280  38.716  1.00  0.00     0.173 A 
ATOM     79  F   UNL A   1      38.728  32.467  39.855  1.00  0.00    -0.203 F 
ATOM     80  C   UNL A   1      39.354  34.438  40.974  1.00  0.00     0.198 A 
ATOM     81  C   UNL A   1      40.723  36.067  39.865  1.00  0.00     0.198 A 
ATOM     82  F   UNL A   1      41.394  35.726  37.638  1.00  0.00    -0.203 F 
ATOM     83  F   UNL A   1      38.651  34.048  42.046  1.00  0.00    -0.200 F 
ATOM     84  C   UNL A   1      40.026  35.650  40.990  1.00  0.00     0.200 A 
ATOM     85  F   UNL A   1      41.382  37.234  39.883  1.00  0.00    -0.200 F 
ATOM     86  F   UNL A   1      39.993  36.422  42.085  1.00  0.00    -0.200 F 
ENDBRANCH  62  76
BRANCH  63  87
ATOM     87  C   UNL A   1      39.994  28.745  30.140  1.00  0.00     0.064 A 
ATOM     88  C   UNL A   1      40.599  29.277  28.993  1.00  0.00     0.173 A 
ATOM     89  C   UNL A   1      39.418  27.469  30.040  1.00  0.00     0.173 A 
ATOM     90  F   UNL A   1      41.153  30.497  29.034  1.00  0.00    -0.203 F 
ATOM     91  C   UNL A   1      40.607  28.574  27.789  1.00  0.00     0.198 A 
ATOM     92  C   UNL A   1      39.454  26.754  28.844  1.00  0.00     0.198 A 
ATOM     93  F   UNL A   1      38.838  26.908  31.110  1.00  0.00    -0.203 F 
ATOM     94  F   UNL A   1      41.152  29.127  26.697  1.00  0.00    -0.200 F 
ATOM     95  C   UNL A   1      40.039  27.311  27.718  1.00  0.00     0.200 A 
ATOM     96  F   UNL A   1      38.924  25.525  28.785  1.00  0.00    -0.200 F 
ATOM     97  F   UNL A   1      40.054  26.633  26.562  1.00  0.00    -0.200 F 
ENDBRANCH  63  87
BRANCH  75  98
ATOM     98  C   UNL A   1      44.268  29.022  35.641  1.00  0.00     0.064 A 
ATOM     99  C   UNL A   1      45.531  29.509  35.279  1.00  0.00     0.173 A 
ATOM    100  C   UNL A   1      44.205  27.826  36.371  1.00  0.00     0.173 A 
ATOM    101  F   UNL A   1      45.642  30.642  34.568  1.00  0.00    -0.203 F 
ATOM    102  C   UNL A   1      46.687  28.809  35.610  1.00  0.00     0.198 A 
ATOM    103  C   UNL A   1      45.365  27.147  36.732  1.00  0.00     0.198 A 
ATOM    104  F   UNL A   1      43.020  27.324  36.748  1.00  0.00    -0.203 F 
ATOM    105  F   UNL A   1      47.881  29.263  35.207  1.00  0.00    -0.200 F 
ATOM    106  C   UNL A   1      46.604  27.635  36.344  1.00  0.00     0.200 A 
ATOM    107  F   UNL A   1      45.283  26.022  37.456  1.00  0.00    -0.200 F 
ATOM    108  F   UNL A   1      47.719  26.967  36.670  1.00  0.00    -0.200 F 
ENDBRANCH  75  98
ENDBRANCH  49  50
ENDBRANCH  41  44
ENDBRANCH  39  40
ENDBRANCH  38  39
ENDBRANCH  37  38
ENDBRANCH   3  37
TORSDOF 18
ENDMDL
