MODEL 1
REMARK VINA RESULT:     -11.5      0.000      0.000
REMARK SMILES O=C(CSCc1ccc(Cl)s1)Nc1ccsc1C(=O)NCCCNC(=O)c1ccc(-c2c3nc(c(-c4c(F)c(F)c(F)c(F)c4F)c4ccc([nH]4)c(-c4c(F)c(F)c(F)c(F)c4F)c4nc(c(-c5c(F)c(F)c(F)c(F)c5F)c5ccc2[nH]5)C=C4)C=C3)cc1
REMARK SMILES IDX 18 1 19 2 20 3 17 5 13 6 14 7 15 8 16 9 12 10 1 11 2 12 3 14
REMARK SMILES IDX 4 15 5 16 6 17 7 18 11 19 8 20 9 21 10 22 21 23 22 24 23 25
REMARK SMILES IDX 24 26 25 27 26 29 27 30 28 31 89 32 29 33 88 34 30 35 31 36
REMARK SMILES IDX 32 37 82 38 33 39 87 40 81 41 83 42 34 43 86 44 80 45 79 46
REMARK SMILES IDX 35 48 67 49 47 50 66 51 48 52 51 53 65 54 84 55 49 56 50 57
REMARK SMILES IDX 64 59 85 60 52 61 36 62 37 63 45 64 38 65 39 66 43 67 46 68
REMARK SMILES IDX 40 69 41 70 44 71 42 72 68 73 69 74 77 75 70 76 71 77 75 78
REMARK SMILES IDX 78 79 72 80 73 81 76 82 74 83 53 84 54 85 62 86 55 87 56 88
REMARK SMILES IDX 60 89 63 90 57 91 58 92 61 93 59 94
REMARK H PARENT 20 4 12 13 24 28 83 47 51 58
REMARK Flexibility Score: inf
ROOT
ATOM      1  C   UNL A   1      35.004  21.336  25.840  1.00  0.00     0.263 C 
ATOM      2  O   UNL A   1      34.706  21.690  26.991  1.00  0.00    -0.268 OA
ATOM      3  N   UNL A   1      36.359  21.315  25.678  1.00  0.00    -0.351 N 
ATOM      4  H   UNL A   1      36.827  21.586  26.501  1.00  0.00     0.163 HD
ENDROOT
BRANCH   1   5
ATOM      5  C   UNL A   1      33.991  21.036  24.821  1.00  0.00     0.115 A 
ATOM      6  C   UNL A   1      33.106  21.712  23.977  1.00  0.00     0.065 A 
ATOM      7  C   UNL A   1      32.261  20.805  23.243  1.00  0.00     0.038 A 
ATOM      8  C   UNL A   1      32.528  19.485  23.483  1.00  0.00     0.068 A 
ATOM      9  S   UNL A   1      33.756  19.303  24.627  1.00  0.00    -0.137 S 
BRANCH   6  10
ATOM     10  N   UNL A   1      33.012  23.085  23.739  1.00  0.00    -0.324 N 
ATOM     11  O   UNL A   1      35.098  23.302  22.750  1.00  0.00    -0.274 OA
ATOM     12  C   UNL A   1      34.063  23.808  23.187  1.00  0.00     0.234 C 
ATOM     13  H   UNL A   1      32.177  23.553  23.968  1.00  0.00     0.170 HD
BRANCH  12  14
ATOM     14  C   UNL A   1      33.848  25.309  23.093  1.00  0.00     0.170 C 
BRANCH  14  15
ATOM     15  S   UNL A   1      32.902  25.828  21.626  1.00  0.00    -0.146 SA
BRANCH  15  16
ATOM     16  C   UNL A   1      31.356  26.453  22.346  1.00  0.00     0.116 C 
BRANCH  16  17
ATOM     17  C   UNL A   1      31.233  26.627  23.832  1.00  0.00     0.016 A 
ATOM     18  C   UNL A   1      30.637  25.709  24.689  1.00  0.00     0.018 A 
ATOM     19  S   UNL A   1      31.821  27.975  24.714  1.00  0.00    -0.128 S 
ATOM     20  C   UNL A   1      30.652  26.124  26.053  1.00  0.00     0.033 A 
ATOM     21  C   UNL A   1      31.262  27.342  26.180  1.00  0.00     0.093 A 
ATOM     22  Cl  UNL A   1      31.501  28.215  27.640  1.00  0.00    -0.072 Cl
ENDBRANCH  16  17
ENDBRANCH  15  16
ENDBRANCH  14  15
ENDBRANCH  12  14
ENDBRANCH   6  10
ENDBRANCH   1   5
BRANCH   3  23
ATOM     23  C   UNL A   1      37.283  21.001  24.626  1.00  0.00     0.118 C 
BRANCH  23  24
ATOM     24  C   UNL A   1      38.039  19.712  24.875  1.00  0.00     0.042 C 
BRANCH  24  25
ATOM     25  C   UNL A   1      38.940  19.729  26.106  1.00  0.00     0.118 C 
BRANCH  25  26
ATOM     26  N   UNL A   1      40.186  18.978  25.988  1.00  0.00    -0.352 N 
ATOM     27  C   UNL A   1      41.510  19.315  26.071  1.00  0.00     0.251 C 
ATOM     28  H   UNL A   1      40.042  18.021  25.808  1.00  0.00     0.163 HD
ATOM     29  O   UNL A   1      42.342  18.421  25.890  1.00  0.00    -0.269 OA
BRANCH  27  30
ATOM     30  C   UNL A   1      41.977  20.688  26.356  1.00  0.00     0.039 A 
ATOM     31  C   UNL A   1      42.303  21.022  27.676  1.00  0.00     0.014 A 
ATOM     32  C   UNL A   1      42.047  21.675  25.376  1.00  0.00     0.014 A 
ATOM     33  C   UNL A   1      42.738  22.312  27.993  1.00  0.00     0.010 A 
ATOM     34  C   UNL A   1      42.613  22.913  25.661  1.00  0.00     0.010 A 
ATOM     35  C   UNL A   1      42.935  23.260  26.978  1.00  0.00    -0.014 A 
BRANCH  35  36
ATOM     36  C   UNL A   1      43.425  24.633  27.266  1.00  0.00     0.031 A 
ATOM     37  C   UNL A   1      42.485  25.671  27.825  1.00  0.00     0.074 A 
ATOM     38  C   UNL A   1      44.693  24.971  26.964  1.00  0.00     0.049 A 
ATOM     39  N   UNL A   1      42.688  26.947  28.040  1.00  0.00    -0.248 NA
ATOM     40  C   UNL A   1      41.121  25.224  28.152  1.00  0.00     0.031 C 
ATOM     41  C   UNL A   1      45.696  24.074  26.387  1.00  0.00     0.029 A 
ATOM     42  N   UNL A   1      45.355  26.168  27.094  1.00  0.00    -0.354 N 
ATOM     43  C   UNL A   1      41.479  27.450  28.502  1.00  0.00     0.074 A 
ATOM     44  C   UNL A   1      40.527  26.364  28.466  1.00  0.00     0.031 C 
ATOM     45  C   UNL A   1      46.850  24.742  26.247  1.00  0.00     0.029 A 
ATOM     46  C   UNL A   1      46.658  26.124  26.664  1.00  0.00     0.049 A 
ATOM     47  H   UNL A   1      44.934  26.979  27.461  1.00  0.00     0.167 HD
ATOM     48  C   UNL A   1      41.195  28.697  28.948  1.00  0.00     0.037 A 
ATOM     49  C   UNL A   1      47.592  27.091  26.602  1.00  0.00     0.037 A 
ATOM     50  C   UNL A   1      42.154  29.767  29.019  1.00  0.00     0.049 A 
ATOM     51  C   UNL A   1      47.248  28.473  27.089  1.00  0.00     0.074 A 
ATOM     52  C   UNL A   1      41.983  31.048  29.514  1.00  0.00     0.029 A 
ATOM     53  N   UNL A   1      43.469  29.678  28.586  1.00  0.00    -0.354 N 
ATOM     54  N   UNL A   1      46.118  28.921  27.578  1.00  0.00    -0.248 NA
ATOM     55  C   UNL A   1      48.317  29.478  27.028  1.00  0.00     0.031 C 
ATOM     56  C   UNL A   1      43.178  31.752  29.329  1.00  0.00     0.029 A 
ATOM     57  C   UNL A   1      44.114  30.890  28.779  1.00  0.00     0.049 A 
ATOM     58  H   UNL A   1      43.883  28.873  28.199  1.00  0.00     0.167 HD
ATOM     59  C   UNL A   1      46.348  30.247  27.918  1.00  0.00     0.074 A 
ATOM     60  C   UNL A   1      47.732  30.525  27.590  1.00  0.00     0.031 C 
ATOM     61  C   UNL A   1      45.492  31.151  28.456  1.00  0.00     0.037 A 
BRANCH  48  62
ATOM     62  C   UNL A   1      39.786  28.971  29.401  1.00  0.00     0.064 A 
ATOM     63  C   UNL A   1      38.804  29.442  28.516  1.00  0.00     0.173 A 
ATOM     64  C   UNL A   1      39.407  28.729  30.730  1.00  0.00     0.173 A 
ATOM     65  F   UNL A   1      39.114  29.703  27.238  1.00  0.00    -0.203 F 
ATOM     66  C   UNL A   1      37.506  29.697  28.953  1.00  0.00     0.198 A 
ATOM     67  C   UNL A   1      38.099  28.949  31.155  1.00  0.00     0.198 A 
ATOM     68  F   UNL A   1      40.304  28.273  31.618  1.00  0.00    -0.203 F 
ATOM     69  F   UNL A   1      36.602  30.205  28.104  1.00  0.00    -0.200 F 
ATOM     70  C   UNL A   1      37.153  29.442  30.270  1.00  0.00     0.200 A 
ATOM     71  F   UNL A   1      37.756  28.688  32.424  1.00  0.00    -0.200 F 
ATOM     72  F   UNL A   1      35.902  29.679  30.687  1.00  0.00    -0.200 F 
ENDBRANCH  48  62
BRANCH  49  73
ATOM     73  C   UNL A   1      48.948  26.780  26.078  1.00  0.00     0.064 A 
ATOM     74  C   UNL A   1      49.945  26.273  26.922  1.00  0.00     0.173 A 
ATOM     75  C   UNL A   1      49.278  26.988  24.731  1.00  0.00     0.173 A 
ATOM     76  F   UNL A   1      49.684  26.076  28.223  1.00  0.00    -0.203 F 
ATOM     77  C   UNL A   1      51.230  26.016  26.447  1.00  0.00     0.198 A 
ATOM     78  C   UNL A   1      50.555  26.703  24.250  1.00  0.00     0.198 A 
ATOM     79  F   UNL A   1      48.357  27.459  23.876  1.00  0.00    -0.203 F 
ATOM     80  F   UNL A   1      52.179  25.586  27.289  1.00  0.00    -0.200 F 
ATOM     81  C   UNL A   1      51.531  26.226  25.110  1.00  0.00     0.200 A 
ATOM     82  F   UNL A   1      50.837  26.897  22.955  1.00  0.00    -0.200 F 
ATOM     83  F   UNL A   1      52.768  25.983  24.655  1.00  0.00    -0.200 F 
ENDBRANCH  49  73
BRANCH  61  84
ATOM     84  C   UNL A   1      46.040  32.514  28.769  1.00  0.00     0.064 A 
ATOM     85  C   UNL A   1      45.978  33.567  27.845  1.00  0.00     0.173 A 
ATOM     86  C   UNL A   1      46.611  32.775  30.024  1.00  0.00     0.173 A 
ATOM     87  F   UNL A   1      45.453  33.368  26.627  1.00  0.00    -0.203 F 
ATOM     88  C   UNL A   1      46.497  34.823  28.154  1.00  0.00     0.198 A 
ATOM     89  C   UNL A   1      47.096  34.040  30.343  1.00  0.00     0.198 A 
ATOM     90  F   UNL A   1      46.689  31.806  30.948  1.00  0.00    -0.203 F 
ATOM     91  F   UNL A   1      46.480  35.797  27.234  1.00  0.00    -0.200 F 
ATOM     92  C   UNL A   1      47.049  35.059  29.404  1.00  0.00     0.200 A 
ATOM     93  F   UNL A   1      47.614  34.271  31.558  1.00  0.00    -0.200 F 
ATOM     94  F   UNL A   1      47.543  36.269  29.702  1.00  0.00    -0.200 F 
ENDBRANCH  61  84
ENDBRANCH  35  36
ENDBRANCH  27  30
ENDBRANCH  25  26
ENDBRANCH  24  25
ENDBRANCH  23  24
ENDBRANCH   3  23
TORSDOF 15
ENDMDL
MODEL 2
REMARK VINA RESULT:     -11.4      4.958     10.172
REMARK SMILES O=C(CSCc1ccc(Cl)s1)Nc1ccsc1C(=O)NCCCNC(=O)c1ccc(-c2c3nc(c(-c4c(F)c(F)c(F)c(F)c4F)c4ccc([nH]4)c(-c4c(F)c(F)c(F)c(F)c4F)c4nc(c(-c5c(F)c(F)c(F)c(F)c5F)c5ccc2[nH]5)C=C4)C=C3)cc1
REMARK SMILES IDX 18 1 19 2 20 3 17 5 13 6 14 7 15 8 16 9 12 10 1 11 2 12 3 14
REMARK SMILES IDX 4 15 5 16 6 17 7 18 11 19 8 20 9 21 10 22 21 23 22 24 23 25
REMARK SMILES IDX 24 26 25 27 26 29 27 30 28 31 89 32 29 33 88 34 30 35 31 36
REMARK SMILES IDX 32 37 82 38 33 39 87 40 81 41 83 42 34 43 86 44 80 45 79 46
REMARK SMILES IDX 35 48 67 49 47 50 66 51 48 52 51 53 65 54 84 55 49 56 50 57
REMARK SMILES IDX 64 59 85 60 52 61 36 62 37 63 45 64 38 65 39 66 43 67 46 68
REMARK SMILES IDX 40 69 41 70 44 71 42 72 68 73 69 74 77 75 70 76 71 77 75 78
REMARK SMILES IDX 78 79 72 80 73 81 76 82 74 83 53 84 54 85 62 86 55 87 56 88
REMARK SMILES IDX 60 89 63 90 57 91 58 92 61 93 59 94
REMARK H PARENT 20 4 12 13 24 28 83 47 51 58
REMARK Flexibility Score: inf
ROOT
ATOM      1  C   UNL A   1      32.428  26.565  22.979  1.00  0.00     0.263 C 
ATOM      2  O   UNL A   1      32.827  26.351  21.824  1.00  0.00    -0.268 OA
ATOM      3  N   UNL A   1      33.475  26.581  23.855  1.00  0.00    -0.351 N 
ATOM      4  H   UNL A   1      34.332  26.418  23.399  1.00  0.00     0.163 HD
ENDROOT
BRANCH   1   5
ATOM      5  C   UNL A   1      31.005  26.727  23.304  1.00  0.00     0.115 A 
ATOM      6  C   UNL A   1      29.974  26.016  23.922  1.00  0.00     0.065 A 
ATOM      7  C   UNL A   1      28.714  26.710  23.835  1.00  0.00     0.038 A 
ATOM      8  C   UNL A   1      28.795  27.927  23.217  1.00  0.00     0.068 A 
ATOM      9  S   UNL A   1      30.364  28.243  22.683  1.00  0.00    -0.137 S 
BRANCH   6  10
ATOM     10  N   UNL A   1      30.050  24.814  24.629  1.00  0.00    -0.324 N 
ATOM     11  O   UNL A   1      30.530  25.772  26.685  1.00  0.00    -0.274 OA
ATOM     12  C   UNL A   1      30.392  24.775  25.976  1.00  0.00     0.234 C 
ATOM     13  H   UNL A   1      29.856  23.971  24.159  1.00  0.00     0.170 HD
BRANCH  12  14
ATOM     14  C   UNL A   1      30.540  23.386  26.573  1.00  0.00     0.170 C 
BRANCH  14  15
ATOM     15  S   UNL A   1      31.852  22.387  25.799  1.00  0.00    -0.146 SA
BRANCH  15  16
ATOM     16  C   UNL A   1      33.349  23.359  26.138  1.00  0.00     0.116 C 
BRANCH  16  17
ATOM     17  C   UNL A   1      34.694  22.845  25.712  1.00  0.00     0.016 A 
ATOM     18  C   UNL A   1      35.743  23.645  25.276  1.00  0.00     0.018 A 
ATOM     19  S   UNL A   1      35.158  21.194  25.709  1.00  0.00    -0.128 S 
ATOM     20  C   UNL A   1      36.908  22.901  24.929  1.00  0.00     0.033 A 
ATOM     21  C   UNL A   1      36.699  21.562  25.117  1.00  0.00     0.093 A 
ATOM     22  Cl  UNL A   1      37.830  20.302  24.826  1.00  0.00    -0.072 Cl
ENDBRANCH  16  17
ENDBRANCH  15  16
ENDBRANCH  14  15
ENDBRANCH  12  14
ENDBRANCH   6  10
ENDBRANCH   1   5
BRANCH   3  23
ATOM     23  C   UNL A   1      33.657  26.774  25.266  1.00  0.00     0.118 C 
BRANCH  23  24
ATOM     24  C   UNL A   1      32.932  27.998  25.787  1.00  0.00     0.042 C 
BRANCH  24  25
ATOM     25  C   UNL A   1      33.335  29.310  25.121  1.00  0.00     0.118 C 
BRANCH  25  26
ATOM     26  N   UNL A   1      32.850  30.524  25.771  1.00  0.00    -0.352 N 
ATOM     27  C   UNL A   1      33.288  31.276  26.827  1.00  0.00     0.251 C 
ATOM     28  H   UNL A   1      32.029  30.878  25.359  1.00  0.00     0.163 HD
ATOM     29  O   UNL A   1      32.614  32.259  27.151  1.00  0.00    -0.269 OA
BRANCH  27  30
ATOM     30  C   UNL A   1      34.513  30.959  27.592  1.00  0.00     0.039 A 
ATOM     31  C   UNL A   1      35.424  31.990  27.849  1.00  0.00     0.014 A 
ATOM     32  C   UNL A   1      34.821  29.667  28.011  1.00  0.00     0.014 A 
ATOM     33  C   UNL A   1      36.602  31.732  28.558  1.00  0.00     0.010 A 
ATOM     34  C   UNL A   1      35.917  29.437  28.836  1.00  0.00     0.010 A 
ATOM     35  C   UNL A   1      36.839  30.457  29.094  1.00  0.00    -0.014 A 
BRANCH  35  36
ATOM     36  C   UNL A   1      38.062  30.148  29.879  1.00  0.00     0.031 A 
ATOM     37  C   UNL A   1      39.099  29.205  29.325  1.00  0.00     0.074 A 
ATOM     38  C   UNL A   1      38.211  30.656  31.117  1.00  0.00     0.049 A 
ATOM     39  N   UNL A   1      40.175  28.723  29.897  1.00  0.00    -0.248 NA
ATOM     40  C   UNL A   1      38.880  28.705  27.958  1.00  0.00     0.031 C 
ATOM     41  C   UNL A   1      37.267  31.553  31.786  1.00  0.00     0.029 A 
ATOM     42  N   UNL A   1      39.215  30.484  32.039  1.00  0.00    -0.354 N 
ATOM     43  C   UNL A   1      40.739  27.855  28.971  1.00  0.00     0.074 A 
ATOM     44  C   UNL A   1      39.853  27.816  27.831  1.00  0.00     0.031 C 
ATOM     45  C   UNL A   1      37.753  31.878  32.993  1.00  0.00     0.029 A 
ATOM     46  C   UNL A   1      39.008  31.170  33.210  1.00  0.00     0.049 A 
ATOM     47  H   UNL A   1      40.007  29.922  31.875  1.00  0.00     0.167 HD
ATOM     48  C   UNL A   1      41.909  27.176  29.049  1.00  0.00     0.037 A 
ATOM     49  C   UNL A   1      39.740  31.216  34.339  1.00  0.00     0.037 A 
ATOM     50  C   UNL A   1      42.810  27.247  30.169  1.00  0.00     0.049 A 
ATOM     51  C   UNL A   1      41.028  30.442  34.407  1.00  0.00     0.074 A 
ATOM     52  C   UNL A   1      44.049  26.648  30.319  1.00  0.00     0.029 A 
ATOM     53  N   UNL A   1      42.569  27.964  31.331  1.00  0.00    -0.354 N 
ATOM     54  N   UNL A   1      41.580  29.671  33.502  1.00  0.00    -0.248 NA
ATOM     55  C   UNL A   1      41.801  30.558  35.650  1.00  0.00     0.031 C 
ATOM     56  C   UNL A   1      44.532  26.958  31.594  1.00  0.00     0.029 A 
ATOM     57  C   UNL A   1      43.626  27.803  32.214  1.00  0.00     0.049 A 
ATOM     58  H   UNL A   1      41.767  28.508  31.504  1.00  0.00     0.167 HD
ATOM     59  C   UNL A   1      42.781  29.240  34.049  1.00  0.00     0.074 A 
ATOM     60  C   UNL A   1      42.881  29.847  35.361  1.00  0.00     0.031 C 
ATOM     61  C   UNL A   1      43.717  28.419  33.513  1.00  0.00     0.037 A 
BRANCH  48  62
ATOM     62  C   UNL A   1      42.285  26.301  27.884  1.00  0.00     0.064 A 
ATOM     63  C   UNL A   1      41.769  25.005  27.737  1.00  0.00     0.173 A 
ATOM     64  C   UNL A   1      43.150  26.777  26.887  1.00  0.00     0.173 A 
ATOM     65  F   UNL A   1      40.948  24.494  28.667  1.00  0.00    -0.203 F 
ATOM     66  C   UNL A   1      42.133  24.205  26.657  1.00  0.00     0.198 A 
ATOM     67  C   UNL A   1      43.483  25.989  25.788  1.00  0.00     0.198 A 
ATOM     68  F   UNL A   1      43.670  28.011  26.974  1.00  0.00    -0.203 F 
ATOM     69  F   UNL A   1      41.675  22.949  26.570  1.00  0.00    -0.200 F 
ATOM     70  C   UNL A   1      42.982  24.701  25.679  1.00  0.00     0.200 A 
ATOM     71  F   UNL A   1      44.292  26.475  24.837  1.00  0.00    -0.200 F 
ATOM     72  F   UNL A   1      43.325  23.933  24.636  1.00  0.00    -0.200 F 
ENDBRANCH  48  62
BRANCH  49  73
ATOM     73  C   UNL A   1      39.282  32.044  35.487  1.00  0.00     0.064 A 
ATOM     74  C   UNL A   1      39.678  33.382  35.610  1.00  0.00     0.173 A 
ATOM     75  C   UNL A   1      38.450  31.515  36.484  1.00  0.00     0.173 A 
ATOM     76  F   UNL A   1      40.490  33.928  34.692  1.00  0.00    -0.203 F 
ATOM     77  C   UNL A   1      39.284  34.152  36.703  1.00  0.00     0.198 A 
ATOM     78  C   UNL A   1      38.033  32.294  37.561  1.00  0.00     0.198 A 
ATOM     79  F   UNL A   1      38.031  30.243  36.407  1.00  0.00    -0.203 F 
ATOM     80  F   UNL A   1      39.725  35.412  36.824  1.00  0.00    -0.200 F 
ATOM     81  C   UNL A   1      38.458  33.609  37.674  1.00  0.00     0.200 A 
ATOM     82  F   UNL A   1      37.225  31.768  38.492  1.00  0.00    -0.200 F 
ATOM     83  F   UNL A   1      38.084  34.349  38.728  1.00  0.00    -0.200 F 
ENDBRANCH  49  73
BRANCH  61  84
ATOM     84  C   UNL A   1      44.955  28.165  34.324  1.00  0.00     0.064 A 
ATOM     85  C   UNL A   1      45.047  27.090  35.220  1.00  0.00     0.173 A 
ATOM     86  C   UNL A   1      46.077  28.997  34.180  1.00  0.00     0.173 A 
ATOM     87  F   UNL A   1      43.999  26.273  35.404  1.00  0.00    -0.203 F 
ATOM     88  C   UNL A   1      46.203  26.877  35.967  1.00  0.00     0.198 A 
ATOM     89  C   UNL A   1      47.243  28.759  34.901  1.00  0.00     0.198 A 
ATOM     90  F   UNL A   1      46.046  30.035  33.331  1.00  0.00    -0.203 F 
ATOM     91  F   UNL A   1      46.246  25.879  36.860  1.00  0.00    -0.200 F 
ATOM     92  C   UNL A   1      47.302  27.707  35.801  1.00  0.00     0.200 A 
ATOM     93  F   UNL A   1      48.310  29.552  34.727  1.00  0.00    -0.200 F 
ATOM     94  F   UNL A   1      48.416  27.497  36.517  1.00  0.00    -0.200 F 
ENDBRANCH  61  84
ENDBRANCH  35  36
ENDBRANCH  27  30
ENDBRANCH  25  26
ENDBRANCH  24  25
ENDBRANCH  23  24
ENDBRANCH   3  23
TORSDOF 15
ENDMDL
MODEL 3
REMARK VINA RESULT:     -11.4      4.485      8.171
REMARK SMILES O=C(CSCc1ccc(Cl)s1)Nc1ccsc1C(=O)NCCCNC(=O)c1ccc(-c2c3nc(c(-c4c(F)c(F)c(F)c(F)c4F)c4ccc([nH]4)c(-c4c(F)c(F)c(F)c(F)c4F)c4nc(c(-c5c(F)c(F)c(F)c(F)c5F)c5ccc2[nH]5)C=C4)C=C3)cc1
REMARK SMILES IDX 18 1 19 2 20 3 17 5 13 6 14 7 15 8 16 9 12 10 1 11 2 12 3 14
REMARK SMILES IDX 4 15 5 16 6 17 7 18 11 19 8 20 9 21 10 22 21 23 22 24 23 25
REMARK SMILES IDX 24 26 25 27 26 29 27 30 28 31 89 32 29 33 88 34 30 35 31 36
REMARK SMILES IDX 32 37 82 38 33 39 87 40 81 41 83 42 34 43 86 44 80 45 79 46
REMARK SMILES IDX 35 48 67 49 47 50 66 51 48 52 51 53 65 54 84 55 49 56 50 57
REMARK SMILES IDX 64 59 85 60 52 61 36 62 37 63 45 64 38 65 39 66 43 67 46 68
REMARK SMILES IDX 40 69 41 70 44 71 42 72 68 73 69 74 77 75 70 76 71 77 75 78
REMARK SMILES IDX 78 79 72 80 73 81 76 82 74 83 53 84 54 85 62 86 55 87 56 88
REMARK SMILES IDX 60 89 63 90 57 91 58 92 61 93 59 94
REMARK H PARENT 20 4 12 13 24 28 83 47 51 58
REMARK Flexibility Score: inf
ROOT
ATOM      1  C   UNL A   1      32.490  27.044  22.865  1.00  0.00     0.263 C 
ATOM      2  O   UNL A   1      32.922  26.385  21.907  1.00  0.00    -0.268 OA
ATOM      3  N   UNL A   1      33.518  27.606  23.566  1.00  0.00    -0.351 N 
ATOM      4  H   UNL A   1      34.392  27.377  23.176  1.00  0.00     0.163 HD
ENDROOT
BRANCH   1   5
ATOM      5  C   UNL A   1      31.058  27.132  23.179  1.00  0.00     0.115 A 
ATOM      6  C   UNL A   1      30.049  26.349  23.743  1.00  0.00     0.065 A 
ATOM      7  C   UNL A   1      28.763  26.996  23.677  1.00  0.00     0.038 A 
ATOM      8  C   UNL A   1      28.803  28.248  23.127  1.00  0.00     0.068 A 
ATOM      9  S   UNL A   1      30.365  28.654  22.633  1.00  0.00    -0.137 S 
BRANCH   6  10
ATOM     10  N   UNL A   1      30.163  25.112  24.383  1.00  0.00    -0.324 N 
ATOM     11  O   UNL A   1      30.678  25.971  26.475  1.00  0.00    -0.274 OA
ATOM     12  C   UNL A   1      30.540  25.010  25.718  1.00  0.00     0.234 C 
ATOM     13  H   UNL A   1      29.973  24.292  23.875  1.00  0.00     0.170 HD
BRANCH  12  14
ATOM     14  C   UNL A   1      30.728  23.595  26.237  1.00  0.00     0.170 C 
BRANCH  14  15
ATOM     15  S   UNL A   1      32.377  23.282  26.945  1.00  0.00    -0.146 SA
BRANCH  15  16
ATOM     16  C   UNL A   1      33.336  22.735  25.502  1.00  0.00     0.116 C 
BRANCH  16  17
ATOM     17  C   UNL A   1      33.355  21.285  25.115  1.00  0.00     0.016 A 
ATOM     18  C   UNL A   1      32.232  20.548  24.758  1.00  0.00     0.018 A 
ATOM     19  S   UNL A   1      34.762  20.309  25.034  1.00  0.00    -0.128 S 
ATOM     20  C   UNL A   1      32.530  19.191  24.440  1.00  0.00     0.033 A 
ATOM     21  C   UNL A   1      33.871  18.950  24.565  1.00  0.00     0.093 A 
ATOM     22  Cl  UNL A   1      34.670  17.456  24.279  1.00  0.00    -0.072 Cl
ENDBRANCH  16  17
ENDBRANCH  15  16
ENDBRANCH  14  15
ENDBRANCH  12  14
ENDBRANCH   6  10
ENDBRANCH   1   5
BRANCH   3  23
ATOM     23  C   UNL A   1      33.661  28.446  24.722  1.00  0.00     0.118 C 
BRANCH  23  24
ATOM     24  C   UNL A   1      33.805  27.654  26.005  1.00  0.00     0.042 C 
BRANCH  24  25
ATOM     25  C   UNL A   1      33.219  28.331  27.240  1.00  0.00     0.118 C 
BRANCH  25  26
ATOM     26  N   UNL A   1      33.357  29.783  27.292  1.00  0.00    -0.352 N 
ATOM     27  C   UNL A   1      34.360  30.629  27.680  1.00  0.00     0.251 C 
ATOM     28  H   UNL A   1      32.553  30.257  26.980  1.00  0.00     0.163 HD
ATOM     29  O   UNL A   1      34.141  31.843  27.626  1.00  0.00    -0.269 OA
BRANCH  27  30
ATOM     30  C   UNL A   1      35.674  30.155  28.165  1.00  0.00     0.039 A 
ATOM     31  C   UNL A   1      36.752  30.150  27.272  1.00  0.00     0.014 A 
ATOM     32  C   UNL A   1      35.864  29.658  29.452  1.00  0.00     0.014 A 
ATOM     33  C   UNL A   1      38.010  29.699  27.684  1.00  0.00     0.010 A 
ATOM     34  C   UNL A   1      37.140  29.344  29.905  1.00  0.00     0.010 A 
ATOM     35  C   UNL A   1      38.225  29.328  29.020  1.00  0.00    -0.014 A 
BRANCH  35  36
ATOM     36  C   UNL A   1      39.552  28.872  29.508  1.00  0.00     0.031 A 
ATOM     37  C   UNL A   1      40.333  29.718  30.480  1.00  0.00     0.074 A 
ATOM     38  C   UNL A   1      40.089  27.734  29.028  1.00  0.00     0.049 A 
ATOM     39  N   UNL A   1      41.549  29.551  30.937  1.00  0.00    -0.248 NA
ATOM     40  C   UNL A   1      39.674  30.937  30.978  1.00  0.00     0.031 C 
ATOM     41  C   UNL A   1      39.455  26.839  28.058  1.00  0.00     0.029 A 
ATOM     42  N   UNL A   1      41.298  27.136  29.289  1.00  0.00    -0.354 N 
ATOM     43  C   UNL A   1      41.802  30.648  31.751  1.00  0.00     0.074 A 
ATOM     44  C   UNL A   1      40.646  31.511  31.669  1.00  0.00     0.031 C 
ATOM     45  C   UNL A   1      40.264  25.794  27.833  1.00  0.00     0.029 A 
ATOM     46  C   UNL A   1      41.496  25.970  28.592  1.00  0.00     0.049 A 
ATOM     47  H   UNL A   1      41.960  27.510  29.915  1.00  0.00     0.167 HD
ATOM     48  C   UNL A   1      42.885  30.897  32.525  1.00  0.00     0.037 A 
ATOM     49  C   UNL A   1      42.554  25.140  28.557  1.00  0.00     0.037 A 
ATOM     50  C   UNL A   1      44.018  30.017  32.637  1.00  0.00     0.049 A 
ATOM     51  C   UNL A   1      43.752  25.446  29.414  1.00  0.00     0.074 A 
ATOM     52  C   UNL A   1      45.137  30.148  33.440  1.00  0.00     0.029 A 
ATOM     53  N   UNL A   1      44.173  28.838  31.923  1.00  0.00    -0.354 N 
ATOM     54  N   UNL A   1      43.954  26.456  30.225  1.00  0.00    -0.248 NA
ATOM     55  C   UNL A   1      44.862  24.486  29.362  1.00  0.00     0.031 C 
ATOM     56  C   UNL A   1      45.995  29.076  33.172  1.00  0.00     0.029 A 
ATOM     57  C   UNL A   1      45.382  28.243  32.250  1.00  0.00     0.049 A 
ATOM     58  H   UNL A   1      43.522  28.476  31.281  1.00  0.00     0.167 HD
ATOM     59  C   UNL A   1      45.196  26.236  30.806  1.00  0.00     0.074 A 
ATOM     60  C   UNL A   1      45.693  24.988  30.264  1.00  0.00     0.031 C 
ATOM     61  C   UNL A   1      45.861  26.997  31.709  1.00  0.00     0.037 A 
BRANCH  48  62
ATOM     62  C   UNL A   1      42.894  32.175  33.320  1.00  0.00     0.064 A 
ATOM     63  C   UNL A   1      42.383  32.236  34.626  1.00  0.00     0.173 A 
ATOM     64  C   UNL A   1      43.446  33.346  32.778  1.00  0.00     0.173 A 
ATOM     65  F   UNL A   1      41.832  31.151  35.188  1.00  0.00    -0.203 F 
ATOM     66  C   UNL A   1      42.391  33.429  35.345  1.00  0.00     0.198 A 
ATOM     67  C   UNL A   1      43.487  34.528  33.514  1.00  0.00     0.198 A 
ATOM     68  F   UNL A   1      43.952  33.344  31.536  1.00  0.00    -0.203 F 
ATOM     69  F   UNL A   1      41.844  33.477  36.567  1.00  0.00    -0.200 F 
ATOM     70  C   UNL A   1      42.952  34.571  34.792  1.00  0.00     0.200 A 
ATOM     71  F   UNL A   1      44.041  35.627  32.984  1.00  0.00    -0.200 F 
ATOM     72  F   UNL A   1      42.966  35.715  35.489  1.00  0.00    -0.200 F 
ENDBRANCH  48  62
BRANCH  49  73
ATOM     73  C   UNL A   1      42.518  23.926  27.698  1.00  0.00     0.064 A 
ATOM     74  C   UNL A   1      42.131  22.686  28.222  1.00  0.00     0.173 A 
ATOM     75  C   UNL A   1      42.874  23.979  26.342  1.00  0.00     0.173 A 
ATOM     76  F   UNL A   1      41.800  22.581  29.518  1.00  0.00    -0.203 F 
ATOM     77  C   UNL A   1      42.132  21.538  27.433  1.00  0.00     0.198 A 
ATOM     78  C   UNL A   1      42.846  22.836  25.546  1.00  0.00     0.198 A 
ATOM     79  F   UNL A   1      43.239  25.145  25.787  1.00  0.00    -0.203 F 
ATOM     80  F   UNL A   1      41.813  20.355  27.975  1.00  0.00    -0.200 F 
ATOM     81  C   UNL A   1      42.484  21.615  26.094  1.00  0.00     0.200 A 
ATOM     82  F   UNL A   1      43.177  22.918  24.250  1.00  0.00    -0.200 F 
ATOM     83  F   UNL A   1      42.490  20.509  25.336  1.00  0.00    -0.200 F 
ENDBRANCH  49  73
BRANCH  61  84
ATOM     84  C   UNL A   1      47.180  26.478  32.206  1.00  0.00     0.064 A 
ATOM     85  C   UNL A   1      47.273  25.644  33.330  1.00  0.00     0.173 A 
ATOM     86  C   UNL A   1      48.367  26.801  31.529  1.00  0.00     0.173 A 
ATOM     87  F   UNL A   1      46.171  25.316  34.020  1.00  0.00    -0.203 F 
ATOM     88  C   UNL A   1      48.508  25.179  33.777  1.00  0.00     0.198 A 
ATOM     89  C   UNL A   1      49.595  26.305  31.957  1.00  0.00     0.198 A 
ATOM     90  F   UNL A   1      48.335  27.588  30.443  1.00  0.00    -0.203 F 
ATOM     91  F   UNL A   1      48.577  24.432  34.887  1.00  0.00    -0.200 F 
ATOM     92  C   UNL A   1      49.665  25.504  33.086  1.00  0.00     0.200 A 
ATOM     93  F   UNL A   1      50.711  26.606  31.278  1.00  0.00    -0.200 F 
ATOM     94  F   UNL A   1      50.852  25.051  33.515  1.00  0.00    -0.200 F 
ENDBRANCH  61  84
ENDBRANCH  35  36
ENDBRANCH  27  30
ENDBRANCH  25  26
ENDBRANCH  24  25
ENDBRANCH  23  24
ENDBRANCH   3  23
TORSDOF 15
ENDMDL
