MODEL 1
REMARK VINA RESULT:     -11.5      0.000      0.000
REMARK SMILES O=C(C[N@@H+](Cc1nc(-c2ccco2)no1)CC(F)(F)F)NCCCNC(=O)c1ccc(-c2c3nc(c(-c4c(F)c(F)c(F)c(F)c4F)c4ccc([nH]4)c(-c4c(F)c(F)c(F)c(F)c4F)c4nc(c(-c5c(F)c(F)c(F)c(F)c5F)c5ccc2[nH]5)C=C4)C=C3)cc1
REMARK SMILES IDX 22 1 21 2 1 3 2 4 3 6 4 7 5 9 6 10 7 11 15 12 8 13 14 14
REMARK SMILES IDX 9 15 10 16 13 17 11 18 12 19 16 20 17 21 18 22 19 23 20 24
REMARK SMILES IDX 23 25 24 26 25 27 26 28 27 30 28 31 29 32 90 33 30 34 89 35
REMARK SMILES IDX 31 36 32 37 33 38 83 39 34 40 88 41 82 42 84 43 35 44 87 45
REMARK SMILES IDX 81 46 80 47 36 49 68 50 48 51 67 52 49 53 52 54 66 55 85 56
REMARK SMILES IDX 50 57 51 58 65 60 86 61 53 62 37 63 38 64 46 65 39 66 40 67
REMARK SMILES IDX 44 68 47 69 41 70 42 71 45 72 43 73 69 74 70 75 78 76 71 77
REMARK SMILES IDX 72 78 76 79 79 80 73 81 74 82 77 83 75 84 54 85 55 86 63 87
REMARK SMILES IDX 56 88 57 89 61 90 64 91 58 92 59 93 62 94 60 95
REMARK H PARENT 21 5 4 8 25 29 84 48 52 59
REMARK Flexibility Score: inf
ROOT
ATOM      1  C   UNL A   1      31.644  30.635  26.701  1.00  0.00     0.118 C 
ENDROOT
BRANCH   1   2
ATOM      2  N   UNL A   1      31.891  30.053  25.397  1.00  0.00    -0.351 N 
ATOM      3  O   UNL A   1      33.896  29.099  25.971  1.00  0.00    -0.269 OA
ATOM      4  C   UNL A   1      32.994  29.263  25.154  1.00  0.00     0.275 C 
ATOM      5  H   UNL A   1      31.255  30.226  24.666  1.00  0.00     0.163 HD
BRANCH   4   6
ATOM      6  C   UNL A   1      33.035  28.623  23.764  1.00  0.00     0.364 C 
BRANCH   6   7
ATOM      7  N   UNL A   1      32.574  27.208  23.753  1.00  0.00    -0.312 N 
ATOM      8  H   UNL A   1      31.997  27.087  24.585  1.00  0.00     0.349 HD
BRANCH   7   9
ATOM      9  C   UNL A   1      31.719  26.937  22.561  1.00  0.00     0.364 C 
BRANCH   9  10
ATOM     10  C   UNL A   1      30.491  27.774  22.435  1.00  0.00     0.282 A 
ATOM     11  N   UNL A   1      30.330  28.909  21.799  1.00  0.00    -0.183 NA
ATOM     12  O   UNL A   1      29.425  27.435  23.217  1.00  0.00    -0.333 OA
ATOM     13  C   UNL A   1      29.157  29.381  22.346  1.00  0.00     0.238 A 
ATOM     14  N   UNL A   1      28.541  28.514  23.163  1.00  0.00    -0.053 NA
BRANCH  13  15
ATOM     15  C   UNL A   1      28.712  30.789  22.150  1.00  0.00     0.174 A 
ATOM     16  C   UNL A   1      28.218  31.313  20.968  1.00  0.00     0.054 A 
ATOM     17  O   UNL A   1      28.800  31.787  23.083  1.00  0.00    -0.461 OA
ATOM     18  C   UNL A   1      28.028  32.699  21.181  1.00  0.00     0.043 A 
ATOM     19  C   UNL A   1      28.413  32.940  22.479  1.00  0.00     0.196 A 
ENDBRANCH  13  15
ENDBRANCH   9  10
ENDBRANCH   7   9
BRANCH   7  20
ATOM     20  C   UNL A   1      33.674  26.203  23.920  1.00  0.00     0.380 C 
BRANCH  20  21
ATOM     21  C   UNL A   1      33.879  25.300  25.165  1.00  0.00     0.438 C 
ATOM     22  F   UNL A   1      33.677  25.950  26.326  1.00  0.00    -0.165 F 
ATOM     23  F   UNL A   1      33.010  24.261  25.128  1.00  0.00    -0.165 F 
ATOM     24  F   UNL A   1      35.119  24.765  25.182  1.00  0.00    -0.165 F 
ENDBRANCH  20  21
ENDBRANCH   7  20
ENDBRANCH   6   7
ENDBRANCH   4   6
ENDBRANCH   1   2
BRANCH   1  25
ATOM     25  C   UNL A   1      31.424  32.142  26.652  1.00  0.00     0.042 C 
BRANCH  25  26
ATOM     26  C   UNL A   1      32.680  32.974  26.892  1.00  0.00     0.118 C 
BRANCH  26  27
ATOM     27  N   UNL A   1      32.421  34.205  27.625  1.00  0.00    -0.352 N 
ATOM     28  C   UNL A   1      33.029  34.741  28.732  1.00  0.00     0.251 C 
ATOM     29  H   UNL A   1      31.681  34.746  27.263  1.00  0.00     0.163 HD
ATOM     30  O   UNL A   1      32.547  35.749  29.243  1.00  0.00    -0.269 OA
BRANCH  28  31
ATOM     31  C   UNL A   1      34.234  34.126  29.335  1.00  0.00     0.039 A 
ATOM     32  C   UNL A   1      34.051  33.185  30.355  1.00  0.00     0.014 A 
ATOM     33  C   UNL A   1      35.530  34.492  28.962  1.00  0.00     0.014 A 
ATOM     34  C   UNL A   1      35.156  32.579  30.958  1.00  0.00     0.010 A 
ATOM     35  C   UNL A   1      36.631  33.834  29.513  1.00  0.00     0.010 A 
ATOM     36  C   UNL A   1      36.457  32.875  30.522  1.00  0.00    -0.014 A 
BRANCH  36  37
ATOM     37  C   UNL A   1      37.630  32.179  31.113  1.00  0.00     0.031 A 
ATOM     38  C   UNL A   1      38.108  32.515  32.498  1.00  0.00     0.074 A 
ATOM     39  C   UNL A   1      38.289  31.258  30.383  1.00  0.00     0.049 A 
ATOM     40  N   UNL A   1      39.108  32.005  33.176  1.00  0.00    -0.248 NA
ATOM     41  C   UNL A   1      37.387  33.582  33.209  1.00  0.00     0.031 C 
ATOM     42  C   UNL A   1      37.963  30.882  29.006  1.00  0.00     0.029 A 
ATOM     43  N   UNL A   1      39.368  30.470  30.696  1.00  0.00    -0.354 N 
ATOM     44  C   UNL A   1      39.140  32.693  34.382  1.00  0.00     0.074 A 
ATOM     45  C   UNL A   1      38.094  33.692  34.324  1.00  0.00     0.031 C 
ATOM     46  C   UNL A   1      38.804  29.915  28.605  1.00  0.00     0.029 A 
ATOM     47  C   UNL A   1      39.742  29.621  29.684  1.00  0.00     0.049 A 
ATOM     48  H   UNL A   1      39.830  30.509  31.565  1.00  0.00     0.167 HD
ATOM     49  C   UNL A   1      39.949  32.493  35.450  1.00  0.00     0.037 A 
ATOM     50  C   UNL A   1      40.727  28.704  29.632  1.00  0.00     0.037 A 
ATOM     51  C   UNL A   1      40.973  31.482  35.518  1.00  0.00     0.049 A 
ATOM     52  C   UNL A   1      41.595  28.486  30.840  1.00  0.00     0.074 A 
ATOM     53  C   UNL A   1      41.805  31.164  36.579  1.00  0.00     0.029 A 
ATOM     54  N   UNL A   1      41.306  30.625  34.480  1.00  0.00    -0.354 N 
ATOM     55  N   UNL A   1      41.564  29.090  32.002  1.00  0.00    -0.248 NA
ATOM     56  C   UNL A   1      42.628  27.446  30.731  1.00  0.00     0.031 C 
ATOM     57  C   UNL A   1      42.668  30.142  36.169  1.00  0.00     0.029 A 
ATOM     58  C   UNL A   1      42.342  29.790  34.870  1.00  0.00     0.049 A 
ATOM     59  H   UNL A   1      40.872  30.611  33.597  1.00  0.00     0.167 HD
ATOM     60  C   UNL A   1      42.551  28.488  32.771  1.00  0.00     0.074 A 
ATOM     61  C   UNL A   1      43.150  27.457  31.948  1.00  0.00     0.031 C 
ATOM     62  C   UNL A   1      42.927  28.765  34.044  1.00  0.00     0.037 A 
BRANCH  49  63
ATOM     63  C   UNL A   1      39.755  33.384  36.644  1.00  0.00     0.064 A 
ATOM     64  C   UNL A   1      38.859  33.050  37.670  1.00  0.00     0.173 A 
ATOM     65  C   UNL A   1      40.501  34.564  36.784  1.00  0.00     0.173 A 
ATOM     66  F   UNL A   1      38.112  31.939  37.581  1.00  0.00    -0.203 F 
ATOM     67  C   UNL A   1      38.696  33.878  38.778  1.00  0.00     0.198 A 
ATOM     68  C   UNL A   1      40.358  35.374  37.907  1.00  0.00     0.198 A 
ATOM     69  F   UNL A   1      41.378  34.926  35.835  1.00  0.00    -0.203 F 
ATOM     70  F   UNL A   1      37.799  33.564  39.723  1.00  0.00    -0.200 F 
ATOM     71  C   UNL A   1      39.450  35.036  38.898  1.00  0.00     0.200 A 
ATOM     72  F   UNL A   1      41.096  36.486  38.028  1.00  0.00    -0.200 F 
ATOM     73  F   UNL A   1      39.297  35.829  39.969  1.00  0.00    -0.200 F 
ENDBRANCH  49  63
BRANCH  50  74
ATOM     74  C   UNL A   1      40.915  27.890  28.404  1.00  0.00     0.064 A 
ATOM     75  C   UNL A   1      40.183  26.710  28.205  1.00  0.00     0.173 A 
ATOM     76  C   UNL A   1      41.829  28.267  27.410  1.00  0.00     0.173 A 
ATOM     77  F   UNL A   1      39.313  26.298  29.138  1.00  0.00    -0.203 F 
ATOM     78  C   UNL A   1      40.375  25.927  27.069  1.00  0.00     0.198 A 
ATOM     79  C   UNL A   1      42.000  27.498  26.261  1.00  0.00     0.198 A 
ATOM     80  F   UNL A   1      42.549  29.390  27.551  1.00  0.00    -0.203 F 
ATOM     81  F   UNL A   1      39.696  24.782  26.926  1.00  0.00    -0.200 F 
ATOM     82  C   UNL A   1      41.278  26.325  26.095  1.00  0.00     0.200 A 
ATOM     83  F   UNL A   1      42.864  27.892  25.316  1.00  0.00    -0.200 F 
ATOM     84  F   UNL A   1      41.461  25.573  25.001  1.00  0.00    -0.200 F 
ENDBRANCH  50  74
BRANCH  62  85
ATOM     85  C   UNL A   1      44.018  27.919  34.634  1.00  0.00     0.064 A 
ATOM     86  C   UNL A   1      45.366  28.304  34.569  1.00  0.00     0.173 A 
ATOM     87  C   UNL A   1      43.709  26.714  35.283  1.00  0.00     0.173 A 
ATOM     88  F   UNL A   1      45.714  29.439  33.946  1.00  0.00    -0.203 F 
ATOM     89  C   UNL A   1      46.366  27.496  35.104  1.00  0.00     0.198 A 
ATOM     90  C   UNL A   1      44.710  25.925  35.843  1.00  0.00     0.198 A 
ATOM     91  F   UNL A   1      42.435  26.303  35.377  1.00  0.00    -0.203 F 
ATOM     92  F   UNL A   1      47.652  27.857  34.981  1.00  0.00    -0.200 F 
ATOM     93  C   UNL A   1      46.038  26.311  35.744  1.00  0.00     0.200 A 
ATOM     94  F   UNL A   1      44.390  24.784  36.471  1.00  0.00    -0.200 F 
ATOM     95  F   UNL A   1      47.003  25.535  36.257  1.00  0.00    -0.200 F 
ENDBRANCH  62  85
ENDBRANCH  36  37
ENDBRANCH  28  31
ENDBRANCH  26  27
ENDBRANCH  25  26
ENDBRANCH   1  25
TORSDOF 16
ENDMDL
MODEL 2
REMARK VINA RESULT:     -11.4      0.557      1.731
REMARK SMILES O=C(C[N@@H+](Cc1nc(-c2ccco2)no1)CC(F)(F)F)NCCCNC(=O)c1ccc(-c2c3nc(c(-c4c(F)c(F)c(F)c(F)c4F)c4ccc([nH]4)c(-c4c(F)c(F)c(F)c(F)c4F)c4nc(c(-c5c(F)c(F)c(F)c(F)c5F)c5ccc2[nH]5)C=C4)C=C3)cc1
REMARK SMILES IDX 22 1 21 2 1 3 2 4 3 6 4 7 5 9 6 10 7 11 15 12 8 13 14 14
REMARK SMILES IDX 9 15 10 16 13 17 11 18 12 19 16 20 17 21 18 22 19 23 20 24
REMARK SMILES IDX 23 25 24 26 25 27 26 28 27 30 28 31 29 32 90 33 30 34 89 35
REMARK SMILES IDX 31 36 32 37 33 38 83 39 34 40 88 41 82 42 84 43 35 44 87 45
REMARK SMILES IDX 81 46 80 47 36 49 68 50 48 51 67 52 49 53 52 54 66 55 85 56
REMARK SMILES IDX 50 57 51 58 65 60 86 61 53 62 37 63 38 64 46 65 39 66 40 67
REMARK SMILES IDX 44 68 47 69 41 70 42 71 45 72 43 73 69 74 70 75 78 76 71 77
REMARK SMILES IDX 72 78 76 79 79 80 73 81 74 82 77 83 75 84 54 85 55 86 63 87
REMARK SMILES IDX 56 88 57 89 61 90 64 91 58 92 59 93 62 94 60 95
REMARK H PARENT 21 5 4 8 25 29 84 48 52 59
REMARK Flexibility Score: inf
ROOT
ATOM      1  C   UNL A   1      31.652  30.171  26.743  1.00  0.00     0.118 C 
ENDROOT
BRANCH   1   2
ATOM      2  N   UNL A   1      32.145  29.531  25.540  1.00  0.00    -0.351 N 
ATOM      3  O   UNL A   1      34.210  29.031  26.401  1.00  0.00    -0.269 OA
ATOM      4  C   UNL A   1      33.391  28.946  25.490  1.00  0.00     0.275 C 
ATOM      5  H   UNL A   1      31.574  29.514  24.738  1.00  0.00     0.163 HD
BRANCH   4   6
ATOM      6  C   UNL A   1      33.703  28.203  24.189  1.00  0.00     0.364 C 
BRANCH   6   7
ATOM      7  N   UNL A   1      33.121  26.834  24.138  1.00  0.00    -0.312 N 
ATOM      8  H   UNL A   1      32.526  26.744  24.961  1.00  0.00     0.349 HD
BRANCH   7   9
ATOM      9  C   UNL A   1      32.258  26.668  22.932  1.00  0.00     0.364 C 
BRANCH   9  10
ATOM     10  C   UNL A   1      31.011  27.486  22.904  1.00  0.00     0.282 A 
ATOM     11  N   UNL A   1      30.586  28.309  21.976  1.00  0.00    -0.183 NA
ATOM     12  O   UNL A   1      30.281  27.546  24.055  1.00  0.00    -0.333 OA
ATOM     13  C   UNL A   1      29.633  29.038  22.652  1.00  0.00     0.238 A 
ATOM     14  N   UNL A   1      29.368  28.588  23.887  1.00  0.00    -0.053 NA
BRANCH  13  15
ATOM     15  C   UNL A   1      29.069  30.298  22.094  1.00  0.00     0.174 A 
ATOM     16  C   UNL A   1      28.781  31.437  22.825  1.00  0.00     0.054 A 
ATOM     17  O   UNL A   1      28.679  30.487  20.795  1.00  0.00    -0.461 OA
ATOM     18  C   UNL A   1      28.158  32.348  21.939  1.00  0.00     0.043 A 
ATOM     19  C   UNL A   1      28.105  31.715  20.720  1.00  0.00     0.196 A 
ENDBRANCH  13  15
ENDBRANCH   9  10
ENDBRANCH   7   9
BRANCH   7  20
ATOM     20  C   UNL A   1      34.126  25.734  24.289  1.00  0.00     0.380 C 
BRANCH  20  21
ATOM     21  C   UNL A   1      33.944  24.471  25.173  1.00  0.00     0.438 C 
ATOM     22  F   UNL A   1      35.107  23.999  25.662  1.00  0.00    -0.165 F 
ATOM     23  F   UNL A   1      33.150  24.761  26.232  1.00  0.00    -0.165 F 
ATOM     24  F   UNL A   1      33.331  23.480  24.490  1.00  0.00    -0.165 F 
ENDBRANCH  20  21
ENDBRANCH   7  20
ENDBRANCH   6   7
ENDBRANCH   4   6
ENDBRANCH   1   2
BRANCH   1  25
ATOM     25  C   UNL A   1      31.407  31.665  26.570  1.00  0.00     0.042 C 
BRANCH  25  26
ATOM     26  C   UNL A   1      32.657  32.531  26.700  1.00  0.00     0.118 C 
BRANCH  26  27
ATOM     27  N   UNL A   1      32.399  33.818  27.330  1.00  0.00    -0.352 N 
ATOM     28  C   UNL A   1      33.012  34.445  28.384  1.00  0.00     0.251 C 
ATOM     29  H   UNL A   1      31.656  34.326  26.929  1.00  0.00     0.163 HD
ATOM     30  O   UNL A   1      32.531  35.492  28.813  1.00  0.00    -0.269 OA
BRANCH  28  31
ATOM     31  C   UNL A   1      34.222  33.885  29.030  1.00  0.00     0.039 A 
ATOM     32  C   UNL A   1      34.057  32.822  29.925  1.00  0.00     0.014 A 
ATOM     33  C   UNL A   1      35.499  34.413  28.817  1.00  0.00     0.014 A 
ATOM     34  C   UNL A   1      35.167  32.261  30.562  1.00  0.00     0.010 A 
ATOM     35  C   UNL A   1      36.614  33.806  29.396  1.00  0.00     0.010 A 
ATOM     36  C   UNL A   1      36.460  32.727  30.280  1.00  0.00    -0.014 A 
BRANCH  36  37
ATOM     37  C   UNL A   1      37.648  32.084  30.902  1.00  0.00     0.031 A 
ATOM     38  C   UNL A   1      38.103  32.475  32.281  1.00  0.00     0.074 A 
ATOM     39  C   UNL A   1      38.342  31.164  30.205  1.00  0.00     0.049 A 
ATOM     40  N   UNL A   1      39.111  32.016  32.982  1.00  0.00    -0.248 NA
ATOM     41  C   UNL A   1      37.343  33.540  32.954  1.00  0.00     0.031 C 
ATOM     42  C   UNL A   1      38.042  30.738  28.836  1.00  0.00     0.029 A 
ATOM     43  N   UNL A   1      39.441  30.418  30.550  1.00  0.00    -0.354 N 
ATOM     44  C   UNL A   1      39.110  32.739  34.168  1.00  0.00     0.074 A 
ATOM     45  C   UNL A   1      38.035  33.704  34.071  1.00  0.00     0.031 C 
ATOM     46  C   UNL A   1      38.915  29.787  28.471  1.00  0.00     0.029 A 
ATOM     47  C   UNL A   1      39.851  29.553  29.566  1.00  0.00     0.049 A 
ATOM     48  H   UNL A   1      39.893  30.497  31.422  1.00  0.00     0.167 HD
ATOM     49  C   UNL A   1      39.915  32.595  35.248  1.00  0.00     0.037 A 
ATOM     50  C   UNL A   1      40.864  28.666  29.549  1.00  0.00     0.037 A 
ATOM     51  C   UNL A   1      40.969  31.618  35.354  1.00  0.00     0.049 A 
ATOM     52  C   UNL A   1      41.727  28.510  30.771  1.00  0.00     0.074 A 
ATOM     53  C   UNL A   1      41.800  31.357  36.431  1.00  0.00     0.029 A 
ATOM     54  N   UNL A   1      41.338  30.742  34.345  1.00  0.00    -0.354 N 
ATOM     55  N   UNL A   1      41.666  29.145  31.915  1.00  0.00    -0.248 NA
ATOM     56  C   UNL A   1      42.792  27.499  30.701  1.00  0.00     0.031 C 
ATOM     57  C   UNL A   1      42.697  30.350  36.059  1.00  0.00     0.029 A 
ATOM     58  C   UNL A   1      42.395  29.951  34.768  1.00  0.00     0.049 A 
ATOM     59  H   UNL A   1      40.913  30.689  33.459  1.00  0.00     0.167 HD
ATOM     60  C   UNL A   1      42.663  28.596  32.710  1.00  0.00     0.074 A 
ATOM     61  C   UNL A   1      43.302  27.561  31.923  1.00  0.00     0.031 C 
ATOM     62  C   UNL A   1      43.019  28.921  33.977  1.00  0.00     0.037 A 
BRANCH  49  63
ATOM     63  C   UNL A   1      39.682  33.514  36.413  1.00  0.00     0.064 A 
ATOM     64  C   UNL A   1      40.271  34.786  36.473  1.00  0.00     0.173 A 
ATOM     65  C   UNL A   1      38.830  33.136  37.462  1.00  0.00     0.173 A 
ATOM     66  F   UNL A   1      41.102  35.192  35.501  1.00  0.00    -0.203 F 
ATOM     67  C   UNL A   1      40.038  35.634  37.552  1.00  0.00     0.198 A 
ATOM     68  C   UNL A   1      38.576  33.998  38.525  1.00  0.00     0.198 A 
ATOM     69  F   UNL A   1      38.236  31.933  37.451  1.00  0.00    -0.203 F 
ATOM     70  F   UNL A   1      40.649  36.825  37.612  1.00  0.00    -0.200 F 
ATOM     71  C   UNL A   1      39.186  35.242  38.575  1.00  0.00     0.200 A 
ATOM     72  F   UNL A   1      37.743  33.624  39.506  1.00  0.00    -0.200 F 
ATOM     73  F   UNL A   1      38.958  36.062  39.610  1.00  0.00    -0.200 F 
ENDBRANCH  49  63
BRANCH  50  74
ATOM     74  C   UNL A   1      41.089  27.822  28.347  1.00  0.00     0.064 A 
ATOM     75  C   UNL A   1      41.950  28.244  27.324  1.00  0.00     0.173 A 
ATOM     76  C   UNL A   1      40.448  26.585  28.193  1.00  0.00     0.173 A 
ATOM     77  F   UNL A   1      42.569  29.431  27.418  1.00  0.00    -0.203 F 
ATOM     78  C   UNL A   1      42.144  27.471  26.183  1.00  0.00     0.198 A 
ATOM     79  C   UNL A   1      40.664  25.799  27.064  1.00  0.00     0.198 A 
ATOM     80  F   UNL A   1      39.619  26.135  29.148  1.00  0.00    -0.203 F 
ATOM     81  F   UNL A   1      42.936  27.919  25.200  1.00  0.00    -0.200 F 
ATOM     82  C   UNL A   1      41.506  26.246  26.055  1.00  0.00     0.200 A 
ATOM     83  F   UNL A   1      40.057  24.610  26.951  1.00  0.00    -0.200 F 
ATOM     84  F   UNL A   1      41.694  25.500  24.958  1.00  0.00    -0.200 F 
ENDBRANCH  50  74
BRANCH  62  85
ATOM     85  C   UNL A   1      44.129  28.126  34.601  1.00  0.00     0.064 A 
ATOM     86  C   UNL A   1      45.467  28.543  34.524  1.00  0.00     0.173 A 
ATOM     87  C   UNL A   1      43.848  26.940  35.296  1.00  0.00     0.173 A 
ATOM     88  F   UNL A   1      45.788  29.662  33.857  1.00  0.00    -0.203 F 
ATOM     89  C   UNL A   1      46.486  27.782  35.091  1.00  0.00     0.198 A 
ATOM     90  C   UNL A   1      44.868  26.198  35.887  1.00  0.00     0.198 A 
ATOM     91  F   UNL A   1      42.586  26.501  35.404  1.00  0.00    -0.203 F 
ATOM     92  F   UNL A   1      47.762  28.170  34.956  1.00  0.00    -0.200 F 
ATOM     93  C   UNL A   1      46.186  26.614  35.776  1.00  0.00     0.200 A 
ATOM     94  F   UNL A   1      44.575  25.076  36.558  1.00  0.00    -0.200 F 
ATOM     95  F   UNL A   1      47.169  25.883  36.320  1.00  0.00    -0.200 F 
ENDBRANCH  62  85
ENDBRANCH  36  37
ENDBRANCH  28  31
ENDBRANCH  26  27
ENDBRANCH  25  26
ENDBRANCH   1  25
TORSDOF 16
ENDMDL
MODEL 3
REMARK VINA RESULT:     -11.4      5.716     10.977
REMARK SMILES O=C(C[N@@H+](Cc1nc(-c2ccco2)no1)CC(F)(F)F)NCCCNC(=O)c1ccc(-c2c3nc(c(-c4c(F)c(F)c(F)c(F)c4F)c4ccc([nH]4)c(-c4c(F)c(F)c(F)c(F)c4F)c4nc(c(-c5c(F)c(F)c(F)c(F)c5F)c5ccc2[nH]5)C=C4)C=C3)cc1
REMARK SMILES IDX 22 1 21 2 1 3 2 4 3 6 4 7 5 9 6 10 7 11 15 12 8 13 14 14
REMARK SMILES IDX 9 15 10 16 13 17 11 18 12 19 16 20 17 21 18 22 19 23 20 24
REMARK SMILES IDX 23 25 24 26 25 27 26 28 27 30 28 31 29 32 90 33 30 34 89 35
REMARK SMILES IDX 31 36 32 37 33 38 83 39 34 40 88 41 82 42 84 43 35 44 87 45
REMARK SMILES IDX 81 46 80 47 36 49 68 50 48 51 67 52 49 53 52 54 66 55 85 56
REMARK SMILES IDX 50 57 51 58 65 60 86 61 53 62 37 63 38 64 46 65 39 66 40 67
REMARK SMILES IDX 44 68 47 69 41 70 42 71 45 72 43 73 69 74 70 75 78 76 71 77
REMARK SMILES IDX 72 78 76 79 79 80 73 81 74 82 77 83 75 84 54 85 55 86 63 87
REMARK SMILES IDX 56 88 57 89 61 90 64 91 58 92 59 93 62 94 60 95
REMARK H PARENT 21 5 4 8 25 29 84 48 52 59
REMARK Flexibility Score: inf
ROOT
ATOM      1  C   UNL A   1      37.213  20.799  24.655  1.00  0.00     0.118 C 
ENDROOT
BRANCH   1   2
ATOM      2  N   UNL A   1      35.978  20.805  25.413  1.00  0.00    -0.351 N 
ATOM      3  O   UNL A   1      34.931  22.361  24.094  1.00  0.00    -0.269 OA
ATOM      4  C   UNL A   1      34.893  21.558  25.022  1.00  0.00     0.275 C 
ATOM      5  H   UNL A   1      35.913  20.256  26.228  1.00  0.00     0.163 HD
BRANCH   4   6
ATOM      6  C   UNL A   1      33.628  21.350  25.860  1.00  0.00     0.364 C 
BRANCH   6   7
ATOM      7  N   UNL A   1      32.492  20.786  25.081  1.00  0.00    -0.312 N 
ATOM      8  H   UNL A   1      31.839  20.400  25.763  1.00  0.00     0.349 HD
BRANCH   7   9
ATOM      9  C   UNL A   1      31.782  21.857  24.324  1.00  0.00     0.364 C 
BRANCH   9  10
ATOM     10  C   UNL A   1      31.358  23.046  25.119  1.00  0.00     0.282 A 
ATOM     11  N   UNL A   1      31.661  24.309  24.940  1.00  0.00    -0.183 NA
ATOM     12  O   UNL A   1      30.713  22.806  26.298  1.00  0.00    -0.333 OA
ATOM     13  C   UNL A   1      31.325  24.861  26.156  1.00  0.00     0.238 A 
ATOM     14  N   UNL A   1      30.701  24.018  26.992  1.00  0.00    -0.053 NA
BRANCH  13  15
ATOM     15  C   UNL A   1      31.761  26.232  26.541  1.00  0.00     0.174 A 
ATOM     16  C   UNL A   1      32.975  26.806  26.209  1.00  0.00     0.054 A 
ATOM     17  O   UNL A   1      31.061  27.092  27.344  1.00  0.00    -0.461 OA
ATOM     18  C   UNL A   1      33.031  28.059  26.866  1.00  0.00     0.043 A 
ATOM     19  C   UNL A   1      31.848  28.178  27.557  1.00  0.00     0.196 A 
ENDBRANCH  13  15
ENDBRANCH   9  10
ENDBRANCH   7   9
BRANCH   7  20
ATOM     20  C   UNL A   1      32.859  19.614  24.222  1.00  0.00     0.380 C 
BRANCH  20  21
ATOM     21  C   UNL A   1      33.274  18.214  24.749  1.00  0.00     0.438 C 
ATOM     22  F   UNL A   1      34.607  18.025  24.748  1.00  0.00    -0.165 F 
ATOM     23  F   UNL A   1      32.844  18.056  26.024  1.00  0.00    -0.165 F 
ATOM     24  F   UNL A   1      32.700  17.229  24.023  1.00  0.00    -0.165 F 
ENDBRANCH  20  21
ENDBRANCH   7  20
ENDBRANCH   6   7
ENDBRANCH   4   6
ENDBRANCH   1   2
BRANCH   1  25
ATOM     25  C   UNL A   1      38.094  19.593  24.955  1.00  0.00     0.042 C 
BRANCH  25  26
ATOM     26  C   UNL A   1      39.122  19.818  26.061  1.00  0.00     0.118 C 
BRANCH  26  27
ATOM     27  N   UNL A   1      40.318  19.002  25.907  1.00  0.00    -0.352 N 
ATOM     28  C   UNL A   1      41.648  19.330  25.972  1.00  0.00     0.251 C 
ATOM     29  H   UNL A   1      40.141  18.050  25.725  1.00  0.00     0.163 HD
ATOM     30  O   UNL A   1      42.484  18.476  25.686  1.00  0.00    -0.269 OA
BRANCH  28  31
ATOM     31  C   UNL A   1      42.099  20.688  26.355  1.00  0.00     0.039 A 
ATOM     32  C   UNL A   1      42.292  21.629  25.336  1.00  0.00     0.014 A 
ATOM     33  C   UNL A   1      42.388  21.038  27.677  1.00  0.00     0.014 A 
ATOM     34  C   UNL A   1      42.720  22.922  25.646  1.00  0.00     0.010 A 
ATOM     35  C   UNL A   1      42.745  22.350  27.994  1.00  0.00     0.010 A 
ATOM     36  C   UNL A   1      42.921  23.304  26.982  1.00  0.00    -0.014 A 
BRANCH  36  37
ATOM     37  C   UNL A   1      43.307  24.700  27.319  1.00  0.00     0.031 A 
ATOM     38  C   UNL A   1      44.705  25.196  27.067  1.00  0.00     0.074 A 
ATOM     39  C   UNL A   1      42.399  25.518  27.886  1.00  0.00     0.049 A 
ATOM     40  N   UNL A   1      45.216  26.382  27.292  1.00  0.00    -0.248 NA
ATOM     41  C   UNL A   1      45.663  24.227  26.515  1.00  0.00     0.031 C 
ATOM     42  C   UNL A   1      41.029  25.144  28.237  1.00  0.00     0.029 A 
ATOM     43  N   UNL A   1      42.492  26.834  28.267  1.00  0.00    -0.354 N 
ATOM     44  C   UNL A   1      46.551  26.298  26.918  1.00  0.00     0.074 A 
ATOM     45  C   UNL A   1      46.785  24.931  26.502  1.00  0.00     0.031 C 
ATOM     46  C   UNL A   1      40.400  26.212  28.752  1.00  0.00     0.029 A 
ATOM     47  C   UNL A   1      41.328  27.337  28.792  1.00  0.00     0.049 A 
ATOM     48  H   UNL A   1      43.316  27.365  28.172  1.00  0.00     0.167 HD
ATOM     49  C   UNL A   1      47.488  27.275  26.898  1.00  0.00     0.037 A 
ATOM     50  C   UNL A   1      41.038  28.571  29.250  1.00  0.00     0.037 A 
ATOM     51  C   UNL A   1      47.249  28.641  27.289  1.00  0.00     0.049 A 
ATOM     52  C   UNL A   1      42.090  29.643  29.194  1.00  0.00     0.074 A 
ATOM     53  C   UNL A   1      48.120  29.717  27.249  1.00  0.00     0.029 A 
ATOM     54  N   UNL A   1      46.049  29.119  27.792  1.00  0.00    -0.354 N 
ATOM     55  N   UNL A   1      43.326  29.571  28.766  1.00  0.00    -0.248 NA
ATOM     56  C   UNL A   1      41.699  30.976  29.675  1.00  0.00     0.031 C 
ATOM     57  C   UNL A   1      47.459  30.837  27.766  1.00  0.00     0.029 A 
ATOM     58  C   UNL A   1      46.162  30.471  28.083  1.00  0.00     0.049 A 
ATOM     59  H   UNL A   1      45.236  28.580  27.925  1.00  0.00     0.167 HD
ATOM     60  C   UNL A   1      43.853  30.848  28.899  1.00  0.00     0.074 A 
ATOM     61  C   UNL A   1      42.794  31.682  29.431  1.00  0.00     0.031 C 
ATOM     62  C   UNL A   1      45.100  31.291  28.607  1.00  0.00     0.037 A 
BRANCH  49  63
ATOM     63  C   UNL A   1      48.866  26.905  26.430  1.00  0.00     0.064 A 
ATOM     64  C   UNL A   1      49.823  26.378  27.311  1.00  0.00     0.173 A 
ATOM     65  C   UNL A   1      49.223  27.040  25.080  1.00  0.00     0.173 A 
ATOM     66  F   UNL A   1      49.538  26.239  28.614  1.00  0.00    -0.203 F 
ATOM     67  C   UNL A   1      51.094  26.026  26.863  1.00  0.00     0.198 A 
ATOM     68  C   UNL A   1      50.485  26.660  24.630  1.00  0.00     0.198 A 
ATOM     69  F   UNL A   1      48.344  27.532  24.194  1.00  0.00    -0.203 F 
ATOM     70  F   UNL A   1      52.008  25.570  27.731  1.00  0.00    -0.200 F 
ATOM     71  C   UNL A   1      51.421  26.162  25.521  1.00  0.00     0.200 A 
ATOM     72  F   UNL A   1      50.796  26.779  23.332  1.00  0.00    -0.200 F 
ATOM     73  F   UNL A   1      52.643  25.817  25.090  1.00  0.00    -0.200 F 
ENDBRANCH  49  63
BRANCH  50  74
ATOM     74  C   UNL A   1      39.675  28.869  29.759  1.00  0.00     0.064 A 
ATOM     75  C   UNL A   1      39.342  28.635  31.101  1.00  0.00     0.173 A 
ATOM     76  C   UNL A   1      38.679  29.388  28.920  1.00  0.00     0.173 A 
ATOM     77  F   UNL A   1      40.256  28.119  31.937  1.00  0.00    -0.203 F 
ATOM     78  C   UNL A   1      38.058  28.887  31.578  1.00  0.00     0.198 A 
ATOM     79  C   UNL A   1      37.403  29.666  29.405  1.00  0.00     0.198 A 
ATOM     80  F   UNL A   1      38.950  29.635  27.629  1.00  0.00    -0.203 F 
ATOM     81  F   UNL A   1      37.754  28.610  32.853  1.00  0.00    -0.200 F 
ATOM     82  C   UNL A   1      37.091  29.408  30.732  1.00  0.00     0.200 A 
ATOM     83  F   UNL A   1      36.476  30.182  28.587  1.00  0.00    -0.200 F 
ATOM     84  F   UNL A   1      35.857  29.653  31.191  1.00  0.00    -0.200 F 
ENDBRANCH  50  74
BRANCH  62  85
ATOM     85  C   UNL A   1      45.378  32.749  28.829  1.00  0.00     0.064 A 
ATOM     86  C   UNL A   1      45.165  33.701  27.820  1.00  0.00     0.173 A 
ATOM     87  C   UNL A   1      45.849  33.201  30.071  1.00  0.00     0.173 A 
ATOM     88  F   UNL A   1      44.729  33.317  26.611  1.00  0.00    -0.203 F 
ATOM     89  C   UNL A   1      45.446  35.048  28.038  1.00  0.00     0.198 A 
ATOM     90  C   UNL A   1      46.101  34.552  30.293  1.00  0.00     0.198 A 
ATOM     91  F   UNL A   1      46.063  32.332  31.070  1.00  0.00    -0.203 F 
ATOM     92  F   UNL A   1      45.289  35.931  27.042  1.00  0.00    -0.200 F 
ATOM     93  C   UNL A   1      45.909  35.473  29.274  1.00  0.00     0.200 A 
ATOM     94  F   UNL A   1      46.538  34.963  31.492  1.00  0.00    -0.200 F 
ATOM     95  F   UNL A   1      46.181  36.769  29.480  1.00  0.00    -0.200 F 
ENDBRANCH  62  85
ENDBRANCH  36  37
ENDBRANCH  28  31
ENDBRANCH  26  27
ENDBRANCH  25  26
ENDBRANCH   1  25
TORSDOF 16
ENDMDL
