MODEL 1
REMARK VINA RESULT:     -12.3      0.000      0.000
REMARK SMILES C[C@H](CC[NH2+]Cc1cc(C(=O)NCCCNC(=O)c2ccc(-c3c4nc(c(-c5c(F)c(F)c(F)c(F)c5F)c5ccc([nH]5)c(-c5c(F)c(F)c(F)c(F)c5F)c5nc(c(-c6c(F)c(F)c(F)c(F)c6F)c6ccc3[nH]6)C=C5)C=C4)cc2)cs1)c1ccccc1
REMARK SMILES IDX 10 1 11 2 12 3 9 5 7 6 8 7 83 8 82 9 6 10 5 11 4 14 3 15
REMARK SMILES IDX 2 16 1 17 84 18 85 19 89 20 86 21 88 22 87 23 13 24 14 25
REMARK SMILES IDX 15 26 16 27 17 28 18 30 19 31 20 32 81 33 21 34 80 35 22 36
REMARK SMILES IDX 23 37 24 38 74 39 25 40 79 41 73 42 75 43 26 44 78 45 72 46
REMARK SMILES IDX 71 47 27 49 59 50 39 51 58 52 40 53 43 54 57 55 76 56 41 57
REMARK SMILES IDX 42 58 56 60 77 61 44 62 28 63 29 64 37 65 30 66 31 67 35 68
REMARK SMILES IDX 38 69 32 70 33 71 36 72 34 73 60 74 61 75 69 76 62 77 63 78
REMARK SMILES IDX 67 79 70 80 64 81 65 82 68 83 66 84 45 85 46 86 54 87 47 88
REMARK SMILES IDX 48 89 52 90 55 91 49 92 50 93 53 94 51 95
REMARK H PARENT 12 4 5 12 5 13 16 29 75 48 43 59
REMARK Flexibility Score: inf
ROOT
ATOM      1  C   UNL A   1      33.597  28.977  27.065  1.00  0.00     0.252 C 
ATOM      2  O   UNL A   1      34.776  28.951  27.419  1.00  0.00    -0.269 OA
ATOM      3  N   UNL A   1      32.947  30.182  27.160  1.00  0.00    -0.352 N 
ATOM      4  H   UNL A   1      33.428  30.867  27.679  1.00  0.00     0.163 HD
ENDROOT
BRANCH   1   5
ATOM      5  C   UNL A   1      32.931  27.790  26.526  1.00  0.00     0.051 A 
ATOM      6  C   UNL A   1      31.283  26.202  25.963  1.00  0.00     0.059 A 
ATOM      7  C   UNL A   1      31.608  27.283  26.764  1.00  0.00     0.035 A 
ATOM      8  S   UNL A   1      32.648  25.644  25.100  1.00  0.00    -0.142 S 
ATOM      9  C   UNL A   1      33.611  26.925  25.684  1.00  0.00     0.079 A 
BRANCH   6  10
ATOM     10  C   UNL A   1      29.945  25.537  25.796  1.00  0.00     0.308 C 
BRANCH  10  11
ATOM     11  N   UNL A   1      29.537  25.475  24.383  1.00  0.00    -0.342 N 
ATOM     12  H   UNL A   1      30.357  25.271  23.812  1.00  0.00     0.346 HD
ATOM     13  H   UNL A   1      28.832  24.743  24.290  1.00  0.00     0.346 HD
BRANCH  11  14
ATOM     14  C   UNL A   1      28.944  26.735  23.929  1.00  0.00     0.261 C 
BRANCH  14  15
ATOM     15  C   UNL A   1      29.851  27.528  22.970  1.00  0.00     0.069 C 
BRANCH  15  16
ATOM     16  C   UNL A   1      30.376  28.911  23.447  1.00  0.00     0.021 C 
ATOM     17  C   UNL A   1      31.887  29.043  23.189  1.00  0.00     0.013 C 
BRANCH  16  18
ATOM     18  C   UNL A   1      29.527  30.087  22.962  1.00  0.00    -0.045 A 
ATOM     19  C   UNL A   1      29.085  30.140  21.629  1.00  0.00     0.004 A 
ATOM     20  C   UNL A   1      29.148  31.139  23.804  1.00  0.00     0.004 A 
ATOM     21  C   UNL A   1      28.397  31.254  21.135  1.00  0.00     0.000 A 
ATOM     22  C   UNL A   1      28.471  32.261  23.311  1.00  0.00     0.000 A 
ATOM     23  C   UNL A   1      28.114  32.328  21.971  1.00  0.00     0.000 A 
ENDBRANCH  16  18
ENDBRANCH  15  16
ENDBRANCH  14  15
ENDBRANCH  11  14
ENDBRANCH  10  11
ENDBRANCH   6  10
ENDBRANCH   1   5
BRANCH   3  24
ATOM     24  C   UNL A   1      31.674  30.615  26.626  1.00  0.00     0.118 C 
BRANCH  24  25
ATOM     25  C   UNL A   1      31.514  32.126  26.664  1.00  0.00     0.042 C 
BRANCH  25  26
ATOM     26  C   UNL A   1      32.734  32.822  27.254  1.00  0.00     0.118 C 
BRANCH  26  27
ATOM     27  N   UNL A   1      32.464  34.209  27.622  1.00  0.00    -0.352 N 
ATOM     28  C   UNL A   1      33.006  34.980  28.622  1.00  0.00     0.251 C 
ATOM     29  H   UNL A   1      31.786  34.661  27.069  1.00  0.00     0.163 HD
ATOM     30  O   UNL A   1      32.516  36.073  28.886  1.00  0.00    -0.269 OA
BRANCH  28  31
ATOM     31  C   UNL A   1      34.163  34.484  29.393  1.00  0.00     0.039 A 
ATOM     32  C   UNL A   1      33.948  33.924  30.655  1.00  0.00     0.014 A 
ATOM     33  C   UNL A   1      35.455  34.563  28.871  1.00  0.00     0.014 A 
ATOM     34  C   UNL A   1      35.021  33.374  31.358  1.00  0.00     0.010 A 
ATOM     35  C   UNL A   1      36.504  33.930  29.525  1.00  0.00     0.010 A 
ATOM     36  C   UNL A   1      36.299  33.334  30.778  1.00  0.00    -0.014 A 
BRANCH  36  37
ATOM     37  C   UNL A   1      37.442  32.681  31.462  1.00  0.00     0.031 A 
ATOM     38  C   UNL A   1      38.149  31.527  30.806  1.00  0.00     0.074 A 
ATOM     39  C   UNL A   1      37.784  33.069  32.705  1.00  0.00     0.049 A 
ATOM     40  N   UNL A   1      39.096  30.757  31.279  1.00  0.00    -0.248 NA
ATOM     41  C   UNL A   1      37.705  31.168  29.449  1.00  0.00     0.031 C 
ATOM     42  C   UNL A   1      37.133  34.135  33.468  1.00  0.00     0.029 A 
ATOM     43  N   UNL A   1      38.756  32.600  33.554  1.00  0.00    -0.354 N 
ATOM     44  C   UNL A   1      39.345  29.817  30.288  1.00  0.00     0.074 A 
ATOM     45  C   UNL A   1      38.407  30.069  29.217  1.00  0.00     0.031 C 
ATOM     46  C   UNL A   1      37.735  34.252  34.663  1.00  0.00     0.029 A 
ATOM     47  C   UNL A   1      38.787  33.246  34.766  1.00  0.00     0.049 A 
ATOM     48  H   UNL A   1      39.372  31.871  33.316  1.00  0.00     0.167 HD
ATOM     49  C   UNL A   1      40.291  28.848  30.261  1.00  0.00     0.037 A 
ATOM     50  C   UNL A   1      39.570  33.041  35.841  1.00  0.00     0.037 A 
ATOM     51  C   UNL A   1      41.237  28.620  31.321  1.00  0.00     0.049 A 
ATOM     52  C   UNL A   1      40.619  31.965  35.785  1.00  0.00     0.074 A 
ATOM     53  C   UNL A   1      42.273  27.704  31.371  1.00  0.00     0.029 A 
ATOM     54  N   UNL A   1      41.263  29.320  32.519  1.00  0.00    -0.354 N 
ATOM     55  N   UNL A   1      40.892  31.124  34.816  1.00  0.00    -0.248 NA
ATOM     56  C   UNL A   1      41.476  31.814  36.969  1.00  0.00     0.031 C 
ATOM     57  C   UNL A   1      42.897  27.820  32.618  1.00  0.00     0.029 A 
ATOM     58  C   UNL A   1      42.285  28.844  33.323  1.00  0.00     0.049 A 
ATOM     59  H   UNL A   1      40.646  30.048  32.761  1.00  0.00     0.167 HD
ATOM     60  C   UNL A   1      41.964  30.364  35.260  1.00  0.00     0.074 A 
ATOM     61  C   UNL A   1      42.304  30.855  36.580  1.00  0.00     0.031 C 
ATOM     62  C   UNL A   1      42.611  29.350  34.633  1.00  0.00     0.037 A 
BRANCH  49  63
ATOM     63  C   UNL A   1      40.350  27.972  29.043  1.00  0.00     0.064 A 
ATOM     64  C   UNL A   1      39.637  26.764  28.970  1.00  0.00     0.173 A 
ATOM     65  C   UNL A   1      41.112  28.350  27.926  1.00  0.00     0.173 A 
ATOM     66  F   UNL A   1      38.904  26.349  30.015  1.00  0.00    -0.203 F 
ATOM     67  C   UNL A   1      39.715  25.951  27.843  1.00  0.00     0.198 A 
ATOM     68  C   UNL A   1      41.159  27.551  26.787  1.00  0.00     0.198 A 
ATOM     69  F   UNL A   1      41.809  29.496  27.939  1.00  0.00    -0.203 F 
ATOM     70  F   UNL A   1      39.073  24.775  27.821  1.00  0.00    -0.200 F 
ATOM     71  C   UNL A   1      40.469  26.349  26.749  1.00  0.00     0.200 A 
ATOM     72  F   UNL A   1      41.879  27.941  25.726  1.00  0.00    -0.200 F 
ATOM     73  F   UNL A   1      40.539  25.567  25.663  1.00  0.00    -0.200 F 
ENDBRANCH  49  63
BRANCH  50  74
ATOM     74  C   UNL A   1      39.405  33.891  37.050  1.00  0.00     0.064 A 
ATOM     75  C   UNL A   1      38.690  33.430  38.163  1.00  0.00     0.173 A 
ATOM     76  C   UNL A   1      39.963  35.176  37.120  1.00  0.00     0.173 A 
ATOM     77  F   UNL A   1      38.122  32.215  38.138  1.00  0.00    -0.203 F 
ATOM     78  C   UNL A   1      38.521  34.228  39.293  1.00  0.00     0.198 A 
ATOM     79  C   UNL A   1      39.819  35.962  38.261  1.00  0.00     0.198 A 
ATOM     80  F   UNL A   1      40.665  35.662  36.085  1.00  0.00    -0.203 F 
ATOM     81  F   UNL A   1      37.795  33.779  40.325  1.00  0.00    -0.200 F 
ATOM     82  C   UNL A   1      39.091  35.491  39.343  1.00  0.00     0.200 A 
ATOM     83  F   UNL A   1      40.386  37.175  38.312  1.00  0.00    -0.200 F 
ATOM     84  F   UNL A   1      38.934  36.257  40.432  1.00  0.00    -0.200 F 
ENDBRANCH  50  74
BRANCH  62  85
ATOM     85  C   UNL A   1      43.771  28.726  35.352  1.00  0.00     0.064 A 
ATOM     86  C   UNL A   1      45.084  29.178  35.162  1.00  0.00     0.173 A 
ATOM     87  C   UNL A   1      43.557  27.689  36.273  1.00  0.00     0.173 A 
ATOM     88  F   UNL A   1      45.341  30.156  34.281  1.00  0.00    -0.203 F 
ATOM     89  C   UNL A   1      46.145  28.598  35.852  1.00  0.00     0.198 A 
ATOM     90  C   UNL A   1      44.616  27.133  36.983  1.00  0.00     0.198 A 
ATOM     91  F   UNL A   1      42.318  27.226  36.495  1.00  0.00    -0.203 F 
ATOM     92  F   UNL A   1      47.399  29.013  35.620  1.00  0.00    -0.200 F 
ATOM     93  C   UNL A   1      45.910  27.582  36.767  1.00  0.00     0.200 A 
ATOM     94  F   UNL A   1      44.385  26.162  37.879  1.00  0.00    -0.200 F 
ATOM     95  F   UNL A   1      46.932  27.031  37.437  1.00  0.00    -0.200 F 
ENDBRANCH  62  85
ENDBRANCH  36  37
ENDBRANCH  28  31
ENDBRANCH  26  27
ENDBRANCH  25  26
ENDBRANCH  24  25
ENDBRANCH   3  24
TORSDOF 16
ENDMDL
MODEL 2
REMARK VINA RESULT:     -12.2      6.512     11.867
REMARK SMILES C[C@H](CC[NH2+]Cc1cc(C(=O)NCCCNC(=O)c2ccc(-c3c4nc(c(-c5c(F)c(F)c(F)c(F)c5F)c5ccc([nH]5)c(-c5c(F)c(F)c(F)c(F)c5F)c5nc(c(-c6c(F)c(F)c(F)c(F)c6F)c6ccc3[nH]6)C=C5)C=C4)cc2)cs1)c1ccccc1
REMARK SMILES IDX 10 1 11 2 12 3 9 5 7 6 8 7 83 8 82 9 6 10 5 11 4 14 3 15
REMARK SMILES IDX 2 16 1 17 84 18 85 19 89 20 86 21 88 22 87 23 13 24 14 25
REMARK SMILES IDX 15 26 16 27 17 28 18 30 19 31 20 32 81 33 21 34 80 35 22 36
REMARK SMILES IDX 23 37 24 38 74 39 25 40 79 41 73 42 75 43 26 44 78 45 72 46
REMARK SMILES IDX 71 47 27 49 59 50 39 51 58 52 40 53 43 54 57 55 76 56 41 57
REMARK SMILES IDX 42 58 56 60 77 61 44 62 28 63 29 64 37 65 30 66 31 67 35 68
REMARK SMILES IDX 38 69 32 70 33 71 36 72 34 73 60 74 61 75 69 76 62 77 63 78
REMARK SMILES IDX 67 79 70 80 64 81 65 82 68 83 66 84 45 85 46 86 54 87 47 88
REMARK SMILES IDX 48 89 52 90 55 91 49 92 50 93 53 94 51 95
REMARK H PARENT 12 4 5 12 5 13 16 29 75 48 43 59
REMARK Flexibility Score: inf
ROOT
ATOM      1  C   UNL A   1      37.141  23.410  25.423  1.00  0.00     0.252 C 
ATOM      2  O   UNL A   1      37.695  24.208  26.179  1.00  0.00    -0.269 OA
ATOM      3  N   UNL A   1      37.761  22.199  25.236  1.00  0.00    -0.352 N 
ATOM      4  H   UNL A   1      38.684  22.155  25.576  1.00  0.00     0.163 HD
ENDROOT
BRANCH   1   5
ATOM      5  C   UNL A   1      35.861  23.719  24.785  1.00  0.00     0.051 A 
ATOM      6  C   UNL A   1      34.053  23.738  23.273  1.00  0.00     0.059 A 
ATOM      7  C   UNL A   1      35.378  23.393  23.472  1.00  0.00     0.035 A 
ATOM      8  S   UNL A   1      33.459  24.670  24.575  1.00  0.00    -0.142 S 
ATOM      9  C   UNL A   1      34.913  24.482  25.447  1.00  0.00     0.079 A 
BRANCH   6  10
ATOM     10  C   UNL A   1      33.164  23.388  22.112  1.00  0.00     0.308 C 
BRANCH  10  11
ATOM     11  N   UNL A   1      31.959  22.660  22.545  1.00  0.00    -0.342 N 
ATOM     12  H   UNL A   1      31.639  23.051  23.432  1.00  0.00     0.346 HD
ATOM     13  H   UNL A   1      31.250  22.766  21.819  1.00  0.00     0.346 HD
BRANCH  11  14
ATOM     14  C   UNL A   1      32.217  21.230  22.722  1.00  0.00     0.261 C 
BRANCH  14  15
ATOM     15  C   UNL A   1      32.200  20.783  24.195  1.00  0.00     0.069 C 
BRANCH  15  16
ATOM     16  C   UNL A   1      33.530  20.259  24.808  1.00  0.00     0.021 C 
ATOM     17  C   UNL A   1      33.855  20.993  26.121  1.00  0.00     0.013 C 
BRANCH  16  18
ATOM     18  C   UNL A   1      33.612  18.734  24.877  1.00  0.00    -0.045 A 
ATOM     19  C   UNL A   1      32.605  17.998  25.524  1.00  0.00     0.004 A 
ATOM     20  C   UNL A   1      34.665  18.010  24.304  1.00  0.00     0.004 A 
ATOM     21  C   UNL A   1      32.710  16.613  25.692  1.00  0.00     0.000 A 
ATOM     22  C   UNL A   1      34.780  16.626  24.480  1.00  0.00     0.000 A 
ATOM     23  C   UNL A   1      33.813  15.930  25.192  1.00  0.00     0.000 A 
ENDBRANCH  16  18
ENDBRANCH  15  16
ENDBRANCH  14  15
ENDBRANCH  11  14
ENDBRANCH  10  11
ENDBRANCH   6  10
ENDBRANCH   1   5
BRANCH   3  24
ATOM     24  C   UNL A   1      37.285  20.977  24.626  1.00  0.00     0.118 C 
BRANCH  24  25
ATOM     25  C   UNL A   1      38.152  19.779  24.977  1.00  0.00     0.042 C 
BRANCH  25  26
ATOM     26  C   UNL A   1      39.313  20.153  25.889  1.00  0.00     0.118 C 
BRANCH  26  27
ATOM     27  N   UNL A   1      40.330  19.107  25.958  1.00  0.00    -0.352 N 
ATOM     28  C   UNL A   1      41.692  19.206  26.105  1.00  0.00     0.251 C 
ATOM     29  H   UNL A   1      39.986  18.187  25.886  1.00  0.00     0.163 HD
ATOM     30  O   UNL A   1      42.398  18.214  25.959  1.00  0.00    -0.269 OA
BRANCH  28  31
ATOM     31  C   UNL A   1      42.309  20.512  26.415  1.00  0.00     0.039 A 
ATOM     32  C   UNL A   1      42.813  21.290  25.370  1.00  0.00     0.014 A 
ATOM     33  C   UNL A   1      42.384  20.970  27.732  1.00  0.00     0.014 A 
ATOM     34  C   UNL A   1      43.321  22.562  25.639  1.00  0.00     0.010 A 
ATOM     35  C   UNL A   1      42.798  22.271  27.986  1.00  0.00     0.010 A 
ATOM     36  C   UNL A   1      43.276  23.078  26.944  1.00  0.00    -0.014 A 
BRANCH  36  37
ATOM     37  C   UNL A   1      43.728  24.458  27.248  1.00  0.00     0.031 A 
ATOM     38  C   UNL A   1      42.746  25.473  27.762  1.00  0.00     0.074 A 
ATOM     39  C   UNL A   1      44.998  24.817  26.981  1.00  0.00     0.049 A 
ATOM     40  N   UNL A   1      42.915  26.751  27.989  1.00  0.00    -0.248 NA
ATOM     41  C   UNL A   1      41.378  24.994  28.022  1.00  0.00     0.031 C 
ATOM     42  C   UNL A   1      46.027  23.936  26.424  1.00  0.00     0.029 A 
ATOM     43  N   UNL A   1      45.638  26.022  27.127  1.00  0.00    -0.354 N 
ATOM     44  C   UNL A   1      41.676  27.228  28.397  1.00  0.00     0.074 A 
ATOM     45  C   UNL A   1      40.750  26.120  28.324  1.00  0.00     0.031 C 
ATOM     46  C   UNL A   1      47.172  24.625  26.293  1.00  0.00     0.029 A 
ATOM     47  C   UNL A   1      46.950  26.003  26.719  1.00  0.00     0.049 A 
ATOM     48  H   UNL A   1      45.198  26.824  27.488  1.00  0.00     0.167 HD
ATOM     49  C   UNL A   1      41.348  28.471  28.823  1.00  0.00     0.037 A 
ATOM     50  C   UNL A   1      47.865  26.989  26.685  1.00  0.00     0.037 A 
ATOM     51  C   UNL A   1      42.282  29.561  28.916  1.00  0.00     0.049 A 
ATOM     52  C   UNL A   1      47.480  28.359  27.172  1.00  0.00     0.074 A 
ATOM     53  C   UNL A   1      42.068  30.844  29.388  1.00  0.00     0.029 A 
ATOM     54  N   UNL A   1      43.614  29.493  28.531  1.00  0.00    -0.354 N 
ATOM     55  N   UNL A   1      46.322  28.783  27.620  1.00  0.00    -0.248 NA
ATOM     56  C   UNL A   1      48.529  29.386  27.155  1.00  0.00     0.031 C 
ATOM     57  C   UNL A   1      43.258  31.565  29.246  1.00  0.00     0.029 A 
ATOM     58  C   UNL A   1      44.229  30.717  28.736  1.00  0.00     0.049 A 
ATOM     59  H   UNL A   1      44.056  28.693  28.165  1.00  0.00     0.167 HD
ATOM     60  C   UNL A   1      46.510  30.114  27.962  1.00  0.00     0.074 A 
ATOM     61  C   UNL A   1      47.898  30.424  27.686  1.00  0.00     0.031 C 
ATOM     62  C   UNL A   1      45.614  31.003  28.460  1.00  0.00     0.037 A 
BRANCH  49  63
ATOM     63  C   UNL A   1      39.921  28.709  29.226  1.00  0.00     0.064 A 
ATOM     64  C   UNL A   1      38.964  29.167  28.306  1.00  0.00     0.173 A 
ATOM     65  C   UNL A   1      39.498  28.461  30.541  1.00  0.00     0.173 A 
ATOM     66  F   UNL A   1      39.318  29.434  27.040  1.00  0.00    -0.203 F 
ATOM     67  C   UNL A   1      37.648  29.403  28.696  1.00  0.00     0.198 A 
ATOM     68  C   UNL A   1      38.174  28.665  30.919  1.00  0.00     0.198 A 
ATOM     69  F   UNL A   1      40.370  28.018  31.460  1.00  0.00    -0.203 F 
ATOM     70  F   UNL A   1      36.768  29.897  27.815  1.00  0.00    -0.200 F 
ATOM     71  C   UNL A   1      37.252  29.144  30.000  1.00  0.00     0.200 A 
ATOM     72  F   UNL A   1      37.789  28.403  32.176  1.00  0.00    -0.200 F 
ATOM     73  F   UNL A   1      35.985  29.368  30.373  1.00  0.00    -0.200 F 
ENDBRANCH  49  63
BRANCH  50  74
ATOM     74  C   UNL A   1      49.240  26.706  26.197  1.00  0.00     0.064 A 
ATOM     75  C   UNL A   1      49.596  26.951  24.864  1.00  0.00     0.173 A 
ATOM     76  C   UNL A   1      50.228  26.192  27.051  1.00  0.00     0.173 A 
ATOM     77  F   UNL A   1      48.682  27.425  24.003  1.00  0.00    -0.203 F 
ATOM     78  C   UNL A   1      50.880  26.674  24.397  1.00  0.00     0.198 A 
ATOM     79  C   UNL A   1      51.519  25.943  26.591  1.00  0.00     0.198 A 
ATOM     80  F   UNL A   1      49.942  25.948  28.339  1.00  0.00    -0.203 F 
ATOM     81  F   UNL A   1      51.179  26.876  23.108  1.00  0.00    -0.200 F 
ATOM     82  C   UNL A   1      51.842  26.177  25.263  1.00  0.00     0.200 A 
ATOM     83  F   UNL A   1      52.450  25.479  27.436  1.00  0.00    -0.200 F 
ATOM     84  F   UNL A   1      53.078  25.917  24.817  1.00  0.00    -0.200 F 
ENDBRANCH  50  74
BRANCH  62  85
ATOM     85  C   UNL A   1      46.115  32.383  28.769  1.00  0.00     0.064 A 
ATOM     86  C   UNL A   1      46.054  33.417  27.823  1.00  0.00     0.173 A 
ATOM     87  C   UNL A   1      46.623  32.684  30.042  1.00  0.00     0.173 A 
ATOM     88  F   UNL A   1      45.592  33.176  26.588  1.00  0.00    -0.203 F 
ATOM     89  C   UNL A   1      46.508  34.696  28.134  1.00  0.00     0.198 A 
ATOM     90  C   UNL A   1      47.045  33.971  30.359  1.00  0.00     0.198 A 
ATOM     91  F   UNL A   1      46.695  31.731  30.984  1.00  0.00    -0.203 F 
ATOM     92  F   UNL A   1      46.486  35.658  27.201  1.00  0.00    -0.200 F 
ATOM     93  C   UNL A   1      46.995  34.974  29.403  1.00  0.00     0.200 A 
ATOM     94  F   UNL A   1      47.502  34.242  31.590  1.00  0.00    -0.200 F 
ATOM     95  F   UNL A   1      47.423  36.209  29.703  1.00  0.00    -0.200 F 
ENDBRANCH  62  85
ENDBRANCH  36  37
ENDBRANCH  28  31
ENDBRANCH  26  27
ENDBRANCH  25  26
ENDBRANCH  24  25
ENDBRANCH   3  24
TORSDOF 16
ENDMDL
MODEL 3
REMARK VINA RESULT:     -12.1      0.641      7.276
REMARK SMILES C[C@H](CC[NH2+]Cc1cc(C(=O)NCCCNC(=O)c2ccc(-c3c4nc(c(-c5c(F)c(F)c(F)c(F)c5F)c5ccc([nH]5)c(-c5c(F)c(F)c(F)c(F)c5F)c5nc(c(-c6c(F)c(F)c(F)c(F)c6F)c6ccc3[nH]6)C=C5)C=C4)cc2)cs1)c1ccccc1
REMARK SMILES IDX 10 1 11 2 12 3 9 5 7 6 8 7 83 8 82 9 6 10 5 11 4 14 3 15
REMARK SMILES IDX 2 16 1 17 84 18 85 19 89 20 86 21 88 22 87 23 13 24 14 25
REMARK SMILES IDX 15 26 16 27 17 28 18 30 19 31 20 32 81 33 21 34 80 35 22 36
REMARK SMILES IDX 23 37 24 38 74 39 25 40 79 41 73 42 75 43 26 44 78 45 72 46
REMARK SMILES IDX 71 47 27 49 59 50 39 51 58 52 40 53 43 54 57 55 76 56 41 57
REMARK SMILES IDX 42 58 56 60 77 61 44 62 28 63 29 64 37 65 30 66 31 67 35 68
REMARK SMILES IDX 38 69 32 70 33 71 36 72 34 73 60 74 61 75 69 76 62 77 63 78
REMARK SMILES IDX 67 79 70 80 64 81 65 82 68 83 66 84 45 85 46 86 54 87 47 88
REMARK SMILES IDX 48 89 52 90 55 91 49 92 50 93 53 94 51 95
REMARK H PARENT 12 4 5 12 5 13 16 29 75 48 43 59
REMARK Flexibility Score: inf
ROOT
ATOM      1  C   UNL A   1      33.636  29.079  27.166  1.00  0.00     0.252 C 
ATOM      2  O   UNL A   1      34.822  29.074  27.496  1.00  0.00    -0.269 OA
ATOM      3  N   UNL A   1      32.980  30.283  27.230  1.00  0.00    -0.352 N 
ATOM      4  H   UNL A   1      33.466  30.989  27.713  1.00  0.00     0.163 HD
ENDROOT
BRANCH   1   5
ATOM      5  C   UNL A   1      32.968  27.869  26.685  1.00  0.00     0.051 A 
ATOM      6  C   UNL A   1      31.306  26.293  26.129  1.00  0.00     0.059 A 
ATOM      7  C   UNL A   1      31.608  27.435  26.848  1.00  0.00     0.035 A 
ATOM      8  S   UNL A   1      32.715  25.603  25.451  1.00  0.00    -0.142 S 
ATOM      9  C   UNL A   1      33.679  26.901  25.994  1.00  0.00     0.079 A 
BRANCH   6  10
ATOM     10  C   UNL A   1      29.960  25.662  25.905  1.00  0.00     0.308 C 
BRANCH  10  11
ATOM     11  N   UNL A   1      29.658  25.508  24.472  1.00  0.00    -0.342 N 
ATOM     12  H   UNL A   1      30.534  25.389  23.962  1.00  0.00     0.346 HD
ATOM     13  H   UNL A   1      29.055  24.692  24.363  1.00  0.00     0.346 HD
BRANCH  11  14
ATOM     14  C   UNL A   1      28.950  26.671  23.933  1.00  0.00     0.261 C 
BRANCH  14  15
ATOM     15  C   UNL A   1      29.809  27.525  22.982  1.00  0.00     0.069 C 
BRANCH  15  16
ATOM     16  C   UNL A   1      30.366  28.873  23.522  1.00  0.00     0.021 C 
ATOM     17  C   UNL A   1      31.899  28.917  23.408  1.00  0.00     0.013 C 
BRANCH  16  18
ATOM     18  C   UNL A   1      29.635  30.098  22.974  1.00  0.00    -0.045 A 
ATOM     19  C   UNL A   1      29.340  31.184  23.816  1.00  0.00     0.004 A 
ATOM     20  C   UNL A   1      29.239  30.202  21.635  1.00  0.00     0.004 A 
ATOM     21  C   UNL A   1      28.581  32.270  23.365  1.00  0.00     0.000 A 
ATOM     22  C   UNL A   1      28.469  31.280  21.182  1.00  0.00     0.000 A 
ATOM     23  C   UNL A   1      28.122  32.304  22.053  1.00  0.00     0.000 A 
ENDBRANCH  16  18
ENDBRANCH  15  16
ENDBRANCH  14  15
ENDBRANCH  11  14
ENDBRANCH  10  11
ENDBRANCH   6  10
ENDBRANCH   1   5
BRANCH   3  24
ATOM     24  C   UNL A   1      31.694  30.688  26.707  1.00  0.00     0.118 C 
BRANCH  24  25
ATOM     25  C   UNL A   1      31.523  32.198  26.694  1.00  0.00     0.042 C 
BRANCH  25  26
ATOM     26  C   UNL A   1      32.801  32.927  27.090  1.00  0.00     0.118 C 
BRANCH  26  27
ATOM     27  N   UNL A   1      32.541  34.260  27.626  1.00  0.00    -0.352 N 
ATOM     28  C   UNL A   1      33.083  34.895  28.717  1.00  0.00     0.251 C 
ATOM     29  H   UNL A   1      31.872  34.785  27.130  1.00  0.00     0.163 HD
ATOM     30  O   UNL A   1      32.602  35.952  29.113  1.00  0.00    -0.269 OA
BRANCH  28  31
ATOM     31  C   UNL A   1      34.230  34.295  29.428  1.00  0.00     0.039 A 
ATOM     32  C   UNL A   1      33.989  33.468  30.528  1.00  0.00     0.014 A 
ATOM     33  C   UNL A   1      35.538  34.540  29.006  1.00  0.00     0.014 A 
ATOM     34  C   UNL A   1      35.058  32.826  31.156  1.00  0.00     0.010 A 
ATOM     35  C   UNL A   1      36.589  33.826  29.568  1.00  0.00     0.010 A 
ATOM     36  C   UNL A   1      36.361  32.967  30.651  1.00  0.00    -0.014 A 
BRANCH  36  37
ATOM     37  C   UNL A   1      37.505  32.231  31.243  1.00  0.00     0.031 A 
ATOM     38  C   UNL A   1      38.017  32.611  32.604  1.00  0.00     0.074 A 
ATOM     39  C   UNL A   1      38.134  31.285  30.520  1.00  0.00     0.049 A 
ATOM     40  N   UNL A   1      39.065  32.166  33.251  1.00  0.00    -0.248 NA
ATOM     41  C   UNL A   1      37.272  33.659  33.321  1.00  0.00     0.031 C 
ATOM     42  C   UNL A   1      37.767  30.872  29.164  1.00  0.00     0.029 A 
ATOM     43  N   UNL A   1      39.226  30.508  30.819  1.00  0.00    -0.354 N 
ATOM     44  C   UNL A   1      39.112  32.891  34.434  1.00  0.00     0.074 A 
ATOM     45  C   UNL A   1      38.030  33.849  34.389  1.00  0.00     0.031 C 
ATOM     46  C   UNL A   1      38.606  29.906  28.757  1.00  0.00     0.029 A 
ATOM     47  C   UNL A   1      39.592  29.658  29.803  1.00  0.00     0.049 A 
ATOM     48  H   UNL A   1      39.701  30.556  31.679  1.00  0.00     0.167 HD
ATOM     49  C   UNL A   1      39.963  32.749  35.478  1.00  0.00     0.037 A 
ATOM     50  C   UNL A   1      40.613  28.786  29.725  1.00  0.00     0.037 A 
ATOM     51  C   UNL A   1      41.022  31.776  35.526  1.00  0.00     0.049 A 
ATOM     52  C   UNL A   1      41.540  28.640  30.900  1.00  0.00     0.074 A 
ATOM     53  C   UNL A   1      41.905  31.510  36.557  1.00  0.00     0.029 A 
ATOM     54  N   UNL A   1      41.338  30.904  34.492  1.00  0.00    -0.354 N 
ATOM     55  N   UNL A   1      41.536  29.283  32.043  1.00  0.00    -0.248 NA
ATOM     56  C   UNL A   1      42.611  27.641  30.778  1.00  0.00     0.031 C 
ATOM     57  C   UNL A   1      42.783  30.508  36.131  1.00  0.00     0.029 A 
ATOM     58  C   UNL A   1      42.415  30.112  34.855  1.00  0.00     0.049 A 
ATOM     59  H   UNL A   1      40.866  30.856  33.630  1.00  0.00     0.167 HD
ATOM     60  C   UNL A   1      42.580  28.752  32.785  1.00  0.00     0.074 A 
ATOM     61  C   UNL A   1      43.188  27.720  31.969  1.00  0.00     0.031 C 
ATOM     62  C   UNL A   1      43.001  29.086  34.030  1.00  0.00     0.037 A 
BRANCH  49  63
ATOM     63  C   UNL A   1      39.775  33.665  36.654  1.00  0.00     0.064 A 
ATOM     64  C   UNL A   1      38.967  33.304  37.745  1.00  0.00     0.173 A 
ATOM     65  C   UNL A   1      40.422  34.909  36.703  1.00  0.00     0.173 A 
ATOM     66  F   UNL A   1      38.314  32.131  37.743  1.00  0.00    -0.203 F 
ATOM     67  C   UNL A   1      38.785  34.169  38.820  1.00  0.00     0.198 A 
ATOM     68  C   UNL A   1      40.265  35.756  37.796  1.00  0.00     0.198 A 
ATOM     69  F   UNL A   1      41.210  35.302  35.691  1.00  0.00    -0.203 F 
ATOM     70  F   UNL A   1      37.961  33.826  39.821  1.00  0.00    -0.200 F 
ATOM     71  C   UNL A   1      39.440  35.391  38.849  1.00  0.00     0.200 A 
ATOM     72  F   UNL A   1      40.908  36.931  37.829  1.00  0.00    -0.200 F 
ATOM     73  F   UNL A   1      39.267  36.219  39.887  1.00  0.00    -0.200 F 
ENDBRANCH  49  63
BRANCH  50  74
ATOM     74  C   UNL A   1      40.793  27.966  28.498  1.00  0.00     0.064 A 
ATOM     75  C   UNL A   1      40.182  26.711  28.374  1.00  0.00     0.173 A 
ATOM     76  C   UNL A   1      41.572  28.419  27.423  1.00  0.00     0.173 A 
ATOM     77  F   UNL A   1      39.442  26.224  29.382  1.00  0.00    -0.203 F 
ATOM     78  C   UNL A   1      40.359  25.931  27.232  1.00  0.00     0.198 A 
ATOM     79  C   UNL A   1      41.725  27.653  26.270  1.00  0.00     0.198 A 
ATOM     80  F   UNL A   1      42.172  29.618  27.487  1.00  0.00    -0.203 F 
ATOM     81  F   UNL A   1      39.798  24.717  27.160  1.00  0.00    -0.200 F 
ATOM     82  C   UNL A   1      41.125  26.406  26.179  1.00  0.00     0.200 A 
ATOM     83  F   UNL A   1      42.451  28.123  25.247  1.00  0.00    -0.200 F 
ATOM     84  F   UNL A   1      41.290  25.660  25.078  1.00  0.00    -0.200 F 
ENDBRANCH  50  74
BRANCH  62  85
ATOM     85  C   UNL A   1      44.152  28.309  34.598  1.00  0.00     0.064 A 
ATOM     86  C   UNL A   1      45.478  28.739  34.445  1.00  0.00     0.173 A 
ATOM     87  C   UNL A   1      43.919  27.141  35.341  1.00  0.00     0.173 A 
ATOM     88  F   UNL A   1      45.753  29.840  33.730  1.00  0.00    -0.203 F 
ATOM     89  C   UNL A   1      46.532  28.014  34.995  1.00  0.00     0.198 A 
ATOM     90  C   UNL A   1      44.973  26.437  35.916  1.00  0.00     0.198 A 
ATOM     91  F   UNL A   1      42.668  26.693  35.522  1.00  0.00    -0.203 F 
ATOM     92  F   UNL A   1      47.795  28.415  34.796  1.00  0.00    -0.200 F 
ATOM     93  C   UNL A   1      46.278  26.868  35.736  1.00  0.00     0.200 A 
ATOM     94  F   UNL A   1      44.725  25.339  36.645  1.00  0.00    -0.200 F 
ATOM     95  F   UNL A   1      47.293  26.177  36.272  1.00  0.00    -0.200 F 
ENDBRANCH  62  85
ENDBRANCH  36  37
ENDBRANCH  28  31
ENDBRANCH  26  27
ENDBRANCH  25  26
ENDBRANCH  24  25
ENDBRANCH   3  24
TORSDOF 16
ENDMDL
