MODEL 1
REMARK VINA RESULT:     -13.2      0.000      0.000
REMARK SMILES COC(=O)C[C@@H](NC(=O)c1ccccc1C(=O)NCCCNC(=O)c1ccc(-c2c3nc(c(-c4c(F)c(F)c(F)c(F)c4F)c4ccc([nH]4)c(-c4c(F)c(F)c(F)c(F)c4F)c4nc(c(-c5c(F)c(F)c(F)c(F)c5F)c5ccc2[nH]5)C=C4)C=C3)cc1)c1cccc(C)c1C
REMARK SMILES IDX 16 1 17 2 18 3 15 5 10 6 11 7 12 8 14 9 13 10 8 11 7 12 9 14
REMARK SMILES IDX 6 15 5 16 3 17 4 18 2 19 1 20 88 21 89 22 94 23 90 24 92 25
REMARK SMILES IDX 95 26 91 27 93 28 19 29 20 30 21 31 22 32 23 33 24 35 25 36
REMARK SMILES IDX 26 37 87 38 27 39 86 40 28 41 29 42 30 43 80 44 31 45 85 46
REMARK SMILES IDX 79 47 81 48 32 49 84 50 78 51 77 52 33 54 65 55 45 56 64 57
REMARK SMILES IDX 46 58 49 59 63 60 82 61 47 62 48 63 62 65 83 66 50 67 34 68
REMARK SMILES IDX 35 69 43 70 36 71 37 72 41 73 44 74 38 75 39 76 42 77 40 78
REMARK SMILES IDX 66 79 67 80 75 81 68 82 69 83 73 84 76 85 70 86 71 87 74 88
REMARK SMILES IDX 72 89 51 90 52 91 60 92 53 93 54 94 58 95 61 96 55 97 56 98
REMARK SMILES IDX 59 99 57 100
REMARK H PARENT 18 4 7 13 22 34 81 53 49 64
REMARK Flexibility Score: inf
ROOT
ATOM      1  C   UNL A   1      32.666  28.950  24.748  1.00  0.00     0.252 C 
ATOM      2  O   UNL A   1      33.748  28.468  24.426  1.00  0.00    -0.269 OA
ATOM      3  N   UNL A   1      32.657  30.179  25.336  1.00  0.00    -0.352 N 
ATOM      4  H   UNL A   1      32.970  30.947  24.804  1.00  0.00     0.163 HD
ENDROOT
BRANCH   1   5
ATOM      5  C   UNL A   1      31.386  28.271  24.427  1.00  0.00     0.052 A 
ATOM      6  C   UNL A   1      30.886  27.149  25.091  1.00  0.00     0.052 A 
ATOM      7  C   UNL A   1      29.728  26.506  24.622  1.00  0.00     0.014 A 
ATOM      8  C   UNL A   1      28.986  27.062  23.585  1.00  0.00     0.001 A 
ATOM      9  C   UNL A   1      30.599  28.851  23.418  1.00  0.00     0.014 A 
ATOM     10  C   UNL A   1      29.398  28.261  23.015  1.00  0.00     0.001 A 
BRANCH   6  11
ATOM     11  C   UNL A   1      31.479  26.530  26.277  1.00  0.00     0.252 C 
ATOM     12  N   UNL A   1      32.296  25.440  26.205  1.00  0.00    -0.345 N 
ATOM     13  H   UNL A   1      32.867  25.347  27.001  1.00  0.00     0.164 HD
ATOM     14  O   UNL A   1      31.308  27.078  27.367  1.00  0.00    -0.269 OA
BRANCH  12  15
ATOM     15  C   UNL A   1      32.531  24.361  25.213  1.00  0.00     0.124 C 
BRANCH  15  16
ATOM     16  C   UNL A   1      31.631  23.158  25.570  1.00  0.00     0.152 C 
BRANCH  16  17
ATOM     17  C   UNL A   1      31.260  23.077  27.039  1.00  0.00     0.307 C 
ATOM     18  O   UNL A   1      32.047  22.753  27.918  1.00  0.00    -0.252 OA
BRANCH  17  19
ATOM     19  O   UNL A   1      29.989  23.510  27.259  1.00  0.00    -0.469 OA
ATOM     20  C   UNL A   1      28.988  22.499  27.429  1.00  0.00     0.282 C 
ENDBRANCH  17  19
ENDBRANCH  16  17
ENDBRANCH  15  16
BRANCH  15  21
ATOM     21  C   UNL A   1      33.995  23.928  25.116  1.00  0.00    -0.022 A 
ATOM     22  C   UNL A   1      34.792  24.078  26.269  1.00  0.00     0.006 A 
ATOM     23  C   UNL A   1      34.602  23.392  23.943  1.00  0.00    -0.043 A 
ATOM     24  C   UNL A   1      36.149  23.767  26.261  1.00  0.00     0.001 A 
ATOM     25  C   UNL A   1      36.013  23.227  23.904  1.00  0.00    -0.048 A 
ATOM     26  C   UNL A   1      33.812  22.917  22.745  1.00  0.00     0.045 C 
ATOM     27  C   UNL A   1      36.759  23.379  25.079  1.00  0.00     0.004 A 
ATOM     28  C   UNL A   1      36.781  22.889  22.649  1.00  0.00     0.044 C 
ENDBRANCH  15  21
ENDBRANCH  12  15
ENDBRANCH   6  11
ENDBRANCH   1   5
BRANCH   3  29
ATOM     29  C   UNL A   1      32.216  30.434  26.697  1.00  0.00     0.118 C 
BRANCH  29  30
ATOM     30  C   UNL A   1      31.854  31.904  26.872  1.00  0.00     0.042 C 
BRANCH  30  31
ATOM     31  C   UNL A   1      32.996  32.748  27.429  1.00  0.00     0.118 C 
BRANCH  31  32
ATOM     32  N   UNL A   1      32.621  34.146  27.647  1.00  0.00    -0.352 N 
ATOM     33  C   UNL A   1      33.034  35.012  28.631  1.00  0.00     0.251 C 
ATOM     34  H   UNL A   1      31.984  34.518  26.996  1.00  0.00     0.163 HD
ATOM     35  O   UNL A   1      32.476  36.091  28.801  1.00  0.00    -0.269 OA
BRANCH  33  36
ATOM     36  C   UNL A   1      34.136  34.590  29.508  1.00  0.00     0.039 A 
ATOM     37  C   UNL A   1      33.850  34.008  30.742  1.00  0.00     0.014 A 
ATOM     38  C   UNL A   1      35.445  34.660  29.035  1.00  0.00     0.014 A 
ATOM     39  C   UNL A   1      34.883  33.407  31.460  1.00  0.00     0.010 A 
ATOM     40  C   UNL A   1      36.433  33.932  29.674  1.00  0.00     0.010 A 
ATOM     41  C   UNL A   1      36.171  33.317  30.906  1.00  0.00    -0.014 A 
BRANCH  41  42
ATOM     42  C   UNL A   1      37.267  32.610  31.612  1.00  0.00     0.031 A 
ATOM     43  C   UNL A   1      37.982  31.473  30.931  1.00  0.00     0.074 A 
ATOM     44  C   UNL A   1      37.577  32.954  32.879  1.00  0.00     0.049 A 
ATOM     45  N   UNL A   1      38.953  30.719  31.378  1.00  0.00    -0.248 NA
ATOM     46  C   UNL A   1      37.508  31.097  29.588  1.00  0.00     0.031 C 
ATOM     47  C   UNL A   1      36.883  33.967  33.679  1.00  0.00     0.029 A 
ATOM     48  N   UNL A   1      38.562  32.495  33.713  1.00  0.00    -0.354 N 
ATOM     49  C   UNL A   1      39.179  29.773  30.386  1.00  0.00     0.074 A 
ATOM     50  C   UNL A   1      38.188  29.985  29.358  1.00  0.00     0.031 C 
ATOM     51  C   UNL A   1      37.504  34.095  34.862  1.00  0.00     0.029 A 
ATOM     52  C   UNL A   1      38.619  33.158  34.916  1.00  0.00     0.049 A 
ATOM     53  H   UNL A   1      39.172  31.759  33.475  1.00  0.00     0.167 HD
ATOM     54  C   UNL A   1      40.157  28.841  30.313  1.00  0.00     0.037 A 
ATOM     55  C   UNL A   1      39.494  33.036  35.931  1.00  0.00     0.037 A 
ATOM     56  C   UNL A   1      41.174  28.678  31.314  1.00  0.00     0.049 A 
ATOM     57  C   UNL A   1      40.624  32.050  35.792  1.00  0.00     0.074 A 
ATOM     58  C   UNL A   1      42.257  27.817  31.319  1.00  0.00     0.029 A 
ATOM     59  N   UNL A   1      41.237  29.411  32.491  1.00  0.00    -0.354 N 
ATOM     60  N   UNL A   1      40.881  31.219  34.809  1.00  0.00    -0.248 NA
ATOM     61  C   UNL A   1      41.594  32.001  36.891  1.00  0.00     0.031 C 
ATOM     62  C   UNL A   1      42.957  28.009  32.515  1.00  0.00     0.029 A 
ATOM     63  C   UNL A   1      42.337  29.020  33.233  1.00  0.00     0.049 A 
ATOM     64  H   UNL A   1      40.593  30.107  32.758  1.00  0.00     0.167 HD
ATOM     65  C   UNL A   1      42.056  30.567  35.160  1.00  0.00     0.074 A 
ATOM     66  C   UNL A   1      42.472  31.120  36.433  1.00  0.00     0.031 C 
ATOM     67  C   UNL A   1      42.727  29.594  34.495  1.00  0.00     0.037 A 
BRANCH  54  68
ATOM     68  C   UNL A   1      40.179  27.957  29.099  1.00  0.00     0.064 A 
ATOM     69  C   UNL A   1      39.486  26.735  29.063  1.00  0.00     0.173 A 
ATOM     70  C   UNL A   1      40.904  28.329  27.957  1.00  0.00     0.173 A 
ATOM     71  F   UNL A   1      38.791  26.321  30.135  1.00  0.00    -0.203 F 
ATOM     72  C   UNL A   1      39.553  25.901  27.950  1.00  0.00     0.198 A 
ATOM     73  C   UNL A   1      40.939  27.509  26.831  1.00  0.00     0.198 A 
ATOM     74  F   UNL A   1      41.584  29.484  27.933  1.00  0.00    -0.203 F 
ATOM     75  F   UNL A   1      38.939  24.710  27.969  1.00  0.00    -0.200 F 
ATOM     76  C   UNL A   1      40.273  26.292  26.833  1.00  0.00     0.200 A 
ATOM     77  F   UNL A   1      41.628  27.891  25.747  1.00  0.00    -0.200 F 
ATOM     78  F   UNL A   1      40.337  25.490  25.761  1.00  0.00    -0.200 F 
ENDBRANCH  54  68
BRANCH  55  79
ATOM     79  C   UNL A   1      39.385  33.918  37.123  1.00  0.00     0.064 A 
ATOM     80  C   UNL A   1      39.942  35.205  37.119  1.00  0.00     0.173 A 
ATOM     81  C   UNL A   1      38.725  33.500  38.288  1.00  0.00     0.173 A 
ATOM     82  F   UNL A   1      40.596  35.647  36.034  1.00  0.00    -0.203 F 
ATOM     83  C   UNL A   1      39.866  36.030  38.240  1.00  0.00     0.198 A 
ATOM     84  C   UNL A   1      38.624  34.336  39.399  1.00  0.00     0.198 A 
ATOM     85  F   UNL A   1      38.166  32.282  38.343  1.00  0.00    -0.203 F 
ATOM     86  F   UNL A   1      40.449  37.236  38.223  1.00  0.00    -0.200 F 
ATOM     87  C   UNL A   1      39.203  35.597  39.378  1.00  0.00     0.200 A 
ATOM     88  F   UNL A   1      37.969  33.920  40.490  1.00  0.00    -0.200 F 
ATOM     89  F   UNL A   1      39.126  36.391  40.455  1.00  0.00    -0.200 F 
ENDBRANCH  55  79
BRANCH  67  90
ATOM     90  C   UNL A   1      43.994  29.095  35.125  1.00  0.00     0.064 A 
ATOM     91  C   UNL A   1      45.238  29.670  34.830  1.00  0.00     0.173 A 
ATOM     92  C   UNL A   1      43.957  28.038  36.048  1.00  0.00     0.173 A 
ATOM     93  F   UNL A   1      45.325  30.674  33.943  1.00  0.00    -0.203 F 
ATOM     94  C   UNL A   1      46.405  29.178  35.404  1.00  0.00     0.198 A 
ATOM     95  C   UNL A   1      45.123  27.572  36.646  1.00  0.00     0.198 A 
ATOM     96  F   UNL A   1      42.789  27.462  36.371  1.00  0.00    -0.203 F 
ATOM     97  F   UNL A   1      47.591  29.701  35.061  1.00  0.00    -0.200 F 
ATOM     98  C   UNL A   1      46.347  28.134  36.315  1.00  0.00     0.200 A 
ATOM     99  F   UNL A   1      45.063  26.573  37.537  1.00  0.00    -0.200 F 
ATOM    100  F   UNL A   1      47.472  27.661  36.867  1.00  0.00    -0.200 F 
ENDBRANCH  67  90
ENDBRANCH  41  42
ENDBRANCH  33  36
ENDBRANCH  31  32
ENDBRANCH  30  31
ENDBRANCH  29  30
ENDBRANCH   3  29
TORSDOF 16
ENDMDL
MODEL 2
REMARK VINA RESULT:     -13.2      0.070      1.543
REMARK SMILES COC(=O)C[C@@H](NC(=O)c1ccccc1C(=O)NCCCNC(=O)c1ccc(-c2c3nc(c(-c4c(F)c(F)c(F)c(F)c4F)c4ccc([nH]4)c(-c4c(F)c(F)c(F)c(F)c4F)c4nc(c(-c5c(F)c(F)c(F)c(F)c5F)c5ccc2[nH]5)C=C4)C=C3)cc1)c1cccc(C)c1C
REMARK SMILES IDX 16 1 17 2 18 3 15 5 10 6 11 7 12 8 14 9 13 10 8 11 7 12 9 14
REMARK SMILES IDX 6 15 5 16 3 17 4 18 2 19 1 20 88 21 89 22 94 23 90 24 92 25
REMARK SMILES IDX 95 26 91 27 93 28 19 29 20 30 21 31 22 32 23 33 24 35 25 36
REMARK SMILES IDX 26 37 87 38 27 39 86 40 28 41 29 42 30 43 80 44 31 45 85 46
REMARK SMILES IDX 79 47 81 48 32 49 84 50 78 51 77 52 33 54 65 55 45 56 64 57
REMARK SMILES IDX 46 58 49 59 63 60 82 61 47 62 48 63 62 65 83 66 50 67 34 68
REMARK SMILES IDX 35 69 43 70 36 71 37 72 41 73 44 74 38 75 39 76 42 77 40 78
REMARK SMILES IDX 66 79 67 80 75 81 68 82 69 83 73 84 76 85 70 86 71 87 74 88
REMARK SMILES IDX 72 89 51 90 52 91 60 92 53 93 54 94 58 95 61 96 55 97 56 98
REMARK SMILES IDX 59 99 57 100
REMARK H PARENT 18 4 7 13 22 34 81 53 49 64
REMARK Flexibility Score: inf
ROOT
ATOM      1  C   UNL A   1      32.679  28.947  24.679  1.00  0.00     0.252 C 
ATOM      2  O   UNL A   1      33.757  28.456  24.353  1.00  0.00    -0.269 OA
ATOM      3  N   UNL A   1      32.682  30.185  25.250  1.00  0.00    -0.352 N 
ATOM      4  H   UNL A   1      32.992  30.943  24.702  1.00  0.00     0.163 HD
ENDROOT
BRANCH   1   5
ATOM      5  C   UNL A   1      31.394  28.269  24.382  1.00  0.00     0.052 A 
ATOM      6  C   UNL A   1      30.899  27.155  25.064  1.00  0.00     0.052 A 
ATOM      7  C   UNL A   1      29.733  26.511  24.618  1.00  0.00     0.014 A 
ATOM      8  C   UNL A   1      28.979  27.058  23.584  1.00  0.00     0.001 A 
ATOM      9  C   UNL A   1      30.595  28.841  23.378  1.00  0.00     0.014 A 
ATOM     10  C   UNL A   1      29.387  28.250  22.996  1.00  0.00     0.001 A 
BRANCH   6  11
ATOM     11  C   UNL A   1      31.505  26.547  26.249  1.00  0.00     0.252 C 
ATOM     12  N   UNL A   1      32.320  25.455  26.177  1.00  0.00    -0.345 N 
ATOM     13  H   UNL A   1      32.901  25.369  26.968  1.00  0.00     0.164 HD
ATOM     14  O   UNL A   1      31.348  27.106  27.336  1.00  0.00    -0.269 OA
BRANCH  12  15
ATOM     15  C   UNL A   1      32.542  24.367  25.193  1.00  0.00     0.124 C 
BRANCH  15  16
ATOM     16  C   UNL A   1      31.630  23.175  25.562  1.00  0.00     0.152 C 
BRANCH  16  17
ATOM     17  C   UNL A   1      31.268  23.105  27.033  1.00  0.00     0.307 C 
ATOM     18  O   UNL A   1      32.060  22.780  27.909  1.00  0.00    -0.252 OA
BRANCH  17  19
ATOM     19  O   UNL A   1      30.002  23.548  27.259  1.00  0.00    -0.469 OA
ATOM     20  C   UNL A   1      28.989  22.545  27.403  1.00  0.00     0.282 C 
ENDBRANCH  17  19
ENDBRANCH  16  17
ENDBRANCH  15  16
BRANCH  15  21
ATOM     21  C   UNL A   1      34.001  23.918  25.096  1.00  0.00    -0.022 A 
ATOM     22  C   UNL A   1      34.789  24.020  26.261  1.00  0.00     0.006 A 
ATOM     23  C   UNL A   1      34.613  23.413  23.912  1.00  0.00    -0.043 A 
ATOM     24  C   UNL A   1      36.141  23.691  26.256  1.00  0.00     0.001 A 
ATOM     25  C   UNL A   1      36.022  23.232  23.881  1.00  0.00    -0.048 A 
ATOM     26  C   UNL A   1      33.829  22.989  22.691  1.00  0.00     0.045 C 
ATOM     27  C   UNL A   1      36.759  23.335  25.067  1.00  0.00     0.004 A 
ATOM     28  C   UNL A   1      36.798  22.925  22.623  1.00  0.00     0.044 C 
ENDBRANCH  15  21
ENDBRANCH  12  15
ENDBRANCH   6  11
ENDBRANCH   1   5
BRANCH   3  29
ATOM     29  C   UNL A   1      32.256  30.462  26.611  1.00  0.00     0.118 C 
BRANCH  29  30
ATOM     30  C   UNL A   1      31.918  31.939  26.772  1.00  0.00     0.042 C 
BRANCH  30  31
ATOM     31  C   UNL A   1      32.993  32.731  27.510  1.00  0.00     0.118 C 
BRANCH  31  32
ATOM     32  N   UNL A   1      32.634  34.136  27.708  1.00  0.00    -0.352 N 
ATOM     33  C   UNL A   1      33.059  35.011  28.679  1.00  0.00     0.251 C 
ATOM     34  H   UNL A   1      31.999  34.505  27.053  1.00  0.00     0.163 HD
ATOM     35  O   UNL A   1      32.514  36.099  28.835  1.00  0.00    -0.269 OA
BRANCH  33  36
ATOM     36  C   UNL A   1      34.158  34.590  29.559  1.00  0.00     0.039 A 
ATOM     37  C   UNL A   1      33.869  33.987  30.782  1.00  0.00     0.014 A 
ATOM     38  C   UNL A   1      35.470  34.683  29.098  1.00  0.00     0.014 A 
ATOM     39  C   UNL A   1      34.903  33.388  31.500  1.00  0.00     0.010 A 
ATOM     40  C   UNL A   1      36.462  33.958  29.735  1.00  0.00     0.010 A 
ATOM     41  C   UNL A   1      36.197  33.321  30.955  1.00  0.00    -0.014 A 
BRANCH  41  42
ATOM     42  C   UNL A   1      37.296  32.617  31.661  1.00  0.00     0.031 A 
ATOM     43  C   UNL A   1      38.005  31.475  30.984  1.00  0.00     0.074 A 
ATOM     44  C   UNL A   1      37.613  32.970  32.923  1.00  0.00     0.049 A 
ATOM     45  N   UNL A   1      38.978  30.722  31.431  1.00  0.00    -0.248 NA
ATOM     46  C   UNL A   1      37.523  31.090  29.647  1.00  0.00     0.031 C 
ATOM     47  C   UNL A   1      36.925  33.989  33.720  1.00  0.00     0.029 A 
ATOM     48  N   UNL A   1      38.602  32.515  33.755  1.00  0.00    -0.354 N 
ATOM     49  C   UNL A   1      39.196  29.769  30.444  1.00  0.00     0.074 A 
ATOM     50  C   UNL A   1      38.200  29.976  29.421  1.00  0.00     0.031 C 
ATOM     51  C   UNL A   1      37.552  34.125  34.899  1.00  0.00     0.029 A 
ATOM     52  C   UNL A   1      38.667  33.186  34.953  1.00  0.00     0.049 A 
ATOM     53  H   UNL A   1      39.210  31.777  33.519  1.00  0.00     0.167 HD
ATOM     54  C   UNL A   1      40.172  28.834  30.372  1.00  0.00     0.037 A 
ATOM     55  C   UNL A   1      39.547  33.070  35.964  1.00  0.00     0.037 A 
ATOM     56  C   UNL A   1      41.195  28.676  31.370  1.00  0.00     0.049 A 
ATOM     57  C   UNL A   1      40.674  32.081  35.826  1.00  0.00     0.074 A 
ATOM     58  C   UNL A   1      42.276  27.814  31.374  1.00  0.00     0.029 A 
ATOM     59  N   UNL A   1      41.265  29.418  32.540  1.00  0.00    -0.354 N 
ATOM     60  N   UNL A   1      40.925  31.243  34.848  1.00  0.00    -0.248 NA
ATOM     61  C   UNL A   1      41.651  32.038  36.921  1.00  0.00     0.031 C 
ATOM     62  C   UNL A   1      42.982  28.013  32.565  1.00  0.00     0.029 A 
ATOM     63  C   UNL A   1      42.368  29.030  33.280  1.00  0.00     0.049 A 
ATOM     64  H   UNL A   1      40.623  30.117  32.806  1.00  0.00     0.167 HD
ATOM     65  C   UNL A   1      42.100  30.591  35.197  1.00  0.00     0.074 A 
ATOM     66  C   UNL A   1      42.525  31.152  36.464  1.00  0.00     0.031 C 
ATOM     67  C   UNL A   1      42.767  29.612  34.535  1.00  0.00     0.037 A 
BRANCH  54  68
ATOM     68  C   UNL A   1      40.186  27.942  29.164  1.00  0.00     0.064 A 
ATOM     69  C   UNL A   1      39.493  26.719  29.142  1.00  0.00     0.173 A 
ATOM     70  C   UNL A   1      40.903  28.306  28.015  1.00  0.00     0.173 A 
ATOM     71  F   UNL A   1      38.806  26.313  30.222  1.00  0.00    -0.203 F 
ATOM     72  C   UNL A   1      39.553  25.878  28.034  1.00  0.00     0.198 A 
ATOM     73  C   UNL A   1      40.931  27.478  26.895  1.00  0.00     0.198 A 
ATOM     74  F   UNL A   1      41.583  29.461  27.979  1.00  0.00    -0.203 F 
ATOM     75  F   UNL A   1      38.940  24.687  28.066  1.00  0.00    -0.200 F 
ATOM     76  C   UNL A   1      40.266  26.261  26.910  1.00  0.00     0.200 A 
ATOM     77  F   UNL A   1      41.613  27.853  25.803  1.00  0.00    -0.200 F 
ATOM     78  F   UNL A   1      40.322  25.451  25.843  1.00  0.00    -0.200 F 
ENDBRANCH  54  68
BRANCH  55  79
ATOM     79  C   UNL A   1      39.446  33.960  37.151  1.00  0.00     0.064 A 
ATOM     80  C   UNL A   1      38.782  33.537  38.312  1.00  0.00     0.173 A 
ATOM     81  C   UNL A   1      40.007  35.245  37.157  1.00  0.00     0.173 A 
ATOM     82  F   UNL A   1      38.215  32.322  38.353  1.00  0.00    -0.203 F 
ATOM     83  C   UNL A   1      38.661  34.373  39.421  1.00  0.00     0.198 A 
ATOM     84  C   UNL A   1      39.911  36.070  38.276  1.00  0.00     0.198 A 
ATOM     85  F   UNL A   1      40.662  35.696  36.076  1.00  0.00    -0.203 F 
ATOM     86  F   UNL A   1      37.979  33.959  40.498  1.00  0.00    -0.200 F 
ATOM     87  C   UNL A   1      39.229  35.637  39.405  1.00  0.00     0.200 A 
ATOM     88  F   UNL A   1      40.475  37.284  38.262  1.00  0.00    -0.200 F 
ATOM     89  F   UNL A   1      39.116  36.439  40.472  1.00  0.00    -0.200 F 
ENDBRANCH  55  79
BRANCH  67  90
ATOM     90  C   UNL A   1      44.035  29.116  35.162  1.00  0.00     0.064 A 
ATOM     91  C   UNL A   1      44.039  28.046  36.068  1.00  0.00     0.173 A 
ATOM     92  C   UNL A   1      45.266  29.708  34.835  1.00  0.00     0.173 A 
ATOM     93  F   UNL A   1      42.886  27.456  36.420  1.00  0.00    -0.203 F 
ATOM     94  C   UNL A   1      45.222  27.614  36.658  1.00  0.00     0.198 A 
ATOM     95  C   UNL A   1      46.451  29.251  35.402  1.00  0.00     0.198 A 
ATOM     96  F   UNL A   1      45.316  30.728  33.965  1.00  0.00    -0.203 F 
ATOM     97  F   UNL A   1      45.195  26.632  37.569  1.00  0.00    -0.200 F 
ATOM     98  C   UNL A   1      46.427  28.213  36.321  1.00  0.00     0.200 A 
ATOM     99  F   UNL A   1      47.616  29.821  35.064  1.00  0.00    -0.200 F 
ATOM    100  F   UNL A   1      47.566  27.797  36.891  1.00  0.00    -0.200 F 
ENDBRANCH  67  90
ENDBRANCH  41  42
ENDBRANCH  33  36
ENDBRANCH  31  32
ENDBRANCH  30  31
ENDBRANCH  29  30
ENDBRANCH   3  29
TORSDOF 16
ENDMDL
MODEL 3
REMARK VINA RESULT:     -13.1      4.771      8.588
REMARK SMILES COC(=O)C[C@@H](NC(=O)c1ccccc1C(=O)NCCCNC(=O)c1ccc(-c2c3nc(c(-c4c(F)c(F)c(F)c(F)c4F)c4ccc([nH]4)c(-c4c(F)c(F)c(F)c(F)c4F)c4nc(c(-c5c(F)c(F)c(F)c(F)c5F)c5ccc2[nH]5)C=C4)C=C3)cc1)c1cccc(C)c1C
REMARK SMILES IDX 16 1 17 2 18 3 15 5 10 6 11 7 12 8 14 9 13 10 8 11 7 12 9 14
REMARK SMILES IDX 6 15 5 16 3 17 4 18 2 19 1 20 88 21 89 22 94 23 90 24 92 25
REMARK SMILES IDX 95 26 91 27 93 28 19 29 20 30 21 31 22 32 23 33 24 35 25 36
REMARK SMILES IDX 26 37 87 38 27 39 86 40 28 41 29 42 30 43 80 44 31 45 85 46
REMARK SMILES IDX 79 47 81 48 32 49 84 50 78 51 77 52 33 54 65 55 45 56 64 57
REMARK SMILES IDX 46 58 49 59 63 60 82 61 47 62 48 63 62 65 83 66 50 67 34 68
REMARK SMILES IDX 35 69 43 70 36 71 37 72 41 73 44 74 38 75 39 76 42 77 40 78
REMARK SMILES IDX 66 79 67 80 75 81 68 82 69 83 73 84 76 85 70 86 71 87 74 88
REMARK SMILES IDX 72 89 51 90 52 91 60 92 53 93 54 94 58 95 61 96 55 97 56 98
REMARK SMILES IDX 59 99 57 100
REMARK H PARENT 18 4 7 13 22 34 81 53 49 64
REMARK Flexibility Score: inf
ROOT
ATOM      1  C   UNL A   1      34.574  23.472  25.660  1.00  0.00     0.252 C 
ATOM      2  O   UNL A   1      35.288  24.466  25.758  1.00  0.00    -0.269 OA
ATOM      3  N   UNL A   1      34.900  22.370  26.395  1.00  0.00    -0.352 N 
ATOM      4  H   UNL A   1      34.860  22.444  27.376  1.00  0.00     0.163 HD
ENDROOT
BRANCH   1   5
ATOM      5  C   UNL A   1      33.335  23.481  24.844  1.00  0.00     0.052 A 
ATOM      6  C   UNL A   1      32.054  23.742  25.334  1.00  0.00     0.052 A 
ATOM      7  C   UNL A   1      30.933  23.597  24.501  1.00  0.00     0.014 A 
ATOM      8  C   UNL A   1      31.095  23.335  23.144  1.00  0.00     0.001 A 
ATOM      9  C   UNL A   1      33.487  23.272  23.462  1.00  0.00     0.014 A 
ATOM     10  C   UNL A   1      32.376  23.219  22.617  1.00  0.00     0.001 A 
BRANCH   6  11
ATOM     11  C   UNL A   1      31.738  24.159  26.701  1.00  0.00     0.252 C 
ATOM     12  N   UNL A   1      31.595  25.470  27.052  1.00  0.00    -0.345 N 
ATOM     13  H   UNL A   1      31.072  25.581  27.879  1.00  0.00     0.164 HD
ATOM     14  O   UNL A   1      31.497  23.286  27.536  1.00  0.00    -0.269 OA
BRANCH  12  15
ATOM     15  C   UNL A   1      32.039  26.769  26.488  1.00  0.00     0.124 C 
BRANCH  15  16
ATOM     16  C   UNL A   1      31.482  27.907  27.371  1.00  0.00     0.152 C 
BRANCH  16  17
ATOM     17  C   UNL A   1      32.237  29.216  27.243  1.00  0.00     0.307 C 
ATOM     18  O   UNL A   1      31.698  30.286  26.993  1.00  0.00    -0.252 OA
BRANCH  17  19
ATOM     19  O   UNL A   1      33.555  29.065  27.545  1.00  0.00    -0.469 OA
ATOM     20  C   UNL A   1      34.416  30.164  27.222  1.00  0.00     0.282 C 
ENDBRANCH  17  19
ENDBRANCH  16  17
ENDBRANCH  15  16
BRANCH  15  21
ATOM     21  C   UNL A   1      31.631  26.972  25.027  1.00  0.00    -0.022 A 
ATOM     22  C   UNL A   1      30.259  27.152  24.757  1.00  0.00     0.006 A 
ATOM     23  C   UNL A   1      32.541  26.984  23.930  1.00  0.00    -0.043 A 
ATOM     24  C   UNL A   1      29.786  27.286  23.456  1.00  0.00     0.001 A 
ATOM     25  C   UNL A   1      32.031  26.965  22.604  1.00  0.00    -0.048 A 
ATOM     26  C   UNL A   1      34.040  27.088  24.097  1.00  0.00     0.045 C 
ATOM     27  C   UNL A   1      30.660  27.157  22.388  1.00  0.00     0.004 A 
ATOM     28  C   UNL A   1      32.888  26.747  21.381  1.00  0.00     0.044 C 
ENDBRANCH  15  21
ENDBRANCH  12  15
ENDBRANCH   6  11
ENDBRANCH   1   5
BRANCH   3  29
ATOM     29  C   UNL A   1      35.300  21.095  25.826  1.00  0.00     0.118 C 
BRANCH  29  30
ATOM     30  C   UNL A   1      36.330  21.305  24.722  1.00  0.00     0.042 C 
BRANCH  30  31
ATOM     31  C   UNL A   1      37.660  21.855  25.229  1.00  0.00     0.118 C 
BRANCH  31  32
ATOM     32  N   UNL A   1      38.577  20.808  25.679  1.00  0.00    -0.352 N 
ATOM     33  C   UNL A   1      39.757  20.927  26.373  1.00  0.00     0.251 C 
ATOM     34  H   UNL A   1      38.311  19.888  25.453  1.00  0.00     0.163 HD
ATOM     35  O   UNL A   1      40.518  19.974  26.502  1.00  0.00    -0.269 OA
BRANCH  33  36
ATOM     36  C   UNL A   1      40.108  22.246  26.922  1.00  0.00     0.039 A 
ATOM     37  C   UNL A   1      41.079  22.341  27.917  1.00  0.00     0.014 A 
ATOM     38  C   UNL A   1      39.555  23.389  26.347  1.00  0.00     0.014 A 
ATOM     39  C   UNL A   1      41.566  23.601  28.265  1.00  0.00     0.010 A 
ATOM     40  C   UNL A   1      40.147  24.617  26.584  1.00  0.00     0.010 A 
ATOM     41  C   UNL A   1      41.143  24.742  27.563  1.00  0.00    -0.014 A 
BRANCH  41  42
ATOM     42  C   UNL A   1      41.707  26.082  27.858  1.00  0.00     0.031 A 
ATOM     43  C   UNL A   1      43.078  26.442  27.352  1.00  0.00     0.074 A 
ATOM     44  C   UNL A   1      41.010  26.947  28.623  1.00  0.00     0.049 A 
ATOM     45  N   UNL A   1      43.756  27.550  27.512  1.00  0.00    -0.248 NA
ATOM     46  C   UNL A   1      43.811  25.399  26.614  1.00  0.00     0.031 C 
ATOM     47  C   UNL A   1      39.718  26.670  29.258  1.00  0.00     0.029 A 
ATOM     48  N   UNL A   1      41.286  28.238  28.990  1.00  0.00    -0.354 N 
ATOM     49  C   UNL A   1      44.992  27.320  26.920  1.00  0.00     0.074 A 
ATOM     50  C   UNL A   1      45.009  25.945  26.483  1.00  0.00     0.031 C 
ATOM     51  C   UNL A   1      39.287  27.778  29.881  1.00  0.00     0.029 A 
ATOM     52  C   UNL A   1      40.281  28.832  29.715  1.00  0.00     0.049 A 
ATOM     53  H   UNL A   1      42.126  28.697  28.757  1.00  0.00     0.167 HD
ATOM     54  C   UNL A   1      46.006  28.192  26.714  1.00  0.00     0.037 A 
ATOM     55  C   UNL A   1      40.170  30.095  30.166  1.00  0.00     0.037 A 
ATOM     56  C   UNL A   1      45.954  29.575  27.101  1.00  0.00     0.049 A 
ATOM     57  C   UNL A   1      41.273  31.070  29.853  1.00  0.00     0.074 A 
ATOM     58  C   UNL A   1      46.888  30.572  26.884  1.00  0.00     0.029 A 
ATOM     59  N   UNL A   1      44.892  30.158  27.778  1.00  0.00    -0.354 N 
ATOM     60  N   UNL A   1      42.402  30.867  29.215  1.00  0.00    -0.248 NA
ATOM     61  C   UNL A   1      41.077  32.453  30.303  1.00  0.00     0.031 C 
ATOM     62  C   UNL A   1      46.403  31.751  27.459  1.00  0.00     0.029 A 
ATOM     63  C   UNL A   1      45.148  31.500  27.993  1.00  0.00     0.049 A 
ATOM     64  H   UNL A   1      44.077  29.685  28.064  1.00  0.00     0.167 HD
ATOM     65  C   UNL A   1      43.039  32.099  29.166  1.00  0.00     0.074 A 
ATOM     66  C   UNL A   1      42.156  33.048  29.814  1.00  0.00     0.031 C 
ATOM     67  C   UNL A   1      44.246  32.420  28.638  1.00  0.00     0.037 A 
BRANCH  54  68
ATOM     68  C   UNL A   1      47.231  27.674  26.018  1.00  0.00     0.064 A 
ATOM     69  C   UNL A   1      48.345  27.203  26.735  1.00  0.00     0.173 A 
ATOM     70  C   UNL A   1      47.301  27.650  24.616  1.00  0.00     0.173 A 
ATOM     71  F   UNL A   1      48.339  27.221  28.078  1.00  0.00    -0.203 F 
ATOM     72  C   UNL A   1      49.494  26.770  26.079  1.00  0.00     0.198 A 
ATOM     73  C   UNL A   1      48.439  27.182  23.963  1.00  0.00     0.198 A 
ATOM     74  F   UNL A   1      46.269  28.087  23.880  1.00  0.00    -0.203 F 
ATOM     75  F   UNL A   1      50.566  26.392  26.789  1.00  0.00    -0.200 F 
ATOM     76  C   UNL A   1      49.537  26.754  24.694  1.00  0.00     0.200 A 
ATOM     77  F   UNL A   1      48.479  27.157  22.624  1.00  0.00    -0.200 F 
ATOM     78  F   UNL A   1      50.643  26.336  24.063  1.00  0.00    -0.200 F 
ENDBRANCH  54  68
BRANCH  55  79
ATOM     79  C   UNL A   1      38.943  30.527  30.887  1.00  0.00     0.064 A 
ATOM     80  C   UNL A   1      37.820  30.987  30.184  1.00  0.00     0.173 A 
ATOM     81  C   UNL A   1      38.861  30.490  32.287  1.00  0.00     0.173 A 
ATOM     82  F   UNL A   1      37.852  31.056  28.844  1.00  0.00    -0.203 F 
ATOM     83  C   UNL A   1      36.674  31.417  30.852  1.00  0.00     0.198 A 
ATOM     84  C   UNL A   1      37.705  30.892  32.953  1.00  0.00     0.198 A 
ATOM     85  F   UNL A   1      39.902  30.049  33.008  1.00  0.00    -0.203 F 
ATOM     86  F   UNL A   1      35.635  31.896  30.154  1.00  0.00    -0.200 F 
ATOM     87  C   UNL A   1      36.615  31.364  32.235  1.00  0.00     0.200 A 
ATOM     88  F   UNL A   1      37.646  30.826  34.289  1.00  0.00    -0.200 F 
ATOM     89  F   UNL A   1      35.513  31.774  32.878  1.00  0.00    -0.200 F 
ENDBRANCH  55  79
BRANCH  67  90
ATOM     90  C   UNL A   1      44.660  33.859  28.719  1.00  0.00     0.064 A 
ATOM     91  C   UNL A   1      45.441  34.341  29.778  1.00  0.00     0.173 A 
ATOM     92  C   UNL A   1      44.283  34.762  27.712  1.00  0.00     0.173 A 
ATOM     93  F   UNL A   1      45.816  33.518  30.770  1.00  0.00    -0.203 F 
ATOM     94  C   UNL A   1      45.795  35.684  29.850  1.00  0.00     0.198 A 
ATOM     95  C   UNL A   1      44.667  36.097  27.770  1.00  0.00     0.198 A 
ATOM     96  F   UNL A   1      43.544  34.347  26.672  1.00  0.00    -0.203 F 
ATOM     97  F   UNL A   1      46.489  36.137  30.903  1.00  0.00    -0.200 F 
ATOM     98  C   UNL A   1      45.413  36.560  28.845  1.00  0.00     0.200 A 
ATOM     99  F   UNL A   1      44.309  36.939  26.790  1.00  0.00    -0.200 F 
ATOM    100  F   UNL A   1      45.754  37.854  28.916  1.00  0.00    -0.200 F 
ENDBRANCH  67  90
ENDBRANCH  41  42
ENDBRANCH  33  36
ENDBRANCH  31  32
ENDBRANCH  30  31
ENDBRANCH  29  30
ENDBRANCH   3  29
TORSDOF 16
ENDMDL
