MODEL 1
REMARK VINA RESULT:     -12.8      0.000      0.000
REMARK SMILES O=C(NCCCNC(=O)[C@H]1CN(C(=O)N[C@H]2CCOC2)c2ccccc2O1)c1ccc(-c2c3nc(c(-c4c(F)c(F)c(F)c(F)c4F)c4ccc([nH]4)c(-c4c(F)c(F)c(F)c(F)c4F)c4nc(c(-c5c(F)c(F)c(F)c(F)c5F)c5ccc2[nH]5)C=C4)C=C3)cc1
REMARK SMILES IDX 5 1 4 2 3 3 1 4 2 5 28 7 29 8 90 9 30 10 89 11 31 12 32 13
REMARK SMILES IDX 33 14 83 15 34 16 88 17 82 18 84 19 35 20 87 21 81 22 80 23
REMARK SMILES IDX 36 25 68 26 48 27 67 28 49 29 52 30 66 31 85 32 50 33 51 34
REMARK SMILES IDX 65 36 86 37 53 38 37 39 38 40 46 41 39 42 40 43 44 44 47 45
REMARK SMILES IDX 41 46 42 47 45 48 43 49 69 50 70 51 78 52 71 53 72 54 76 55
REMARK SMILES IDX 79 56 73 57 74 58 77 59 75 60 54 61 55 62 63 63 56 64 57 65
REMARK SMILES IDX 61 66 64 67 58 68 59 69 62 70 60 71 6 72 7 73 8 74 9 76
REMARK SMILES IDX 10 77 11 78 27 79 12 80 26 81 21 82 25 83 22 84 24 85 23 86
REMARK SMILES IDX 13 87 14 88 15 89 16 91 17 92 20 93 18 94 19 95
REMARK H PARENT 3 6 84 24 52 35 7 75 15 90
REMARK Flexibility Score: inf
ROOT
ATOM      1  C   UNL A   1      31.442  32.208  26.844  1.00  0.00     0.042 C 
ENDROOT
BRANCH   1   2
ATOM      2  C   UNL A   1      32.727  32.993  27.053  1.00  0.00     0.118 C 
BRANCH   2   3
ATOM      3  N   UNL A   1      32.483  34.315  27.608  1.00  0.00    -0.352 N 
ATOM      4  O   UNL A   1      32.508  35.953  29.148  1.00  0.00    -0.269 OA
ATOM      5  C   UNL A   1      33.021  34.932  28.712  1.00  0.00     0.251 C 
ATOM      6  H   UNL A   1      31.827  34.856  27.112  1.00  0.00     0.163 HD
BRANCH   5   7
ATOM      7  C   UNL A   1      34.203  34.351  29.385  1.00  0.00     0.039 A 
ATOM      8  C   UNL A   1      35.493  34.647  28.946  1.00  0.00     0.014 A 
ATOM      9  C   UNL A   1      34.021  33.516  30.492  1.00  0.00     0.014 A 
ATOM     10  C   UNL A   1      36.578  33.964  29.477  1.00  0.00     0.010 A 
ATOM     11  C   UNL A   1      35.127  32.924  31.108  1.00  0.00     0.010 A 
ATOM     12  C   UNL A   1      36.413  33.107  30.576  1.00  0.00    -0.014 A 
BRANCH  12  13
ATOM     13  C   UNL A   1      37.611  32.453  31.165  1.00  0.00     0.031 A 
ATOM     14  C   UNL A   1      38.088  32.800  32.548  1.00  0.00     0.074 A 
ATOM     15  C   UNL A   1      38.239  31.495  30.454  1.00  0.00     0.049 A 
ATOM     16  N   UNL A   1      39.080  32.286  33.232  1.00  0.00    -0.248 NA
ATOM     17  C   UNL A   1      37.369  33.871  33.254  1.00  0.00     0.031 C 
ATOM     18  C   UNL A   1      37.875  31.080  29.096  1.00  0.00     0.029 A 
ATOM     19  N   UNL A   1      39.292  30.678  30.778  1.00  0.00    -0.354 N 
ATOM     20  C   UNL A   1      39.120  32.984  34.432  1.00  0.00     0.074 A 
ATOM     21  C   UNL A   1      38.071  33.980  34.374  1.00  0.00     0.031 C 
ATOM     22  C   UNL A   1      38.646  30.048  28.730  1.00  0.00     0.029 A 
ATOM     23  C   UNL A   1      39.604  29.773  29.793  1.00  0.00     0.049 A 
ATOM     24  H   UNL A   1      39.776  30.735  31.632  1.00  0.00     0.167 HD
ATOM     25  C   UNL A   1      39.951  32.804  35.488  1.00  0.00     0.037 A 
ATOM     26  C   UNL A   1      40.564  28.832  29.744  1.00  0.00     0.037 A 
ATOM     27  C   UNL A   1      40.981  31.796  35.546  1.00  0.00     0.049 A 
ATOM     28  C   UNL A   1      41.480  28.669  30.923  1.00  0.00     0.074 A 
ATOM     29  C   UNL A   1      41.845  31.504  36.587  1.00  0.00     0.029 A 
ATOM     30  N   UNL A   1      41.290  30.920  34.515  1.00  0.00    -0.354 N 
ATOM     31  N   UNL A   1      41.477  29.304  32.069  1.00  0.00    -0.248 NA
ATOM     32  C   UNL A   1      42.534  27.654  30.799  1.00  0.00     0.031 C 
ATOM     33  C   UNL A   1      42.714  30.492  36.166  1.00  0.00     0.029 A 
ATOM     34  C   UNL A   1      42.349  30.105  34.886  1.00  0.00     0.049 A 
ATOM     35  H   UNL A   1      40.826  30.881  33.648  1.00  0.00     0.167 HD
ATOM     36  C   UNL A   1      42.508  28.748  32.815  1.00  0.00     0.074 A 
ATOM     37  C   UNL A   1      43.100  27.710  31.997  1.00  0.00     0.031 C 
ATOM     38  C   UNL A   1      42.925  29.070  34.065  1.00  0.00     0.037 A 
BRANCH  25  39
ATOM     39  C   UNL A   1      39.803  33.731  36.661  1.00  0.00     0.064 A 
ATOM     40  C   UNL A   1      40.465  34.967  36.722  1.00  0.00     0.173 A 
ATOM     41  C   UNL A   1      38.949  33.395  37.725  1.00  0.00     0.173 A 
ATOM     42  F   UNL A   1      41.301  35.334  35.739  1.00  0.00    -0.203 F 
ATOM     43  C   UNL A   1      40.302  35.816  37.814  1.00  0.00     0.198 A 
ATOM     44  C   UNL A   1      38.763  34.261  38.800  1.00  0.00     0.198 A 
ATOM     45  F   UNL A   1      38.285  32.230  37.716  1.00  0.00    -0.203 F 
ATOM     46  F   UNL A   1      40.985  36.968  37.872  1.00  0.00    -0.200 F 
ATOM     47  C   UNL A   1      39.446  35.466  38.848  1.00  0.00     0.200 A 
ATOM     48  F   UNL A   1      37.924  33.927  39.789  1.00  0.00    -0.200 F 
ATOM     49  F   UNL A   1      39.284  36.288  39.893  1.00  0.00    -0.200 F 
ENDBRANCH  25  39
BRANCH  26  50
ATOM     50  C   UNL A   1      40.699  27.971  28.540  1.00  0.00     0.064 A 
ATOM     51  C   UNL A   1      41.475  28.377  27.446  1.00  0.00     0.173 A 
ATOM     52  C   UNL A   1      40.059  26.726  28.461  1.00  0.00     0.173 A 
ATOM     53  F   UNL A   1      42.093  29.568  27.467  1.00  0.00    -0.203 F 
ATOM     54  C   UNL A   1      41.585  27.580  26.308  1.00  0.00     0.198 A 
ATOM     55  C   UNL A   1      40.199  25.915  27.337  1.00  0.00     0.198 A 
ATOM     56  F   UNL A   1      39.312  26.287  29.484  1.00  0.00    -0.203 F 
ATOM     57  F   UNL A   1      42.292  28.015  25.256  1.00  0.00    -0.200 F 
ATOM     58  C   UNL A   1      40.953  26.348  26.257  1.00  0.00     0.200 A 
ATOM     59  F   UNL A   1      39.602  24.716  27.301  1.00  0.00    -0.200 F 
ATOM     60  F   UNL A   1      41.065  25.579  25.165  1.00  0.00    -0.200 F 
ENDBRANCH  26  50
BRANCH  38  61
ATOM     61  C   UNL A   1      44.044  28.251  34.641  1.00  0.00     0.064 A 
ATOM     62  C   UNL A   1      45.387  28.636  34.513  1.00  0.00     0.173 A 
ATOM     63  C   UNL A   1      43.764  27.069  35.346  1.00  0.00     0.173 A 
ATOM     64  F   UNL A   1      45.709  29.748  33.835  1.00  0.00    -0.203 F 
ATOM     65  C   UNL A   1      46.410  27.847  35.035  1.00  0.00     0.198 A 
ATOM     66  C   UNL A   1      44.787  26.303  35.896  1.00  0.00     0.198 A 
ATOM     67  F   UNL A   1      42.496  26.659  35.503  1.00  0.00    -0.203 F 
ATOM     68  F   UNL A   1      47.688  28.201  34.844  1.00  0.00    -0.200 F 
ATOM     69  C   UNL A   1      46.108  26.686  35.730  1.00  0.00     0.200 A 
ATOM     70  F   UNL A   1      44.493  25.189  36.581  1.00  0.00    -0.200 F 
ATOM     71  F   UNL A   1      47.094  25.930  36.233  1.00  0.00    -0.200 F 
ENDBRANCH  38  61
ENDBRANCH  12  13
ENDBRANCH   5   7
ENDBRANCH   2   3
ENDBRANCH   1   2
BRANCH   1  72
ATOM     72  C   UNL A   1      31.671  30.708  26.716  1.00  0.00     0.118 C 
BRANCH  72  73
ATOM     73  N   UNL A   1      32.895  30.299  27.379  1.00  0.00    -0.353 N 
ATOM     74  C   UNL A   1      33.705  29.234  27.134  1.00  0.00     0.262 C 
ATOM     75  H   UNL A   1      33.184  30.882  28.117  1.00  0.00     0.163 HD
ATOM     76  O   UNL A   1      34.669  29.071  27.884  1.00  0.00    -0.271 OA
BRANCH  74  77
ATOM     77  C   UNL A   1      33.404  28.240  26.017  1.00  0.00     0.281 C 
ATOM     78  C   UNL A   1      34.428  28.320  24.900  1.00  0.00     0.183 C 
ATOM     79  O   UNL A   1      33.328  26.899  26.508  1.00  0.00    -0.477 OA
ATOM     80  N   UNL A   1      33.863  27.617  23.761  1.00  0.00    -0.287 N 
ATOM     81  C   UNL A   1      33.386  25.948  25.507  1.00  0.00     0.144 A 
ATOM     82  C   UNL A   1      33.591  26.246  24.134  1.00  0.00     0.088 A 
ATOM     83  C   UNL A   1      33.240  24.634  25.949  1.00  0.00     0.049 A 
ATOM     84  C   UNL A   1      33.597  25.186  23.224  1.00  0.00     0.030 A 
ATOM     85  C   UNL A   1      33.287  23.590  25.032  1.00  0.00     0.004 A 
ATOM     86  C   UNL A   1      33.456  23.867  23.675  1.00  0.00     0.002 A 
BRANCH  80  87
ATOM     87  C   UNL A   1      33.468  28.155  22.569  1.00  0.00     0.322 C 
ATOM     88  O   UNL A   1      34.206  28.235  21.580  1.00  0.00    -0.248 OA
ATOM     89  N   UNL A   1      32.212  28.587  22.323  1.00  0.00    -0.333 N 
ATOM     90  H   UNL A   1      32.114  28.755  21.358  1.00  0.00     0.165 HD
BRANCH  89  91
ATOM     91  C   UNL A   1      30.938  28.895  22.995  1.00  0.00     0.112 C 
ATOM     92  C   UNL A   1      30.016  29.627  22.023  1.00  0.00     0.056 C 
ATOM     93  C   UNL A   1      30.018  27.742  23.427  1.00  0.00     0.185 C 
ATOM     94  C   UNL A   1      28.651  29.436  22.632  1.00  0.00     0.162 C 
ATOM     95  O   UNL A   1      28.656  28.109  23.151  1.00  0.00    -0.379 OA
ENDBRANCH  89  91
ENDBRANCH  80  87
ENDBRANCH  74  77
ENDBRANCH  72  73
ENDBRANCH   1  72
TORSDOF 12
ENDMDL
MODEL 2
REMARK VINA RESULT:     -12.7      5.625     10.795
REMARK SMILES O=C(NCCCNC(=O)[C@H]1CN(C(=O)N[C@H]2CCOC2)c2ccccc2O1)c1ccc(-c2c3nc(c(-c4c(F)c(F)c(F)c(F)c4F)c4ccc([nH]4)c(-c4c(F)c(F)c(F)c(F)c4F)c4nc(c(-c5c(F)c(F)c(F)c(F)c5F)c5ccc2[nH]5)C=C4)C=C3)cc1
REMARK SMILES IDX 5 1 4 2 3 3 1 4 2 5 28 7 29 8 90 9 30 10 89 11 31 12 32 13
REMARK SMILES IDX 33 14 83 15 34 16 88 17 82 18 84 19 35 20 87 21 81 22 80 23
REMARK SMILES IDX 36 25 68 26 48 27 67 28 49 29 52 30 66 31 85 32 50 33 51 34
REMARK SMILES IDX 65 36 86 37 53 38 37 39 38 40 46 41 39 42 40 43 44 44 47 45
REMARK SMILES IDX 41 46 42 47 45 48 43 49 69 50 70 51 78 52 71 53 72 54 76 55
REMARK SMILES IDX 79 56 73 57 74 58 77 59 75 60 54 61 55 62 63 63 56 64 57 65
REMARK SMILES IDX 61 66 64 67 58 68 59 69 62 70 60 71 6 72 7 73 8 74 9 76
REMARK SMILES IDX 10 77 11 78 27 79 12 80 26 81 21 82 25 83 22 84 24 85 23 86
REMARK SMILES IDX 13 87 14 88 15 89 16 91 17 92 20 93 18 94 19 95
REMARK H PARENT 3 6 84 24 52 35 7 75 15 90
REMARK Flexibility Score: inf
ROOT
ATOM      1  C   UNL A   1      38.238  19.581  24.996  1.00  0.00     0.042 C 
ENDROOT
BRANCH   1   2
ATOM      2  C   UNL A   1      39.286  19.890  26.052  1.00  0.00     0.118 C 
BRANCH   2   3
ATOM      3  N   UNL A   1      40.420  18.982  25.987  1.00  0.00    -0.352 N 
ATOM      4  O   UNL A   1      42.565  18.360  25.721  1.00  0.00    -0.269 OA
ATOM      5  C   UNL A   1      41.770  19.237  26.033  1.00  0.00     0.251 C 
ATOM      6  H   UNL A   1      40.183  18.031  25.896  1.00  0.00     0.163 HD
BRANCH   5   7
ATOM      7  C   UNL A   1      42.262  20.572  26.435  1.00  0.00     0.039 A 
ATOM      8  C   UNL A   1      42.343  20.929  27.780  1.00  0.00     0.014 A 
ATOM      9  C   UNL A   1      42.673  21.476  25.450  1.00  0.00     0.014 A 
ATOM     10  C   UNL A   1      42.642  22.238  28.132  1.00  0.00     0.010 A 
ATOM     11  C   UNL A   1      43.095  22.759  25.815  1.00  0.00     0.010 A 
ATOM     12  C   UNL A   1      43.039  23.165  27.157  1.00  0.00    -0.014 A 
BRANCH  12  13
ATOM     13  C   UNL A   1      43.426  24.536  27.583  1.00  0.00     0.031 A 
ATOM     14  C   UNL A   1      44.862  24.981  27.570  1.00  0.00     0.074 A 
ATOM     15  C   UNL A   1      42.454  25.401  27.934  1.00  0.00     0.049 A 
ATOM     16  N   UNL A   1      45.364  26.156  27.856  1.00  0.00    -0.248 NA
ATOM     17  C   UNL A   1      45.870  23.976  27.199  1.00  0.00     0.031 C 
ATOM     18  C   UNL A   1      41.025  25.081  27.998  1.00  0.00     0.029 A 
ATOM     19  N   UNL A   1      42.510  26.728  28.277  1.00  0.00    -0.354 N 
ATOM     20  C   UNL A   1      46.741  26.026  27.726  1.00  0.00     0.074 A 
ATOM     21  C   UNL A   1      47.000  24.650  27.361  1.00  0.00     0.031 C 
ATOM     22  C   UNL A   1      40.337  26.192  28.292  1.00  0.00     0.029 A 
ATOM     23  C   UNL A   1      41.276  27.285  28.510  1.00  0.00     0.049 A 
ATOM     24  H   UNL A   1      43.352  27.231  28.349  1.00  0.00     0.167 HD
ATOM     25  C   UNL A   1      47.699  26.972  27.887  1.00  0.00     0.037 A 
ATOM     26  C   UNL A   1      40.937  28.536  28.870  1.00  0.00     0.037 A 
ATOM     27  C   UNL A   1      47.431  28.346  28.230  1.00  0.00     0.049 A 
ATOM     28  C   UNL A   1      42.022  29.557  29.057  1.00  0.00     0.074 A 
ATOM     29  C   UNL A   1      48.327  29.392  28.373  1.00  0.00     0.029 A 
ATOM     30  N   UNL A   1      46.170  28.866  28.492  1.00  0.00    -0.354 N 
ATOM     31  N   UNL A   1      43.315  29.432  28.886  1.00  0.00    -0.248 NA
ATOM     32  C   UNL A   1      41.598  30.894  29.489  1.00  0.00     0.031 C 
ATOM     33  C   UNL A   1      47.618  30.527  28.777  1.00  0.00     0.029 A 
ATOM     34  C   UNL A   1      46.270  30.209  28.821  1.00  0.00     0.049 A 
ATOM     35  H   UNL A   1      45.330  28.356  28.450  1.00  0.00     0.167 HD
ATOM     36  C   UNL A   1      43.858  30.680  29.160  1.00  0.00     0.074 A 
ATOM     37  C   UNL A   1      42.749  31.552  29.489  1.00  0.00     0.031 C 
ATOM     38  C   UNL A   1      45.157  31.068  29.140  1.00  0.00     0.037 A 
BRANCH  25  39
ATOM     39  C   UNL A   1      49.132  26.552  27.720  1.00  0.00     0.064 A 
ATOM     40  C   UNL A   1      49.733  26.444  26.456  1.00  0.00     0.173 A 
ATOM     41  C   UNL A   1      49.931  26.295  28.846  1.00  0.00     0.173 A 
ATOM     42  F   UNL A   1      49.015  26.667  25.345  1.00  0.00    -0.203 F 
ATOM     43  C   UNL A   1      51.067  26.066  26.326  1.00  0.00     0.198 A 
ATOM     44  C   UNL A   1      51.273  25.949  28.713  1.00  0.00     0.198 A 
ATOM     45  F   UNL A   1      49.411  26.391  30.079  1.00  0.00    -0.203 F 
ATOM     46  F   UNL A   1      51.604  25.919  25.106  1.00  0.00    -0.200 F 
ATOM     47  C   UNL A   1      51.838  25.826  27.454  1.00  0.00     0.200 A 
ATOM     48  F   UNL A   1      52.019  25.734  29.806  1.00  0.00    -0.200 F 
ATOM     49  F   UNL A   1      53.124  25.471  27.326  1.00  0.00    -0.200 F 
ENDBRANCH  25  39
BRANCH  26  50
ATOM     50  C   UNL A   1      39.507  28.889  29.068  1.00  0.00     0.064 A 
ATOM     51  C   UNL A   1      38.901  28.769  30.327  1.00  0.00     0.173 A 
ATOM     52  C   UNL A   1      38.718  29.355  28.006  1.00  0.00     0.173 A 
ATOM     53  F   UNL A   1      39.610  28.312  31.370  1.00  0.00    -0.203 F 
ATOM     54  C   UNL A   1      37.555  29.080  30.510  1.00  0.00     0.198 A 
ATOM     55  C   UNL A   1      37.382  29.699  28.198  1.00  0.00     0.198 A 
ATOM     56  F   UNL A   1      39.251  29.497  26.784  1.00  0.00    -0.203 F 
ATOM     57  F   UNL A   1      36.989  28.908  31.712  1.00  0.00    -0.200 F 
ATOM     58  C   UNL A   1      36.799  29.551  29.448  1.00  0.00     0.200 A 
ATOM     59  F   UNL A   1      36.661  30.172  27.173  1.00  0.00    -0.200 F 
ATOM     60  F   UNL A   1      35.506  29.855  29.626  1.00  0.00    -0.200 F 
ENDBRANCH  26  50
BRANCH  38  61
ATOM     61  C   UNL A   1      45.441  32.513  29.433  1.00  0.00     0.064 A 
ATOM     62  C   UNL A   1      45.726  32.964  30.731  1.00  0.00     0.173 A 
ATOM     63  C   UNL A   1      45.443  33.458  28.394  1.00  0.00     0.173 A 
ATOM     64  F   UNL A   1      45.720  32.106  31.761  1.00  0.00    -0.203 F 
ATOM     65  C   UNL A   1      45.961  34.314  30.983  1.00  0.00     0.198 A 
ATOM     66  C   UNL A   1      45.714  34.799  28.646  1.00  0.00     0.198 A 
ATOM     67  F   UNL A   1      45.184  33.078  27.134  1.00  0.00    -0.203 F 
ATOM     68  F   UNL A   1      46.166  34.732  32.239  1.00  0.00    -0.200 F 
ATOM     69  C   UNL A   1      45.962  35.228  29.940  1.00  0.00     0.200 A 
ATOM     70  F   UNL A   1      45.730  35.678  27.634  1.00  0.00    -0.200 F 
ATOM     71  F   UNL A   1      46.191  36.525  30.185  1.00  0.00    -0.200 F 
ENDBRANCH  38  61
ENDBRANCH  12  13
ENDBRANCH   5   7
ENDBRANCH   2   3
ENDBRANCH   1   2
BRANCH   1  72
ATOM     72  C   UNL A   1      37.408  20.797  24.602  1.00  0.00     0.118 C 
BRANCH  72  73
ATOM     73  N   UNL A   1      38.008  22.027  25.080  1.00  0.00    -0.353 N 
ATOM     74  C   UNL A   1      37.420  23.188  25.473  1.00  0.00     0.262 C 
ATOM     75  H   UNL A   1      38.991  22.019  25.129  1.00  0.00     0.163 HD
ATOM     76  O   UNL A   1      38.162  24.122  25.787  1.00  0.00    -0.271 OA
BRANCH  74  77
ATOM     77  C   UNL A   1      35.904  23.360  25.467  1.00  0.00     0.281 C 
ATOM     78  C   UNL A   1      35.348  23.500  26.872  1.00  0.00     0.183 C 
ATOM     79  O   UNL A   1      35.501  24.479  24.673  1.00  0.00    -0.477 OA
ATOM     80  N   UNL A   1      33.912  23.296  26.777  1.00  0.00    -0.287 N 
ATOM     81  C   UNL A   1      34.194  24.866  24.902  1.00  0.00     0.144 A 
ATOM     82  C   UNL A   1      33.349  24.283  25.882  1.00  0.00     0.088 A 
ATOM     83  C   UNL A   1      33.750  25.908  24.088  1.00  0.00     0.049 A 
ATOM     84  C   UNL A   1      32.037  24.753  25.983  1.00  0.00     0.030 A 
ATOM     85  C   UNL A   1      32.452  26.386  24.231  1.00  0.00     0.004 A 
ATOM     86  C   UNL A   1      31.599  25.805  25.168  1.00  0.00     0.002 A 
BRANCH  80  87
ATOM     87  C   UNL A   1      33.188  22.255  27.284  1.00  0.00     0.322 C 
ATOM     88  O   UNL A   1      32.667  22.271  28.405  1.00  0.00    -0.248 OA
ATOM     89  N   UNL A   1      32.905  21.132  26.589  1.00  0.00    -0.333 N 
ATOM     90  H   UNL A   1      32.227  20.614  27.079  1.00  0.00     0.165 HD
BRANCH  89  91
ATOM     91  C   UNL A   1      33.258  20.412  25.353  1.00  0.00     0.112 C 
ATOM     92  C   UNL A   1      32.772  18.968  25.451  1.00  0.00     0.056 C 
ATOM     93  C   UNL A   1      32.605  20.831  24.027  1.00  0.00     0.185 C 
ATOM     94  C   UNL A   1      32.740  18.516  24.014  1.00  0.00     0.162 C 
ATOM     95  O   UNL A   1      32.282  19.647  23.277  1.00  0.00    -0.379 OA
ENDBRANCH  89  91
ENDBRANCH  80  87
ENDBRANCH  74  77
ENDBRANCH  72  73
ENDBRANCH   1  72
TORSDOF 12
ENDMDL
MODEL 3
REMARK VINA RESULT:     -12.7      5.642     10.787
REMARK SMILES O=C(NCCCNC(=O)[C@H]1CN(C(=O)N[C@H]2CCOC2)c2ccccc2O1)c1ccc(-c2c3nc(c(-c4c(F)c(F)c(F)c(F)c4F)c4ccc([nH]4)c(-c4c(F)c(F)c(F)c(F)c4F)c4nc(c(-c5c(F)c(F)c(F)c(F)c5F)c5ccc2[nH]5)C=C4)C=C3)cc1
REMARK SMILES IDX 5 1 4 2 3 3 1 4 2 5 28 7 29 8 90 9 30 10 89 11 31 12 32 13
REMARK SMILES IDX 33 14 83 15 34 16 88 17 82 18 84 19 35 20 87 21 81 22 80 23
REMARK SMILES IDX 36 25 68 26 48 27 67 28 49 29 52 30 66 31 85 32 50 33 51 34
REMARK SMILES IDX 65 36 86 37 53 38 37 39 38 40 46 41 39 42 40 43 44 44 47 45
REMARK SMILES IDX 41 46 42 47 45 48 43 49 69 50 70 51 78 52 71 53 72 54 76 55
REMARK SMILES IDX 79 56 73 57 74 58 77 59 75 60 54 61 55 62 63 63 56 64 57 65
REMARK SMILES IDX 61 66 64 67 58 68 59 69 62 70 60 71 6 72 7 73 8 74 9 76
REMARK SMILES IDX 10 77 11 78 27 79 12 80 26 81 21 82 25 83 22 84 24 85 23 86
REMARK SMILES IDX 13 87 14 88 15 89 16 91 17 92 20 93 18 94 19 95
REMARK H PARENT 3 6 84 24 52 35 7 75 15 90
REMARK Flexibility Score: inf
ROOT
ATOM      1  C   UNL A   1      38.335  19.612  24.939  1.00  0.00     0.042 C 
ENDROOT
BRANCH   1   2
ATOM      2  C   UNL A   1      39.340  19.837  26.057  1.00  0.00     0.118 C 
BRANCH   2   3
ATOM      3  N   UNL A   1      40.476  18.932  25.970  1.00  0.00    -0.352 N 
ATOM      4  O   UNL A   1      42.617  18.318  25.665  1.00  0.00    -0.269 OA
ATOM      5  C   UNL A   1      41.825  19.191  25.993  1.00  0.00     0.251 C 
ATOM      6  H   UNL A   1      40.240  17.981  25.881  1.00  0.00     0.163 HD
BRANCH   5   7
ATOM      7  C   UNL A   1      42.319  20.528  26.390  1.00  0.00     0.039 A 
ATOM      8  C   UNL A   1      42.425  20.880  27.735  1.00  0.00     0.014 A 
ATOM      9  C   UNL A   1      42.709  21.436  25.401  1.00  0.00     0.014 A 
ATOM     10  C   UNL A   1      42.727  22.189  28.085  1.00  0.00     0.010 A 
ATOM     11  C   UNL A   1      43.133  22.719  25.761  1.00  0.00     0.010 A 
ATOM     12  C   UNL A   1      43.102  23.121  27.105  1.00  0.00    -0.014 A 
BRANCH  12  13
ATOM     13  C   UNL A   1      43.491  24.492  27.528  1.00  0.00     0.031 A 
ATOM     14  C   UNL A   1      44.927  24.938  27.499  1.00  0.00     0.074 A 
ATOM     15  C   UNL A   1      42.522  25.355  27.892  1.00  0.00     0.049 A 
ATOM     16  N   UNL A   1      45.431  26.113  27.782  1.00  0.00    -0.248 NA
ATOM     17  C   UNL A   1      45.932  23.935  27.116  1.00  0.00     0.031 C 
ATOM     18  C   UNL A   1      41.094  25.033  27.971  1.00  0.00     0.029 A 
ATOM     19  N   UNL A   1      42.581  26.682  28.235  1.00  0.00    -0.354 N 
ATOM     20  C   UNL A   1      46.806  25.985  27.635  1.00  0.00     0.074 A 
ATOM     21  C   UNL A   1      47.063  24.610  27.267  1.00  0.00     0.031 C 
ATOM     22  C   UNL A   1      40.408  26.144  28.274  1.00  0.00     0.029 A 
ATOM     23  C   UNL A   1      41.349  27.237  28.482  1.00  0.00     0.049 A 
ATOM     24  H   UNL A   1      43.423  27.186  28.298  1.00  0.00     0.167 HD
ATOM     25  C   UNL A   1      47.765  26.932  27.787  1.00  0.00     0.037 A 
ATOM     26  C   UNL A   1      41.012  28.487  28.848  1.00  0.00     0.037 A 
ATOM     27  C   UNL A   1      47.499  28.306  28.134  1.00  0.00     0.049 A 
ATOM     28  C   UNL A   1      42.099  29.509  29.024  1.00  0.00     0.074 A 
ATOM     29  C   UNL A   1      48.396  29.352  28.269  1.00  0.00     0.029 A 
ATOM     30  N   UNL A   1      46.241  28.824  28.411  1.00  0.00    -0.354 N 
ATOM     31  N   UNL A   1      43.390  29.386  28.837  1.00  0.00    -0.248 NA
ATOM     32  C   UNL A   1      41.678  30.846  29.462  1.00  0.00     0.031 C 
ATOM     33  C   UNL A   1      47.690  30.486  28.682  1.00  0.00     0.029 A 
ATOM     34  C   UNL A   1      46.343  30.167  28.740  1.00  0.00     0.049 A 
ATOM     35  H   UNL A   1      45.400  28.313  28.378  1.00  0.00     0.167 HD
ATOM     36  C   UNL A   1      43.934  30.635  29.107  1.00  0.00     0.074 A 
ATOM     37  C   UNL A   1      42.828  31.505  29.450  1.00  0.00     0.031 C 
ATOM     38  C   UNL A   1      45.232  31.024  29.072  1.00  0.00     0.037 A 
BRANCH  25  39
ATOM     39  C   UNL A   1      49.196  26.514  27.603  1.00  0.00     0.064 A 
ATOM     40  C   UNL A   1      49.771  26.368  26.331  1.00  0.00     0.173 A 
ATOM     41  C   UNL A   1      50.020  26.298  28.720  1.00  0.00     0.173 A 
ATOM     42  F   UNL A   1      49.029  26.552  25.229  1.00  0.00    -0.203 F 
ATOM     43  C   UNL A   1      51.105  25.993  26.185  1.00  0.00     0.198 A 
ATOM     44  C   UNL A   1      51.361  25.954  28.570  1.00  0.00     0.198 A 
ATOM     45  F   UNL A   1      49.525  26.431  29.960  1.00  0.00    -0.203 F 
ATOM     46  F   UNL A   1      51.617  25.810  24.960  1.00  0.00    -0.200 F 
ATOM     47  C   UNL A   1      51.901  25.793  27.304  1.00  0.00     0.200 A 
ATOM     48  F   UNL A   1      52.130  25.777  29.653  1.00  0.00    -0.200 F 
ATOM     49  F   UNL A   1      53.185  25.440  27.161  1.00  0.00    -0.200 F 
ENDBRANCH  25  39
BRANCH  26  50
ATOM     50  C   UNL A   1      39.584  28.839  29.062  1.00  0.00     0.064 A 
ATOM     51  C   UNL A   1      38.792  29.314  28.008  1.00  0.00     0.173 A 
ATOM     52  C   UNL A   1      38.983  28.707  30.322  1.00  0.00     0.173 A 
ATOM     53  F   UNL A   1      39.326  29.474  26.787  1.00  0.00    -0.203 F 
ATOM     54  C   UNL A   1      37.459  29.664  28.212  1.00  0.00     0.198 A 
ATOM     55  C   UNL A   1      37.641  29.024  30.517  1.00  0.00     0.198 A 
ATOM     56  F   UNL A   1      39.695  28.249  31.363  1.00  0.00    -0.203 F 
ATOM     57  F   UNL A   1      36.738  30.162  27.198  1.00  0.00    -0.200 F 
ATOM     58  C   UNL A   1      36.883  29.512  29.464  1.00  0.00     0.200 A 
ATOM     59  F   UNL A   1      37.084  28.858  31.724  1.00  0.00    -0.200 F 
ATOM     60  F   UNL A   1      35.599  29.844  29.657  1.00  0.00    -0.200 F 
ENDBRANCH  26  50
BRANCH  38  61
ATOM     61  C   UNL A   1      45.518  32.469  29.364  1.00  0.00     0.064 A 
ATOM     62  C   UNL A   1      45.504  33.446  28.356  1.00  0.00     0.173 A 
ATOM     63  C   UNL A   1      45.798  32.883  30.676  1.00  0.00     0.173 A 
ATOM     64  F   UNL A   1      45.259  33.100  27.084  1.00  0.00    -0.203 F 
ATOM     65  C   UNL A   1      45.797  34.777  28.646  1.00  0.00     0.198 A 
ATOM     66  C   UNL A   1      46.055  34.220  30.966  1.00  0.00     0.198 A 
ATOM     67  F   UNL A   1      45.817  31.991  31.677  1.00  0.00    -0.203 F 
ATOM     68  F   UNL A   1      45.842  35.680  27.658  1.00  0.00    -0.200 F 
ATOM     69  C   UNL A   1      46.066  35.163  29.950  1.00  0.00     0.200 A 
ATOM     70  F   UNL A   1      46.299  34.594  32.230  1.00  0.00    -0.200 F 
ATOM     71  F   UNL A   1      46.346  36.443  30.227  1.00  0.00    -0.200 F 
ENDBRANCH  38  61
ENDBRANCH  12  13
ENDBRANCH   5   7
ENDBRANCH   2   3
ENDBRANCH   1   2
BRANCH   1  72
ATOM     72  C   UNL A   1      37.387  20.788  24.741  1.00  0.00     0.118 C 
BRANCH  72  73
ATOM     73  N   UNL A   1      37.993  22.036  25.163  1.00  0.00    -0.353 N 
ATOM     74  C   UNL A   1      37.410  23.217  25.500  1.00  0.00     0.262 C 
ATOM     75  H   UNL A   1      38.976  22.025  25.215  1.00  0.00     0.163 HD
ATOM     76  O   UNL A   1      38.157  24.160  25.773  1.00  0.00    -0.271 OA
BRANCH  74  77
ATOM     77  C   UNL A   1      35.896  23.396  25.483  1.00  0.00     0.281 C 
ATOM     78  C   UNL A   1      35.323  23.495  26.885  1.00  0.00     0.183 C 
ATOM     79  O   UNL A   1      35.507  24.542  24.720  1.00  0.00    -0.477 OA
ATOM     80  N   UNL A   1      33.888  23.302  26.767  1.00  0.00    -0.287 N 
ATOM     81  C   UNL A   1      34.199  24.928  24.945  1.00  0.00     0.144 A 
ATOM     82  C   UNL A   1      33.340  24.319  25.898  1.00  0.00     0.088 A 
ATOM     83  C   UNL A   1      33.769  25.997  24.160  1.00  0.00     0.049 A 
ATOM     84  C   UNL A   1      32.029  24.792  25.998  1.00  0.00     0.030 A 
ATOM     85  C   UNL A   1      32.472  26.477  24.303  1.00  0.00     0.004 A 
ATOM     86  C   UNL A   1      31.605  25.871  25.212  1.00  0.00     0.002 A 
BRANCH  80  87
ATOM     87  C   UNL A   1      33.154  22.249  27.233  1.00  0.00     0.322 C 
ATOM     88  O   UNL A   1      32.623  22.230  28.350  1.00  0.00    -0.248 OA
ATOM     89  N   UNL A   1      32.870  21.151  26.499  1.00  0.00    -0.333 N 
ATOM     90  H   UNL A   1      32.184  20.621  26.965  1.00  0.00     0.165 HD
BRANCH  89  91
ATOM     91  C   UNL A   1      33.229  20.470  25.242  1.00  0.00     0.112 C 
ATOM     92  C   UNL A   1      32.817  19.003  25.325  1.00  0.00     0.056 C 
ATOM     93  C   UNL A   1      32.524  20.878  23.939  1.00  0.00     0.185 C 
ATOM     94  C   UNL A   1      32.774  18.574  23.882  1.00  0.00     0.162 C 
ATOM     95  O   UNL A   1      32.242  19.693  23.176  1.00  0.00    -0.379 OA
ENDBRANCH  89  91
ENDBRANCH  80  87
ENDBRANCH  74  77
ENDBRANCH  72  73
ENDBRANCH   1  72
TORSDOF 12
ENDMDL
