MODEL 1
REMARK VINA RESULT:     -13.3      0.000      0.000
REMARK SMILES O=C(NCCCNC(=O)[C@H]1Cc2[nH]cnc2CN1C(=O)N1CCC[C@H](O)C1)c1ccc(-c2c3nc(c(-c4c(F)c(F)c(F)c(F)c4F)c4ccc([nH]4)c(-c4c(F)c(F)c(F)c(F)c4F)c4nc(c(-c5c(F)c(F)c(F)c(F)c5F)c5ccc2[nH]5)C=C4)C=C3)cc1
REMARK SMILES IDX 5 1 4 2 3 3 1 4 2 5 28 7 29 8 90 9 30 10 89 11 31 12 32 13
REMARK SMILES IDX 33 14 83 15 34 16 88 17 82 18 84 19 35 20 87 21 81 22 80 23
REMARK SMILES IDX 36 25 68 26 48 27 67 28 49 29 52 30 66 31 85 32 50 33 51 34
REMARK SMILES IDX 65 36 86 37 53 38 37 39 38 40 46 41 39 42 40 43 44 44 47 45
REMARK SMILES IDX 41 46 42 47 45 48 43 49 69 50 70 51 78 52 71 53 72 54 76 55
REMARK SMILES IDX 79 56 73 57 74 58 77 59 75 60 54 61 55 62 63 63 56 64 57 65
REMARK SMILES IDX 61 66 64 67 58 68 59 69 62 70 60 71 6 72 7 73 8 74 9 76
REMARK SMILES IDX 10 77 11 78 18 79 12 80 17 81 13 82 16 83 14 84 15 86 19 87
REMARK SMILES IDX 20 88 21 89 22 90 27 91 23 92 25 93 24 94 26 95
REMARK H PARENT 3 6 84 24 52 35 7 75 13 85 26 96
REMARK Flexibility Score: inf
ROOT
ATOM      1  C   UNL A   1      34.811  29.337  27.296  1.00  0.00     0.042 C 
ENDROOT
BRANCH   1   2
ATOM      2  C   UNL A   1      34.575  30.842  27.378  1.00  0.00     0.118 C 
BRANCH   2   3
ATOM      3  N   UNL A   1      34.314  31.357  28.704  1.00  0.00    -0.352 N 
ATOM      4  O   UNL A   1      34.687  32.550  30.545  1.00  0.00    -0.269 OA
ATOM      5  C   UNL A   1      35.136  31.737  29.730  1.00  0.00     0.251 C 
ATOM      6  H   UNL A   1      33.356  31.454  28.909  1.00  0.00     0.163 HD
BRANCH   5   7
ATOM      7  C   UNL A   1      36.464  31.122  30.000  1.00  0.00     0.039 A 
ATOM      8  C   UNL A   1      37.692  31.770  29.878  1.00  0.00     0.014 A 
ATOM      9  C   UNL A   1      36.460  29.743  30.269  1.00  0.00     0.014 A 
ATOM     10  C   UNL A   1      38.874  31.043  29.830  1.00  0.00     0.010 A 
ATOM     11  C   UNL A   1      37.644  29.016  30.293  1.00  0.00     0.010 A 
ATOM     12  C   UNL A   1      38.844  29.661  30.006  1.00  0.00    -0.014 A 
BRANCH  12  13
ATOM     13  C   UNL A   1      40.123  28.956  30.059  1.00  0.00     0.031 A 
ATOM     14  C   UNL A   1      40.687  28.797  31.435  1.00  0.00     0.074 A 
ATOM     15  C   UNL A   1      40.666  28.354  28.982  1.00  0.00     0.049 A 
ATOM     16  N   UNL A   1      41.876  29.073  31.868  1.00  0.00    -0.248 NA
ATOM     17  C   UNL A   1      39.760  28.351  32.491  1.00  0.00     0.031 C 
ATOM     18  C   UNL A   1      40.076  28.193  27.650  1.00  0.00     0.029 A 
ATOM     19  N   UNL A   1      41.823  27.639  28.891  1.00  0.00    -0.354 N 
ATOM     20  C   UNL A   1      41.896  28.690  33.211  1.00  0.00     0.074 A 
ATOM     21  C   UNL A   1      40.541  28.375  33.569  1.00  0.00     0.031 C 
ATOM     22  C   UNL A   1      40.755  27.239  26.977  1.00  0.00     0.029 A 
ATOM     23  C   UNL A   1      41.890  26.815  27.777  1.00  0.00     0.049 A 
ATOM     24  H   UNL A   1      42.546  27.704  29.557  1.00  0.00     0.167 HD
ATOM     25  C   UNL A   1      43.062  28.460  33.876  1.00  0.00     0.037 A 
ATOM     26  C   UNL A   1      42.762  25.796  27.575  1.00  0.00     0.037 A 
ATOM     27  C   UNL A   1      44.161  29.154  33.262  1.00  0.00     0.049 A 
ATOM     28  C   UNL A   1      43.900  25.979  28.508  1.00  0.00     0.074 A 
ATOM     29  C   UNL A   1      44.465  30.482  33.029  1.00  0.00     0.029 A 
ATOM     30  N   UNL A   1      45.042  28.441  32.491  1.00  0.00    -0.354 N 
ATOM     31  N   UNL A   1      44.774  26.940  28.418  1.00  0.00    -0.248 NA
ATOM     32  C   UNL A   1      43.816  25.328  29.808  1.00  0.00     0.031 C 
ATOM     33  C   UNL A   1      45.146  30.491  31.776  1.00  0.00     0.029 A 
ATOM     34  C   UNL A   1      45.251  29.167  31.349  1.00  0.00     0.049 A 
ATOM     35  H   UNL A   1      45.447  27.571  32.715  1.00  0.00     0.167 HD
ATOM     36  C   UNL A   1      45.037  27.299  29.732  1.00  0.00     0.074 A 
ATOM     37  C   UNL A   1      44.492  26.213  30.542  1.00  0.00     0.031 C 
ATOM     38  C   UNL A   1      45.420  28.569  30.049  1.00  0.00     0.037 A 
BRANCH  25  39
ATOM     39  C   UNL A   1      43.269  27.307  34.839  1.00  0.00     0.064 A 
ATOM     40  C   UNL A   1      43.659  27.591  36.166  1.00  0.00     0.173 A 
ATOM     41  C   UNL A   1      43.429  25.962  34.439  1.00  0.00     0.173 A 
ATOM     42  F   UNL A   1      43.543  28.831  36.664  1.00  0.00    -0.203 F 
ATOM     43  C   UNL A   1      44.277  26.635  36.976  1.00  0.00     0.198 A 
ATOM     44  C   UNL A   1      44.002  24.999  35.269  1.00  0.00     0.198 A 
ATOM     45  F   UNL A   1      43.144  25.541  33.203  1.00  0.00    -0.203 F 
ATOM     46  F   UNL A   1      44.766  26.993  38.171  1.00  0.00    -0.200 F 
ATOM     47  C   UNL A   1      44.465  25.344  36.520  1.00  0.00     0.200 A 
ATOM     48  F   UNL A   1      44.179  23.753  34.806  1.00  0.00    -0.200 F 
ATOM     49  F   UNL A   1      45.129  24.448  37.260  1.00  0.00    -0.200 F 
ENDBRANCH  25  39
BRANCH  26  50
ATOM     50  C   UNL A   1      42.511  24.510  26.879  1.00  0.00     0.064 A 
ATOM     51  C   UNL A   1      43.210  24.167  25.710  1.00  0.00     0.173 A 
ATOM     52  C   UNL A   1      41.777  23.478  27.495  1.00  0.00     0.173 A 
ATOM     53  F   UNL A   1      43.977  25.076  25.092  1.00  0.00    -0.203 F 
ATOM     54  C   UNL A   1      43.186  22.865  25.198  1.00  0.00     0.198 A 
ATOM     55  C   UNL A   1      41.745  22.182  26.978  1.00  0.00     0.198 A 
ATOM     56  F   UNL A   1      41.154  23.680  28.665  1.00  0.00    -0.203 F 
ATOM     57  F   UNL A   1      43.913  22.559  24.115  1.00  0.00    -0.200 F 
ATOM     58  C   UNL A   1      42.459  21.873  25.837  1.00  0.00     0.200 A 
ATOM     59  F   UNL A   1      41.070  21.225  27.628  1.00  0.00    -0.200 F 
ATOM     60  F   UNL A   1      42.481  20.613  25.380  1.00  0.00    -0.200 F 
ENDBRANCH  26  50
BRANCH  38  61
ATOM     61  C   UNL A   1      45.796  29.488  28.925  1.00  0.00     0.064 A 
ATOM     62  C   UNL A   1      44.869  30.260  28.204  1.00  0.00     0.173 A 
ATOM     63  C   UNL A   1      47.156  29.706  28.667  1.00  0.00     0.173 A 
ATOM     64  F   UNL A   1      43.559  30.190  28.470  1.00  0.00    -0.203 F 
ATOM     65  C   UNL A   1      45.285  31.173  27.238  1.00  0.00     0.198 A 
ATOM     66  C   UNL A   1      47.569  30.646  27.728  1.00  0.00     0.198 A 
ATOM     67  F   UNL A   1      48.087  29.043  29.370  1.00  0.00    -0.203 F 
ATOM     68  F   UNL A   1      44.379  31.895  26.560  1.00  0.00    -0.200 F 
ATOM     69  C   UNL A   1      46.635  31.370  27.005  1.00  0.00     0.200 A 
ATOM     70  F   UNL A   1      48.878  30.874  27.547  1.00  0.00    -0.200 F 
ATOM     71  F   UNL A   1      47.038  32.283  26.110  1.00  0.00    -0.200 F 
ENDBRANCH  38  61
ENDBRANCH  12  13
ENDBRANCH   5   7
ENDBRANCH   2   3
ENDBRANCH   1   2
BRANCH   1  72
ATOM     72  C   UNL A   1      34.168  28.631  26.117  1.00  0.00     0.117 C 
BRANCH  72  73
ATOM     73  N   UNL A   1      33.203  27.623  26.521  1.00  0.00    -0.354 N 
ATOM     74  C   UNL A   1      31.939  27.317  26.112  1.00  0.00     0.243 C 
ATOM     75  H   UNL A   1      33.531  27.037  27.242  1.00  0.00     0.163 HD
ATOM     76  O   UNL A   1      31.307  26.562  26.862  1.00  0.00    -0.273 OA
BRANCH  74  77
ATOM     77  C   UNL A   1      31.304  27.818  24.797  1.00  0.00     0.182 C 
ATOM     78  C   UNL A   1      31.078  29.344  24.758  1.00  0.00     0.091 C 
ATOM     79  N   UNL A   1      31.660  27.255  23.438  1.00  0.00    -0.306 N 
ATOM     80  C   UNL A   1      30.243  29.687  23.603  1.00  0.00     0.042 A 
ATOM     81  C   UNL A   1      30.625  27.497  22.377  1.00  0.00     0.180 C 
ATOM     82  N   UNL A   1      29.535  30.827  23.384  1.00  0.00    -0.348 N 
ATOM     83  C   UNL A   1      30.045  28.878  22.514  1.00  0.00     0.081 A 
ATOM     84  C   UNL A   1      28.946  30.681  22.157  1.00  0.00     0.197 A 
ATOM     85  H   UNL A   1      29.463  31.603  23.986  1.00  0.00     0.167 HD
ATOM     86  N   UNL A   1      29.220  29.509  21.617  1.00  0.00    -0.240 NA
BRANCH  79  87
ATOM     87  C   UNL A   1      32.902  26.868  22.966  1.00  0.00     0.321 C 
ATOM     88  O   UNL A   1      33.678  27.660  22.428  1.00  0.00    -0.248 OA
BRANCH  87  89
ATOM     89  N   UNL A   1      33.288  25.547  23.106  1.00  0.00    -0.322 N 
ATOM     90  C   UNL A   1      34.256  25.193  24.145  1.00  0.00     0.121 C 
ATOM     91  C   UNL A   1      32.210  24.552  23.035  1.00  0.00     0.153 C 
ATOM     92  C   UNL A   1      34.903  23.827  23.890  1.00  0.00     0.024 C 
ATOM     93  C   UNL A   1      32.791  23.239  22.515  1.00  0.00     0.134 C 
ATOM     94  C   UNL A   1      33.954  22.734  23.370  1.00  0.00     0.035 C 
BRANCH  93  95
ATOM     95  O   UNL A   1      33.282  23.463  21.191  1.00  0.00    -0.391 OA
ATOM     96  H   UNL A   1      33.617  22.630  20.825  1.00  0.00     0.211 HD
ENDBRANCH  93  95
ENDBRANCH  87  89
ENDBRANCH  79  87
ENDBRANCH  74  77
ENDBRANCH  72  73
ENDBRANCH   1  72
TORSDOF 13
ENDMDL
MODEL 2
REMARK VINA RESULT:     -13.2      3.567      8.594
REMARK SMILES O=C(NCCCNC(=O)[C@H]1Cc2[nH]cnc2CN1C(=O)N1CCC[C@H](O)C1)c1ccc(-c2c3nc(c(-c4c(F)c(F)c(F)c(F)c4F)c4ccc([nH]4)c(-c4c(F)c(F)c(F)c(F)c4F)c4nc(c(-c5c(F)c(F)c(F)c(F)c5F)c5ccc2[nH]5)C=C4)C=C3)cc1
REMARK SMILES IDX 5 1 4 2 3 3 1 4 2 5 28 7 29 8 90 9 30 10 89 11 31 12 32 13
REMARK SMILES IDX 33 14 83 15 34 16 88 17 82 18 84 19 35 20 87 21 81 22 80 23
REMARK SMILES IDX 36 25 68 26 48 27 67 28 49 29 52 30 66 31 85 32 50 33 51 34
REMARK SMILES IDX 65 36 86 37 53 38 37 39 38 40 46 41 39 42 40 43 44 44 47 45
REMARK SMILES IDX 41 46 42 47 45 48 43 49 69 50 70 51 78 52 71 53 72 54 76 55
REMARK SMILES IDX 79 56 73 57 74 58 77 59 75 60 54 61 55 62 63 63 56 64 57 65
REMARK SMILES IDX 61 66 64 67 58 68 59 69 62 70 60 71 6 72 7 73 8 74 9 76
REMARK SMILES IDX 10 77 11 78 18 79 12 80 17 81 13 82 16 83 14 84 15 86 19 87
REMARK SMILES IDX 20 88 21 89 22 90 27 91 23 92 25 93 24 94 26 95
REMARK H PARENT 3 6 84 24 52 35 7 75 13 85 26 96
REMARK Flexibility Score: inf
ROOT
ATOM      1  C   UNL A   1      38.741  22.547  26.166  1.00  0.00     0.042 C 
ENDROOT
BRANCH   1   2
ATOM      2  C   UNL A   1      39.914  21.631  26.497  1.00  0.00     0.118 C 
BRANCH   2   3
ATOM      3  N   UNL A   1      41.054  21.740  25.613  1.00  0.00    -0.352 N 
ATOM      4  O   UNL A   1      43.192  21.994  25.054  1.00  0.00    -0.269 OA
ATOM      5  C   UNL A   1      42.233  22.429  25.699  1.00  0.00     0.251 C 
ATOM      6  H   UNL A   1      40.964  21.215  24.785  1.00  0.00     0.163 HD
BRANCH   5   7
ATOM      7  C   UNL A   1      42.381  23.736  26.396  1.00  0.00     0.039 A 
ATOM      8  C   UNL A   1      43.032  23.932  27.613  1.00  0.00     0.014 A 
ATOM      9  C   UNL A   1      41.687  24.817  25.829  1.00  0.00     0.014 A 
ATOM     10  C   UNL A   1      42.840  25.099  28.338  1.00  0.00     0.010 A 
ATOM     11  C   UNL A   1      41.547  26.017  26.515  1.00  0.00     0.010 A 
ATOM     12  C   UNL A   1      42.071  26.129  27.800  1.00  0.00    -0.014 A 
BRANCH  12  13
ATOM     13  C   UNL A   1      41.992  27.380  28.552  1.00  0.00     0.031 A 
ATOM     14  C   UNL A   1      43.114  28.333  28.290  1.00  0.00     0.074 A 
ATOM     15  C   UNL A   1      40.915  27.718  29.289  1.00  0.00     0.049 A 
ATOM     16  N   UNL A   1      43.876  28.952  29.136  1.00  0.00    -0.248 NA
ATOM     17  C   UNL A   1      43.493  28.552  26.882  1.00  0.00     0.031 C 
ATOM     18  C   UNL A   1      39.639  27.004  29.396  1.00  0.00     0.029 A 
ATOM     19  N   UNL A   1      40.690  28.854  30.008  1.00  0.00    -0.354 N 
ATOM     20  C   UNL A   1      44.725  29.757  28.373  1.00  0.00     0.074 A 
ATOM     21  C   UNL A   1      44.531  29.376  27.002  1.00  0.00     0.031 C 
ATOM     22  C   UNL A   1      38.711  27.832  29.924  1.00  0.00     0.029 A 
ATOM     23  C   UNL A   1      39.352  29.079  30.302  1.00  0.00     0.049 A 
ATOM     24  H   UNL A   1      41.412  29.460  30.293  1.00  0.00     0.167 HD
ATOM     25  C   UNL A   1      45.376  30.826  28.910  1.00  0.00     0.037 A 
ATOM     26  C   UNL A   1      38.803  30.240  30.737  1.00  0.00     0.037 A 
ATOM     27  C   UNL A   1      45.527  30.687  30.333  1.00  0.00     0.049 A 
ATOM     28  C   UNL A   1      39.896  31.089  31.269  1.00  0.00     0.074 A 
ATOM     29  C   UNL A   1      46.166  29.783  31.160  1.00  0.00     0.029 A 
ATOM     30  N   UNL A   1      44.703  31.411  31.156  1.00  0.00    -0.354 N 
ATOM     31  N   UNL A   1      40.565  30.827  32.356  1.00  0.00    -0.248 NA
ATOM     32  C   UNL A   1      40.535  32.019  30.350  1.00  0.00     0.031 C 
ATOM     33  C   UNL A   1      45.329  29.677  32.309  1.00  0.00     0.029 A 
ATOM     34  C   UNL A   1      44.259  30.555  32.127  1.00  0.00     0.049 A 
ATOM     35  H   UNL A   1      44.474  32.364  31.065  1.00  0.00     0.167 HD
ATOM     36  C   UNL A   1      41.867  31.206  32.067  1.00  0.00     0.074 A 
ATOM     37  C   UNL A   1      41.770  32.016  30.856  1.00  0.00     0.031 C 
ATOM     38  C   UNL A   1      42.926  30.598  32.673  1.00  0.00     0.037 A 
BRANCH  25  39
ATOM     39  C   UNL A   1      45.527  32.160  28.206  1.00  0.00     0.064 A 
ATOM     40  C   UNL A   1      44.365  32.859  27.816  1.00  0.00     0.173 A 
ATOM     41  C   UNL A   1      46.727  32.609  27.612  1.00  0.00     0.173 A 
ATOM     42  F   UNL A   1      43.166  32.532  28.321  1.00  0.00    -0.203 F 
ATOM     43  C   UNL A   1      44.389  33.835  26.816  1.00  0.00     0.198 A 
ATOM     44  C   UNL A   1      46.754  33.618  26.651  1.00  0.00     0.198 A 
ATOM     45  F   UNL A   1      47.907  32.026  27.848  1.00  0.00    -0.203 F 
ATOM     46  F   UNL A   1      43.239  34.362  26.373  1.00  0.00    -0.200 F 
ATOM     47  C   UNL A   1      45.582  34.202  26.222  1.00  0.00     0.200 A 
ATOM     48  F   UNL A   1      47.921  33.955  26.083  1.00  0.00    -0.200 F 
ATOM     49  F   UNL A   1      45.599  35.077  25.208  1.00  0.00    -0.200 F 
ENDBRANCH  25  39
BRANCH  26  50
ATOM     50  C   UNL A   1      37.464  30.789  30.412  1.00  0.00     0.064 A 
ATOM     51  C   UNL A   1      36.572  31.178  31.425  1.00  0.00     0.173 A 
ATOM     52  C   UNL A   1      37.140  31.193  29.102  1.00  0.00     0.173 A 
ATOM     53  F   UNL A   1      36.834  30.880  32.705  1.00  0.00    -0.203 F 
ATOM     54  C   UNL A   1      35.430  31.937  31.143  1.00  0.00     0.198 A 
ATOM     55  C   UNL A   1      35.996  31.942  28.822  1.00  0.00     0.198 A 
ATOM     56  F   UNL A   1      37.975  30.954  28.082  1.00  0.00    -0.203 F 
ATOM     57  F   UNL A   1      34.633  32.341  32.141  1.00  0.00    -0.200 F 
ATOM     58  C   UNL A   1      35.148  32.324  29.842  1.00  0.00     0.200 A 
ATOM     59  F   UNL A   1      35.758  32.343  27.565  1.00  0.00    -0.200 F 
ATOM     60  F   UNL A   1      34.087  33.100  29.579  1.00  0.00    -0.200 F 
ENDBRANCH  26  50
BRANCH  38  61
ATOM     61  C   UNL A   1      42.642  29.698  33.840  1.00  0.00     0.064 A 
ATOM     62  C   UNL A   1      42.222  28.363  33.712  1.00  0.00     0.173 A 
ATOM     63  C   UNL A   1      42.950  30.157  35.127  1.00  0.00     0.173 A 
ATOM     64  F   UNL A   1      42.016  27.817  32.507  1.00  0.00    -0.203 F 
ATOM     65  C   UNL A   1      42.072  27.543  34.827  1.00  0.00     0.198 A 
ATOM     66  C   UNL A   1      42.834  29.324  36.235  1.00  0.00     0.198 A 
ATOM     67  F   UNL A   1      43.417  31.403  35.302  1.00  0.00    -0.203 F 
ATOM     68  F   UNL A   1      41.663  26.273  34.679  1.00  0.00    -0.200 F 
ATOM     69  C   UNL A   1      42.384  28.022  36.088  1.00  0.00     0.200 A 
ATOM     70  F   UNL A   1      43.192  29.774  37.447  1.00  0.00    -0.200 F 
ATOM     71  F   UNL A   1      42.286  27.218  37.157  1.00  0.00    -0.200 F 
ENDBRANCH  38  61
ENDBRANCH  12  13
ENDBRANCH   5   7
ENDBRANCH   2   3
ENDBRANCH   1   2
BRANCH   1  72
ATOM     72  C   UNL A   1      37.535  21.876  25.535  1.00  0.00     0.117 C 
BRANCH  72  73
ATOM     73  N   UNL A   1      37.199  22.428  24.234  1.00  0.00    -0.354 N 
ATOM     74  C   UNL A   1      36.038  22.878  23.678  1.00  0.00     0.243 C 
ATOM     75  H   UNL A   1      37.971  22.490  23.627  1.00  0.00     0.163 HD
ATOM     76  O   UNL A   1      36.064  23.032  22.451  1.00  0.00    -0.273 OA
BRANCH  74  77
ATOM     77  C   UNL A   1      34.765  23.223  24.480  1.00  0.00     0.182 C 
ATOM     78  C   UNL A   1      34.229  24.646  24.213  1.00  0.00     0.091 C 
ATOM     79  N   UNL A   1      33.653  22.229  24.736  1.00  0.00    -0.306 N 
ATOM     80  C   UNL A   1      33.194  24.973  25.199  1.00  0.00     0.042 A 
ATOM     81  C   UNL A   1      32.774  22.571  25.906  1.00  0.00     0.180 C 
ATOM     82  N   UNL A   1      32.715  26.198  25.541  1.00  0.00    -0.348 N 
ATOM     83  C   UNL A   1      32.515  24.051  25.953  1.00  0.00     0.081 A 
ATOM     84  C   UNL A   1      31.743  25.978  26.480  1.00  0.00     0.197 A 
ATOM     85  H   UNL A   1      33.007  27.068  25.185  1.00  0.00     0.167 HD
ATOM     86  N   UNL A   1      31.613  24.696  26.762  1.00  0.00    -0.240 NA
BRANCH  79  87
ATOM     87  C   UNL A   1      33.136  21.274  23.877  1.00  0.00     0.321 C 
ATOM     88  O   UNL A   1      32.414  21.570  22.923  1.00  0.00    -0.248 OA
BRANCH  87  89
ATOM     89  N   UNL A   1      33.446  19.944  24.094  1.00  0.00    -0.322 N 
ATOM     90  C   UNL A   1      34.709  19.603  24.751  1.00  0.00     0.121 C 
ATOM     91  C   UNL A   1      32.352  19.103  24.595  1.00  0.00     0.153 C 
ATOM     92  C   UNL A   1      35.104  18.140  24.518  1.00  0.00     0.024 C 
ATOM     93  C   UNL A   1      32.589  17.667  24.135  1.00  0.00     0.134 C 
ATOM     94  C   UNL A   1      33.949  17.127  24.578  1.00  0.00     0.035 C 
BRANCH  93  95
ATOM     95  O   UNL A   1      32.551  17.646  22.706  1.00  0.00    -0.391 OA
ATOM     96  H   UNL A   1      33.296  18.158  22.355  1.00  0.00     0.211 HD
ENDBRANCH  93  95
ENDBRANCH  87  89
ENDBRANCH  79  87
ENDBRANCH  74  77
ENDBRANCH  72  73
ENDBRANCH   1  72
TORSDOF 13
ENDMDL
MODEL 3
REMARK VINA RESULT:     -13.2      0.716      1.318
REMARK SMILES O=C(NCCCNC(=O)[C@H]1Cc2[nH]cnc2CN1C(=O)N1CCC[C@H](O)C1)c1ccc(-c2c3nc(c(-c4c(F)c(F)c(F)c(F)c4F)c4ccc([nH]4)c(-c4c(F)c(F)c(F)c(F)c4F)c4nc(c(-c5c(F)c(F)c(F)c(F)c5F)c5ccc2[nH]5)C=C4)C=C3)cc1
REMARK SMILES IDX 5 1 4 2 3 3 1 4 2 5 28 7 29 8 90 9 30 10 89 11 31 12 32 13
REMARK SMILES IDX 33 14 83 15 34 16 88 17 82 18 84 19 35 20 87 21 81 22 80 23
REMARK SMILES IDX 36 25 68 26 48 27 67 28 49 29 52 30 66 31 85 32 50 33 51 34
REMARK SMILES IDX 65 36 86 37 53 38 37 39 38 40 46 41 39 42 40 43 44 44 47 45
REMARK SMILES IDX 41 46 42 47 45 48 43 49 69 50 70 51 78 52 71 53 72 54 76 55
REMARK SMILES IDX 79 56 73 57 74 58 77 59 75 60 54 61 55 62 63 63 56 64 57 65
REMARK SMILES IDX 61 66 64 67 58 68 59 69 62 70 60 71 6 72 7 73 8 74 9 76
REMARK SMILES IDX 10 77 11 78 18 79 12 80 17 81 13 82 16 83 14 84 15 86 19 87
REMARK SMILES IDX 20 88 21 89 22 90 27 91 23 92 25 93 24 94 26 95
REMARK H PARENT 3 6 84 24 52 35 7 75 13 85 26 96
REMARK Flexibility Score: inf
ROOT
ATOM      1  C   UNL A   1      34.922  29.241  27.424  1.00  0.00     0.042 C 
ENDROOT
BRANCH   1   2
ATOM      2  C   UNL A   1      34.979  30.752  27.625  1.00  0.00     0.118 C 
BRANCH   2   3
ATOM      3  N   UNL A   1      34.720  31.208  28.973  1.00  0.00    -0.352 N 
ATOM      4  O   UNL A   1      35.116  32.281  30.881  1.00  0.00    -0.269 OA
ATOM      5  C   UNL A   1      35.540  31.492  30.031  1.00  0.00     0.251 C 
ATOM      6  H   UNL A   1      33.764  31.340  29.169  1.00  0.00     0.163 HD
BRANCH   5   7
ATOM      7  C   UNL A   1      36.832  30.800  30.287  1.00  0.00     0.039 A 
ATOM      8  C   UNL A   1      38.094  31.378  30.169  1.00  0.00     0.014 A 
ATOM      9  C   UNL A   1      36.751  29.419  30.538  1.00  0.00     0.014 A 
ATOM     10  C   UNL A   1      39.233  30.586  30.106  1.00  0.00     0.010 A 
ATOM     11  C   UNL A   1      37.892  28.626  30.548  1.00  0.00     0.010 A 
ATOM     12  C   UNL A   1      39.125  29.206  30.265  1.00  0.00    -0.014 A 
BRANCH  12  13
ATOM     13  C   UNL A   1      40.363  28.430  30.303  1.00  0.00     0.031 A 
ATOM     14  C   UNL A   1      40.929  28.232  31.673  1.00  0.00     0.074 A 
ATOM     15  C   UNL A   1      40.861  27.803  29.219  1.00  0.00     0.049 A 
ATOM     16  N   UNL A   1      42.135  28.438  32.097  1.00  0.00    -0.248 NA
ATOM     17  C   UNL A   1      39.987  27.834  32.736  1.00  0.00     0.031 C 
ATOM     18  C   UNL A   1      40.252  27.682  27.892  1.00  0.00     0.029 A 
ATOM     19  N   UNL A   1      41.975  27.024  29.115  1.00  0.00    -0.354 N 
ATOM     20  C   UNL A   1      42.145  28.047  33.438  1.00  0.00     0.074 A 
ATOM     21  C   UNL A   1      40.777  27.809  33.807  1.00  0.00     0.031 C 
ATOM     22  C   UNL A   1      40.869  26.694  27.208  1.00  0.00     0.029 A 
ATOM     23  C   UNL A   1      41.986  26.202  27.997  1.00  0.00     0.049 A 
ATOM     24  H   UNL A   1      42.706  27.044  29.775  1.00  0.00     0.167 HD
ATOM     25  C   UNL A   1      43.302  27.748  34.092  1.00  0.00     0.037 A 
ATOM     26  C   UNL A   1      42.796  25.136  27.783  1.00  0.00     0.037 A 
ATOM     27  C   UNL A   1      44.433  28.382  33.471  1.00  0.00     0.049 A 
ATOM     28  C   UNL A   1      43.951  25.250  28.706  1.00  0.00     0.074 A 
ATOM     29  C   UNL A   1      44.810  29.691  33.241  1.00  0.00     0.029 A 
ATOM     30  N   UNL A   1      45.265  27.624  32.689  1.00  0.00    -0.354 N 
ATOM     31  N   UNL A   1      44.877  26.160  28.613  1.00  0.00    -0.248 NA
ATOM     32  C   UNL A   1      43.842  24.598  30.003  1.00  0.00     0.031 C 
ATOM     33  C   UNL A   1      45.479  29.668  31.982  1.00  0.00     0.029 A 
ATOM     34  C   UNL A   1      45.505  28.342  31.549  1.00  0.00     0.049 A 
ATOM     35  H   UNL A   1      45.622  26.731  32.906  1.00  0.00     0.167 HD
ATOM     36  C   UNL A   1      45.172  26.497  29.925  1.00  0.00     0.074 A 
ATOM     37  C   UNL A   1      44.573  25.440  30.735  1.00  0.00     0.031 C 
ATOM     38  C   UNL A   1      45.629  27.742  30.245  1.00  0.00     0.037 A 
BRANCH  25  39
ATOM     39  C   UNL A   1      43.451  26.581  35.048  1.00  0.00     0.064 A 
ATOM     40  C   UNL A   1      43.761  26.845  36.400  1.00  0.00     0.173 A 
ATOM     41  C   UNL A   1      43.635  25.242  34.638  1.00  0.00     0.173 A 
ATOM     42  F   UNL A   1      43.615  28.078  36.909  1.00  0.00    -0.203 F 
ATOM     43  C   UNL A   1      44.330  25.876  37.230  1.00  0.00     0.198 A 
ATOM     44  C   UNL A   1      44.157  24.266  35.486  1.00  0.00     0.198 A 
ATOM     45  F   UNL A   1      43.424  24.841  33.381  1.00  0.00    -0.203 F 
ATOM     46  F   UNL A   1      44.746  26.216  38.459  1.00  0.00    -0.200 F 
ATOM     47  C   UNL A   1      44.545  24.592  36.767  1.00  0.00     0.200 A 
ATOM     48  F   UNL A   1      44.362  23.028  35.015  1.00  0.00    -0.200 F 
ATOM     49  F   UNL A   1      45.164  23.685  37.533  1.00  0.00    -0.200 F 
ENDBRANCH  25  39
BRANCH  26  50
ATOM     50  C   UNL A   1      42.466  23.870  27.083  1.00  0.00     0.064 A 
ATOM     51  C   UNL A   1      43.296  23.361  26.070  1.00  0.00     0.173 A 
ATOM     52  C   UNL A   1      41.477  22.999  27.579  1.00  0.00     0.173 A 
ATOM     53  F   UNL A   1      44.297  24.106  25.581  1.00  0.00    -0.203 F 
ATOM     54  C   UNL A   1      43.151  22.053  25.593  1.00  0.00     0.198 A 
ATOM     55  C   UNL A   1      41.327  21.699  27.096  1.00  0.00     0.198 A 
ATOM     56  F   UNL A   1      40.699  23.357  28.610  1.00  0.00    -0.203 F 
ATOM     57  F   UNL A   1      43.998  21.581  24.669  1.00  0.00    -0.200 F 
ATOM     58  C   UNL A   1      42.171  21.222  26.112  1.00  0.00     0.200 A 
ATOM     59  F   UNL A   1      40.401  20.894  27.635  1.00  0.00    -0.200 F 
ATOM     60  F   UNL A   1      42.068  19.952  25.697  1.00  0.00    -0.200 F 
ENDBRANCH  26  50
BRANCH  38  61
ATOM     61  C   UNL A   1      46.047  28.643  29.121  1.00  0.00     0.064 A 
ATOM     62  C   UNL A   1      47.324  28.618  28.534  1.00  0.00     0.173 A 
ATOM     63  C   UNL A   1      45.077  29.455  28.520  1.00  0.00     0.173 A 
ATOM     64  F   UNL A   1      48.273  27.786  28.981  1.00  0.00    -0.203 F 
ATOM     65  C   UNL A   1      47.626  29.407  27.426  1.00  0.00     0.198 A 
ATOM     66  C   UNL A   1      45.370  30.213  27.391  1.00  0.00     0.198 A 
ATOM     67  F   UNL A   1      43.823  29.470  28.999  1.00  0.00    -0.203 F 
ATOM     68  F   UNL A   1      48.854  29.370  26.887  1.00  0.00    -0.200 F 
ATOM     69  C   UNL A   1      46.646  30.199  26.851  1.00  0.00     0.200 A 
ATOM     70  F   UNL A   1      44.404  30.935  26.804  1.00  0.00    -0.200 F 
ATOM     71  F   UNL A   1      46.922  30.921  25.756  1.00  0.00    -0.200 F 
ENDBRANCH  38  61
ENDBRANCH  12  13
ENDBRANCH   5   7
ENDBRANCH   2   3
ENDBRANCH   1   2
BRANCH   1  72
ATOM     72  C   UNL A   1      34.093  28.762  26.248  1.00  0.00     0.117 C 
BRANCH  72  73
ATOM     73  N   UNL A   1      33.171  27.697  26.603  1.00  0.00    -0.354 N 
ATOM     74  C   UNL A   1      31.936  27.336  26.152  1.00  0.00     0.243 C 
ATOM     75  H   UNL A   1      33.508  27.113  27.321  1.00  0.00     0.163 HD
ATOM     76  O   UNL A   1      31.324  26.534  26.869  1.00  0.00    -0.273 OA
BRANCH  74  77
ATOM     77  C   UNL A   1      31.312  27.832  24.830  1.00  0.00     0.182 C 
ATOM     78  C   UNL A   1      31.090  29.358  24.782  1.00  0.00     0.091 C 
ATOM     79  N   UNL A   1      31.679  27.263  23.477  1.00  0.00    -0.306 N 
ATOM     80  C   UNL A   1      30.264  29.698  23.618  1.00  0.00     0.042 A 
ATOM     81  C   UNL A   1      30.652  27.502  22.406  1.00  0.00     0.180 C 
ATOM     82  N   UNL A   1      29.561  30.838  23.389  1.00  0.00    -0.348 N 
ATOM     83  C   UNL A   1      30.074  28.884  22.532  1.00  0.00     0.081 A 
ATOM     84  C   UNL A   1      28.981  30.687  22.158  1.00  0.00     0.197 A 
ATOM     85  H   UNL A   1      29.485  31.616  23.987  1.00  0.00     0.167 HD
ATOM     86  N   UNL A   1      29.257  29.512  21.626  1.00  0.00    -0.240 NA
BRANCH  79  87
ATOM     87  C   UNL A   1      32.923  26.870  23.016  1.00  0.00     0.321 C 
ATOM     88  O   UNL A   1      33.707  27.660  22.485  1.00  0.00    -0.248 OA
BRANCH  87  89
ATOM     89  N   UNL A   1      33.304  25.549  23.161  1.00  0.00    -0.322 N 
ATOM     90  C   UNL A   1      34.275  25.195  24.196  1.00  0.00     0.121 C 
ATOM     91  C   UNL A   1      32.221  24.558  23.099  1.00  0.00     0.153 C 
ATOM     92  C   UNL A   1      34.914  23.824  23.945  1.00  0.00     0.024 C 
ATOM     93  C   UNL A   1      32.793  23.241  22.583  1.00  0.00     0.134 C 
ATOM     94  C   UNL A   1      33.958  22.734  23.434  1.00  0.00     0.035 C 
BRANCH  93  95
ATOM     95  O   UNL A   1      33.278  23.456  21.255  1.00  0.00    -0.391 OA
ATOM     96  H   UNL A   1      34.241  23.568  21.277  1.00  0.00     0.211 HD
ENDBRANCH  93  95
ENDBRANCH  87  89
ENDBRANCH  79  87
ENDBRANCH  74  77
ENDBRANCH  72  73
ENDBRANCH   1  72
TORSDOF 13
ENDMDL
