MODEL 1
REMARK VINA RESULT:     -12.8      0.000      0.000
REMARK SMILES Cc1csc(=O)n1CC(=O)N[C@@H](C(=O)NCCCNC(=O)c1ccc(-c2c3nc(c(-c4c(F)c(F)c(F)c(F)c4F)c4ccc([nH]4)c(-c4c(F)c(F)c(F)c(F)c4F)c4nc(c(-c5c(F)c(F)c(F)c(F)c5F)c5ccc2[nH]5)C=C4)C=C3)cc1)[C@@H](C)O
REMARK SMILES IDX 16 1 15 2 13 3 14 4 12 6 11 7 9 8 10 9 8 11 7 12 1 13 2 14
REMARK SMILES IDX 3 15 4 16 5 17 6 18 85 19 86 20 87 21 17 23 18 24 19 25
REMARK SMILES IDX 20 26 21 28 22 29 23 30 84 31 24 32 83 33 25 34 26 35 27 36
REMARK SMILES IDX 77 37 28 38 82 39 76 40 78 41 29 42 81 43 75 44 74 45 30 47
REMARK SMILES IDX 62 48 42 49 61 50 43 51 46 52 60 53 79 54 44 55 45 56 59 58
REMARK SMILES IDX 80 59 47 60 31 61 32 62 40 63 33 64 34 65 38 66 41 67 35 68
REMARK SMILES IDX 36 69 39 70 37 71 63 72 64 73 72 74 65 75 66 76 70 77 73 78
REMARK SMILES IDX 67 79 68 80 71 81 69 82 48 83 49 84 57 85 50 86 51 87 55 88
REMARK SMILES IDX 58 89 52 90 53 91 56 92 54 93
REMARK H PARENT 15 5 11 10 87 22 19 27 78 46 46 57
REMARK Flexibility Score: inf
ROOT
ATOM      1  C   UNL A   1      31.940  30.136  25.855  1.00  0.00     0.117 C 
ENDROOT
BRANCH   1   2
ATOM      2  N   UNL A   1      32.587  29.589  24.682  1.00  0.00    -0.354 N 
ATOM      3  C   UNL A   1      32.008  28.948  23.616  1.00  0.00     0.245 C 
ATOM      4  O   UNL A   1      32.735  28.710  22.651  1.00  0.00    -0.273 OA
ATOM      5  H   UNL A   1      33.566  29.688  24.645  1.00  0.00     0.163 HD
BRANCH   3   6
ATOM      6  C   UNL A   1      30.477  28.645  23.632  1.00  0.00     0.200 C 
BRANCH   6   7
ATOM      7  N   UNL A   1      30.264  27.225  23.331  1.00  0.00    -0.340 N 
ATOM      8  C   UNL A   1      30.435  26.097  24.076  1.00  0.00     0.240 C 
ATOM      9  O   UNL A   1      30.227  25.027  23.496  1.00  0.00    -0.273 OA
ATOM     10  H   UNL A   1      29.936  27.055  22.419  1.00  0.00     0.164 HD
BRANCH   8  11
ATOM     11  C   UNL A   1      30.821  26.123  25.574  1.00  0.00     0.226 C 
BRANCH  11  12
ATOM     12  N   UNL A   1      31.717  25.067  26.031  1.00  0.00    -0.294 N 
ATOM     13  C   UNL A   1      33.881  26.197  25.344  1.00  0.00     0.065 C 
ATOM     14  C   UNL A   1      33.100  25.046  25.880  1.00  0.00     0.029 A 
ATOM     15  C   UNL A   1      33.665  23.915  26.334  1.00  0.00     0.091 A 
ATOM     16  S   UNL A   1      32.510  22.851  27.063  1.00  0.00    -0.082 S 
ATOM     17  C   UNL A   1      31.192  24.000  26.767  1.00  0.00     0.307 A 
ATOM     18  O   UNL A   1      30.051  23.808  27.113  1.00  0.00    -0.257 OA
ENDBRANCH  11  12
ENDBRANCH   8  11
ENDBRANCH   6   7
BRANCH   6  19
ATOM     19  C   UNL A   1      29.724  29.591  22.657  1.00  0.00     0.143 C 
ATOM     20  C   UNL A   1      29.098  30.808  23.334  1.00  0.00     0.041 C 
BRANCH  19  21
ATOM     21  O   UNL A   1      30.617  30.092  21.653  1.00  0.00    -0.391 OA
ATOM     22  H   UNL A   1      30.298  29.829  20.776  1.00  0.00     0.211 HD
ENDBRANCH  19  21
ENDBRANCH   6  19
ENDBRANCH   3   6
ENDBRANCH   1   2
BRANCH   1  23
ATOM     23  C   UNL A   1      32.713  29.913  27.154  1.00  0.00     0.042 C 
BRANCH  23  24
ATOM     24  C   UNL A   1      33.962  30.769  27.210  1.00  0.00     0.118 C 
BRANCH  24  25
ATOM     25  N   UNL A   1      33.988  31.687  28.361  1.00  0.00    -0.352 N 
ATOM     26  C   UNL A   1      34.969  31.801  29.336  1.00  0.00     0.251 C 
ATOM     27  H   UNL A   1      33.218  32.292  28.450  1.00  0.00     0.163 HD
ATOM     28  O   UNL A   1      34.758  32.342  30.413  1.00  0.00    -0.269 OA
BRANCH  26  29
ATOM     29  C   UNL A   1      36.296  31.249  29.025  1.00  0.00     0.039 A 
ATOM     30  C   UNL A   1      37.464  32.009  29.117  1.00  0.00     0.014 A 
ATOM     31  C   UNL A   1      36.341  29.881  28.794  1.00  0.00     0.014 A 
ATOM     32  C   UNL A   1      38.685  31.340  29.088  1.00  0.00     0.010 A 
ATOM     33  C   UNL A   1      37.511  29.219  29.030  1.00  0.00     0.010 A 
ATOM     34  C   UNL A   1      38.696  29.934  29.090  1.00  0.00    -0.014 A 
BRANCH  34  35
ATOM     35  C   UNL A   1      39.923  29.170  29.273  1.00  0.00     0.031 A 
ATOM     36  C   UNL A   1      40.263  28.906  30.695  1.00  0.00     0.074 A 
ATOM     37  C   UNL A   1      40.587  28.582  28.252  1.00  0.00     0.049 A 
ATOM     38  N   UNL A   1      41.215  29.450  31.375  1.00  0.00    -0.248 NA
ATOM     39  C   UNL A   1      39.355  28.076  31.504  1.00  0.00     0.031 C 
ATOM     40  C   UNL A   1      40.210  28.485  26.836  1.00  0.00     0.029 A 
ATOM     41  N   UNL A   1      41.743  27.865  28.289  1.00  0.00    -0.354 N 
ATOM     42  C   UNL A   1      41.165  28.876  32.641  1.00  0.00     0.074 A 
ATOM     43  C   UNL A   1      39.900  28.192  32.718  1.00  0.00     0.031 C 
ATOM     44  C   UNL A   1      40.988  27.573  26.210  1.00  0.00     0.029 A 
ATOM     45  C   UNL A   1      42.038  27.165  27.122  1.00  0.00     0.049 A 
ATOM     46  H   UNL A   1      42.327  27.843  29.082  1.00  0.00     0.167 HD
ATOM     47  C   UNL A   1      42.288  28.809  33.409  1.00  0.00     0.037 A 
ATOM     48  C   UNL A   1      43.078  26.316  26.930  1.00  0.00     0.037 A 
ATOM     49  C   UNL A   1      43.308  29.691  32.891  1.00  0.00     0.049 A 
ATOM     50  C   UNL A   1      44.088  26.637  27.966  1.00  0.00     0.074 A 
ATOM     51  C   UNL A   1      43.404  31.055  32.690  1.00  0.00     0.029 A 
ATOM     52  N   UNL A   1      44.287  29.129  32.109  1.00  0.00    -0.354 N 
ATOM     53  N   UNL A   1      44.761  27.753  27.997  1.00  0.00    -0.248 NA
ATOM     54  C   UNL A   1      43.999  25.921  29.228  1.00  0.00     0.031 C 
ATOM     55  C   UNL A   1      44.094  31.196  31.448  1.00  0.00     0.029 A 
ATOM     56  C   UNL A   1      44.456  29.923  31.006  1.00  0.00     0.049 A 
ATOM     57  H   UNL A   1      44.780  28.300  32.307  1.00  0.00     0.167 HD
ATOM     58  C   UNL A   1      44.788  28.104  29.337  1.00  0.00     0.074 A 
ATOM     59  C   UNL A   1      44.376  26.899  30.056  1.00  0.00     0.031 C 
ATOM     60  C   UNL A   1      44.854  29.415  29.713  1.00  0.00     0.037 A 
BRANCH  47  61
ATOM     61  C   UNL A   1      42.626  27.678  34.352  1.00  0.00     0.064 A 
ATOM     62  C   UNL A   1      43.152  26.483  33.815  1.00  0.00     0.173 A 
ATOM     63  C   UNL A   1      42.172  27.591  35.686  1.00  0.00     0.173 A 
ATOM     64  F   UNL A   1      43.606  26.442  32.553  1.00  0.00    -0.203 F 
ATOM     65  C   UNL A   1      43.128  25.279  34.523  1.00  0.00     0.198 A 
ATOM     66  C   UNL A   1      42.198  26.399  36.407  1.00  0.00     0.198 A 
ATOM     67  F   UNL A   1      41.581  28.615  36.310  1.00  0.00    -0.203 F 
ATOM     68  F   UNL A   1      43.507  24.145  33.919  1.00  0.00    -0.200 F 
ATOM     69  C   UNL A   1      42.641  25.236  35.816  1.00  0.00     0.200 A 
ATOM     70  F   UNL A   1      41.705  26.374  37.653  1.00  0.00    -0.200 F 
ATOM     71  F   UNL A   1      42.552  24.072  36.472  1.00  0.00    -0.200 F 
ENDBRANCH  47  61
BRANCH  48  72
ATOM     72  C   UNL A   1      43.143  25.058  26.143  1.00  0.00     0.064 A 
ATOM     73  C   UNL A   1      44.189  24.839  25.230  1.00  0.00     0.173 A 
ATOM     74  C   UNL A   1      42.386  23.930  26.508  1.00  0.00     0.173 A 
ATOM     75  F   UNL A   1      44.983  25.854  24.855  1.00  0.00    -0.203 F 
ATOM     76  C   UNL A   1      44.494  23.560  24.750  1.00  0.00     0.198 A 
ATOM     77  C   UNL A   1      42.689  22.653  26.027  1.00  0.00     0.198 A 
ATOM     78  F   UNL A   1      41.406  24.025  27.417  1.00  0.00    -0.203 F 
ATOM     79  F   UNL A   1      45.549  23.382  23.944  1.00  0.00    -0.200 F 
ATOM     80  C   UNL A   1      43.754  22.465  25.164  1.00  0.00     0.200 A 
ATOM     81  F   UNL A   1      41.990  21.595  26.462  1.00  0.00    -0.200 F 
ATOM     82  F   UNL A   1      44.093  21.230  24.770  1.00  0.00    -0.200 F 
ENDBRANCH  48  72
BRANCH  60  83
ATOM     83  C   UNL A   1      45.174  30.432  28.650  1.00  0.00     0.064 A 
ATOM     84  C   UNL A   1      44.225  31.017  27.791  1.00  0.00     0.173 A 
ATOM     85  C   UNL A   1      46.482  30.930  28.594  1.00  0.00     0.173 A 
ATOM     86  F   UNL A   1      42.935  30.667  27.843  1.00  0.00    -0.203 F 
ATOM     87  C   UNL A   1      44.585  32.022  26.892  1.00  0.00     0.198 A 
ATOM     88  C   UNL A   1      46.830  31.958  27.723  1.00  0.00     0.198 A 
ATOM     89  F   UNL A   1      47.419  30.446  29.424  1.00  0.00    -0.203 F 
ATOM     90  F   UNL A   1      43.665  32.554  26.073  1.00  0.00    -0.200 F 
ATOM     91  C   UNL A   1      45.886  32.496  26.865  1.00  0.00     0.200 A 
ATOM     92  F   UNL A   1      48.078  32.445  27.735  1.00  0.00    -0.200 F 
ATOM     93  F   UNL A   1      46.224  33.488  26.030  1.00  0.00    -0.200 F 
ENDBRANCH  60  83
ENDBRANCH  34  35
ENDBRANCH  26  29
ENDBRANCH  24  25
ENDBRANCH  23  24
ENDBRANCH   1  23
TORSDOF 15
ENDMDL
MODEL 2
REMARK VINA RESULT:     -12.8      3.164      5.347
REMARK SMILES Cc1csc(=O)n1CC(=O)N[C@@H](C(=O)NCCCNC(=O)c1ccc(-c2c3nc(c(-c4c(F)c(F)c(F)c(F)c4F)c4ccc([nH]4)c(-c4c(F)c(F)c(F)c(F)c4F)c4nc(c(-c5c(F)c(F)c(F)c(F)c5F)c5ccc2[nH]5)C=C4)C=C3)cc1)[C@@H](C)O
REMARK SMILES IDX 16 1 15 2 13 3 14 4 12 6 11 7 9 8 10 9 8 11 7 12 1 13 2 14
REMARK SMILES IDX 3 15 4 16 5 17 6 18 85 19 86 20 87 21 17 23 18 24 19 25
REMARK SMILES IDX 20 26 21 28 22 29 23 30 84 31 24 32 83 33 25 34 26 35 27 36
REMARK SMILES IDX 77 37 28 38 82 39 76 40 78 41 29 42 81 43 75 44 74 45 30 47
REMARK SMILES IDX 62 48 42 49 61 50 43 51 46 52 60 53 79 54 44 55 45 56 59 58
REMARK SMILES IDX 80 59 47 60 31 61 32 62 40 63 33 64 34 65 38 66 41 67 35 68
REMARK SMILES IDX 36 69 39 70 37 71 63 72 64 73 72 74 65 75 66 76 70 77 73 78
REMARK SMILES IDX 67 79 68 80 71 81 69 82 48 83 49 84 57 85 50 86 51 87 55 88
REMARK SMILES IDX 58 89 52 90 53 91 56 92 54 93
REMARK H PARENT 15 5 11 10 87 22 19 27 78 46 46 57
REMARK Flexibility Score: inf
ROOT
ATOM      1  C   UNL A   1      35.200  34.827  28.543  1.00  0.00     0.117 C 
ENDROOT
BRANCH   1   2
ATOM      2  N   UNL A   1      33.857  35.365  28.519  1.00  0.00    -0.354 N 
ATOM      3  C   UNL A   1      33.144  35.911  29.557  1.00  0.00     0.245 C 
ATOM      4  O   UNL A   1      32.078  36.455  29.271  1.00  0.00    -0.273 OA
ATOM      5  H   UNL A   1      33.397  35.336  27.649  1.00  0.00     0.163 HD
BRANCH   3   6
ATOM      6  C   UNL A   1      33.744  35.903  30.998  1.00  0.00     0.200 C 
BRANCH   6   7
ATOM      7  N   UNL A   1      33.587  34.564  31.577  1.00  0.00    -0.340 N 
ATOM      8  C   UNL A   1      34.471  33.720  32.180  1.00  0.00     0.240 C 
ATOM      9  O   UNL A   1      34.028  32.614  32.504  1.00  0.00    -0.273 OA
ATOM     10  H   UNL A   1      32.671  34.209  31.519  1.00  0.00     0.164 HD
BRANCH   8  11
ATOM     11  C   UNL A   1      35.934  34.111  32.496  1.00  0.00     0.226 C 
BRANCH  11  12
ATOM     12  N   UNL A   1      36.840  33.017  32.824  1.00  0.00    -0.294 N 
ATOM     13  C   UNL A   1      37.864  32.778  30.516  1.00  0.00     0.065 C 
ATOM     14  C   UNL A   1      37.677  32.351  31.933  1.00  0.00     0.029 A 
ATOM     15  C   UNL A   1      38.352  31.337  32.497  1.00  0.00     0.091 A 
ATOM     16  S   UNL A   1      38.052  31.213  34.197  1.00  0.00    -0.082 S 
ATOM     17  C   UNL A   1      36.977  32.623  34.159  1.00  0.00     0.307 A 
ATOM     18  O   UNL A   1      36.440  33.078  35.141  1.00  0.00    -0.257 OA
ENDBRANCH  11  12
ENDBRANCH   8  11
ENDBRANCH   6   7
BRANCH   6  19
ATOM     19  C   UNL A   1      33.096  37.018  31.864  1.00  0.00     0.143 C 
ATOM     20  C   UNL A   1      33.729  37.175  33.245  1.00  0.00     0.041 C 
BRANCH  19  21
ATOM     21  O   UNL A   1      33.208  38.290  31.212  1.00  0.00    -0.391 OA
ATOM     22  H   UNL A   1      32.446  38.422  30.627  1.00  0.00     0.211 HD
ENDBRANCH  19  21
ENDBRANCH   6  19
ENDBRANCH   3   6
ENDBRANCH   1   2
BRANCH   1  23
ATOM     23  C   UNL A   1      35.312  33.406  27.991  1.00  0.00     0.042 C 
BRANCH  23  24
ATOM     24  C   UNL A   1      34.439  32.440  28.766  1.00  0.00     0.118 C 
BRANCH  24  25
ATOM     25  N   UNL A   1      34.008  31.277  27.971  1.00  0.00    -0.352 N 
ATOM     26  C   UNL A   1      34.793  30.241  27.486  1.00  0.00     0.251 C 
ATOM     27  H   UNL A   1      33.049  31.230  27.759  1.00  0.00     0.163 HD
ATOM     28  O   UNL A   1      34.419  29.512  26.577  1.00  0.00    -0.269 OA
BRANCH  26  29
ATOM     29  C   UNL A   1      36.106  30.038  28.114  1.00  0.00     0.039 A 
ATOM     30  C   UNL A   1      36.249  29.530  29.407  1.00  0.00     0.014 A 
ATOM     31  C   UNL A   1      37.205  30.226  27.286  1.00  0.00     0.014 A 
ATOM     32  C   UNL A   1      37.512  29.103  29.808  1.00  0.00     0.010 A 
ATOM     33  C   UNL A   1      38.365  29.572  27.586  1.00  0.00     0.010 A 
ATOM     34  C   UNL A   1      38.559  29.086  28.870  1.00  0.00    -0.014 A 
BRANCH  34  35
ATOM     35  C   UNL A   1      39.843  28.459  29.154  1.00  0.00     0.031 A 
ATOM     36  C   UNL A   1      40.136  28.313  30.603  1.00  0.00     0.074 A 
ATOM     37  C   UNL A   1      40.611  27.882  28.201  1.00  0.00     0.049 A 
ATOM     38  N   UNL A   1      40.997  28.988  31.288  1.00  0.00    -0.248 NA
ATOM     39  C   UNL A   1      39.274  27.446  31.422  1.00  0.00     0.031 C 
ATOM     40  C   UNL A   1      40.315  27.665  26.779  1.00  0.00     0.029 A 
ATOM     41  N   UNL A   1      41.827  27.286  28.334  1.00  0.00    -0.354 N 
ATOM     42  C   UNL A   1      40.939  28.486  32.585  1.00  0.00     0.074 A 
ATOM     43  C   UNL A   1      39.744  27.686  32.649  1.00  0.00     0.031 C 
ATOM     44  C   UNL A   1      41.208  26.801  26.246  1.00  0.00     0.029 A 
ATOM     45  C   UNL A   1      42.246  26.552  27.227  1.00  0.00     0.049 A 
ATOM     46  H   UNL A   1      42.370  27.368  29.151  1.00  0.00     0.167 HD
ATOM     47  C   UNL A   1      42.024  28.576  33.403  1.00  0.00     0.037 A 
ATOM     48  C   UNL A   1      43.371  25.801  27.134  1.00  0.00     0.037 A 
ATOM     49  C   UNL A   1      42.978  29.524  32.876  1.00  0.00     0.049 A 
ATOM     50  C   UNL A   1      44.293  26.280  28.192  1.00  0.00     0.074 A 
ATOM     51  C   UNL A   1      42.952  30.876  32.594  1.00  0.00     0.029 A 
ATOM     52  N   UNL A   1      44.045  29.017  32.174  1.00  0.00    -0.354 N 
ATOM     53  N   UNL A   1      44.852  27.458  28.182  1.00  0.00    -0.248 NA
ATOM     54  C   UNL A   1      44.211  25.634  29.491  1.00  0.00     0.031 C 
ATOM     55  C   UNL A   1      43.686  31.013  31.377  1.00  0.00     0.029 A 
ATOM     56  C   UNL A   1      44.191  29.759  31.031  1.00  0.00     0.049 A 
ATOM     57  H   UNL A   1      44.605  28.254  32.445  1.00  0.00     0.167 HD
ATOM     58  C   UNL A   1      44.780  27.887  29.497  1.00  0.00     0.074 A 
ATOM     59  C   UNL A   1      44.450  26.691  30.271  1.00  0.00     0.031 C 
ATOM     60  C   UNL A   1      44.700  29.218  29.792  1.00  0.00     0.037 A 
BRANCH  47  61
ATOM     61  C   UNL A   1      42.423  27.541  34.430  1.00  0.00     0.064 A 
ATOM     62  C   UNL A   1      43.101  26.382  33.994  1.00  0.00     0.173 A 
ATOM     63  C   UNL A   1      41.903  27.480  35.740  1.00  0.00     0.173 A 
ATOM     64  F   UNL A   1      43.629  26.322  32.762  1.00  0.00    -0.203 F 
ATOM     65  C   UNL A   1      43.160  25.223  34.771  1.00  0.00     0.198 A 
ATOM     66  C   UNL A   1      42.011  26.339  36.533  1.00  0.00     0.198 A 
ATOM     67  F   UNL A   1      41.173  28.466  36.270  1.00  0.00    -0.203 F 
ATOM     68  F   UNL A   1      43.690  24.105  34.257  1.00  0.00    -0.200 F 
ATOM     69  C   UNL A   1      42.606  25.198  36.037  1.00  0.00     0.200 A 
ATOM     70  F   UNL A   1      41.451  26.329  37.751  1.00  0.00    -0.200 F 
ATOM     71  F   UNL A   1      42.601  24.070  36.757  1.00  0.00    -0.200 F 
ENDBRANCH  47  61
BRANCH  48  72
ATOM     72  C   UNL A   1      43.597  24.512  26.432  1.00  0.00     0.064 A 
ATOM     73  C   UNL A   1      44.691  24.352  25.564  1.00  0.00     0.173 A 
ATOM     74  C   UNL A   1      42.951  23.333  26.846  1.00  0.00     0.173 A 
ATOM     75  F   UNL A   1      45.385  25.422  25.148  1.00  0.00    -0.203 F 
ATOM     76  C   UNL A   1      45.145  23.087  25.176  1.00  0.00     0.198 A 
ATOM     77  C   UNL A   1      43.404  22.069  26.457  1.00  0.00     0.198 A 
ATOM     78  F   UNL A   1      41.935  23.377  27.720  1.00  0.00    -0.203 F 
ATOM     79  F   UNL A   1      46.241  22.974  24.413  1.00  0.00    -0.200 F 
ATOM     80  C   UNL A   1      44.512  21.945  25.638  1.00  0.00     0.200 A 
ATOM     81  F   UNL A   1      42.806  20.971  26.939  1.00  0.00    -0.200 F 
ATOM     82  F   UNL A   1      44.993  20.732  25.333  1.00  0.00    -0.200 F 
ENDBRANCH  48  72
BRANCH  60  83
ATOM     83  C   UNL A   1      44.972  30.198  28.682  1.00  0.00     0.064 A 
ATOM     84  C   UNL A   1      44.011  30.651  27.760  1.00  0.00     0.173 A 
ATOM     85  C   UNL A   1      46.235  30.802  28.639  1.00  0.00     0.173 A 
ATOM     86  F   UNL A   1      42.753  30.195  27.792  1.00  0.00    -0.203 F 
ATOM     87  C   UNL A   1      44.318  31.632  26.817  1.00  0.00     0.198 A 
ATOM     88  C   UNL A   1      46.528  31.807  27.721  1.00  0.00     0.198 A 
ATOM     89  F   UNL A   1      47.179  30.446  29.525  1.00  0.00    -0.203 F 
ATOM     90  F   UNL A   1      43.387  32.037  25.939  1.00  0.00    -0.200 F 
ATOM     91  C   UNL A   1      45.574  32.213  26.803  1.00  0.00     0.200 A 
ATOM     92  F   UNL A   1      47.730  32.398  27.744  1.00  0.00    -0.200 F 
ATOM     93  F   UNL A   1      45.859  33.183  25.923  1.00  0.00    -0.200 F 
ENDBRANCH  60  83
ENDBRANCH  34  35
ENDBRANCH  26  29
ENDBRANCH  24  25
ENDBRANCH  23  24
ENDBRANCH   1  23
TORSDOF 15
ENDMDL
MODEL 3
REMARK VINA RESULT:     -12.6      3.570      9.059
REMARK SMILES Cc1csc(=O)n1CC(=O)N[C@@H](C(=O)NCCCNC(=O)c1ccc(-c2c3nc(c(-c4c(F)c(F)c(F)c(F)c4F)c4ccc([nH]4)c(-c4c(F)c(F)c(F)c(F)c4F)c4nc(c(-c5c(F)c(F)c(F)c(F)c5F)c5ccc2[nH]5)C=C4)C=C3)cc1)[C@@H](C)O
REMARK SMILES IDX 16 1 15 2 13 3 14 4 12 6 11 7 9 8 10 9 8 11 7 12 1 13 2 14
REMARK SMILES IDX 3 15 4 16 5 17 6 18 85 19 86 20 87 21 17 23 18 24 19 25
REMARK SMILES IDX 20 26 21 28 22 29 23 30 84 31 24 32 83 33 25 34 26 35 27 36
REMARK SMILES IDX 77 37 28 38 82 39 76 40 78 41 29 42 81 43 75 44 74 45 30 47
REMARK SMILES IDX 62 48 42 49 61 50 43 51 46 52 60 53 79 54 44 55 45 56 59 58
REMARK SMILES IDX 80 59 47 60 31 61 32 62 40 63 33 64 34 65 38 66 41 67 35 68
REMARK SMILES IDX 36 69 39 70 37 71 63 72 64 73 72 74 65 75 66 76 70 77 73 78
REMARK SMILES IDX 67 79 68 80 71 81 69 82 48 83 49 84 57 85 50 86 51 87 55 88
REMARK SMILES IDX 58 89 52 90 53 91 56 92 54 93
REMARK H PARENT 15 5 11 10 87 22 19 27 78 46 46 57
REMARK Flexibility Score: inf
ROOT
ATOM      1  C   UNL A   1      36.568  20.746  25.379  1.00  0.00     0.117 C 
ENDROOT
BRANCH   1   2
ATOM      2  N   UNL A   1      35.484  21.268  26.183  1.00  0.00    -0.354 N 
ATOM      3  C   UNL A   1      34.135  21.187  25.942  1.00  0.00     0.245 C 
ATOM      4  O   UNL A   1      33.388  21.560  26.846  1.00  0.00    -0.273 OA
ATOM      5  H   UNL A   1      35.747  21.739  27.006  1.00  0.00     0.163 HD
BRANCH   3   6
ATOM      6  C   UNL A   1      33.622  20.555  24.611  1.00  0.00     0.200 C 
BRANCH   6   7
ATOM      7  N   UNL A   1      32.517  21.365  24.088  1.00  0.00    -0.340 N 
ATOM      8  C   UNL A   1      32.484  22.584  23.478  1.00  0.00     0.240 C 
ATOM      9  O   UNL A   1      31.363  23.028  23.214  1.00  0.00    -0.273 OA
ATOM     10  H   UNL A   1      31.631  20.950  24.199  1.00  0.00     0.164 HD
BRANCH   8  11
ATOM     11  C   UNL A   1      33.759  23.366  23.085  1.00  0.00     0.226 C 
BRANCH  11  12
ATOM     12  N   UNL A   1      33.704  24.815  23.241  1.00  0.00    -0.294 N 
ATOM     13  C   UNL A   1      34.463  24.882  25.660  1.00  0.00     0.065 C 
ATOM     14  C   UNL A   1      33.954  25.522  24.414  1.00  0.00     0.029 A 
ATOM     15  C   UNL A   1      33.761  26.845  24.285  1.00  0.00     0.091 A 
ATOM     16  S   UNL A   1      33.348  27.295  22.666  1.00  0.00    -0.082 S 
ATOM     17  C   UNL A   1      33.465  25.613  22.118  1.00  0.00     0.307 A 
ATOM     18  O   UNL A   1      33.298  25.273  20.970  1.00  0.00    -0.257 OA
ENDBRANCH  11  12
ENDBRANCH   8  11
ENDBRANCH   6   7
BRANCH   6  19
ATOM     19  C   UNL A   1      33.233  19.067  24.828  1.00  0.00     0.143 C 
ATOM     20  C   UNL A   1      34.340  18.079  24.467  1.00  0.00     0.041 C 
BRANCH  19  21
ATOM     21  O   UNL A   1      32.902  18.830  26.203  1.00  0.00    -0.391 OA
ATOM     22  H   UNL A   1      33.619  19.155  26.770  1.00  0.00     0.211 HD
ENDBRANCH  19  21
ENDBRANCH   6  19
ENDBRANCH   3   6
ENDBRANCH   1   2
BRANCH   1  23
ATOM     23  C   UNL A   1      37.358  21.817  24.628  1.00  0.00     0.042 C 
BRANCH  23  24
ATOM     24  C   UNL A   1      38.112  22.721  25.582  1.00  0.00     0.118 C 
BRANCH  24  25
ATOM     25  N   UNL A   1      38.905  21.984  26.580  1.00  0.00    -0.352 N 
ATOM     26  C   UNL A   1      40.020  22.427  27.276  1.00  0.00     0.251 C 
ATOM     27  H   UNL A   1      38.608  21.067  26.777  1.00  0.00     0.163 HD
ATOM     28  O   UNL A   1      40.795  21.654  27.824  1.00  0.00    -0.269 OA
BRANCH  26  29
ATOM     29  C   UNL A   1      40.241  23.879  27.342  1.00  0.00     0.039 A 
ATOM     30  C   UNL A   1      39.259  24.804  26.981  1.00  0.00     0.014 A 
ATOM     31  C   UNL A   1      41.427  24.281  27.943  1.00  0.00     0.014 A 
ATOM     32  C   UNL A   1      39.447  26.135  27.344  1.00  0.00     0.010 A 
ATOM     33  C   UNL A   1      41.477  25.518  28.519  1.00  0.00     0.010 A 
ATOM     34  C   UNL A   1      40.543  26.475  28.157  1.00  0.00    -0.014 A 
BRANCH  34  35
ATOM     35  C   UNL A   1      40.686  27.799  28.749  1.00  0.00     0.031 A 
ATOM     36  C   UNL A   1      41.779  28.610  28.154  1.00  0.00     0.074 A 
ATOM     37  C   UNL A   1      39.790  28.321  29.617  1.00  0.00     0.049 A 
ATOM     38  N   UNL A   1      42.909  28.904  28.704  1.00  0.00    -0.248 NA
ATOM     39  C   UNL A   1      41.687  29.003  26.739  1.00  0.00     0.031 C 
ATOM     40  C   UNL A   1      38.501  27.774  30.059  1.00  0.00     0.029 A 
ATOM     41  N   UNL A   1      39.821  29.526  30.248  1.00  0.00    -0.354 N 
ATOM     42  C   UNL A   1      43.590  29.700  27.787  1.00  0.00     0.074 A 
ATOM     43  C   UNL A   1      42.882  29.567  26.541  1.00  0.00     0.031 C 
ATOM     44  C   UNL A   1      37.785  28.730  30.692  1.00  0.00     0.029 A 
ATOM     45  C   UNL A   1      38.630  29.892  30.873  1.00  0.00     0.049 A 
ATOM     46  H   UNL A   1      40.624  30.096  30.263  1.00  0.00     0.167 HD
ATOM     47  C   UNL A   1      44.526  30.592  28.217  1.00  0.00     0.037 A 
ATOM     48  C   UNL A   1      38.374  31.070  31.495  1.00  0.00     0.037 A 
ATOM     49  C   UNL A   1      44.911  30.305  29.579  1.00  0.00     0.049 A 
ATOM     50  C   UNL A   1      39.687  31.676  31.822  1.00  0.00     0.074 A 
ATOM     51  C   UNL A   1      45.496  29.229  30.219  1.00  0.00     0.029 A 
ATOM     52  N   UNL A   1      44.319  31.050  30.570  1.00  0.00    -0.354 N 
ATOM     53  N   UNL A   1      40.514  31.177  32.698  1.00  0.00    -0.248 NA
ATOM     54  C   UNL A   1      40.278  32.560  30.831  1.00  0.00     0.031 C 
ATOM     55  C   UNL A   1      44.816  29.129  31.470  1.00  0.00     0.029 A 
ATOM     56  C   UNL A   1      43.920  30.195  31.563  1.00  0.00     0.049 A 
ATOM     57  H   UNL A   1      44.202  32.028  30.566  1.00  0.00     0.167 HD
ATOM     58  C   UNL A   1      41.762  31.311  32.112  1.00  0.00     0.074 A 
ATOM     59  C   UNL A   1      41.564  32.242  31.002  1.00  0.00     0.031 C 
ATOM     60  C   UNL A   1      42.765  30.430  32.399  1.00  0.00     0.037 A 
BRANCH  47  61
ATOM     61  C   UNL A   1      44.788  31.942  27.589  1.00  0.00     0.064 A 
ATOM     62  C   UNL A   1      45.998  32.138  26.889  1.00  0.00     0.173 A 
ATOM     63  C   UNL A   1      44.075  33.118  27.905  1.00  0.00     0.173 A 
ATOM     64  F   UNL A   1      46.765  31.094  26.542  1.00  0.00    -0.203 F 
ATOM     65  C   UNL A   1      46.500  33.414  26.621  1.00  0.00     0.198 A 
ATOM     66  C   UNL A   1      44.554  34.388  27.589  1.00  0.00     0.198 A 
ATOM     67  F   UNL A   1      42.952  33.103  28.629  1.00  0.00    -0.203 F 
ATOM     68  F   UNL A   1      47.718  33.550  26.081  1.00  0.00    -0.200 F 
ATOM     69  C   UNL A   1      45.781  34.539  26.980  1.00  0.00     0.200 A 
ATOM     70  F   UNL A   1      43.851  35.467  27.962  1.00  0.00    -0.200 F 
ATOM     71  F   UNL A   1      46.289  35.763  26.787  1.00  0.00    -0.200 F 
ENDBRANCH  47  61
BRANCH  48  72
ATOM     72  C   UNL A   1      37.118  31.860  31.550  1.00  0.00     0.064 A 
ATOM     73  C   UNL A   1      36.489  32.118  32.781  1.00  0.00     0.173 A 
ATOM     74  C   UNL A   1      36.701  32.643  30.458  1.00  0.00     0.173 A 
ATOM     75  F   UNL A   1      36.851  31.441  33.880  1.00  0.00    -0.203 F 
ATOM     76  C   UNL A   1      35.538  33.135  32.922  1.00  0.00     0.198 A 
ATOM     77  C   UNL A   1      35.749  33.657  30.600  1.00  0.00     0.198 A 
ATOM     78  F   UNL A   1      37.282  32.512  29.258  1.00  0.00    -0.203 F 
ATOM     79  F   UNL A   1      35.020  33.404  34.129  1.00  0.00    -0.200 F 
ATOM     80  C   UNL A   1      35.182  33.916  31.835  1.00  0.00     0.200 A 
ATOM     81  F   UNL A   1      35.439  34.430  29.550  1.00  0.00    -0.200 F 
ATOM     82  F   UNL A   1      34.332  34.940  31.985  1.00  0.00    -0.200 F 
ENDBRANCH  48  72
BRANCH  60  83
ATOM     83  C   UNL A   1      42.563  29.494  33.560  1.00  0.00     0.064 A 
ATOM     84  C   UNL A   1      41.963  28.225  33.471  1.00  0.00     0.173 A 
ATOM     85  C   UNL A   1      43.125  29.851  34.793  1.00  0.00     0.173 A 
ATOM     86  F   UNL A   1      41.484  27.766  32.309  1.00  0.00    -0.203 F 
ATOM     87  C   UNL A   1      41.896  27.377  34.577  1.00  0.00     0.198 A 
ATOM     88  C   UNL A   1      43.089  28.988  35.884  1.00  0.00     0.198 A 
ATOM     89  F   UNL A   1      43.754  31.030  34.926  1.00  0.00    -0.203 F 
ATOM     90  F   UNL A   1      41.305  26.176  34.469  1.00  0.00    -0.200 F 
ATOM     91  C   UNL A   1      42.465  27.757  35.780  1.00  0.00     0.200 A 
ATOM     92  F   UNL A   1      43.684  29.343  37.031  1.00  0.00    -0.200 F 
ATOM     93  F   UNL A   1      42.435  26.927  36.832  1.00  0.00    -0.200 F 
ENDBRANCH  60  83
ENDBRANCH  34  35
ENDBRANCH  26  29
ENDBRANCH  24  25
ENDBRANCH  23  24
ENDBRANCH   1  23
TORSDOF 15
ENDMDL
