MODEL 1
REMARK VINA RESULT:     -13.4      0.000      0.000
REMARK SMILES COc1cc2c(cc1OC)[C@H](C(=O)NCCCNC(=O)c1ccc(-c3c4nc(c(-c5c(F)c(F)c(F)c(F)c5F)c5ccc([nH]5)c(-c5c(F)c(F)c(F)c(F)c5F)c5nc(c(-c6c(F)c(F)c(F)c(F)c6F)c6ccc3[nH]6)C=C5)C=C4)cc1)[C@H](c1cccs1)N(C)C2=O
REMARK SMILES IDX 16 1 15 2 14 3 12 4 13 5 11 7 3 8 4 9 8 10 5 11 7 12 6 13
REMARK SMILES IDX 92 14 90 15 93 16 84 17 91 18 2 19 1 20 9 21 10 22 85 23
REMARK SMILES IDX 86 24 89 25 87 26 88 27 17 28 18 29 19 30 20 32 21 33 22 34
REMARK SMILES IDX 83 35 23 36 82 37 24 38 25 39 26 40 76 41 27 42 81 43 75 44
REMARK SMILES IDX 77 45 28 46 80 47 74 48 73 49 29 51 61 52 41 53 60 54 42 55
REMARK SMILES IDX 45 56 59 57 78 58 43 59 44 60 58 62 79 63 46 64 30 65 31 66
REMARK SMILES IDX 39 67 32 68 33 69 37 70 40 71 34 72 35 73 38 74 36 75 62 76
REMARK SMILES IDX 63 77 71 78 64 79 65 80 69 81 72 82 66 83 67 84 70 85 68 86
REMARK SMILES IDX 47 87 48 88 56 89 49 90 50 91 54 92 57 93 51 94 52 95 55 96
REMARK SMILES IDX 53 97
REMARK H PARENT 14 6 18 31 77 50 45 61
REMARK Flexibility Score: inf
ROOT
ATOM      1  C   UNL A   1      31.882  31.882  26.557  1.00  0.00     0.042 C 
ENDROOT
BRANCH   1   2
ATOM      2  C   UNL A   1      32.329  30.476  26.200  1.00  0.00     0.117 C 
BRANCH   2   3
ATOM      3  N   UNL A   1      31.846  29.475  27.136  1.00  0.00    -0.355 N 
ATOM      4  C   UNL A   1      31.871  28.114  27.067  1.00  0.00     0.230 C 
ATOM      5  O   UNL A   1      31.277  27.529  27.975  1.00  0.00    -0.274 OA
ATOM      6  H   UNL A   1      31.434  29.840  27.952  1.00  0.00     0.163 HD
BRANCH   4   7
ATOM      7  C   UNL A   1      32.435  27.392  25.856  1.00  0.00     0.137 C 
ATOM      8  C   UNL A   1      32.366  23.091  25.403  1.00  0.00     0.161 A 
ATOM      9  C   UNL A   1      32.968  23.922  24.451  1.00  0.00     0.064 A 
ATOM     10  C   UNL A   1      31.631  23.671  26.447  1.00  0.00     0.161 A 
ATOM     11  C   UNL A   1      32.909  25.312  24.593  1.00  0.00     0.048 A 
ATOM     12  C   UNL A   1      31.533  25.064  26.547  1.00  0.00     0.056 A 
ATOM     13  C   UNL A   1      32.266  25.893  25.699  1.00  0.00    -0.016 A 
ATOM     14  C   UNL A   1      33.452  26.193  23.507  1.00  0.00     0.254 C 
ATOM     15  N   UNL A   1      33.012  27.521  23.493  1.00  0.00    -0.333 N 
ATOM     16  O   UNL A   1      34.226  25.722  22.679  1.00  0.00    -0.269 OA
ATOM     17  C   UNL A   1      32.055  28.034  24.503  1.00  0.00     0.142 C 
ATOM     18  C   UNL A   1      33.388  28.375  22.381  1.00  0.00     0.147 C 
BRANCH   8  19
ATOM     19  O   UNL A   1      32.383  21.724  25.302  1.00  0.00    -0.493 OA
ATOM     20  C   UNL A   1      33.475  21.181  24.564  1.00  0.00     0.278 C 
ENDBRANCH   8  19
BRANCH  10  21
ATOM     21  O   UNL A   1      30.950  23.004  27.433  1.00  0.00    -0.493 OA
ATOM     22  C   UNL A   1      29.557  22.820  27.196  1.00  0.00     0.278 C 
ENDBRANCH  10  21
BRANCH  17  23
ATOM     23  C   UNL A   1      30.590  27.806  24.102  1.00  0.00     0.028 A 
ATOM     24  C   UNL A   1      29.823  26.673  24.337  1.00  0.00     0.017 A 
ATOM     25  S   UNL A   1      29.649  28.974  23.250  1.00  0.00    -0.147 S 
ATOM     26  C   UNL A   1      28.526  26.732  23.755  1.00  0.00     0.012 A 
ATOM     27  C   UNL A   1      28.300  27.938  23.140  1.00  0.00     0.065 A 
ENDBRANCH  17  23
ENDBRANCH   4   7
ENDBRANCH   2   3
ENDBRANCH   1   2
BRANCH   1  28
ATOM     28  C   UNL A   1      32.876  32.653  27.418  1.00  0.00     0.118 C 
BRANCH  28  29
ATOM     29  N   UNL A   1      32.485  34.031  27.692  1.00  0.00    -0.352 N 
ATOM     30  C   UNL A   1      33.010  34.935  28.590  1.00  0.00     0.251 C 
ATOM     31  H   UNL A   1      31.732  34.366  27.154  1.00  0.00     0.163 HD
ATOM     32  O   UNL A   1      32.484  36.026  28.751  1.00  0.00    -0.269 OA
BRANCH  30  33
ATOM     33  C   UNL A   1      34.189  34.556  29.397  1.00  0.00     0.039 A 
ATOM     34  C   UNL A   1      33.991  34.008  30.666  1.00  0.00     0.014 A 
ATOM     35  C   UNL A   1      35.479  34.687  28.881  1.00  0.00     0.014 A 
ATOM     36  C   UNL A   1      35.081  33.490  31.370  1.00  0.00     0.010 A 
ATOM     37  C   UNL A   1      36.542  34.074  29.532  1.00  0.00     0.010 A 
ATOM     38  C   UNL A   1      36.355  33.464  30.780  1.00  0.00    -0.014 A 
BRANCH  38  39
ATOM     39  C   UNL A   1      37.512  32.810  31.447  1.00  0.00     0.031 A 
ATOM     40  C   UNL A   1      38.213  31.665  30.770  1.00  0.00     0.074 A 
ATOM     41  C   UNL A   1      37.875  33.188  32.689  1.00  0.00     0.049 A 
ATOM     42  N   UNL A   1      39.150  30.876  31.233  1.00  0.00    -0.248 NA
ATOM     43  C   UNL A   1      37.776  31.337  29.402  1.00  0.00     0.031 C 
ATOM     44  C   UNL A   1      37.240  34.247  33.475  1.00  0.00     0.029 A 
ATOM     45  N   UNL A   1      38.861  32.711  33.516  1.00  0.00    -0.354 N 
ATOM     46  C   UNL A   1      39.396  29.954  30.224  1.00  0.00     0.074 A 
ATOM     47  C   UNL A   1      38.468  30.237  29.152  1.00  0.00     0.031 C 
ATOM     48  C   UNL A   1      37.868  34.357  34.657  1.00  0.00     0.029 A 
ATOM     49  C   UNL A   1      38.921  33.350  34.731  1.00  0.00     0.049 A 
ATOM     50  H   UNL A   1      39.469  31.979  33.262  1.00  0.00     0.167 HD
ATOM     51  C   UNL A   1      40.335  28.978  30.180  1.00  0.00     0.037 A 
ATOM     52  C   UNL A   1      39.729  33.139  35.788  1.00  0.00     0.037 A 
ATOM     53  C   UNL A   1      41.282  28.722  31.230  1.00  0.00     0.049 A 
ATOM     54  C   UNL A   1      40.770  32.054  35.708  1.00  0.00     0.074 A 
ATOM     55  C   UNL A   1      42.296  27.780  31.269  1.00  0.00     0.029 A 
ATOM     56  N   UNL A   1      41.340  29.422  32.426  1.00  0.00    -0.354 N 
ATOM     57  N   UNL A   1      41.022  31.220  34.729  1.00  0.00    -0.248 NA
ATOM     58  C   UNL A   1      41.641  31.886  36.879  1.00  0.00     0.031 C 
ATOM     59  C   UNL A   1      42.951  27.895  32.500  1.00  0.00     0.029 A 
ATOM     60  C   UNL A   1      42.370  28.932  33.210  1.00  0.00     0.049 A 
ATOM     61  H   UNL A   1      40.736  30.158  32.680  1.00  0.00     0.167 HD
ATOM     62  C   UNL A   1      42.099  30.452  35.151  1.00  0.00     0.074 A 
ATOM     63  C   UNL A   1      42.462  30.929  36.469  1.00  0.00     0.031 C 
ATOM     64  C   UNL A   1      42.729  29.440  34.509  1.00  0.00     0.037 A 
BRANCH  51  65
ATOM     65  C   UNL A   1      40.398  28.137  28.939  1.00  0.00     0.064 A 
ATOM     66  C   UNL A   1      41.185  28.515  27.841  1.00  0.00     0.173 A 
ATOM     67  C   UNL A   1      39.694  26.927  28.857  1.00  0.00     0.173 A 
ATOM     68  F   UNL A   1      41.864  29.673  27.864  1.00  0.00    -0.203 F 
ATOM     69  C   UNL A   1      41.242  27.729  26.695  1.00  0.00     0.198 A 
ATOM     70  C   UNL A   1      39.779  26.126  27.721  1.00  0.00     0.198 A 
ATOM     71  F   UNL A   1      38.931  26.517  29.881  1.00  0.00    -0.203 F 
ATOM     72  F   UNL A   1      41.961  28.136  25.640  1.00  0.00    -0.200 F 
ATOM     73  C   UNL A   1      40.547  26.530  26.639  1.00  0.00     0.200 A 
ATOM     74  F   UNL A   1      39.115  24.963  27.671  1.00  0.00    -0.200 F 
ATOM     75  F   UNL A   1      40.609  25.770  25.538  1.00  0.00    -0.200 F 
ENDBRANCH  51  65
BRANCH  52  76
ATOM     76  C   UNL A   1      39.608  33.983  37.006  1.00  0.00     0.064 A 
ATOM     77  C   UNL A   1      38.824  33.569  38.092  1.00  0.00     0.173 A 
ATOM     78  C   UNL A   1      40.244  35.229  37.100  1.00  0.00     0.173 A 
ATOM     79  F   UNL A   1      38.179  32.394  38.041  1.00  0.00    -0.203 F 
ATOM     80  C   UNL A   1      38.654  34.382  39.211  1.00  0.00     0.198 A 
ATOM     81  C   UNL A   1      40.098  36.028  38.232  1.00  0.00     0.198 A 
ATOM     82  F   UNL A   1      41.012  35.670  36.092  1.00  0.00    -0.203 F 
ATOM     83  F   UNL A   1      37.853  33.985  40.209  1.00  0.00    -0.200 F 
ATOM     84  C   UNL A   1      39.294  35.609  39.282  1.00  0.00     0.200 A 
ATOM     85  F   UNL A   1      40.728  37.209  38.302  1.00  0.00    -0.200 F 
ATOM     86  F   UNL A   1      39.128  36.393  40.356  1.00  0.00    -0.200 F 
ENDBRANCH  52  76
BRANCH  64  87
ATOM     87  C   UNL A   1      43.904  28.814  35.199  1.00  0.00     0.064 A 
ATOM     88  C   UNL A   1      45.209  29.288  35.006  1.00  0.00     0.173 A 
ATOM     89  C   UNL A   1      43.713  27.752  36.098  1.00  0.00     0.173 A 
ATOM     90  F   UNL A   1      45.441  30.291  34.146  1.00  0.00    -0.203 F 
ATOM     91  C   UNL A   1      46.285  28.706  35.669  1.00  0.00     0.198 A 
ATOM     92  C   UNL A   1      44.789  27.191  36.779  1.00  0.00     0.198 A 
ATOM     93  F   UNL A   1      42.483  27.268  36.321  1.00  0.00    -0.203 F 
ATOM     94  F   UNL A   1      47.530  29.146  35.436  1.00  0.00    -0.200 F 
ATOM     95  C   UNL A   1      46.074  27.664  36.561  1.00  0.00     0.200 A 
ATOM     96  F   UNL A   1      44.581  26.193  37.649  1.00  0.00    -0.200 F 
ATOM     97  F   UNL A   1      47.111  27.110  37.202  1.00  0.00    -0.200 F 
ENDBRANCH  64  87
ENDBRANCH  38  39
ENDBRANCH  30  33
ENDBRANCH  28  29
ENDBRANCH   1  28
TORSDOF 13
ENDMDL
MODEL 2
REMARK VINA RESULT:     -13.3      0.471      7.168
REMARK SMILES COc1cc2c(cc1OC)[C@H](C(=O)NCCCNC(=O)c1ccc(-c3c4nc(c(-c5c(F)c(F)c(F)c(F)c5F)c5ccc([nH]5)c(-c5c(F)c(F)c(F)c(F)c5F)c5nc(c(-c6c(F)c(F)c(F)c(F)c6F)c6ccc3[nH]6)C=C5)C=C4)cc1)[C@H](c1cccs1)N(C)C2=O
REMARK SMILES IDX 16 1 15 2 14 3 12 4 13 5 11 7 3 8 4 9 8 10 5 11 7 12 6 13
REMARK SMILES IDX 92 14 90 15 93 16 84 17 91 18 2 19 1 20 9 21 10 22 85 23
REMARK SMILES IDX 86 24 89 25 87 26 88 27 17 28 18 29 19 30 20 32 21 33 22 34
REMARK SMILES IDX 83 35 23 36 82 37 24 38 25 39 26 40 76 41 27 42 81 43 75 44
REMARK SMILES IDX 77 45 28 46 80 47 74 48 73 49 29 51 61 52 41 53 60 54 42 55
REMARK SMILES IDX 45 56 59 57 78 58 43 59 44 60 58 62 79 63 46 64 30 65 31 66
REMARK SMILES IDX 39 67 32 68 33 69 37 70 40 71 34 72 35 73 38 74 36 75 62 76
REMARK SMILES IDX 63 77 71 78 64 79 65 80 69 81 72 82 66 83 67 84 70 85 68 86
REMARK SMILES IDX 47 87 48 88 56 89 49 90 50 91 54 92 57 93 51 94 52 95 55 96
REMARK SMILES IDX 53 97
REMARK H PARENT 14 6 18 31 77 50 45 61
REMARK Flexibility Score: inf
ROOT
ATOM      1  C   UNL A   1      31.708  31.951  26.733  1.00  0.00     0.042 C 
ENDROOT
BRANCH   1   2
ATOM      2  C   UNL A   1      32.092  30.563  26.256  1.00  0.00     0.117 C 
BRANCH   2   3
ATOM      3  N   UNL A   1      31.699  29.518  27.185  1.00  0.00    -0.355 N 
ATOM      4  C   UNL A   1      31.821  28.163  27.097  1.00  0.00     0.230 C 
ATOM      5  O   UNL A   1      31.287  27.524  28.005  1.00  0.00    -0.274 OA
ATOM      6  H   UNL A   1      31.276  29.841  28.013  1.00  0.00     0.163 HD
BRANCH   4   7
ATOM      7  C   UNL A   1      32.415  27.500  25.866  1.00  0.00     0.137 C 
ATOM      8  C   UNL A   1      32.520  23.214  25.287  1.00  0.00     0.161 A 
ATOM      9  C   UNL A   1      33.088  24.096  24.361  1.00  0.00     0.064 A 
ATOM     10  C   UNL A   1      31.760  23.734  26.346  1.00  0.00     0.161 A 
ATOM     11  C   UNL A   1      32.974  25.479  24.544  1.00  0.00     0.048 A 
ATOM     12  C   UNL A   1      31.607  25.118  26.487  1.00  0.00     0.056 A 
ATOM     13  C   UNL A   1      32.307  26.001  25.665  1.00  0.00    -0.016 A 
ATOM     14  C   UNL A   1      33.482  26.411  23.485  1.00  0.00     0.254 C 
ATOM     15  N   UNL A   1      32.989  27.721  23.509  1.00  0.00    -0.333 N 
ATOM     16  O   UNL A   1      34.275  25.997  22.645  1.00  0.00    -0.269 OA
ATOM     17  C   UNL A   1      32.010  28.165  24.531  1.00  0.00     0.142 C 
ATOM     18  C   UNL A   1      33.331  28.621  22.423  1.00  0.00     0.147 C 
BRANCH   8  19
ATOM     19  O   UNL A   1      32.592  21.853  25.146  1.00  0.00    -0.493 OA
ATOM     20  C   UNL A   1      33.865  21.278  25.424  1.00  0.00     0.278 C 
ENDBRANCH   8  19
BRANCH  10  21
ATOM     21  O   UNL A   1      31.106  23.012  27.310  1.00  0.00    -0.493 OA
ATOM     22  C   UNL A   1      29.689  22.946  27.169  1.00  0.00     0.278 C 
ENDBRANCH  10  21
BRANCH  17  23
ATOM     23  C   UNL A   1      30.556  27.891  24.120  1.00  0.00     0.028 A 
ATOM     24  C   UNL A   1      29.795  26.773  24.432  1.00  0.00     0.017 A 
ATOM     25  S   UNL A   1      29.624  28.975  23.157  1.00  0.00    -0.147 S 
ATOM     26  C   UNL A   1      28.509  26.771  23.821  1.00  0.00     0.012 A 
ATOM     27  C   UNL A   1      28.286  27.920  23.105  1.00  0.00     0.065 A 
ENDBRANCH  17  23
ENDBRANCH   4   7
ENDBRANCH   2   3
ENDBRANCH   1   2
BRANCH   1  28
ATOM     28  C   UNL A   1      32.885  32.799  27.200  1.00  0.00     0.118 C 
BRANCH  28  29
ATOM     29  N   UNL A   1      32.520  34.144  27.630  1.00  0.00    -0.352 N 
ATOM     30  C   UNL A   1      33.048  34.922  28.636  1.00  0.00     0.251 C 
ATOM     31  H   UNL A   1      31.785  34.558  27.124  1.00  0.00     0.163 HD
ATOM     32  O   UNL A   1      32.542  35.999  28.918  1.00  0.00    -0.269 OA
BRANCH  30  33
ATOM     33  C   UNL A   1      34.203  34.423  29.412  1.00  0.00     0.039 A 
ATOM     34  C   UNL A   1      33.968  33.710  30.590  1.00  0.00     0.014 A 
ATOM     35  C   UNL A   1      35.505  34.606  28.949  1.00  0.00     0.014 A 
ATOM     36  C   UNL A   1      35.035  33.087  31.242  1.00  0.00     0.010 A 
ATOM     37  C   UNL A   1      36.547  33.896  29.534  1.00  0.00     0.010 A 
ATOM     38  C   UNL A   1      36.323  33.125  30.684  1.00  0.00    -0.014 A 
BRANCH  38  39
ATOM     39  C   UNL A   1      37.457  32.372  31.282  1.00  0.00     0.031 A 
ATOM     40  C   UNL A   1      37.959  32.743  32.650  1.00  0.00     0.074 A 
ATOM     41  C   UNL A   1      38.084  31.419  30.565  1.00  0.00     0.049 A 
ATOM     42  N   UNL A   1      39.012  32.306  33.293  1.00  0.00    -0.248 NA
ATOM     43  C   UNL A   1      37.197  33.771  33.378  1.00  0.00     0.031 C 
ATOM     44  C   UNL A   1      37.730  31.004  29.206  1.00  0.00     0.029 A 
ATOM     45  N   UNL A   1      39.167  30.633  30.875  1.00  0.00    -0.354 N 
ATOM     46  C   UNL A   1      39.046  33.017  34.485  1.00  0.00     0.074 A 
ATOM     47  C   UNL A   1      37.951  33.960  34.449  1.00  0.00     0.031 C 
ATOM     48  C   UNL A   1      38.560  30.026  28.811  1.00  0.00     0.029 A 
ATOM     49  C   UNL A   1      39.532  29.771  29.869  1.00  0.00     0.049 A 
ATOM     50  H   UNL A   1      39.637  30.683  31.739  1.00  0.00     0.167 HD
ATOM     51  C   UNL A   1      39.895  32.875  35.531  1.00  0.00     0.037 A 
ATOM     52  C   UNL A   1      40.543  28.884  29.806  1.00  0.00     0.037 A 
ATOM     53  C   UNL A   1      40.960  31.912  35.581  1.00  0.00     0.049 A 
ATOM     54  C   UNL A   1      41.465  28.740  30.988  1.00  0.00     0.074 A 
ATOM     55  C   UNL A   1      41.855  31.664  36.609  1.00  0.00     0.029 A 
ATOM     56  N   UNL A   1      41.268  31.025  34.560  1.00  0.00    -0.354 N 
ATOM     57  N   UNL A   1      41.457  29.387  32.127  1.00  0.00    -0.248 NA
ATOM     58  C   UNL A   1      42.533  27.737  30.875  1.00  0.00     0.031 C 
ATOM     59  C   UNL A   1      42.718  30.644  36.199  1.00  0.00     0.029 A 
ATOM     60  C   UNL A   1      42.339  30.230  34.932  1.00  0.00     0.049 A 
ATOM     61  H   UNL A   1      40.795  30.970  33.698  1.00  0.00     0.167 HD
ATOM     62  C   UNL A   1      42.494  28.850  32.877  1.00  0.00     0.074 A 
ATOM     63  C   UNL A   1      43.102  27.814  32.070  1.00  0.00     0.031 C 
ATOM     64  C   UNL A   1      42.911  29.187  34.121  1.00  0.00     0.037 A 
BRANCH  51  65
ATOM     65  C   UNL A   1      39.682  33.767  36.719  1.00  0.00     0.064 A 
ATOM     66  C   UNL A   1      40.265  35.042  36.787  1.00  0.00     0.173 A 
ATOM     67  C   UNL A   1      38.864  33.362  37.783  1.00  0.00     0.173 A 
ATOM     68  F   UNL A   1      41.069  35.470  35.801  1.00  0.00    -0.203 F 
ATOM     69  C   UNL A   1      40.060  35.866  37.889  1.00  0.00     0.198 A 
ATOM     70  C   UNL A   1      38.635  34.202  38.870  1.00  0.00     0.198 A 
ATOM     71  F   UNL A   1      38.280  32.154  37.766  1.00  0.00    -0.203 F 
ATOM     72  F   UNL A   1      40.667  37.059  37.954  1.00  0.00    -0.200 F 
ATOM     73  C   UNL A   1      39.238  35.450  38.925  1.00  0.00     0.200 A 
ATOM     74  F   UNL A   1      37.833  33.803  39.867  1.00  0.00    -0.200 F 
ATOM     75  F   UNL A   1      39.035  36.247  39.982  1.00  0.00    -0.200 F 
ENDBRANCH  51  65
BRANCH  52  76
ATOM     76  C   UNL A   1      40.728  28.041  28.595  1.00  0.00     0.064 A 
ATOM     77  C   UNL A   1      41.513  28.488  27.523  1.00  0.00     0.173 A 
ATOM     78  C   UNL A   1      40.103  26.793  28.469  1.00  0.00     0.173 A 
ATOM     79  F   UNL A   1      42.114  29.686  27.588  1.00  0.00    -0.203 F 
ATOM     80  C   UNL A   1      41.641  27.733  26.359  1.00  0.00     0.198 A 
ATOM     81  C   UNL A   1      40.256  26.025  27.316  1.00  0.00     0.198 A 
ATOM     82  F   UNL A   1      39.347  26.315  29.468  1.00  0.00    -0.203 F 
ATOM     83  F   UNL A   1      42.352  28.211  25.328  1.00  0.00    -0.200 F 
ATOM     84  C   UNL A   1      41.016  26.501  26.257  1.00  0.00     0.200 A 
ATOM     85  F   UNL A   1      39.661  24.828  27.226  1.00  0.00    -0.200 F 
ATOM     86  F   UNL A   1      41.135  25.777  25.136  1.00  0.00    -0.200 F 
ENDBRANCH  52  76
BRANCH  64  87
ATOM     87  C   UNL A   1      44.044  28.396  34.704  1.00  0.00     0.064 A 
ATOM     88  C   UNL A   1      45.376  28.810  34.569  1.00  0.00     0.173 A 
ATOM     89  C   UNL A   1      43.786  27.230  35.442  1.00  0.00     0.173 A 
ATOM     90  F   UNL A   1      45.672  29.911  33.860  1.00  0.00    -0.203 F 
ATOM     91  C   UNL A   1      46.413  28.072  35.132  1.00  0.00     0.198 A 
ATOM     92  C   UNL A   1      44.824  26.511  36.025  1.00  0.00     0.198 A 
ATOM     93  F   UNL A   1      42.528  26.797  35.604  1.00  0.00    -0.203 F 
ATOM     94  F   UNL A   1      47.683  28.462  34.952  1.00  0.00    -0.200 F 
ATOM     95  C   UNL A   1      46.136  26.928  35.866  1.00  0.00     0.200 A 
ATOM     96  F   UNL A   1      44.554  25.412  36.744  1.00  0.00    -0.200 F 
ATOM     97  F   UNL A   1      47.137  26.223  36.411  1.00  0.00    -0.200 F 
ENDBRANCH  64  87
ENDBRANCH  38  39
ENDBRANCH  30  33
ENDBRANCH  28  29
ENDBRANCH   1  28
TORSDOF 13
ENDMDL
MODEL 3
REMARK VINA RESULT:     -13.1      5.595      9.978
REMARK SMILES COc1cc2c(cc1OC)[C@H](C(=O)NCCCNC(=O)c1ccc(-c3c4nc(c(-c5c(F)c(F)c(F)c(F)c5F)c5ccc([nH]5)c(-c5c(F)c(F)c(F)c(F)c5F)c5nc(c(-c6c(F)c(F)c(F)c(F)c6F)c6ccc3[nH]6)C=C5)C=C4)cc1)[C@H](c1cccs1)N(C)C2=O
REMARK SMILES IDX 16 1 15 2 14 3 12 4 13 5 11 7 3 8 4 9 8 10 5 11 7 12 6 13
REMARK SMILES IDX 92 14 90 15 93 16 84 17 91 18 2 19 1 20 9 21 10 22 85 23
REMARK SMILES IDX 86 24 89 25 87 26 88 27 17 28 18 29 19 30 20 32 21 33 22 34
REMARK SMILES IDX 83 35 23 36 82 37 24 38 25 39 26 40 76 41 27 42 81 43 75 44
REMARK SMILES IDX 77 45 28 46 80 47 74 48 73 49 29 51 61 52 41 53 60 54 42 55
REMARK SMILES IDX 45 56 59 57 78 58 43 59 44 60 58 62 79 63 46 64 30 65 31 66
REMARK SMILES IDX 39 67 32 68 33 69 37 70 40 71 34 72 35 73 38 74 36 75 62 76
REMARK SMILES IDX 63 77 71 78 64 79 65 80 69 81 72 82 66 83 67 84 70 85 68 86
REMARK SMILES IDX 47 87 48 88 56 89 49 90 50 91 54 92 57 93 51 94 52 95 55 96
REMARK SMILES IDX 53 97
REMARK H PARENT 14 6 18 31 77 50 45 61
REMARK Flexibility Score: inf
ROOT
ATOM      1  C   UNL A   1      38.092  19.676  25.053  1.00  0.00     0.042 C 
ENDROOT
BRANCH   1   2
ATOM      2  C   UNL A   1      37.005  20.734  25.073  1.00  0.00     0.117 C 
BRANCH   2   3
ATOM      3  N   UNL A   1      37.089  21.652  23.951  1.00  0.00    -0.355 N 
ATOM      4  C   UNL A   1      36.349  22.757  23.653  1.00  0.00     0.230 C 
ATOM      5  O   UNL A   1      36.587  23.273  22.559  1.00  0.00    -0.274 OA
ATOM      6  H   UNL A   1      37.796  21.441  23.299  1.00  0.00     0.163 HD
BRANCH   4   7
ATOM      7  C   UNL A   1      35.192  23.196  24.533  1.00  0.00     0.137 C 
ATOM      8  C   UNL A   1      32.306  26.196  23.354  1.00  0.00     0.161 A 
ATOM      9  C   UNL A   1      32.267  25.592  24.616  1.00  0.00     0.064 A 
ATOM     10  C   UNL A   1      33.202  25.705  22.392  1.00  0.00     0.161 A 
ATOM     11  C   UNL A   1      33.172  24.575  24.939  1.00  0.00     0.048 A 
ATOM     12  C   UNL A   1      34.065  24.649  22.709  1.00  0.00     0.056 A 
ATOM     13  C   UNL A   1      34.143  24.159  24.012  1.00  0.00    -0.016 A 
ATOM     14  C   UNL A   1      33.043  23.855  26.248  1.00  0.00     0.254 C 
ATOM     15  N   UNL A   1      33.677  22.611  26.349  1.00  0.00    -0.333 N 
ATOM     16  O   UNL A   1      32.386  24.360  27.153  1.00  0.00    -0.269 OA
ATOM     17  C   UNL A   1      34.439  22.032  25.216  1.00  0.00     0.142 C 
ATOM     18  C   UNL A   1      33.462  21.807  27.538  1.00  0.00     0.147 C 
BRANCH   8  19
ATOM     19  O   UNL A   1      31.434  27.186  22.985  1.00  0.00    -0.493 OA
ATOM     20  C   UNL A   1      30.086  26.999  23.408  1.00  0.00     0.278 C 
ENDBRANCH   8  19
BRANCH  10  21
ATOM     21  O   UNL A   1      33.339  26.153  21.103  1.00  0.00    -0.493 OA
ATOM     22  C   UNL A   1      32.560  25.461  20.130  1.00  0.00     0.278 C 
ENDBRANCH  10  21
BRANCH  17  23
ATOM     23  C   UNL A   1      33.553  21.224  24.257  1.00  0.00     0.028 A 
ATOM     24  C   UNL A   1      32.863  21.701  23.151  1.00  0.00     0.017 A 
ATOM     25  S   UNL A   1      33.266  19.533  24.433  1.00  0.00    -0.147 S 
ATOM     26  C   UNL A   1      32.050  20.718  22.519  1.00  0.00     0.012 A 
ATOM     27  C   UNL A   1      32.185  19.489  23.114  1.00  0.00     0.065 A 
ENDBRANCH  17  23
ENDBRANCH   4   7
ENDBRANCH   2   3
ENDBRANCH   1   2
BRANCH   1  28
ATOM     28  C   UNL A   1      39.367  20.076  25.785  1.00  0.00     0.118 C 
BRANCH  28  29
ATOM     29  N   UNL A   1      40.377  19.025  25.844  1.00  0.00    -0.352 N 
ATOM     30  C   UNL A   1      41.733  19.117  26.073  1.00  0.00     0.251 C 
ATOM     31  H   UNL A   1      40.039  18.113  25.698  1.00  0.00     0.163 HD
ATOM     32  O   UNL A   1      42.445  18.126  25.987  1.00  0.00    -0.269 OA
BRANCH  30  33
ATOM     33  C   UNL A   1      42.333  20.434  26.373  1.00  0.00     0.039 A 
ATOM     34  C   UNL A   1      42.816  21.212  25.319  1.00  0.00     0.014 A 
ATOM     35  C   UNL A   1      42.364  20.922  27.679  1.00  0.00     0.014 A 
ATOM     36  C   UNL A   1      43.228  22.524  25.564  1.00  0.00     0.010 A 
ATOM     37  C   UNL A   1      42.669  22.259  27.904  1.00  0.00     0.010 A 
ATOM     38  C   UNL A   1      43.099  23.077  26.849  1.00  0.00    -0.014 A 
BRANCH  38  39
ATOM     39  C   UNL A   1      43.410  24.504  27.121  1.00  0.00     0.031 A 
ATOM     40  C   UNL A   1      44.802  25.022  26.885  1.00  0.00     0.074 A 
ATOM     41  C   UNL A   1      42.470  25.308  27.657  1.00  0.00     0.049 A 
ATOM     42  N   UNL A   1      45.314  26.190  27.182  1.00  0.00    -0.248 NA
ATOM     43  C   UNL A   1      45.760  24.089  26.268  1.00  0.00     0.031 C 
ATOM     44  C   UNL A   1      41.099  24.913  27.985  1.00  0.00     0.029 A 
ATOM     45  N   UNL A   1      42.531  26.626  28.036  1.00  0.00    -0.354 N 
ATOM     46  C   UNL A   1      46.649  26.122  26.806  1.00  0.00     0.074 A 
ATOM     47  C   UNL A   1      46.887  24.780  26.322  1.00  0.00     0.031 C 
ATOM     48  C   UNL A   1      40.443  25.970  28.489  1.00  0.00     0.029 A 
ATOM     49  C   UNL A   1      41.355  27.106  28.561  1.00  0.00     0.049 A 
ATOM     50  H   UNL A   1      43.341  27.177  27.939  1.00  0.00     0.167 HD
ATOM     51  C   UNL A   1      47.586  27.100  26.831  1.00  0.00     0.037 A 
ATOM     52  C   UNL A   1      41.053  28.322  29.054  1.00  0.00     0.037 A 
ATOM     53  C   UNL A   1      47.339  28.443  27.276  1.00  0.00     0.049 A 
ATOM     54  C   UNL A   1      42.111  29.393  29.060  1.00  0.00     0.074 A 
ATOM     55  C   UNL A   1      48.212  29.518  27.309  1.00  0.00     0.029 A 
ATOM     56  N   UNL A   1      46.121  28.901  27.758  1.00  0.00    -0.354 N 
ATOM     57  N   UNL A   1      43.357  29.327  28.658  1.00  0.00    -0.248 NA
ATOM     58  C   UNL A   1      41.718  30.708  29.584  1.00  0.00     0.031 C 
ATOM     59  C   UNL A   1      47.528  30.619  27.833  1.00  0.00     0.029 A 
ATOM     60  C   UNL A   1      46.220  30.241  28.091  1.00  0.00     0.049 A 
ATOM     61  H   UNL A   1      45.308  28.354  27.850  1.00  0.00     0.167 HD
ATOM     62  C   UNL A   1      43.886  30.596  28.849  1.00  0.00     0.074 A 
ATOM     63  C   UNL A   1      42.822  31.416  29.389  1.00  0.00     0.031 C 
ATOM     64  C   UNL A   1      45.141  31.044  28.604  1.00  0.00     0.037 A 
BRANCH  51  65
ATOM     65  C   UNL A   1      48.958  26.753  26.332  1.00  0.00     0.064 A 
ATOM     66  C   UNL A   1      49.324  26.969  24.994  1.00  0.00     0.173 A 
ATOM     67  C   UNL A   1      49.927  26.230  27.201  1.00  0.00     0.173 A 
ATOM     68  F   UNL A   1      48.428  27.452  24.119  1.00  0.00    -0.203 F 
ATOM     69  C   UNL A   1      50.599  26.650  24.539  1.00  0.00     0.198 A 
ATOM     70  C   UNL A   1      51.212  25.941  26.749  1.00  0.00     0.198 A 
ATOM     71  F   UNL A   1      49.629  26.007  28.490  1.00  0.00    -0.203 F 
ATOM     72  F   UNL A   1      50.910  26.819  23.247  1.00  0.00    -0.200 F 
ATOM     73  C   UNL A   1      51.545  26.144  25.418  1.00  0.00     0.200 A 
ATOM     74  F   UNL A   1      52.129  25.462  27.602  1.00  0.00    -0.200 F 
ATOM     75  F   UNL A   1      52.775  25.844  24.981  1.00  0.00    -0.200 F 
ENDBRANCH  51  65
BRANCH  52  76
ATOM     76  C   UNL A   1      39.685  28.608  29.562  1.00  0.00     0.064 A 
ATOM     77  C   UNL A   1      38.701  29.137  28.715  1.00  0.00     0.173 A 
ATOM     78  C   UNL A   1      39.342  28.391  30.904  1.00  0.00     0.173 A 
ATOM     79  F   UNL A   1      38.987  29.382  27.428  1.00  0.00    -0.203 F 
ATOM     80  C   UNL A   1      37.435  29.467  29.197  1.00  0.00     0.198 A 
ATOM     81  C   UNL A   1      38.067  28.694  31.378  1.00  0.00     0.198 A 
ATOM     82  F   UNL A   1      40.244  27.880  31.755  1.00  0.00    -0.203 F 
ATOM     83  F   UNL A   1      36.533  30.024  28.378  1.00  0.00    -0.200 F 
ATOM     84  C   UNL A   1      37.118  29.242  30.528  1.00  0.00     0.200 A 
ATOM     85  F   UNL A   1      37.760  28.463  32.662  1.00  0.00    -0.200 F 
ATOM     86  F   UNL A   1      35.904  29.563  30.993  1.00  0.00    -0.200 F 
ENDBRANCH  52  76
BRANCH  64  87
ATOM     87  C   UNL A   1      45.417  32.493  28.871  1.00  0.00     0.064 A 
ATOM     88  C   UNL A   1      45.939  32.929  30.097  1.00  0.00     0.173 A 
ATOM     89  C   UNL A   1      45.196  33.451  27.869  1.00  0.00     0.173 A 
ATOM     90  F   UNL A   1      46.153  32.051  31.089  1.00  0.00    -0.203 F 
ATOM     91  C   UNL A   1      46.206  34.276  30.320  1.00  0.00     0.198 A 
ATOM     92  C   UNL A   1      45.489  34.794  28.088  1.00  0.00     0.198 A 
ATOM     93  F   UNL A   1      44.704  33.083  26.678  1.00  0.00    -0.203 F 
ATOM     94  F   UNL A   1      46.662  34.677  31.515  1.00  0.00    -0.200 F 
ATOM     95  C   UNL A   1      45.989  35.206  29.313  1.00  0.00     0.200 A 
ATOM     96  F   UNL A   1      45.290  35.688  27.110  1.00  0.00    -0.200 F 
ATOM     97  F   UNL A   1      46.252  36.502  29.529  1.00  0.00    -0.200 F 
ENDBRANCH  64  87
ENDBRANCH  38  39
ENDBRANCH  30  33
ENDBRANCH  28  29
ENDBRANCH   1  28
TORSDOF 13
ENDMDL
