MODEL 1
REMARK VINA RESULT:     -14.5      0.000      0.000
REMARK SMILES Cc1c(Cl)cccc1NC(=O)C[C@](C)(C(=O)NCCCNC(=O)c1ccc(-c2c3nc(c(-c4c(F)c(F)c(F)c(F)c4F)c4ccc([nH]4)c(-c4c(F)c(F)c(F)c(F)c4F)c4nc(c(-c5c(F)c(F)c(F)c(F)c5F)c5ccc2[nH]5)C=C4)C=C3)cc1)c1ccccc1
REMARK SMILES IDX 18 1 17 2 15 3 16 4 13 6 14 7 12 8 10 9 9 10 11 12 8 13 1 14
REMARK SMILES IDX 2 15 3 16 4 17 5 18 7 19 6 20 87 21 88 22 92 23 89 24 91 25
REMARK SMILES IDX 90 26 19 27 20 28 21 29 22 30 23 32 24 33 25 34 86 35 26 36
REMARK SMILES IDX 85 37 27 38 28 39 29 40 79 41 30 42 84 43 78 44 80 45 31 46
REMARK SMILES IDX 83 47 77 48 76 49 32 51 64 52 44 53 63 54 45 55 48 56 62 57
REMARK SMILES IDX 81 58 46 59 47 60 61 62 82 63 49 64 33 65 34 66 42 67 35 68
REMARK SMILES IDX 36 69 40 70 43 71 37 72 38 73 41 74 39 75 65 76 66 77 74 78
REMARK SMILES IDX 67 79 68 80 72 81 75 82 69 83 70 84 73 85 71 86 50 87 51 88
REMARK SMILES IDX 59 89 52 90 53 91 57 92 60 93 54 94 55 95 58 96 56 97
REMARK H PARENT 17 5 9 11 21 31 80 50 48 61
REMARK Flexibility Score: inf
ROOT
ATOM      1  C   UNL A   1      32.251  30.473  26.793  1.00  0.00     0.117 C 
ENDROOT
BRANCH   1   2
ATOM      2  N   UNL A   1      32.751  29.227  25.190  1.00  0.00    -0.355 N 
ATOM      3  C   UNL A   1      32.445  28.278  24.154  1.00  0.00     0.230 C 
ATOM      4  O   UNL A   1      33.474  28.070  23.482  1.00  0.00    -0.274 OA
ATOM      5  H   UNL A   1      33.721  29.365  25.092  1.00  0.00     0.163 HD
BRANCH   3   6
ATOM      6  C   UNL A   1      31.093  27.437  23.831  1.00  0.00     0.080 C 
ATOM      7  C   UNL A   1      31.347  26.713  22.454  1.00  0.00     0.027 C 
BRANCH   6   8
ATOM      8  C   UNL A   1      30.570  26.461  24.947  1.00  0.00     0.121 C 
BRANCH   8   9
ATOM      9  C   UNL A   1      31.263  26.422  26.295  1.00  0.00     0.225 C 
ATOM     10  N   UNL A   1      32.131  25.419  26.608  1.00  0.00    -0.326 N 
ATOM     11  H   UNL A   1      32.318  25.244  27.558  1.00  0.00     0.169 HD
ATOM     12  O   UNL A   1      31.026  27.271  27.157  1.00  0.00    -0.275 OA
BRANCH  10  13
ATOM     13  C   UNL A   1      32.765  24.633  25.654  1.00  0.00     0.045 A 
ATOM     14  C   UNL A   1      30.737  22.600  25.715  1.00  0.00     0.048 C 
ATOM     15  C   UNL A   1      32.203  22.913  25.578  1.00  0.00    -0.009 A 
ATOM     16  C   UNL A   1      33.280  21.645  24.868  1.00  0.00     0.046 A 
ATOM     17  Cl  UNL A   1      32.715  20.041  24.620  1.00  0.00    -0.084 Cl
ATOM     18  C   UNL A   1      34.928  22.075  24.296  1.00  0.00     0.021 A 
ATOM     19  C   UNL A   1      34.395  25.098  24.954  1.00  0.00     0.026 A 
ATOM     20  C   UNL A   1      35.500  23.793  24.342  1.00  0.00     0.004 A 
ENDBRANCH  10  13
ENDBRANCH   8   9
ENDBRANCH   6   8
BRANCH   6  21
ATOM     21  C   UNL A   1      29.804  28.293  23.481  1.00  0.00    -0.032 A 
ATOM     22  C   UNL A   1      29.954  29.707  23.361  1.00  0.00     0.005 A 
ATOM     23  C   UNL A   1      28.523  27.781  23.275  1.00  0.00     0.005 A 
ATOM     24  C   UNL A   1      28.872  30.564  23.185  1.00  0.00     0.000 A 
ATOM     25  C   UNL A   1      27.432  28.645  23.085  1.00  0.00     0.000 A 
ATOM     26  C   UNL A   1      27.602  30.030  23.065  1.00  0.00     0.000 A 
ENDBRANCH   6  21
ENDBRANCH   3   6
ENDBRANCH   1   2
BRANCH   1  27
ATOM     27  C   UNL A   1      31.476  31.985  26.897  1.00  0.00     0.042 C 
BRANCH  27  28
ATOM     28  C   UNL A   1      32.496  33.108  26.875  1.00  0.00     0.118 C 
BRANCH  28  29
ATOM     29  N   UNL A   1      32.235  34.196  27.809  1.00  0.00    -0.352 N 
ATOM     30  C   UNL A   1      33.109  34.642  28.771  1.00  0.00     0.251 C 
ATOM     31  H   UNL A   1      31.362  34.648  27.745  1.00  0.00     0.163 HD
ATOM     32  O   UNL A   1      32.885  35.615  29.473  1.00  0.00    -0.269 OA
BRANCH  30  33
ATOM     33  C   UNL A   1      34.278  33.780  28.985  1.00  0.00     0.039 A 
ATOM     34  C   UNL A   1      35.519  34.348  28.698  1.00  0.00     0.014 A 
ATOM     35  C   UNL A   1      34.150  32.646  29.791  1.00  0.00     0.014 A 
ATOM     36  C   UNL A   1      36.655  33.789  29.261  1.00  0.00     0.010 A 
ATOM     37  C   UNL A   1      35.274  32.173  30.450  1.00  0.00     0.010 A 
ATOM     38  C   UNL A   1      36.536  32.720  30.164  1.00  0.00    -0.014 A 
BRANCH  38  39
ATOM     39  C   UNL A   1      37.759  32.104  30.720  1.00  0.00     0.031 A 
ATOM     40  C   UNL A   1      38.187  32.495  32.104  1.00  0.00     0.074 A 
ATOM     41  C   UNL A   1      38.431  31.177  30.011  1.00  0.00     0.049 A 
ATOM     42  N   UNL A   1      39.165  32.024  32.829  1.00  0.00    -0.248 NA
ATOM     43  C   UNL A   1      37.428  33.578  32.755  1.00  0.00     0.031 C 
ATOM     44  C   UNL A   1      38.115  30.761  28.642  1.00  0.00     0.029 A 
ATOM     45  N   UNL A   1      39.504  30.397  30.355  1.00  0.00    -0.354 N 
ATOM     46  C   UNL A   1      39.135  32.754  34.009  1.00  0.00     0.074 A 
ATOM     47  C   UNL A   1      38.107  33.756  33.874  1.00  0.00     0.031 C 
ATOM     48  C   UNL A   1      38.945  29.768  28.282  1.00  0.00     0.029 A 
ATOM     49  C   UNL A   1      39.872  29.503  29.379  1.00  0.00     0.049 A 
ATOM     50  H   UNL A   1      39.969  30.470  31.220  1.00  0.00     0.167 HD
ATOM     51  C   UNL A   1      39.875  32.575  35.124  1.00  0.00     0.037 A 
ATOM     52  C   UNL A   1      40.847  28.574  29.381  1.00  0.00     0.037 A 
ATOM     53  C   UNL A   1      40.878  31.557  35.249  1.00  0.00     0.049 A 
ATOM     54  C   UNL A   1      41.674  28.411  30.630  1.00  0.00     0.074 A 
ATOM     55  C   UNL A   1      41.663  31.250  36.343  1.00  0.00     0.029 A 
ATOM     56  N   UNL A   1      41.239  30.683  34.232  1.00  0.00    -0.354 N 
ATOM     57  N   UNL A   1      41.587  29.054  31.771  1.00  0.00    -0.248 NA
ATOM     58  C   UNL A   1      42.726  27.388  30.599  1.00  0.00     0.031 C 
ATOM     59  C   UNL A   1      42.554  30.243  35.964  1.00  0.00     0.029 A 
ATOM     60  C   UNL A   1      42.265  29.862  34.662  1.00  0.00     0.049 A 
ATOM     61  H   UNL A   1      40.827  30.653  33.338  1.00  0.00     0.167 HD
ATOM     62  C   UNL A   1      42.551  28.497  32.600  1.00  0.00     0.074 A 
ATOM     63  C   UNL A   1      43.193  27.446  31.838  1.00  0.00     0.031 C 
ATOM     64  C   UNL A   1      42.880  28.822  33.876  1.00  0.00     0.037 A 
BRANCH  51  65
ATOM     65  C   UNL A   1      39.632  33.508  36.275  1.00  0.00     0.064 A 
ATOM     66  C   UNL A   1      38.790  33.168  37.346  1.00  0.00     0.173 A 
ATOM     67  C   UNL A   1      40.259  34.762  36.307  1.00  0.00     0.173 A 
ATOM     68  F   UNL A   1      38.147  31.991  37.354  1.00  0.00    -0.203 F 
ATOM     69  C   UNL A   1      38.563  34.060  38.390  1.00  0.00     0.198 A 
ATOM     70  C   UNL A   1      40.060  35.636  37.372  1.00  0.00     0.198 A 
ATOM     71  F   UNL A   1      41.066  35.142  35.305  1.00  0.00    -0.203 F 
ATOM     72  F   UNL A   1      37.706  33.739  39.370  1.00  0.00    -0.200 F 
ATOM     73  C   UNL A   1      39.205  35.290  38.408  1.00  0.00     0.200 A 
ATOM     74  F   UNL A   1      40.691  36.818  37.392  1.00  0.00    -0.200 F 
ATOM     75  F   UNL A   1      38.994  36.143  39.419  1.00  0.00    -0.200 F 
ENDBRANCH  51  65
BRANCH  52  76
ATOM     76  C   UNL A   1      41.088  27.729  28.179  1.00  0.00     0.064 A 
ATOM     77  C   UNL A   1      40.499  26.463  28.040  1.00  0.00     0.173 A 
ATOM     78  C   UNL A   1      41.937  28.162  27.148  1.00  0.00     0.173 A 
ATOM     79  F   UNL A   1      39.689  25.992  29.001  1.00  0.00    -0.203 F 
ATOM     80  C   UNL A   1      40.773  25.654  26.938  1.00  0.00     0.198 A 
ATOM     81  C   UNL A   1      42.181  27.368  26.029  1.00  0.00     0.198 A 
ATOM     82  F   UNL A   1      42.523  29.366  27.222  1.00  0.00    -0.203 F 
ATOM     83  F   UNL A   1      40.242  24.426  26.861  1.00  0.00    -0.200 F 
ATOM     84  C   UNL A   1      41.610  26.110  25.931  1.00  0.00     0.200 A 
ATOM     85  F   UNL A   1      42.975  27.822  25.049  1.00  0.00    -0.200 F 
ATOM     86  F   UNL A   1      41.873  25.334  24.870  1.00  0.00    -0.200 F 
ENDBRANCH  52  76
BRANCH  64  87
ATOM     87  C   UNL A   1      43.955  28.006  34.537  1.00  0.00     0.064 A 
ATOM     88  C   UNL A   1      45.295  28.419  34.551  1.00  0.00     0.173 A 
ATOM     89  C   UNL A   1      43.626  26.816  35.205  1.00  0.00     0.173 A 
ATOM     90  F   UNL A   1      45.662  29.546  33.921  1.00  0.00    -0.203 F 
ATOM     91  C   UNL A   1      46.272  27.651  35.177  1.00  0.00     0.198 A 
ATOM     92  C   UNL A   1      44.598  26.074  35.867  1.00  0.00     0.198 A 
ATOM     93  F   UNL A   1      42.356  26.383  35.233  1.00  0.00    -0.203 F 
ATOM     94  F   UNL A   1      47.555  28.032  35.123  1.00  0.00    -0.200 F 
ATOM     95  C   UNL A   1      45.922  26.485  35.841  1.00  0.00     0.200 A 
ATOM     96  F   UNL A   1      44.254  24.961  36.528  1.00  0.00    -0.200 F 
ATOM     97  F   UNL A   1      46.863  25.752  36.451  1.00  0.00    -0.200 F 
ENDBRANCH  64  87
ENDBRANCH  38  39
ENDBRANCH  30  33
ENDBRANCH  28  29
ENDBRANCH  27  28
ENDBRANCH   1  27
TORSDOF 14
ENDMDL
MODEL 2
REMARK VINA RESULT:     -14.4      0.163      1.925
REMARK SMILES Cc1c(Cl)cccc1NC(=O)C[C@](C)(C(=O)NCCCNC(=O)c1ccc(-c2c3nc(c(-c4c(F)c(F)c(F)c(F)c4F)c4ccc([nH]4)c(-c4c(F)c(F)c(F)c(F)c4F)c4nc(c(-c5c(F)c(F)c(F)c(F)c5F)c5ccc2[nH]5)C=C4)C=C3)cc1)c1ccccc1
REMARK SMILES IDX 18 1 17 2 15 3 16 4 13 6 14 7 12 8 10 9 9 10 11 12 8 13 1 14
REMARK SMILES IDX 2 15 3 16 4 17 5 18 7 19 6 20 87 21 88 22 92 23 89 24 91 25
REMARK SMILES IDX 90 26 19 27 20 28 21 29 22 30 23 32 24 33 25 34 86 35 26 36
REMARK SMILES IDX 85 37 27 38 28 39 29 40 79 41 30 42 84 43 78 44 80 45 31 46
REMARK SMILES IDX 83 47 77 48 76 49 32 51 64 52 44 53 63 54 45 55 48 56 62 57
REMARK SMILES IDX 81 58 46 59 47 60 61 62 82 63 49 64 33 65 34 66 42 67 35 68
REMARK SMILES IDX 36 69 40 70 43 71 37 72 38 73 41 74 39 75 65 76 66 77 74 78
REMARK SMILES IDX 67 79 68 80 72 81 75 82 69 83 70 84 73 85 71 86 50 87 51 88
REMARK SMILES IDX 59 89 52 90 53 91 57 92 60 93 54 94 55 95 58 96 56 97
REMARK H PARENT 17 5 9 11 21 31 80 50 48 61
REMARK Flexibility Score: inf
ROOT
ATOM      1  C   UNL A   1      32.151  30.470  26.785  1.00  0.00     0.117 C 
ENDROOT
BRANCH   1   2
ATOM      2  N   UNL A   1      32.708  29.242  25.187  1.00  0.00    -0.355 N 
ATOM      3  C   UNL A   1      32.445  28.279  24.152  1.00  0.00     0.230 C 
ATOM      4  O   UNL A   1      33.484  28.113  23.484  1.00  0.00    -0.274 OA
ATOM      5  H   UNL A   1      33.672  29.421  25.090  1.00  0.00     0.163 HD
BRANCH   3   6
ATOM      6  C   UNL A   1      31.131  27.380  23.827  1.00  0.00     0.080 C 
ATOM      7  C   UNL A   1      31.481  26.545  22.538  1.00  0.00     0.027 C 
BRANCH   6   8
ATOM      8  C   UNL A   1      30.561  26.493  24.993  1.00  0.00     0.121 C 
BRANCH   8   9
ATOM      9  C   UNL A   1      31.286  26.447  26.325  1.00  0.00     0.225 C 
ATOM     10  N   UNL A   1      32.155  25.439  26.615  1.00  0.00    -0.326 N 
ATOM     11  H   UNL A   1      32.364  25.261  27.559  1.00  0.00     0.169 HD
ATOM     12  O   UNL A   1      31.074  27.296  27.194  1.00  0.00    -0.275 OA
BRANCH  10  13
ATOM     13  C   UNL A   1      32.763  24.653  25.645  1.00  0.00     0.045 A 
ATOM     14  C   UNL A   1      30.698  22.658  25.708  1.00  0.00     0.048 C 
ATOM     15  C   UNL A   1      32.167  22.944  25.556  1.00  0.00    -0.009 A 
ATOM     16  C   UNL A   1      33.212  21.664  24.818  1.00  0.00     0.046 A 
ATOM     17  Cl  UNL A   1      32.613  20.075  24.559  1.00  0.00    -0.084 Cl
ATOM     18  C   UNL A   1      34.860  22.070  24.230  1.00  0.00     0.021 A 
ATOM     19  C   UNL A   1      34.393  25.095  24.929  1.00  0.00     0.026 A 
ATOM     20  C   UNL A   1      35.465  23.776  24.289  1.00  0.00     0.004 A 
ENDBRANCH  10  13
ENDBRANCH   8   9
ENDBRANCH   6   8
BRANCH   6  21
ATOM     21  C   UNL A   1      29.850  28.171  23.329  1.00  0.00    -0.032 A 
ATOM     22  C   UNL A   1      30.050  29.420  22.670  1.00  0.00     0.005 A 
ATOM     23  C   UNL A   1      28.529  27.748  23.476  1.00  0.00     0.005 A 
ATOM     24  C   UNL A   1      28.999  30.256  22.308  1.00  0.00     0.000 A 
ATOM     25  C   UNL A   1      27.466  28.585  23.098  1.00  0.00     0.000 A 
ATOM     26  C   UNL A   1      27.699  29.843  22.541  1.00  0.00     0.000 A 
ENDBRANCH   6  21
ENDBRANCH   3   6
ENDBRANCH   1   2
BRANCH   1  27
ATOM     27  C   UNL A   1      31.427  32.007  26.877  1.00  0.00     0.042 C 
BRANCH  27  28
ATOM     28  C   UNL A   1      32.486  33.093  26.883  1.00  0.00     0.118 C 
BRANCH  28  29
ATOM     29  N   UNL A   1      32.230  34.197  27.801  1.00  0.00    -0.352 N 
ATOM     30  C   UNL A   1      33.113  34.661  28.748  1.00  0.00     0.251 C 
ATOM     31  H   UNL A   1      31.357  34.647  27.736  1.00  0.00     0.163 HD
ATOM     32  O   UNL A   1      32.892  35.645  29.435  1.00  0.00    -0.269 OA
BRANCH  30  33
ATOM     33  C   UNL A   1      34.284  33.804  28.967  1.00  0.00     0.039 A 
ATOM     34  C   UNL A   1      35.525  34.388  28.716  1.00  0.00     0.014 A 
ATOM     35  C   UNL A   1      34.150  32.653  29.747  1.00  0.00     0.014 A 
ATOM     36  C   UNL A   1      36.655  33.826  29.289  1.00  0.00     0.010 A 
ATOM     37  C   UNL A   1      35.265  32.176  30.418  1.00  0.00     0.010 A 
ATOM     38  C   UNL A   1      36.528  32.738  30.167  1.00  0.00    -0.014 A 
BRANCH  38  39
ATOM     39  C   UNL A   1      37.745  32.121  30.734  1.00  0.00     0.031 A 
ATOM     40  C   UNL A   1      38.166  32.518  32.118  1.00  0.00     0.074 A 
ATOM     41  C   UNL A   1      38.418  31.187  30.035  1.00  0.00     0.049 A 
ATOM     42  N   UNL A   1      39.138  32.047  32.852  1.00  0.00    -0.248 NA
ATOM     43  C   UNL A   1      37.408  33.608  32.759  1.00  0.00     0.031 C 
ATOM     44  C   UNL A   1      38.109  30.764  28.666  1.00  0.00     0.029 A 
ATOM     45  N   UNL A   1      39.486  30.404  30.389  1.00  0.00    -0.354 N 
ATOM     46  C   UNL A   1      39.104  32.785  34.028  1.00  0.00     0.074 A 
ATOM     47  C   UNL A   1      38.081  33.790  33.881  1.00  0.00     0.031 C 
ATOM     48  C   UNL A   1      38.937  29.766  28.317  1.00  0.00     0.029 A 
ATOM     49  C   UNL A   1      39.856  29.503  29.421  1.00  0.00     0.049 A 
ATOM     50  H   UNL A   1      39.945  30.481  31.257  1.00  0.00     0.167 HD
ATOM     51  C   UNL A   1      39.836  32.609  35.148  1.00  0.00     0.037 A 
ATOM     52  C   UNL A   1      40.827  28.571  29.434  1.00  0.00     0.037 A 
ATOM     53  C   UNL A   1      40.835  31.587  35.285  1.00  0.00     0.049 A 
ATOM     54  C   UNL A   1      41.646  28.412  30.689  1.00  0.00     0.074 A 
ATOM     55  C   UNL A   1      41.612  31.285  36.386  1.00  0.00     0.029 A 
ATOM     56  N   UNL A   1      41.199  30.707  34.275  1.00  0.00    -0.354 N 
ATOM     57  N   UNL A   1      41.555  29.062  31.826  1.00  0.00    -0.248 NA
ATOM     58  C   UNL A   1      42.695  27.384  30.671  1.00  0.00     0.031 C 
ATOM     59  C   UNL A   1      42.501  30.272  36.018  1.00  0.00     0.029 A 
ATOM     60  C   UNL A   1      42.219  29.884  34.716  1.00  0.00     0.049 A 
ATOM     61  H   UNL A   1      40.791  30.673  33.379  1.00  0.00     0.167 HD
ATOM     62  C   UNL A   1      42.512  28.506  32.664  1.00  0.00     0.074 A 
ATOM     63  C   UNL A   1      43.155  27.448  31.912  1.00  0.00     0.031 C 
ATOM     64  C   UNL A   1      42.834  28.837  33.940  1.00  0.00     0.037 A 
BRANCH  51  65
ATOM     65  C   UNL A   1      39.591  33.550  36.292  1.00  0.00     0.064 A 
ATOM     66  C   UNL A   1      40.174  34.827  36.345  1.00  0.00     0.173 A 
ATOM     67  C   UNL A   1      38.752  33.169  37.349  1.00  0.00     0.173 A 
ATOM     68  F   UNL A   1      41.003  35.233  35.371  1.00  0.00    -0.203 F 
ATOM     69  C   UNL A   1      39.950  35.673  37.427  1.00  0.00     0.198 A 
ATOM     70  C   UNL A   1      38.499  34.033  38.410  1.00  0.00     0.198 A 
ATOM     71  F   UNL A   1      38.176  31.958  37.354  1.00  0.00    -0.203 F 
ATOM     72  F   UNL A   1      40.567  36.861  37.486  1.00  0.00    -0.200 F 
ATOM     73  C   UNL A   1      39.105  35.280  38.455  1.00  0.00     0.200 A 
ATOM     74  F   UNL A   1      37.673  33.655  39.396  1.00  0.00    -0.200 F 
ATOM     75  F   UNL A   1      38.881  36.099  39.490  1.00  0.00    -0.200 F 
ENDBRANCH  51  65
BRANCH  52  76
ATOM     76  C   UNL A   1      41.072  27.717  28.238  1.00  0.00     0.064 A 
ATOM     77  C   UNL A   1      41.910  28.138  27.195  1.00  0.00     0.173 A 
ATOM     78  C   UNL A   1      40.449  26.466  28.103  1.00  0.00     0.173 A 
ATOM     79  F   UNL A   1      42.520  29.330  27.265  1.00  0.00    -0.203 F 
ATOM     80  C   UNL A   1      42.089  27.358  26.053  1.00  0.00     0.198 A 
ATOM     81  C   UNL A   1      40.659  25.672  26.977  1.00  0.00     0.198 A 
ATOM     82  F   UNL A   1      39.643  26.009  29.071  1.00  0.00    -0.203 F 
ATOM     83  F   UNL A   1      42.849  27.812  25.046  1.00  0.00    -0.200 F 
ATOM     84  C   UNL A   1      41.467  26.123  25.948  1.00  0.00     0.200 A 
ATOM     85  F   UNL A   1      40.071  24.470  26.891  1.00  0.00    -0.200 F 
ATOM     86  F   UNL A   1      41.641  25.372  24.852  1.00  0.00    -0.200 F 
ENDBRANCH  52  76
BRANCH  64  87
ATOM     87  C   UNL A   1      43.902  28.021  34.612  1.00  0.00     0.064 A 
ATOM     88  C   UNL A   1      43.612  26.815  35.265  1.00  0.00     0.173 A 
ATOM     89  C   UNL A   1      45.243  28.433  34.556  1.00  0.00     0.173 A 
ATOM     90  F   UNL A   1      42.345  26.380  35.352  1.00  0.00    -0.203 F 
ATOM     91  C   UNL A   1      44.620  26.071  35.872  1.00  0.00     0.198 A 
ATOM     92  C   UNL A   1      46.253  27.665  35.126  1.00  0.00     0.198 A 
ATOM     93  F   UNL A   1      45.576  29.572  33.930  1.00  0.00    -0.203 F 
ATOM     94  F   UNL A   1      44.311  24.955  36.546  1.00  0.00    -0.200 F 
ATOM     95  C   UNL A   1      45.939  26.492  35.794  1.00  0.00     0.200 A 
ATOM     96  F   UNL A   1      47.529  28.061  35.028  1.00  0.00    -0.200 F 
ATOM     97  F   UNL A   1      46.909  25.769  36.371  1.00  0.00    -0.200 F 
ENDBRANCH  64  87
ENDBRANCH  38  39
ENDBRANCH  30  33
ENDBRANCH  28  29
ENDBRANCH  27  28
ENDBRANCH   1  27
TORSDOF 14
ENDMDL
MODEL 3
REMARK VINA RESULT:     -14.3      1.016      7.474
REMARK SMILES Cc1c(Cl)cccc1NC(=O)C[C@](C)(C(=O)NCCCNC(=O)c1ccc(-c2c3nc(c(-c4c(F)c(F)c(F)c(F)c4F)c4ccc([nH]4)c(-c4c(F)c(F)c(F)c(F)c4F)c4nc(c(-c5c(F)c(F)c(F)c(F)c5F)c5ccc2[nH]5)C=C4)C=C3)cc1)c1ccccc1
REMARK SMILES IDX 18 1 17 2 15 3 16 4 13 6 14 7 12 8 10 9 9 10 11 12 8 13 1 14
REMARK SMILES IDX 2 15 3 16 4 17 5 18 7 19 6 20 87 21 88 22 92 23 89 24 91 25
REMARK SMILES IDX 90 26 19 27 20 28 21 29 22 30 23 32 24 33 25 34 86 35 26 36
REMARK SMILES IDX 85 37 27 38 28 39 29 40 79 41 30 42 84 43 78 44 80 45 31 46
REMARK SMILES IDX 83 47 77 48 76 49 32 51 64 52 44 53 63 54 45 55 48 56 62 57
REMARK SMILES IDX 81 58 46 59 47 60 61 62 82 63 49 64 33 65 34 66 42 67 35 68
REMARK SMILES IDX 36 69 40 70 43 71 37 72 38 73 41 74 39 75 65 76 66 77 74 78
REMARK SMILES IDX 67 79 68 80 72 81 75 82 69 83 70 84 73 85 71 86 50 87 51 88
REMARK SMILES IDX 59 89 52 90 53 91 57 92 60 93 54 94 55 95 58 96 56 97
REMARK H PARENT 17 5 9 11 21 31 80 50 48 61
REMARK Flexibility Score: inf
ROOT
ATOM      1  C   UNL A   1      32.305  30.772  26.835  1.00  0.00     0.117 C 
ENDROOT
BRANCH   1   2
ATOM      2  N   UNL A   1      32.776  29.507  25.238  1.00  0.00    -0.355 N 
ATOM      3  C   UNL A   1      32.449  28.558  24.210  1.00  0.00     0.230 C 
ATOM      4  O   UNL A   1      33.471  28.328  23.534  1.00  0.00    -0.274 OA
ATOM      5  H   UNL A   1      33.748  29.627  25.135  1.00  0.00     0.163 HD
BRANCH   3   6
ATOM      6  C   UNL A   1      31.081  27.739  23.897  1.00  0.00     0.080 C 
ATOM      7  C   UNL A   1      31.314  27.007  22.521  1.00  0.00     0.027 C 
BRANCH   6   8
ATOM      8  C   UNL A   1      30.548  26.775  25.019  1.00  0.00     0.121 C 
BRANCH   8   9
ATOM      9  C   UNL A   1      31.278  26.692  26.346  1.00  0.00     0.225 C 
ATOM     10  N   UNL A   1      32.059  25.617  26.649  1.00  0.00    -0.326 N 
ATOM     11  H   UNL A   1      32.260  25.439  27.595  1.00  0.00     0.169 HD
ATOM     12  O   UNL A   1      31.149  27.572  27.200  1.00  0.00    -0.275 OA
BRANCH  10  13
ATOM     13  C   UNL A   1      32.587  24.762  25.690  1.00  0.00     0.045 A 
ATOM     14  C   UNL A   1      30.569  22.760  26.101  1.00  0.00     0.048 C 
ATOM     15  C   UNL A   1      32.013  23.047  25.791  1.00  0.00    -0.009 A 
ATOM     16  C   UNL A   1      33.006  21.722  25.060  1.00  0.00     0.046 A 
ATOM     17  Cl  UNL A   1      32.412  20.112  24.982  1.00  0.00    -0.084 Cl
ATOM     18  C   UNL A   1      34.585  22.095  24.290  1.00  0.00     0.021 A 
ATOM     19  C   UNL A   1      34.136  25.161  24.793  1.00  0.00     0.026 A 
ATOM     20  C   UNL A   1      35.166  23.806  24.159  1.00  0.00     0.004 A 
ENDBRANCH  10  13
ENDBRANCH   8   9
ENDBRANCH   6   8
BRANCH   6  21
ATOM     21  C   UNL A   1      29.804  28.616  23.553  1.00  0.00    -0.032 A 
ATOM     22  C   UNL A   1      29.926  30.035  23.638  1.00  0.00     0.005 A 
ATOM     23  C   UNL A   1      28.559  28.118  23.167  1.00  0.00     0.005 A 
ATOM     24  C   UNL A   1      28.842  30.893  23.484  1.00  0.00     0.000 A 
ATOM     25  C   UNL A   1      27.467  28.985  22.999  1.00  0.00     0.000 A 
ATOM     26  C   UNL A   1      27.601  30.362  23.181  1.00  0.00     0.000 A 
ENDBRANCH   6  21
ENDBRANCH   3   6
ENDBRANCH   1   2
BRANCH   1  27
ATOM     27  C   UNL A   1      33.249  31.611  27.977  1.00  0.00     0.042 C 
BRANCH  27  28
ATOM     28  C   UNL A   1      33.707  32.942  27.412  1.00  0.00     0.118 C 
BRANCH  28  29
ATOM     29  N   UNL A   1      32.842  34.074  27.725  1.00  0.00    -0.352 N 
ATOM     30  C   UNL A   1      33.097  35.025  28.684  1.00  0.00     0.251 C 
ATOM     31  H   UNL A   1      32.009  34.163  27.207  1.00  0.00     0.163 HD
ATOM     32  O   UNL A   1      32.390  36.005  28.852  1.00  0.00    -0.269 OA
BRANCH  30  33
ATOM     33  C   UNL A   1      34.212  34.706  29.583  1.00  0.00     0.039 A 
ATOM     34  C   UNL A   1      33.879  34.034  30.758  1.00  0.00     0.014 A 
ATOM     35  C   UNL A   1      35.517  34.723  29.084  1.00  0.00     0.014 A 
ATOM     36  C   UNL A   1      34.867  33.332  31.430  1.00  0.00     0.010 A 
ATOM     37  C   UNL A   1      36.467  33.916  29.689  1.00  0.00     0.010 A 
ATOM     38  C   UNL A   1      36.158  33.243  30.884  1.00  0.00    -0.014 A 
BRANCH  38  39
ATOM     39  C   UNL A   1      37.213  32.531  31.634  1.00  0.00     0.031 A 
ATOM     40  C   UNL A   1      37.921  31.393  30.960  1.00  0.00     0.074 A 
ATOM     41  C   UNL A   1      37.556  32.940  32.871  1.00  0.00     0.049 A 
ATOM     42  N   UNL A   1      38.934  30.685  31.382  1.00  0.00    -0.248 NA
ATOM     43  C   UNL A   1      37.410  30.977  29.641  1.00  0.00     0.031 C 
ATOM     44  C   UNL A   1      36.898  34.010  33.624  1.00  0.00     0.029 A 
ATOM     45  N   UNL A   1      38.562  32.520  33.702  1.00  0.00    -0.354 N 
ATOM     46  C   UNL A   1      39.171  29.748  30.386  1.00  0.00     0.074 A 
ATOM     47  C   UNL A   1      38.150  29.913  29.382  1.00  0.00     0.031 C 
ATOM     48  C   UNL A   1      37.548  34.195  34.785  1.00  0.00     0.029 A 
ATOM     49  C   UNL A   1      38.645  33.235  34.872  1.00  0.00     0.049 A 
ATOM     50  H   UNL A   1      39.168  31.776  33.480  1.00  0.00     0.167 HD
ATOM     51  C   UNL A   1      40.180  28.855  30.298  1.00  0.00     0.037 A 
ATOM     52  C   UNL A   1      39.516  33.121  35.893  1.00  0.00     0.037 A 
ATOM     53  C   UNL A   1      41.201  28.721  31.298  1.00  0.00     0.049 A 
ATOM     54  C   UNL A   1      40.618  32.100  35.781  1.00  0.00     0.074 A 
ATOM     55  C   UNL A   1      42.298  27.881  31.300  1.00  0.00     0.029 A 
ATOM     56  N   UNL A   1      41.241  29.445  32.481  1.00  0.00    -0.354 N 
ATOM     57  N   UNL A   1      40.881  31.270  34.799  1.00  0.00    -0.248 NA
ATOM     58  C   UNL A   1      41.551  32.005  36.910  1.00  0.00     0.031 C 
ATOM     59  C   UNL A   1      42.958  28.042  32.520  1.00  0.00     0.029 A 
ATOM     60  C   UNL A   1      42.324  29.043  33.240  1.00  0.00     0.049 A 
ATOM     61  H   UNL A   1      40.595  30.142  32.740  1.00  0.00     0.167 HD
ATOM     62  C   UNL A   1      42.022  30.575  35.178  1.00  0.00     0.074 A 
ATOM     63  C   UNL A   1      42.414  31.101  36.470  1.00  0.00     0.031 C 
ATOM     64  C   UNL A   1      42.688  29.591  34.523  1.00  0.00     0.037 A 
BRANCH  51  65
ATOM     65  C   UNL A   1      40.207  27.955  29.097  1.00  0.00     0.064 A 
ATOM     66  C   UNL A   1      40.912  28.291  27.930  1.00  0.00     0.173 A 
ATOM     67  C   UNL A   1      39.521  26.733  29.118  1.00  0.00     0.173 A 
ATOM     68  F   UNL A   1      41.567  29.460  27.847  1.00  0.00    -0.203 F 
ATOM     69  C   UNL A   1      40.903  27.451  26.820  1.00  0.00     0.198 A 
ATOM     70  C   UNL A   1      39.546  25.877  28.021  1.00  0.00     0.198 A 
ATOM     71  F   UNL A   1      38.824  26.367  30.204  1.00  0.00    -0.203 F 
ATOM     72  F   UNL A   1      41.531  27.822  25.695  1.00  0.00    -0.200 F 
ATOM     73  C   UNL A   1      40.229  26.240  26.870  1.00  0.00     0.200 A 
ATOM     74  F   UNL A   1      38.903  24.702  28.076  1.00  0.00    -0.200 F 
ATOM     75  F   UNL A   1      40.230  25.427  25.805  1.00  0.00    -0.200 F 
ENDBRANCH  51  65
BRANCH  52  76
ATOM     76  C   UNL A   1      39.389  33.994  37.094  1.00  0.00     0.064 A 
ATOM     77  C   UNL A   1      39.952  35.278  37.130  1.00  0.00     0.173 A 
ATOM     78  C   UNL A   1      38.720  33.548  38.245  1.00  0.00     0.173 A 
ATOM     79  F   UNL A   1      40.614  35.751  36.064  1.00  0.00    -0.203 F 
ATOM     80  C   UNL A   1      39.878  36.067  38.278  1.00  0.00     0.198 A 
ATOM     81  C   UNL A   1      38.615  34.352  39.378  1.00  0.00     0.198 A 
ATOM     82  F   UNL A   1      38.157  32.332  38.266  1.00  0.00    -0.203 F 
ATOM     83  F   UNL A   1      40.475  37.267  38.304  1.00  0.00    -0.200 F 
ATOM     84  C   UNL A   1      39.205  35.605  39.399  1.00  0.00     0.200 A 
ATOM     85  F   UNL A   1      37.945  33.909  40.451  1.00  0.00    -0.200 F 
ATOM     86  F   UNL A   1      39.131  36.364  40.501  1.00  0.00    -0.200 F 
ENDBRANCH  52  76
BRANCH  64  87
ATOM     87  C   UNL A   1      43.928  29.050  35.176  1.00  0.00     0.064 A 
ATOM     88  C   UNL A   1      43.882  27.975  36.075  1.00  0.00     0.173 A 
ATOM     89  C   UNL A   1      45.185  29.587  34.856  1.00  0.00     0.173 A 
ATOM     90  F   UNL A   1      42.704  27.431  36.420  1.00  0.00    -0.203 F 
ATOM     91  C   UNL A   1      45.046  27.484  36.660  1.00  0.00     0.198 A 
ATOM     92  C   UNL A   1      46.349  29.065  35.409  1.00  0.00     0.198 A 
ATOM     93  F   UNL A   1      45.285  30.606  33.989  1.00  0.00    -0.203 F 
ATOM     94  F   UNL A   1      44.971  26.500  37.567  1.00  0.00    -0.200 F 
ATOM     95  C   UNL A   1      46.277  28.023  36.320  1.00  0.00     0.200 A 
ATOM     96  F   UNL A   1      47.539  29.572  35.060  1.00  0.00    -0.200 F 
ATOM     97  F   UNL A   1      47.397  27.543  36.878  1.00  0.00    -0.200 F 
ENDBRANCH  64  87
ENDBRANCH  38  39
ENDBRANCH  30  33
ENDBRANCH  28  29
ENDBRANCH  27  28
ENDBRANCH   1  27
TORSDOF 14
ENDMDL
