MODEL 1
REMARK VINA RESULT:     -11.9      0.000      0.000
REMARK SMILES C[C@H](Cc1ccc(N)cc1)C(=O)NCCCNC(=O)c1ccc(-c2c3nc(c(-c4c(F)c(F)c(F)c(F)c4F)c4ccc([nH]4)c(-c4c(F)c(F)c(F)c(F)c4F)c4nc(c(-c5c(F)c(F)c(F)c(F)c5F)c5ccc2[nH]5)C=C4)C=C3)cc1
REMARK SMILES IDX 14 1 13 2 11 3 12 4 2 6 1 7 3 8 4 9 5 10 10 11 6 12 9 13
REMARK SMILES IDX 7 14 8 15 15 18 16 19 17 20 18 21 19 23 20 24 21 25 82 26
REMARK SMILES IDX 22 27 81 28 23 29 24 30 25 31 75 32 26 33 80 34 74 35 76 36
REMARK SMILES IDX 27 37 79 38 73 39 72 40 28 42 60 43 40 44 59 45 41 46 44 47
REMARK SMILES IDX 58 48 77 49 42 50 43 51 57 53 78 54 45 55 29 56 30 57 38 58
REMARK SMILES IDX 31 59 32 60 36 61 39 62 33 63 34 64 37 65 35 66 61 67 62 68
REMARK SMILES IDX 70 69 63 70 64 71 68 72 71 73 65 74 66 75 69 76 67 77 46 78
REMARK SMILES IDX 47 79 55 80 48 81 49 82 53 83 56 84 50 85 51 86 54 87 52 88
REMARK H PARENT 13 5 8 16 8 17 17 22 76 41 44 52
REMARK Flexibility Score: inf
ROOT
ATOM      1  C   UNL A   1      31.457  30.618  26.456  1.00  0.00     0.117 C 
ENDROOT
BRANCH   1   2
ATOM      2  N   UNL A   1      32.141  30.161  25.263  1.00  0.00    -0.356 N 
ATOM      3  C   UNL A   1      32.966  29.096  25.068  1.00  0.00     0.223 C 
ATOM      4  O   UNL A   1      33.430  28.943  23.935  1.00  0.00    -0.275 OA
ATOM      5  H   UNL A   1      31.982  30.710  24.462  1.00  0.00     0.163 HD
BRANCH   3   6
ATOM      6  C   UNL A   1      33.301  28.107  26.184  1.00  0.00     0.079 C 
ATOM      7  C   UNL A   1      34.251  28.739  27.205  1.00  0.00     0.018 C 
BRANCH   6   8
ATOM      8  C   UNL A   1      33.655  26.713  25.622  1.00  0.00     0.048 C 
BRANCH   8   9
ATOM      9  C   UNL A   1      32.648  25.616  25.866  1.00  0.00    -0.047 A 
ATOM     10  C   UNL A   1      31.277  25.880  25.812  1.00  0.00     0.006 A 
ATOM     11  C   UNL A   1      33.067  24.321  26.193  1.00  0.00     0.006 A 
ATOM     12  C   UNL A   1      30.352  24.875  26.119  1.00  0.00     0.026 A 
ATOM     13  C   UNL A   1      32.141  23.331  26.524  1.00  0.00     0.026 A 
ATOM     14  C   UNL A   1      30.775  23.596  26.486  1.00  0.00     0.031 A 
BRANCH  14  15
ATOM     15  N   UNL A   1      29.866  22.633  26.880  1.00  0.00    -0.399 N 
ATOM     16  H   UNL A   1      30.164  21.707  27.031  1.00  0.00     0.156 HD
ATOM     17  H   UNL A   1      28.920  22.872  27.011  1.00  0.00     0.156 HD
ENDBRANCH  14  15
ENDBRANCH   8   9
ENDBRANCH   6   8
ENDBRANCH   3   6
ENDBRANCH   1   2
BRANCH   1  18
ATOM     18  C   UNL A   1      31.403  32.139  26.550  1.00  0.00     0.042 C 
BRANCH  18  19
ATOM     19  C   UNL A   1      32.605  32.742  27.261  1.00  0.00     0.118 C 
BRANCH  19  20
ATOM     20  N   UNL A   1      32.411  34.153  27.571  1.00  0.00    -0.352 N 
ATOM     21  C   UNL A   1      32.994  34.937  28.533  1.00  0.00     0.251 C 
ATOM     22  H   UNL A   1      31.757  34.617  26.999  1.00  0.00     0.163 HD
ATOM     23  O   UNL A   1      32.528  36.048  28.779  1.00  0.00    -0.269 OA
BRANCH  21  24
ATOM     24  C   UNL A   1      34.163  34.448  29.292  1.00  0.00     0.039 A 
ATOM     25  C   UNL A   1      33.960  33.858  30.542  1.00  0.00     0.014 A 
ATOM     26  C   UNL A   1      35.456  34.578  28.781  1.00  0.00     0.014 A 
ATOM     27  C   UNL A   1      35.045  33.325  31.240  1.00  0.00     0.010 A 
ATOM     28  C   UNL A   1      36.523  33.970  29.433  1.00  0.00     0.010 A 
ATOM     29  C   UNL A   1      36.328  33.333  30.669  1.00  0.00    -0.014 A 
BRANCH  29  30
ATOM     30  C   UNL A   1      37.475  32.664  31.332  1.00  0.00     0.031 A 
ATOM     31  C   UNL A   1      38.163  31.505  30.669  1.00  0.00     0.074 A 
ATOM     32  C   UNL A   1      37.845  33.055  32.568  1.00  0.00     0.049 A 
ATOM     33  N   UNL A   1      39.118  30.736  31.128  1.00  0.00    -0.248 NA
ATOM     34  C   UNL A   1      37.697  31.142  29.321  1.00  0.00     0.031 C 
ATOM     35  C   UNL A   1      37.225  34.138  33.331  1.00  0.00     0.029 A 
ATOM     36  N   UNL A   1      38.821  32.575  33.405  1.00  0.00    -0.354 N 
ATOM     37  C   UNL A   1      39.357  29.796  30.134  1.00  0.00     0.074 A 
ATOM     38  C   UNL A   1      38.411  30.054  29.072  1.00  0.00     0.031 C 
ATOM     39  C   UNL A   1      37.848  34.256  34.514  1.00  0.00     0.029 A 
ATOM     40  C   UNL A   1      38.877  33.226  34.613  1.00  0.00     0.049 A 
ATOM     41  H   UNL A   1      39.424  31.836  33.162  1.00  0.00     0.167 HD
ATOM     42  C   UNL A   1      40.298  28.821  30.103  1.00  0.00     0.037 A 
ATOM     43  C   UNL A   1      39.658  33.004  35.688  1.00  0.00     0.037 A 
ATOM     44  C   UNL A   1      41.246  28.580  31.159  1.00  0.00     0.049 A 
ATOM     45  C   UNL A   1      40.671  31.893  35.639  1.00  0.00     0.074 A 
ATOM     46  C   UNL A   1      42.276  27.656  31.198  1.00  0.00     0.029 A 
ATOM     47  N   UNL A   1      41.274  29.260  32.368  1.00  0.00    -0.354 N 
ATOM     48  N   UNL A   1      40.938  31.058  34.665  1.00  0.00    -0.248 NA
ATOM     49  C   UNL A   1      41.493  31.695  36.841  1.00  0.00     0.031 C 
ATOM     50  C   UNL A   1      42.888  27.736  32.453  1.00  0.00     0.029 A 
ATOM     51  C   UNL A   1      42.282  28.753  33.173  1.00  0.00     0.049 A 
ATOM     52  H   UNL A   1      40.668  29.995  32.617  1.00  0.00     0.167 HD
ATOM     53  C   UNL A   1      41.974  30.254  35.123  1.00  0.00     0.074 A 
ATOM     54  C   UNL A   1      42.300  30.716  36.457  1.00  0.00     0.031 C 
ATOM     55  C   UNL A   1      42.596  29.225  34.498  1.00  0.00     0.037 A 
BRANCH  42  56
ATOM     56  C   UNL A   1      40.345  27.938  28.888  1.00  0.00     0.064 A 
ATOM     57  C   UNL A   1      39.623  26.736  28.822  1.00  0.00     0.173 A 
ATOM     58  C   UNL A   1      41.088  28.318  27.761  1.00  0.00     0.173 A 
ATOM     59  F   UNL A   1      38.905  26.320  29.875  1.00  0.00    -0.203 F 
ATOM     60  C   UNL A   1      39.671  25.933  27.685  1.00  0.00     0.198 A 
ATOM     61  C   UNL A   1      41.105  27.530  26.612  1.00  0.00     0.198 A 
ATOM     62  F   UNL A   1      41.791  29.461  27.766  1.00  0.00    -0.203 F 
ATOM     63  F   UNL A   1      39.017  24.763  27.666  1.00  0.00    -0.200 F 
ATOM     64  C   UNL A   1      40.404  26.333  26.579  1.00  0.00     0.200 A 
ATOM     65  F   UNL A   1      41.802  27.927  25.539  1.00  0.00    -0.200 F 
ATOM     66  F   UNL A   1      40.441  25.565  25.483  1.00  0.00    -0.200 F 
ENDBRANCH  42  56
BRANCH  43  67
ATOM     67  C   UNL A   1      39.517  33.855  36.899  1.00  0.00     0.064 A 
ATOM     68  C   UNL A   1      38.736  33.437  37.986  1.00  0.00     0.173 A 
ATOM     69  C   UNL A   1      40.148  35.105  36.993  1.00  0.00     0.173 A 
ATOM     70  F   UNL A   1      38.096  32.260  37.937  1.00  0.00    -0.203 F 
ATOM     71  C   UNL A   1      38.571  34.246  39.109  1.00  0.00     0.198 A 
ATOM     72  C   UNL A   1      40.010  35.898  38.131  1.00  0.00     0.198 A 
ATOM     73  F   UNL A   1      40.911  35.550  35.985  1.00  0.00    -0.203 F 
ATOM     74  F   UNL A   1      37.777  33.844  40.110  1.00  0.00    -0.200 F 
ATOM     75  C   UNL A   1      39.213  35.473  39.183  1.00  0.00     0.200 A 
ATOM     76  F   UNL A   1      40.645  37.075  38.205  1.00  0.00    -0.200 F 
ATOM     77  F   UNL A   1      39.057  36.249  40.264  1.00  0.00    -0.200 F 
ENDBRANCH  43  67
BRANCH  55  78
ATOM     78  C   UNL A   1      43.713  28.545  35.238  1.00  0.00     0.064 A 
ATOM     79  C   UNL A   1      45.038  28.998  35.152  1.00  0.00     0.173 A 
ATOM     80  C   UNL A   1      43.448  27.451  36.076  1.00  0.00     0.173 A 
ATOM     81  F   UNL A   1      45.348  30.031  34.353  1.00  0.00    -0.203 F 
ATOM     82  C   UNL A   1      46.060  28.364  35.854  1.00  0.00     0.198 A 
ATOM     83  C   UNL A   1      44.466  26.841  36.804  1.00  0.00     0.198 A 
ATOM     84  F   UNL A   1      42.198  26.981  36.200  1.00  0.00    -0.203 F 
ATOM     85  F   UNL A   1      47.325  28.782  35.715  1.00  0.00    -0.200 F 
ATOM     86  C   UNL A   1      45.771  27.292  36.686  1.00  0.00     0.200 A 
ATOM     87  F   UNL A   1      44.183  25.816  37.620  1.00  0.00    -0.200 F 
ATOM     88  F   UNL A   1      46.754  26.690  37.369  1.00  0.00    -0.200 F 
ENDBRANCH  55  78
ENDBRANCH  29  30
ENDBRANCH  21  24
ENDBRANCH  19  20
ENDBRANCH  18  19
ENDBRANCH   1  18
TORSDOF 13
ENDMDL
MODEL 2
REMARK VINA RESULT:     -11.9      0.179      2.038
REMARK SMILES C[C@H](Cc1ccc(N)cc1)C(=O)NCCCNC(=O)c1ccc(-c2c3nc(c(-c4c(F)c(F)c(F)c(F)c4F)c4ccc([nH]4)c(-c4c(F)c(F)c(F)c(F)c4F)c4nc(c(-c5c(F)c(F)c(F)c(F)c5F)c5ccc2[nH]5)C=C4)C=C3)cc1
REMARK SMILES IDX 14 1 13 2 11 3 12 4 2 6 1 7 3 8 4 9 5 10 10 11 6 12 9 13
REMARK SMILES IDX 7 14 8 15 15 18 16 19 17 20 18 21 19 23 20 24 21 25 82 26
REMARK SMILES IDX 22 27 81 28 23 29 24 30 25 31 75 32 26 33 80 34 74 35 76 36
REMARK SMILES IDX 27 37 79 38 73 39 72 40 28 42 60 43 40 44 59 45 41 46 44 47
REMARK SMILES IDX 58 48 77 49 42 50 43 51 57 53 78 54 45 55 29 56 30 57 38 58
REMARK SMILES IDX 31 59 32 60 36 61 39 62 33 63 34 64 37 65 35 66 61 67 62 68
REMARK SMILES IDX 70 69 63 70 64 71 68 72 71 73 65 74 66 75 69 76 67 77 46 78
REMARK SMILES IDX 47 79 55 80 48 81 49 82 53 83 56 84 50 85 51 86 54 87 52 88
REMARK H PARENT 13 5 8 16 8 17 17 22 76 41 44 52
REMARK Flexibility Score: inf
ROOT
ATOM      1  C   UNL A   1      31.491  30.656  26.507  1.00  0.00     0.117 C 
ENDROOT
BRANCH   1   2
ATOM      2  N   UNL A   1      32.157  30.185  25.308  1.00  0.00    -0.356 N 
ATOM      3  C   UNL A   1      33.011  29.142  25.121  1.00  0.00     0.223 C 
ATOM      4  O   UNL A   1      33.449  28.971  23.981  1.00  0.00    -0.275 OA
ATOM      5  H   UNL A   1      31.958  30.705  24.497  1.00  0.00     0.163 HD
BRANCH   3   6
ATOM      6  C   UNL A   1      33.409  28.199  26.256  1.00  0.00     0.079 C 
ATOM      7  C   UNL A   1      34.387  28.882  27.217  1.00  0.00     0.018 C 
BRANCH   6   8
ATOM      8  C   UNL A   1      33.767  26.792  25.729  1.00  0.00     0.048 C 
BRANCH   8   9
ATOM      9  C   UNL A   1      32.733  25.714  25.939  1.00  0.00    -0.047 A 
ATOM     10  C   UNL A   1      31.371  25.991  25.795  1.00  0.00     0.006 A 
ATOM     11  C   UNL A   1      33.115  24.423  26.324  1.00  0.00     0.006 A 
ATOM     12  C   UNL A   1      30.416  25.005  26.071  1.00  0.00     0.026 A 
ATOM     13  C   UNL A   1      32.158  23.452  26.624  1.00  0.00     0.026 A 
ATOM     14  C   UNL A   1      30.800  23.732  26.496  1.00  0.00     0.031 A 
BRANCH  14  15
ATOM     15  N   UNL A   1      29.857  22.790  26.859  1.00  0.00    -0.399 N 
ATOM     16  H   UNL A   1      30.075  22.111  27.538  1.00  0.00     0.156 HD
ATOM     17  H   UNL A   1      28.966  22.796  26.439  1.00  0.00     0.156 HD
ENDBRANCH  14  15
ENDBRANCH   8   9
ENDBRANCH   6   8
ENDBRANCH   3   6
ENDBRANCH   1   2
BRANCH   1  18
ATOM     18  C   UNL A   1      31.438  32.178  26.584  1.00  0.00     0.042 C 
BRANCH  18  19
ATOM     19  C   UNL A   1      32.624  32.786  27.318  1.00  0.00     0.118 C 
BRANCH  19  20
ATOM     20  N   UNL A   1      32.412  34.192  27.637  1.00  0.00    -0.352 N 
ATOM     21  C   UNL A   1      32.989  34.979  28.601  1.00  0.00     0.251 C 
ATOM     22  H   UNL A   1      31.749  34.650  27.071  1.00  0.00     0.163 HD
ATOM     23  O   UNL A   1      32.509  36.082  28.856  1.00  0.00    -0.269 OA
BRANCH  21  24
ATOM     24  C   UNL A   1      34.169  34.501  29.351  1.00  0.00     0.039 A 
ATOM     25  C   UNL A   1      33.991  33.992  30.640  1.00  0.00     0.014 A 
ATOM     26  C   UNL A   1      35.447  34.563  28.794  1.00  0.00     0.014 A 
ATOM     27  C   UNL A   1      35.083  33.470  31.335  1.00  0.00     0.010 A 
ATOM     28  C   UNL A   1      36.518  33.963  29.448  1.00  0.00     0.010 A 
ATOM     29  C   UNL A   1      36.346  33.406  30.725  1.00  0.00    -0.014 A 
BRANCH  29  30
ATOM     30  C   UNL A   1      37.496  32.745  31.391  1.00  0.00     0.031 A 
ATOM     31  C   UNL A   1      38.172  31.569  30.745  1.00  0.00     0.074 A 
ATOM     32  C   UNL A   1      37.878  33.157  32.616  1.00  0.00     0.049 A 
ATOM     33  N   UNL A   1      39.127  30.804  31.210  1.00  0.00    -0.248 NA
ATOM     34  C   UNL A   1      37.693  31.183  29.408  1.00  0.00     0.031 C 
ATOM     35  C   UNL A   1      37.269  34.258  33.364  1.00  0.00     0.029 A 
ATOM     36  N   UNL A   1      38.858  32.688  33.453  1.00  0.00    -0.354 N 
ATOM     37  C   UNL A   1      39.353  29.844  30.233  1.00  0.00     0.074 A 
ATOM     38  C   UNL A   1      38.399  30.087  29.173  1.00  0.00     0.031 C 
ATOM     39  C   UNL A   1      37.904  34.395  34.539  1.00  0.00     0.029 A 
ATOM     40  C   UNL A   1      38.928  33.362  34.649  1.00  0.00     0.049 A 
ATOM     41  H   UNL A   1      39.456  31.941  33.220  1.00  0.00     0.167 HD
ATOM     42  C   UNL A   1      40.289  28.864  30.212  1.00  0.00     0.037 A 
ATOM     43  C   UNL A   1      39.717  33.157  35.721  1.00  0.00     0.037 A 
ATOM     44  C   UNL A   1      41.245  28.638  31.264  1.00  0.00     0.049 A 
ATOM     45  C   UNL A   1      40.725  32.040  35.684  1.00  0.00     0.074 A 
ATOM     46  C   UNL A   1      42.270  27.710  31.313  1.00  0.00     0.029 A 
ATOM     47  N   UNL A   1      41.286  29.342  32.460  1.00  0.00    -0.354 N 
ATOM     48  N   UNL A   1      40.979  31.185  34.724  1.00  0.00    -0.248 NA
ATOM     49  C   UNL A   1      41.556  31.861  36.883  1.00  0.00     0.031 C 
ATOM     50  C   UNL A   1      42.893  27.811  32.560  1.00  0.00     0.029 A 
ATOM     51  C   UNL A   1      42.299  28.845  33.266  1.00  0.00     0.049 A 
ATOM     52  H   UNL A   1      40.686  30.084  32.699  1.00  0.00     0.167 HD
ATOM     53  C   UNL A   1      42.015  30.384  35.190  1.00  0.00     0.074 A 
ATOM     54  C   UNL A   1      42.355  30.871  36.511  1.00  0.00     0.031 C 
ATOM     55  C   UNL A   1      42.626  29.340  34.579  1.00  0.00     0.037 A 
BRANCH  42  56
ATOM     56  C   UNL A   1      40.320  27.958  29.014  1.00  0.00     0.064 A 
ATOM     57  C   UNL A   1      41.089  28.261  27.880  1.00  0.00     0.173 A 
ATOM     58  C   UNL A   1      39.604  26.751  29.016  1.00  0.00     0.173 A 
ATOM     59  F   UNL A   1      41.785  29.407  27.821  1.00  0.00    -0.203 F 
ATOM     60  C   UNL A   1      41.114  27.407  26.781  1.00  0.00     0.198 A 
ATOM     61  C   UNL A   1      39.659  25.882  27.928  1.00  0.00     0.198 A 
ATOM     62  F   UNL A   1      38.858  26.407  30.076  1.00  0.00    -0.203 F 
ATOM     63  F   UNL A   1      41.813  27.744  25.688  1.00  0.00    -0.200 F 
ATOM     64  C   UNL A   1      40.407  26.215  26.808  1.00  0.00     0.200 A 
ATOM     65  F   UNL A   1      38.987  24.724  27.964  1.00  0.00    -0.200 F 
ATOM     66  F   UNL A   1      40.439  25.389  25.754  1.00  0.00    -0.200 F 
ENDBRANCH  42  56
BRANCH  43  67
ATOM     67  C   UNL A   1      39.591  34.032  36.916  1.00  0.00     0.064 A 
ATOM     68  C   UNL A   1      40.259  35.263  36.981  1.00  0.00     0.173 A 
ATOM     69  C   UNL A   1      38.812  33.655  38.021  1.00  0.00     0.173 A 
ATOM     70  F   UNL A   1      41.034  35.659  35.960  1.00  0.00    -0.203 F 
ATOM     71  C   UNL A   1      40.174  36.070  38.113  1.00  0.00     0.198 A 
ATOM     72  C   UNL A   1      38.700  34.480  39.138  1.00  0.00     0.198 A 
ATOM     73  F   UNL A   1      38.147  32.491  38.008  1.00  0.00    -0.203 F 
ATOM     74  F   UNL A   1      40.866  37.217  38.169  1.00  0.00    -0.200 F 
ATOM     75  C   UNL A   1      39.390  35.682  39.188  1.00  0.00     0.200 A 
ATOM     76  F   UNL A   1      37.927  34.108  40.168  1.00  0.00    -0.200 F 
ATOM     77  F   UNL A   1      39.305  36.461  40.275  1.00  0.00    -0.200 F 
ENDBRANCH  43  67
BRANCH  55  78
ATOM     78  C   UNL A   1      43.746  28.669  35.322  1.00  0.00     0.064 A 
ATOM     79  C   UNL A   1      43.508  27.628  36.232  1.00  0.00     0.173 A 
ATOM     80  C   UNL A   1      45.078  29.043  35.089  1.00  0.00     0.173 A 
ATOM     81  F   UNL A   1      42.252  27.241  36.502  1.00  0.00    -0.203 F 
ATOM     82  C   UNL A   1      44.559  27.008  36.903  1.00  0.00     0.198 A 
ATOM     83  C   UNL A   1      46.129  28.398  35.735  1.00  0.00     0.198 A 
ATOM     84  F   UNL A   1      45.362  30.028  34.224  1.00  0.00    -0.203 F 
ATOM     85  F   UNL A   1      44.303  26.053  37.807  1.00  0.00    -0.200 F 
ATOM     86  C   UNL A   1      45.868  27.388  36.647  1.00  0.00     0.200 A 
ATOM     87  F   UNL A   1      47.395  28.755  35.474  1.00  0.00    -0.200 F 
ATOM     88  F   UNL A   1      46.879  26.783  37.286  1.00  0.00    -0.200 F 
ENDBRANCH  55  78
ENDBRANCH  29  30
ENDBRANCH  21  24
ENDBRANCH  19  20
ENDBRANCH  18  19
ENDBRANCH   1  18
TORSDOF 13
ENDMDL
MODEL 3
REMARK VINA RESULT:     -11.7      3.744      9.775
REMARK SMILES C[C@H](Cc1ccc(N)cc1)C(=O)NCCCNC(=O)c1ccc(-c2c3nc(c(-c4c(F)c(F)c(F)c(F)c4F)c4ccc([nH]4)c(-c4c(F)c(F)c(F)c(F)c4F)c4nc(c(-c5c(F)c(F)c(F)c(F)c5F)c5ccc2[nH]5)C=C4)C=C3)cc1
REMARK SMILES IDX 14 1 13 2 11 3 12 4 2 6 1 7 3 8 4 9 5 10 10 11 6 12 9 13
REMARK SMILES IDX 7 14 8 15 15 18 16 19 17 20 18 21 19 23 20 24 21 25 82 26
REMARK SMILES IDX 22 27 81 28 23 29 24 30 25 31 75 32 26 33 80 34 74 35 76 36
REMARK SMILES IDX 27 37 79 38 73 39 72 40 28 42 60 43 40 44 59 45 41 46 44 47
REMARK SMILES IDX 58 48 77 49 42 50 43 51 57 53 78 54 45 55 29 56 30 57 38 58
REMARK SMILES IDX 31 59 32 60 36 61 39 62 33 63 34 64 37 65 35 66 61 67 62 68
REMARK SMILES IDX 70 69 63 70 64 71 68 72 71 73 65 74 66 75 69 76 67 77 46 78
REMARK SMILES IDX 47 79 55 80 48 81 49 82 53 83 56 84 50 85 51 86 54 87 52 88
REMARK H PARENT 13 5 8 16 8 17 17 22 76 41 44 52
REMARK Flexibility Score: inf
ROOT
ATOM      1  C   UNL A   1      33.283  34.795  29.142  1.00  0.00     0.117 C 
ENDROOT
BRANCH   1   2
ATOM      2  N   UNL A   1      33.176  36.154  29.636  1.00  0.00    -0.356 N 
ATOM      3  C   UNL A   1      32.965  36.625  30.895  1.00  0.00     0.223 C 
ATOM      4  O   UNL A   1      32.903  37.849  31.036  1.00  0.00    -0.275 OA
ATOM      5  H   UNL A   1      33.272  36.850  28.947  1.00  0.00     0.163 HD
BRANCH   3   6
ATOM      6  C   UNL A   1      32.827  35.698  32.102  1.00  0.00     0.079 C 
ATOM      7  C   UNL A   1      31.464  35.878  32.776  1.00  0.00     0.018 C 
BRANCH   6   8
ATOM      8  C   UNL A   1      34.090  35.726  32.990  1.00  0.00     0.048 C 
BRANCH   8   9
ATOM      9  C   UNL A   1      34.927  34.472  33.007  1.00  0.00    -0.047 A 
ATOM     10  C   UNL A   1      34.793  33.509  32.003  1.00  0.00     0.006 A 
ATOM     11  C   UNL A   1      35.825  34.225  34.053  1.00  0.00     0.006 A 
ATOM     12  C   UNL A   1      35.516  32.312  32.071  1.00  0.00     0.026 A 
ATOM     13  C   UNL A   1      36.522  33.019  34.129  1.00  0.00     0.026 A 
ATOM     14  C   UNL A   1      36.378  32.052  33.137  1.00  0.00     0.031 A 
BRANCH  14  15
ATOM     15  N   UNL A   1      37.017  30.833  33.253  1.00  0.00    -0.399 N 
ATOM     16  H   UNL A   1      36.732  30.073  32.696  1.00  0.00     0.156 HD
ATOM     17  H   UNL A   1      37.758  30.723  33.892  1.00  0.00     0.156 HD
ENDBRANCH  14  15
ENDBRANCH   8   9
ENDBRANCH   6   8
ENDBRANCH   3   6
ENDBRANCH   1   2
BRANCH   1  18
ATOM     18  C   UNL A   1      34.453  34.615  28.181  1.00  0.00     0.042 C 
BRANCH  18  19
ATOM     19  C   UNL A   1      35.110  33.247  28.283  1.00  0.00     0.118 C 
BRANCH  19  20
ATOM     20  N   UNL A   1      34.198  32.170  27.914  1.00  0.00    -0.352 N 
ATOM     21  C   UNL A   1      34.434  30.831  27.737  1.00  0.00     0.251 C 
ATOM     22  H   UNL A   1      33.265  32.449  27.769  1.00  0.00     0.163 HD
ATOM     23  O   UNL A   1      33.579  30.126  27.205  1.00  0.00    -0.269 OA
BRANCH  21  24
ATOM     24  C   UNL A   1      35.717  30.233  28.160  1.00  0.00     0.039 A 
ATOM     25  C   UNL A   1      36.778  30.194  27.251  1.00  0.00     0.014 A 
ATOM     26  C   UNL A   1      35.874  29.704  29.442  1.00  0.00     0.014 A 
ATOM     27  C   UNL A   1      38.019  29.699  27.657  1.00  0.00     0.010 A 
ATOM     28  C   UNL A   1      37.132  29.294  29.874  1.00  0.00     0.010 A 
ATOM     29  C   UNL A   1      38.219  29.292  28.986  1.00  0.00    -0.014 A 
BRANCH  29  30
ATOM     30  C   UNL A   1      39.558  28.879  29.476  1.00  0.00     0.031 A 
ATOM     31  C   UNL A   1      40.329  29.767  30.412  1.00  0.00     0.074 A 
ATOM     32  C   UNL A   1      40.110  27.740  29.014  1.00  0.00     0.049 A 
ATOM     33  N   UNL A   1      41.545  29.624  30.875  1.00  0.00    -0.248 NA
ATOM     34  C   UNL A   1      39.654  30.992  30.867  1.00  0.00     0.031 C 
ATOM     35  C   UNL A   1      39.478  26.819  28.069  1.00  0.00     0.029 A 
ATOM     36  N   UNL A   1      41.333  27.171  29.264  1.00  0.00    -0.354 N 
ATOM     37  C   UNL A   1      41.783  30.743  31.662  1.00  0.00     0.074 A 
ATOM     38  C   UNL A   1      40.609  31.582  31.570  1.00  0.00     0.031 C 
ATOM     39  C   UNL A   1      40.307  25.789  27.836  1.00  0.00     0.029 A 
ATOM     40  C   UNL A   1      41.548  26.003  28.575  1.00  0.00     0.049 A 
ATOM     41  H   UNL A   1      41.994  27.562  29.881  1.00  0.00     0.167 HD
ATOM     42  C   UNL A   1      42.875  31.030  32.412  1.00  0.00     0.037 A 
ATOM     43  C   UNL A   1      42.630  25.203  28.529  1.00  0.00     0.037 A 
ATOM     44  C   UNL A   1      44.034  30.182  32.509  1.00  0.00     0.049 A 
ATOM     45  C   UNL A   1      43.841  25.564  29.345  1.00  0.00     0.074 A 
ATOM     46  C   UNL A   1      45.165  30.355  33.286  1.00  0.00     0.029 A 
ATOM     47  N   UNL A   1      44.215  29.005  31.797  1.00  0.00    -0.354 N 
ATOM     48  N   UNL A   1      44.027  26.586  30.144  1.00  0.00    -0.248 NA
ATOM     49  C   UNL A   1      44.994  24.657  29.254  1.00  0.00     0.031 C 
ATOM     50  C   UNL A   1      46.056  29.316  33.000  1.00  0.00     0.029 A 
ATOM     51  C   UNL A   1      45.455  28.460  32.092  1.00  0.00     0.049 A 
ATOM     52  H   UNL A   1      43.559  28.615  31.175  1.00  0.00     0.167 HD
ATOM     53  C   UNL A   1      45.303  26.433  30.670  1.00  0.00     0.074 A 
ATOM     54  C   UNL A   1      45.838  25.207  30.115  1.00  0.00     0.031 C 
ATOM     55  C   UNL A   1      45.973  27.237  31.532  1.00  0.00     0.037 A 
BRANCH  42  56
ATOM     56  C   UNL A   1      42.868  32.319  33.183  1.00  0.00     0.064 A 
ATOM     57  C   UNL A   1      43.335  33.518  32.622  1.00  0.00     0.173 A 
ATOM     58  C   UNL A   1      42.352  32.366  34.487  1.00  0.00     0.173 A 
ATOM     59  F   UNL A   1      43.848  33.528  31.382  1.00  0.00    -0.203 F 
ATOM     60  C   UNL A   1      43.315  34.706  33.348  1.00  0.00     0.198 A 
ATOM     61  C   UNL A   1      42.301  33.563  35.198  1.00  0.00     0.198 A 
ATOM     62  F   UNL A   1      41.886  31.252  35.072  1.00  0.00    -0.203 F 
ATOM     63  F   UNL A   1      43.816  35.827  32.809  1.00  0.00    -0.200 F 
ATOM     64  C   UNL A   1      42.791  34.730  34.631  1.00  0.00     0.200 A 
ATOM     65  F   UNL A   1      41.780  33.586  36.432  1.00  0.00    -0.200 F 
ATOM     66  F   UNL A   1      42.763  35.875  35.325  1.00  0.00    -0.200 F 
ENDBRANCH  42  56
BRANCH  43  67
ATOM     67  C   UNL A   1      42.616  23.979  27.685  1.00  0.00     0.064 A 
ATOM     68  C   UNL A   1      42.246  22.738  28.222  1.00  0.00     0.173 A 
ATOM     69  C   UNL A   1      42.981  24.019  26.330  1.00  0.00     0.173 A 
ATOM     70  F   UNL A   1      41.909  22.643  29.517  1.00  0.00    -0.203 F 
ATOM     71  C   UNL A   1      42.266  21.581  27.445  1.00  0.00     0.198 A 
ATOM     72  C   UNL A   1      42.967  22.867  25.546  1.00  0.00     0.198 A 
ATOM     73  F   UNL A   1      43.337  25.181  25.765  1.00  0.00    -0.203 F 
ATOM     74  F   UNL A   1      41.958  20.400  27.999  1.00  0.00    -0.200 F 
ATOM     75  C   UNL A   1      42.620  21.647  26.107  1.00  0.00     0.200 A 
ATOM     76  F   UNL A   1      43.294  22.939  24.249  1.00  0.00    -0.200 F 
ATOM     77  F   UNL A   1      42.635  20.535  25.359  1.00  0.00    -0.200 F 
ENDBRANCH  43  67
BRANCH  55  78
ATOM     78  C   UNL A   1      47.348  26.802  31.952  1.00  0.00     0.064 A 
ATOM     79  C   UNL A   1      48.500  27.273  31.304  1.00  0.00     0.173 A 
ATOM     80  C   UNL A   1      47.518  25.935  33.042  1.00  0.00     0.173 A 
ATOM     81  F   UNL A   1      48.394  28.092  30.247  1.00  0.00    -0.203 F 
ATOM     82  C   UNL A   1      49.769  26.868  31.714  1.00  0.00     0.198 A 
ATOM     83  C   UNL A   1      48.787  25.561  33.471  1.00  0.00     0.198 A 
ATOM     84  F   UNL A   1      46.450  25.460  33.701  1.00  0.00    -0.203 F 
ATOM     85  F   UNL A   1      50.851  27.290  31.047  1.00  0.00    -0.200 F 
ATOM     86  C   UNL A   1      49.911  26.021  32.802  1.00  0.00     0.200 A 
ATOM     87  F   UNL A   1      48.924  24.754  34.533  1.00  0.00    -0.200 F 
ATOM     88  F   UNL A   1      51.133  25.642  33.202  1.00  0.00    -0.200 F 
ENDBRANCH  55  78
ENDBRANCH  29  30
ENDBRANCH  21  24
ENDBRANCH  19  20
ENDBRANCH  18  19
ENDBRANCH   1  18
TORSDOF 13
ENDMDL
