MODEL 1
REMARK VINA RESULT:     -11.1      0.000      0.000
REMARK SMILES Cc1csc(C[N@@H+](CC(=O)NCCCNC(=O)c2ccc(-c3c4nc(c(-c5c(F)c(F)c(F)c(F)c5F)c5ccc([nH]5)c(-c5c(F)c(F)c(F)c(F)c5F)c5nc(c(-c6c(F)c(F)c(F)c(F)c6F)c6ccc3[nH]6)C=C5)C=C4)cc2)C(C)(C)C)n1
REMARK SMILES IDX 12 1 11 2 9 3 10 4 8 6 7 7 6 9 5 10 1 11 2 12 3 13 85 14
REMARK SMILES IDX 4 15 81 16 82 17 83 18 84 19 13 20 14 21 15 22 16 23 17 25
REMARK SMILES IDX 18 26 19 27 80 28 20 29 79 30 21 31 22 32 23 33 73 34 24 35
REMARK SMILES IDX 78 36 72 37 74 38 25 39 77 40 71 41 70 42 26 44 58 45 38 46
REMARK SMILES IDX 57 47 39 48 42 49 56 50 75 51 40 52 41 53 55 55 76 56 43 57
REMARK SMILES IDX 27 58 28 59 36 60 29 61 30 62 34 63 37 64 31 65 32 66 35 67
REMARK SMILES IDX 33 68 59 69 60 70 68 71 61 72 62 73 66 74 69 75 63 76 64 77
REMARK SMILES IDX 67 78 65 79 44 80 45 81 53 82 46 83 47 84 51 85 54 86 48 87
REMARK SMILES IDX 49 88 52 89 50 90
REMARK H PARENT 11 5 7 8 15 24 74 43 42 54
REMARK Flexibility Score: inf
ROOT
ATOM      1  C   UNL A   1      45.182  24.456  39.169  1.00  0.00     0.118 C 
ENDROOT
BRANCH   1   2
ATOM      2  N   UNL A   1      44.928  23.278  39.982  1.00  0.00    -0.351 N 
ATOM      3  C   UNL A   1      45.530  22.055  40.043  1.00  0.00     0.275 C 
ATOM      4  O   UNL A   1      45.134  21.307  40.944  1.00  0.00    -0.269 OA
ATOM      5  H   UNL A   1      44.177  23.383  40.610  1.00  0.00     0.163 HD
BRANCH   3   6
ATOM      6  C   UNL A   1      46.670  21.618  39.106  1.00  0.00     0.364 C 
BRANCH   6   7
ATOM      7  N   UNL A   1      46.406  20.467  38.187  1.00  0.00    -0.317 N 
ATOM      8  H   UNL A   1      45.404  20.282  38.130  1.00  0.00     0.349 HD
BRANCH   7   9
ATOM      9  C   UNL A   1      46.957  19.238  38.781  1.00  0.00     0.331 C 
BRANCH   9  10
ATOM     10  C   UNL A   1      46.096  18.160  39.379  1.00  0.00     0.147 A 
ATOM     11  C   UNL A   1      43.258  15.953  39.176  1.00  0.00     0.067 C 
ATOM     12  C   UNL A   1      44.428  16.723  39.664  1.00  0.00     0.049 A 
ATOM     13  C   UNL A   1      44.925  16.731  40.952  1.00  0.00     0.090 A 
ATOM     14  N   UNL A   1      45.099  17.546  38.772  1.00  0.00    -0.240 NA
ATOM     15  S   UNL A   1      46.248  17.803  41.068  1.00  0.00    -0.121 S 
ENDBRANCH   9  10
ENDBRANCH   7   9
BRANCH   7  16
ATOM     16  C   UNL A   1      46.467  20.726  36.724  1.00  0.00     0.090 C 
ATOM     17  C   UNL A   1      45.630  19.752  35.869  1.00  0.00     0.078 C 
ATOM     18  C   UNL A   1      45.998  22.158  36.360  1.00  0.00     0.078 C 
ATOM     19  C   UNL A   1      47.942  20.676  36.242  1.00  0.00     0.078 C 
ENDBRANCH   7  16
ENDBRANCH   6   7
ENDBRANCH   3   6
ENDBRANCH   1   2
BRANCH   1  20
ATOM     20  C   UNL A   1      46.225  25.381  39.806  1.00  0.00     0.042 C 
BRANCH  20  21
ATOM     21  C   UNL A   1      46.756  26.478  38.895  1.00  0.00     0.118 C 
BRANCH  21  22
ATOM     22  N   UNL A   1      47.678  25.976  37.892  1.00  0.00    -0.352 N 
ATOM     23  C   UNL A   1      47.556  25.808  36.534  1.00  0.00     0.251 C 
ATOM     24  H   UNL A   1      48.553  25.704  38.253  1.00  0.00     0.163 HD
ATOM     25  O   UNL A   1      48.437  25.182  35.947  1.00  0.00    -0.269 OA
BRANCH  23  26
ATOM     26  C   UNL A   1      46.405  26.333  35.749  1.00  0.00     0.039 A 
ATOM     27  C   UNL A   1      46.558  27.570  35.106  1.00  0.00     0.014 A 
ATOM     28  C   UNL A   1      45.156  25.710  35.712  1.00  0.00     0.014 A 
ATOM     29  C   UNL A   1      45.491  28.152  34.409  1.00  0.00     0.010 A 
ATOM     30  C   UNL A   1      44.117  26.246  34.943  1.00  0.00     0.010 A 
ATOM     31  C   UNL A   1      44.264  27.483  34.301  1.00  0.00    -0.014 A 
BRANCH  31  32
ATOM     32  C   UNL A   1      43.115  28.084  33.566  1.00  0.00     0.031 A 
ATOM     33  C   UNL A   1      42.894  27.765  32.109  1.00  0.00     0.074 A 
ATOM     34  C   UNL A   1      42.292  28.953  34.185  1.00  0.00     0.049 A 
ATOM     35  N   UNL A   1      42.007  28.254  31.275  1.00  0.00    -0.248 NA
ATOM     36  C   UNL A   1      43.807  26.785  31.502  1.00  0.00     0.031 C 
ATOM     37  C   UNL A   1      42.406  29.377  35.580  1.00  0.00     0.029 A 
ATOM     38  N   UNL A   1      41.201  29.645  33.715  1.00  0.00    -0.354 N 
ATOM     39  C   UNL A   1      42.276  27.664  30.046  1.00  0.00     0.074 A 
ATOM     40  C   UNL A   1      43.431  26.813  30.231  1.00  0.00     0.031 C 
ATOM     41  C   UNL A   1      41.415  30.240  35.860  1.00  0.00     0.029 A 
ATOM     42  C   UNL A   1      40.617  30.458  34.656  1.00  0.00     0.049 A 
ATOM     43  H   UNL A   1      40.869  29.565  32.792  1.00  0.00     0.167 HD
ATOM     44  C   UNL A   1      41.611  27.802  28.874  1.00  0.00     0.037 A 
ATOM     45  C   UNL A   1      39.564  31.293  34.558  1.00  0.00     0.037 A 
ATOM     46  C   UNL A   1      40.433  28.608  28.695  1.00  0.00     0.049 A 
ATOM     47  C   UNL A   1      38.832  31.416  33.250  1.00  0.00     0.074 A 
ATOM     48  C   UNL A   1      39.652  28.758  27.560  1.00  0.00     0.029 A 
ATOM     49  N   UNL A   1      39.859  29.396  29.680  1.00  0.00    -0.354 N 
ATOM     50  N   UNL A   1      39.069  30.817  32.109  1.00  0.00    -0.248 NA
ATOM     51  C   UNL A   1      37.680  32.330  33.218  1.00  0.00     0.031 C 
ATOM     52  C   UNL A   1      38.625  29.662  27.851  1.00  0.00     0.029 A 
ATOM     53  C   UNL A   1      38.743  30.046  29.176  1.00  0.00     0.049 A 
ATOM     54  H   UNL A   1      40.194  29.482  30.602  1.00  0.00     0.167 HD
ATOM     55  C   UNL A   1      38.086  31.259  31.234  1.00  0.00     0.074 A 
ATOM     56  C   UNL A   1      37.241  32.169  31.978  1.00  0.00     0.031 C 
ATOM     57  C   UNL A   1      37.903  30.940  29.931  1.00  0.00     0.037 A 
BRANCH  44  58
ATOM     58  C   UNL A   1      42.140  27.056  27.684  1.00  0.00     0.064 A 
ATOM     59  C   UNL A   1      43.105  27.616  26.834  1.00  0.00     0.173 A 
ATOM     60  C   UNL A   1      41.705  25.749  27.411  1.00  0.00     0.173 A 
ATOM     61  F   UNL A   1      43.546  28.865  27.045  1.00  0.00    -0.203 F 
ATOM     62  C   UNL A   1      43.594  26.907  25.740  1.00  0.00     0.198 A 
ATOM     63  C   UNL A   1      42.217  25.034  26.332  1.00  0.00     0.198 A 
ATOM     64  F   UNL A   1      40.789  25.164  28.197  1.00  0.00    -0.203 F 
ATOM     65  F   UNL A   1      44.482  27.481  24.915  1.00  0.00    -0.200 F 
ATOM     66  C   UNL A   1      43.155  25.615  25.493  1.00  0.00     0.200 A 
ATOM     67  F   UNL A   1      41.800  23.781  26.103  1.00  0.00    -0.200 F 
ATOM     68  F   UNL A   1      43.631  24.933  24.442  1.00  0.00    -0.200 F 
ENDBRANCH  44  58
BRANCH  45  69
ATOM     69  C   UNL A   1      39.122  32.065  35.748  1.00  0.00     0.064 A 
ATOM     70  C   UNL A   1      39.568  33.378  35.957  1.00  0.00     0.173 A 
ATOM     71  C   UNL A   1      38.252  31.512  36.697  1.00  0.00     0.173 A 
ATOM     72  F   UNL A   1      40.420  33.942  35.088  1.00  0.00    -0.203 F 
ATOM     73  C   UNL A   1      39.171  34.102  37.079  1.00  0.00     0.198 A 
ATOM     74  C   UNL A   1      37.836  32.245  37.805  1.00  0.00     0.198 A 
ATOM     75  F   UNL A   1      37.795  30.260  36.540  1.00  0.00    -0.203 F 
ATOM     76  F   UNL A   1      39.643  35.341  37.275  1.00  0.00    -0.200 F 
ATOM     77  C   UNL A   1      38.301  33.537  37.999  1.00  0.00     0.200 A 
ATOM     78  F   UNL A   1      36.984  31.702  38.685  1.00  0.00    -0.200 F 
ATOM     79  F   UNL A   1      37.915  34.236  39.076  1.00  0.00    -0.200 F 
ENDBRANCH  45  69
BRANCH  57  80
ATOM     80  C   UNL A   1      36.726  31.550  29.230  1.00  0.00     0.064 A 
ATOM     81  C   UNL A   1      35.597  30.789  28.893  1.00  0.00     0.173 A 
ATOM     82  C   UNL A   1      36.712  32.920  28.928  1.00  0.00     0.173 A 
ATOM     83  F   UNL A   1      35.571  29.473  29.146  1.00  0.00    -0.203 F 
ATOM     84  C   UNL A   1      34.503  31.376  28.261  1.00  0.00     0.198 A 
ATOM     85  C   UNL A   1      35.607  33.507  28.318  1.00  0.00     0.198 A 
ATOM     86  F   UNL A   1      37.766  33.691  29.233  1.00  0.00    -0.203 F 
ATOM     87  F   UNL A   1      33.451  30.623  27.914  1.00  0.00    -0.200 F 
ATOM     88  C   UNL A   1      34.506  32.735  27.981  1.00  0.00     0.200 A 
ATOM     89  F   UNL A   1      35.607  34.822  28.057  1.00  0.00    -0.200 F 
ATOM     90  F   UNL A   1      33.450  33.297  27.378  1.00  0.00    -0.200 F 
ENDBRANCH  57  80
ENDBRANCH  31  32
ENDBRANCH  23  26
ENDBRANCH  21  22
ENDBRANCH  20  21
ENDBRANCH   1  20
TORSDOF 14
ENDMDL
MODEL 2
REMARK VINA RESULT:     -10.9      0.119      2.052
REMARK SMILES Cc1csc(C[N@@H+](CC(=O)NCCCNC(=O)c2ccc(-c3c4nc(c(-c5c(F)c(F)c(F)c(F)c5F)c5ccc([nH]5)c(-c5c(F)c(F)c(F)c(F)c5F)c5nc(c(-c6c(F)c(F)c(F)c(F)c6F)c6ccc3[nH]6)C=C5)C=C4)cc2)C(C)(C)C)n1
REMARK SMILES IDX 12 1 11 2 9 3 10 4 8 6 7 7 6 9 5 10 1 11 2 12 3 13 85 14
REMARK SMILES IDX 4 15 81 16 82 17 83 18 84 19 13 20 14 21 15 22 16 23 17 25
REMARK SMILES IDX 18 26 19 27 80 28 20 29 79 30 21 31 22 32 23 33 73 34 24 35
REMARK SMILES IDX 78 36 72 37 74 38 25 39 77 40 71 41 70 42 26 44 58 45 38 46
REMARK SMILES IDX 57 47 39 48 42 49 56 50 75 51 40 52 41 53 55 55 76 56 43 57
REMARK SMILES IDX 27 58 28 59 36 60 29 61 30 62 34 63 37 64 31 65 32 66 35 67
REMARK SMILES IDX 33 68 59 69 60 70 68 71 61 72 62 73 66 74 69 75 63 76 64 77
REMARK SMILES IDX 67 78 65 79 44 80 45 81 53 82 46 83 47 84 51 85 54 86 48 87
REMARK SMILES IDX 49 88 52 89 50 90
REMARK H PARENT 11 5 7 8 15 24 74 43 42 54
REMARK Flexibility Score: inf
ROOT
ATOM      1  C   UNL A   1      45.233  24.389  39.173  1.00  0.00     0.118 C 
ENDROOT
BRANCH   1   2
ATOM      2  N   UNL A   1      44.994  23.185  39.951  1.00  0.00    -0.351 N 
ATOM      3  C   UNL A   1      45.616  21.971  39.983  1.00  0.00     0.275 C 
ATOM      4  O   UNL A   1      45.227  21.192  40.860  1.00  0.00    -0.269 OA
ATOM      5  H   UNL A   1      44.237  23.259  40.576  1.00  0.00     0.163 HD
BRANCH   3   6
ATOM      6  C   UNL A   1      46.770  21.580  39.044  1.00  0.00     0.364 C 
BRANCH   6   7
ATOM      7  N   UNL A   1      46.535  20.446  38.096  1.00  0.00    -0.317 N 
ATOM      8  H   UNL A   1      45.537  20.249  38.020  1.00  0.00     0.349 HD
BRANCH   7   9
ATOM      9  C   UNL A   1      47.095  19.211  38.672  1.00  0.00     0.331 C 
BRANCH   9  10
ATOM     10  C   UNL A   1      46.242  18.131  39.278  1.00  0.00     0.147 A 
ATOM     11  C   UNL A   1      43.271  16.097  39.231  1.00  0.00     0.067 C 
ATOM     12  C   UNL A   1      44.533  16.762  39.639  1.00  0.00     0.049 A 
ATOM     13  C   UNL A   1      45.170  16.634  40.857  1.00  0.00     0.090 A 
ATOM     14  N   UNL A   1      45.149  17.623  38.744  1.00  0.00    -0.240 NA
ATOM     15  S   UNL A   1      46.560  17.624  40.904  1.00  0.00    -0.121 S 
ENDBRANCH   9  10
ENDBRANCH   7   9
BRANCH   7  16
ATOM     16  C   UNL A   1      46.614  20.737  36.640  1.00  0.00     0.090 C 
ATOM     17  C   UNL A   1      48.035  20.646  36.047  1.00  0.00     0.078 C 
ATOM     18  C   UNL A   1      45.716  19.791  35.802  1.00  0.00     0.078 C 
ATOM     19  C   UNL A   1      46.041  22.152  36.355  1.00  0.00     0.078 C 
ENDBRANCH   7  16
ENDBRANCH   6   7
ENDBRANCH   3   6
ENDBRANCH   1   2
BRANCH   1  20
ATOM     20  C   UNL A   1      46.296  25.287  39.813  1.00  0.00     0.042 C 
BRANCH  20  21
ATOM     21  C   UNL A   1      46.828  26.397  38.918  1.00  0.00     0.118 C 
BRANCH  21  22
ATOM     22  N   UNL A   1      47.750  25.909  37.909  1.00  0.00    -0.352 N 
ATOM     23  C   UNL A   1      47.627  25.755  36.549  1.00  0.00     0.251 C 
ATOM     24  H   UNL A   1      48.627  25.637  38.266  1.00  0.00     0.163 HD
ATOM     25  O   UNL A   1      48.509  25.138  35.954  1.00  0.00    -0.269 OA
BRANCH  23  26
ATOM     26  C   UNL A   1      46.473  26.282  35.772  1.00  0.00     0.039 A 
ATOM     27  C   UNL A   1      46.632  27.508  35.109  1.00  0.00     0.014 A 
ATOM     28  C   UNL A   1      45.216  25.675  35.759  1.00  0.00     0.014 A 
ATOM     29  C   UNL A   1      45.564  28.093  34.417  1.00  0.00     0.010 A 
ATOM     30  C   UNL A   1      44.173  26.213  34.996  1.00  0.00     0.010 A 
ATOM     31  C   UNL A   1      44.327  27.439  34.334  1.00  0.00    -0.014 A 
BRANCH  31  32
ATOM     32  C   UNL A   1      43.176  28.044  33.606  1.00  0.00     0.031 A 
ATOM     33  C   UNL A   1      42.942  27.719  32.152  1.00  0.00     0.074 A 
ATOM     34  C   UNL A   1      42.364  28.921  34.227  1.00  0.00     0.049 A 
ATOM     35  N   UNL A   1      42.052  28.210  31.322  1.00  0.00    -0.248 NA
ATOM     36  C   UNL A   1      43.844  26.730  31.542  1.00  0.00     0.031 C 
ATOM     37  C   UNL A   1      42.491  29.350  35.619  1.00  0.00     0.029 A 
ATOM     38  N   UNL A   1      41.273  29.617  33.762  1.00  0.00    -0.354 N 
ATOM     39  C   UNL A   1      42.308  27.613  30.094  1.00  0.00     0.074 A 
ATOM     40  C   UNL A   1      43.459  26.755  30.274  1.00  0.00     0.031 C 
ATOM     41  C   UNL A   1      41.507  30.220  35.903  1.00  0.00     0.029 A 
ATOM     42  C   UNL A   1      40.702  30.438  34.704  1.00  0.00     0.049 A 
ATOM     43  H   UNL A   1      40.934  29.534  32.842  1.00  0.00     0.167 HD
ATOM     44  C   UNL A   1      41.635  27.749  28.926  1.00  0.00     0.037 A 
ATOM     45  C   UNL A   1      39.653  31.279  34.610  1.00  0.00     0.037 A 
ATOM     46  C   UNL A   1      40.460  28.562  28.753  1.00  0.00     0.049 A 
ATOM     47  C   UNL A   1      38.912  31.401  33.307  1.00  0.00     0.074 A 
ATOM     48  C   UNL A   1      39.672  28.712  27.623  1.00  0.00     0.029 A 
ATOM     49  N   UNL A   1      39.899  29.358  29.738  1.00  0.00    -0.354 N 
ATOM     50  N   UNL A   1      39.137  30.795  32.167  1.00  0.00    -0.248 NA
ATOM     51  C   UNL A   1      37.766  32.321  33.280  1.00  0.00     0.031 C 
ATOM     52  C   UNL A   1      38.652  29.623  27.918  1.00  0.00     0.029 A 
ATOM     53  C   UNL A   1      38.783  30.012  29.240  1.00  0.00     0.049 A 
ATOM     54  H   UNL A   1      40.242  29.446  30.658  1.00  0.00     0.167 HD
ATOM     55  C   UNL A   1      38.150  31.239  31.298  1.00  0.00     0.074 A 
ATOM     56  C   UNL A   1      37.315  32.157  32.043  1.00  0.00     0.031 C 
ATOM     57  C   UNL A   1      37.955  30.915  29.997  1.00  0.00     0.037 A 
BRANCH  44  58
ATOM     58  C   UNL A   1      42.150  26.994  27.736  1.00  0.00     0.064 A 
ATOM     59  C   UNL A   1      41.695  25.703  27.431  1.00  0.00     0.173 A 
ATOM     60  C   UNL A   1      43.081  27.583  26.867  1.00  0.00     0.173 A 
ATOM     61  F   UNL A   1      40.812  25.091  28.235  1.00  0.00    -0.203 F 
ATOM     62  C   UNL A   1      42.173  25.019  26.317  1.00  0.00     0.198 A 
ATOM     63  C   UNL A   1      43.536  26.907  25.739  1.00  0.00     0.198 A 
ATOM     64  F   UNL A   1      43.543  28.819  27.109  1.00  0.00    -0.203 F 
ATOM     65  F   UNL A   1      41.759  23.768  26.071  1.00  0.00    -0.200 F 
ATOM     66  C   UNL A   1      43.089  25.623  25.468  1.00  0.00     0.200 A 
ATOM     67  F   UNL A   1      44.413  27.497  24.914  1.00  0.00    -0.200 F 
ATOM     68  F   UNL A   1      43.545  24.965  24.394  1.00  0.00    -0.200 F 
ENDBRANCH  44  58
BRANCH  45  69
ATOM     69  C   UNL A   1      39.225  32.060  35.800  1.00  0.00     0.064 A 
ATOM     70  C   UNL A   1      38.321  31.519  36.725  1.00  0.00     0.173 A 
ATOM     71  C   UNL A   1      39.705  33.355  36.035  1.00  0.00     0.173 A 
ATOM     72  F   UNL A   1      37.817  30.291  36.529  1.00  0.00    -0.203 F 
ATOM     73  C   UNL A   1      37.903  32.251  37.834  1.00  0.00     0.198 A 
ATOM     74  C   UNL A   1      39.306  34.077  37.157  1.00  0.00     0.198 A 
ATOM     75  F   UNL A   1      40.575  33.915  35.181  1.00  0.00    -0.203 F 
ATOM     76  F   UNL A   1      37.008  31.726  38.682  1.00  0.00    -0.200 F 
ATOM     77  C   UNL A   1      38.399  33.527  38.052  1.00  0.00     0.200 A 
ATOM     78  F   UNL A   1      39.798  35.304  37.373  1.00  0.00    -0.200 F 
ATOM     79  F   UNL A   1      38.001  34.229  39.122  1.00  0.00    -0.200 F 
ENDBRANCH  45  69
BRANCH  57  80
ATOM     80  C   UNL A   1      36.776  31.530  29.302  1.00  0.00     0.064 A 
ATOM     81  C   UNL A   1      36.755  32.888  28.957  1.00  0.00     0.173 A 
ATOM     82  C   UNL A   1      35.673  30.741  28.943  1.00  0.00     0.173 A 
ATOM     83  F   UNL A   1      37.779  33.686  29.293  1.00  0.00    -0.203 F 
ATOM     84  C   UNL A   1      35.661  33.439  28.293  1.00  0.00     0.198 A 
ATOM     85  C   UNL A   1      34.593  31.290  28.259  1.00  0.00     0.198 A 
ATOM     86  F   UNL A   1      35.647  29.435  29.248  1.00  0.00    -0.203 F 
ATOM     87  F   UNL A   1      35.645  34.748  28.006  1.00  0.00    -0.200 F 
ATOM     88  C   UNL A   1      34.586  32.639  27.938  1.00  0.00     0.200 A 
ATOM     89  F   UNL A   1      33.558  30.513  27.908  1.00  0.00    -0.200 F 
ATOM     90  F   UNL A   1      33.538  33.171  27.294  1.00  0.00    -0.200 F 
ENDBRANCH  57  80
ENDBRANCH  31  32
ENDBRANCH  23  26
ENDBRANCH  21  22
ENDBRANCH  20  21
ENDBRANCH   1  20
TORSDOF 14
ENDMDL
MODEL 3
REMARK VINA RESULT:     -10.9      5.882     12.257
REMARK SMILES Cc1csc(C[N@@H+](CC(=O)NCCCNC(=O)c2ccc(-c3c4nc(c(-c5c(F)c(F)c(F)c(F)c5F)c5ccc([nH]5)c(-c5c(F)c(F)c(F)c(F)c5F)c5nc(c(-c6c(F)c(F)c(F)c(F)c6F)c6ccc3[nH]6)C=C5)C=C4)cc2)C(C)(C)C)n1
REMARK SMILES IDX 12 1 11 2 9 3 10 4 8 6 7 7 6 9 5 10 1 11 2 12 3 13 85 14
REMARK SMILES IDX 4 15 81 16 82 17 83 18 84 19 13 20 14 21 15 22 16 23 17 25
REMARK SMILES IDX 18 26 19 27 80 28 20 29 79 30 21 31 22 32 23 33 73 34 24 35
REMARK SMILES IDX 78 36 72 37 74 38 25 39 77 40 71 41 70 42 26 44 58 45 38 46
REMARK SMILES IDX 57 47 39 48 42 49 56 50 75 51 40 52 41 53 55 55 76 56 43 57
REMARK SMILES IDX 27 58 28 59 36 60 29 61 30 62 34 63 37 64 31 65 32 66 35 67
REMARK SMILES IDX 33 68 59 69 60 70 68 71 61 72 62 73 66 74 69 75 63 76 64 77
REMARK SMILES IDX 67 78 65 79 44 80 45 81 53 82 46 83 47 84 51 85 54 86 48 87
REMARK SMILES IDX 49 88 52 89 50 90
REMARK H PARENT 11 5 7 8 15 24 74 43 42 54
REMARK Flexibility Score: inf
ROOT
ATOM      1  C   UNL A   1      32.453  28.344  22.648  1.00  0.00     0.118 C 
ENDROOT
BRANCH   1   2
ATOM      2  N   UNL A   1      32.986  27.322  21.762  1.00  0.00    -0.351 N 
ATOM      3  C   UNL A   1      32.719  25.991  21.625  1.00  0.00     0.275 C 
ATOM      4  O   UNL A   1      33.278  25.427  20.678  1.00  0.00    -0.269 OA
ATOM      5  H   UNL A   1      33.673  27.655  21.140  1.00  0.00     0.163 HD
BRANCH   3   6
ATOM      6  C   UNL A   1      31.748  25.220  22.535  1.00  0.00     0.364 C 
BRANCH   6   7
ATOM      7  N   UNL A   1      32.266  24.751  23.858  1.00  0.00    -0.317 N 
ATOM      8  H   UNL A   1      33.024  25.355  24.176  1.00  0.00     0.349 HD
BRANCH   7   9
ATOM      9  C   UNL A   1      32.911  23.438  23.687  1.00  0.00     0.331 C 
BRANCH   9  10
ATOM     10  C   UNL A   1      34.104  23.001  24.491  1.00  0.00     0.147 A 
ATOM     11  C   UNL A   1      37.321  23.704  25.946  1.00  0.00     0.067 C 
ATOM     12  C   UNL A   1      36.100  23.016  25.461  1.00  0.00     0.049 A 
ATOM     13  C   UNL A   1      35.850  21.659  25.510  1.00  0.00     0.090 A 
ATOM     14  N   UNL A   1      35.100  23.775  24.873  1.00  0.00    -0.240 NA
ATOM     15  S   UNL A   1      34.343  21.311  24.788  1.00  0.00    -0.121 S 
ENDBRANCH   9  10
ENDBRANCH   7   9
BRANCH   7  16
ATOM     16  C   UNL A   1      31.465  25.078  25.068  1.00  0.00     0.090 C 
ATOM     17  C   UNL A   1      32.291  25.617  26.254  1.00  0.00     0.078 C 
ATOM     18  C   UNL A   1      30.362  26.128  24.776  1.00  0.00     0.078 C 
ATOM     19  C   UNL A   1      30.678  23.823  25.534  1.00  0.00     0.078 C 
ENDBRANCH   7  16
ENDBRANCH   6   7
ENDBRANCH   3   6
ENDBRANCH   1   2
BRANCH   1  20
ATOM     20  C   UNL A   1      33.537  28.950  23.546  1.00  0.00     0.042 C 
BRANCH  20  21
ATOM     21  C   UNL A   1      33.264  28.854  25.040  1.00  0.00     0.118 C 
BRANCH  21  22
ATOM     22  N   UNL A   1      32.747  30.091  25.596  1.00  0.00    -0.352 N 
ATOM     23  C   UNL A   1      33.153  30.861  26.659  1.00  0.00     0.251 C 
ATOM     24  H   UNL A   1      31.958  30.444  25.122  1.00  0.00     0.163 HD
ATOM     25  O   UNL A   1      32.415  31.773  27.028  1.00  0.00    -0.269 OA
BRANCH  23  26
ATOM     26  C   UNL A   1      34.429  30.632  27.389  1.00  0.00     0.039 A 
ATOM     27  C   UNL A   1      34.643  29.368  27.958  1.00  0.00     0.014 A 
ATOM     28  C   UNL A   1      35.368  31.638  27.627  1.00  0.00     0.014 A 
ATOM     29  C   UNL A   1      35.792  29.107  28.716  1.00  0.00     0.010 A 
ATOM     30  C   UNL A   1      36.556  31.356  28.308  1.00  0.00     0.010 A 
ATOM     31  C   UNL A   1      36.774  30.094  28.881  1.00  0.00    -0.014 A 
BRANCH  31  32
ATOM     32  C   UNL A   1      38.002  29.841  29.685  1.00  0.00     0.031 A 
ATOM     33  C   UNL A   1      39.080  28.928  29.158  1.00  0.00     0.074 A 
ATOM     34  C   UNL A   1      38.138  30.387  30.909  1.00  0.00     0.049 A 
ATOM     35  N   UNL A   1      40.178  28.512  29.743  1.00  0.00    -0.248 NA
ATOM     36  C   UNL A   1      38.886  28.389  27.803  1.00  0.00     0.031 C 
ATOM     37  C   UNL A   1      37.161  31.263  31.556  1.00  0.00     0.029 A 
ATOM     38  N   UNL A   1      39.150  30.279  31.832  1.00  0.00    -0.354 N 
ATOM     39  C   UNL A   1      40.785  27.646  28.842  1.00  0.00     0.074 A 
ATOM     40  C   UNL A   1      39.915  27.563  27.688  1.00  0.00     0.031 C 
ATOM     41  C   UNL A   1      37.629  31.628  32.761  1.00  0.00     0.029 A 
ATOM     42  C   UNL A   1      38.920  30.984  32.988  1.00  0.00     0.049 A 
ATOM     43  H   UNL A   1      39.964  29.746  31.679  1.00  0.00     0.167 HD
ATOM     44  C   UNL A   1      41.967  26.994  28.953  1.00  0.00     0.037 A 
ATOM     45  C   UNL A   1      39.661  31.093  34.108  1.00  0.00     0.037 A 
ATOM     46  C   UNL A   1      42.860  27.111  30.076  1.00  0.00     0.049 A 
ATOM     47  C   UNL A   1      40.978  30.373  34.202  1.00  0.00     0.074 A 
ATOM     48  C   UNL A   1      44.110  26.540  30.250  1.00  0.00     0.029 A 
ATOM     49  N   UNL A   1      42.600  27.856  31.216  1.00  0.00    -0.354 N 
ATOM     50  N   UNL A   1      41.560  29.595  33.323  1.00  0.00    -0.248 NA
ATOM     51  C   UNL A   1      41.744  30.551  35.444  1.00  0.00     0.031 C 
ATOM     52  C   UNL A   1      44.592  26.915  31.509  1.00  0.00     0.029 A 
ATOM     53  C   UNL A   1      43.660  27.749  32.103  1.00  0.00     0.049 A 
ATOM     54  H   UNL A   1      41.784  28.385  31.372  1.00  0.00     0.167 HD
ATOM     55  C   UNL A   1      42.767  29.212  33.892  1.00  0.00     0.074 A 
ATOM     56  C   UNL A   1      42.842  29.852  35.188  1.00  0.00     0.031 C 
ATOM     57  C   UNL A   1      43.726  28.401  33.385  1.00  0.00     0.037 A 
BRANCH  44  58
ATOM     58  C   UNL A   1      42.373  26.094  27.824  1.00  0.00     0.064 A 
ATOM     59  C   UNL A   1      41.905  24.775  27.730  1.00  0.00     0.173 A 
ATOM     60  C   UNL A   1      43.210  26.567  26.801  1.00  0.00     0.173 A 
ATOM     61  F   UNL A   1      41.111  24.271  28.687  1.00  0.00    -0.203 F 
ATOM     62  C   UNL A   1      42.282  23.954  26.670  1.00  0.00     0.198 A 
ATOM     63  C   UNL A   1      43.562  25.752  25.728  1.00  0.00     0.198 A 
ATOM     64  F   UNL A   1      43.679  27.823  26.838  1.00  0.00    -0.203 F 
ATOM     65  F   UNL A   1      41.859  22.683  26.626  1.00  0.00    -0.200 F 
ATOM     66  C   UNL A   1      43.104  24.445  25.667  1.00  0.00     0.200 A 
ATOM     67  F   UNL A   1      44.348  26.232  24.754  1.00  0.00    -0.200 F 
ATOM     68  F   UNL A   1      43.462  23.655  24.645  1.00  0.00    -0.200 F 
ENDBRANCH  44  58
BRANCH  45  69
ATOM     69  C   UNL A   1      39.181  31.942  35.230  1.00  0.00     0.064 A 
ATOM     70  C   UNL A   1      38.445  31.386  36.285  1.00  0.00     0.173 A 
ATOM     71  C   UNL A   1      39.445  33.317  35.270  1.00  0.00     0.173 A 
ATOM     72  F   UNL A   1      38.149  30.078  36.279  1.00  0.00    -0.203 F 
ATOM     73  C   UNL A   1      37.978  32.178  37.332  1.00  0.00     0.198 A 
ATOM     74  C   UNL A   1      38.999  34.104  36.329  1.00  0.00     0.198 A 
ATOM     75  F   UNL A   1      40.148  33.896  34.285  1.00  0.00    -0.203 F 
ATOM     76  F   UNL A   1      37.243  31.629  38.309  1.00  0.00    -0.200 F 
ATOM     77  C   UNL A   1      38.259  33.536  37.355  1.00  0.00     0.200 A 
ATOM     78  F   UNL A   1      39.284  35.413  36.356  1.00  0.00    -0.200 F 
ATOM     79  F   UNL A   1      37.815  34.297  38.365  1.00  0.00    -0.200 F 
ENDBRANCH  45  69
BRANCH  57  80
ATOM     80  C   UNL A   1      44.956  28.184  34.216  1.00  0.00     0.064 A 
ATOM     81  C   UNL A   1      45.049  27.118  35.123  1.00  0.00     0.173 A 
ATOM     82  C   UNL A   1      46.067  29.028  34.074  1.00  0.00     0.173 A 
ATOM     83  F   UNL A   1      44.007  26.294  35.305  1.00  0.00    -0.203 F 
ATOM     84  C   UNL A   1      46.207  26.918  35.871  1.00  0.00     0.198 A 
ATOM     85  C   UNL A   1      47.230  28.810  34.806  1.00  0.00     0.198 A 
ATOM     86  F   UNL A   1      46.028  30.059  33.216  1.00  0.00    -0.203 F 
ATOM     87  F   UNL A   1      46.261  25.916  36.760  1.00  0.00    -0.200 F 
ATOM     88  C   UNL A   1      47.298  27.758  35.707  1.00  0.00     0.200 A 
ATOM     89  F   UNL A   1      48.287  29.617  34.640  1.00  0.00    -0.200 F 
ATOM     90  F   UNL A   1      48.411  27.559  36.426  1.00  0.00    -0.200 F 
ENDBRANCH  57  80
ENDBRANCH  31  32
ENDBRANCH  23  26
ENDBRANCH  21  22
ENDBRANCH  20  21
ENDBRANCH   1  20
TORSDOF 14
ENDMDL
