MODEL 1
REMARK VINA RESULT:     -13.6      0.000      0.000
REMARK SMILES Cc1cnc(NC(=O)[C@H]2[C@H]3CC[C@H](CC3)[C@H]2C(=O)NCCCNC(=O)c2ccc(-c3c4nc(c(-c5c(F)c(F)c(F)c(F)c5F)c5ccc([nH]5)c(-c5c(F)c(F)c(F)c(F)c5F)c5nc(c(-c6c(F)c(F)c(F)c(F)c6F)c6ccc3[nH]6)C=C5)C=C4)cc2)s1
REMARK SMILES IDX 21 1 20 2 19 3 17 4 18 5 16 7 9 8 10 9 15 10 11 11 13 12
REMARK SMILES IDX 14 13 12 14 7 15 6 16 8 18 5 19 1 20 2 21 3 22 89 23 4 24
REMARK SMILES IDX 22 25 23 26 24 27 25 29 26 30 27 31 88 32 28 33 87 34 29 35
REMARK SMILES IDX 30 36 31 37 81 38 32 39 86 40 80 41 82 42 33 43 85 44 79 45
REMARK SMILES IDX 78 46 34 48 66 49 46 50 65 51 47 52 50 53 64 54 83 55 48 56
REMARK SMILES IDX 49 57 63 59 84 60 51 61 35 62 36 63 44 64 37 65 38 66 42 67
REMARK SMILES IDX 45 68 39 69 40 70 43 71 41 72 67 73 68 74 76 75 69 76 70 77
REMARK SMILES IDX 74 78 77 79 71 80 72 81 75 82 73 83 52 84 53 85 61 86 54 87
REMARK SMILES IDX 55 88 59 89 62 90 56 91 57 92 60 93 58 94
REMARK H PARENT 19 6 6 17 23 28 82 47 50 58
REMARK Flexibility Score: inf
ROOT
ATOM      1  C   UNL A   1      31.429  32.172  26.553  1.00  0.00     0.042 C 
ENDROOT
BRANCH   1   2
ATOM      2  C   UNL A   1      31.627  30.737  26.130  1.00  0.00     0.117 C 
BRANCH   2   3
ATOM      3  N   UNL A   1      32.874  30.114  26.474  1.00  0.00    -0.356 N 
ATOM      4  C   UNL A   1      33.345  28.917  26.031  1.00  0.00     0.224 C 
ATOM      5  O   UNL A   1      34.572  28.761  26.070  1.00  0.00    -0.275 OA
ATOM      6  H   UNL A   1      33.451  30.608  27.101  1.00  0.00     0.163 HD
BRANCH   4   7
ATOM      7  C   UNL A   1      32.452  27.772  25.506  1.00  0.00     0.094 C 
ATOM      8  C   UNL A   1      32.164  27.611  23.993  1.00  0.00     0.094 C 
ATOM      9  C   UNL A   1      32.477  26.134  23.557  1.00  0.00     0.002 C 
ATOM     10  C   UNL A   1      33.805  25.535  24.078  1.00  0.00     0.005 C 
ATOM     11  C   UNL A   1      31.389  25.269  24.235  1.00  0.00     0.005 C 
ATOM     12  C   UNL A   1      32.657  26.378  26.151  1.00  0.00     0.002 C 
ATOM     13  C   UNL A   1      33.900  25.669  25.608  1.00  0.00     0.005 C 
ATOM     14  C   UNL A   1      31.435  25.496  25.762  1.00  0.00     0.005 C 
BRANCH   8  15
ATOM     15  C   UNL A   1      32.615  28.733  23.052  1.00  0.00     0.230 C 
ATOM     16  N   UNL A   1      31.716  29.501  22.355  1.00  0.00    -0.302 N 
ATOM     17  H   UNL A   1      32.109  30.263  21.871  1.00  0.00     0.172 HD
ATOM     18  O   UNL A   1      33.817  28.990  22.929  1.00  0.00    -0.274 OA
BRANCH  16  19
ATOM     19  C   UNL A   1      30.359  29.371  22.226  1.00  0.00     0.189 A 
ATOM     20  C   UNL A   1      26.792  28.693  23.450  1.00  0.00     0.058 C 
ATOM     21  C   UNL A   1      28.039  29.004  22.710  1.00  0.00     0.023 A 
ATOM     22  C   UNL A   1      28.304  29.966  21.755  1.00  0.00     0.128 A 
ATOM     23  S   UNL A   1      29.484  28.142  23.022  1.00  0.00    -0.102 S 
ATOM     24  N   UNL A   1      29.643  30.110  21.411  1.00  0.00    -0.228 NA
ENDBRANCH  16  19
ENDBRANCH   8  15
ENDBRANCH   4   7
ENDBRANCH   2   3
ENDBRANCH   1   2
BRANCH   1  25
ATOM     25  C   UNL A   1      32.636  32.787  27.219  1.00  0.00     0.118 C 
BRANCH  25  26
ATOM     26  N   UNL A   1      32.417  34.167  27.635  1.00  0.00    -0.352 N 
ATOM     27  C   UNL A   1      32.982  34.916  28.639  1.00  0.00     0.251 C 
ATOM     28  H   UNL A   1      31.745  34.648  27.100  1.00  0.00     0.163 HD
ATOM     29  O   UNL A   1      32.498  36.005  28.926  1.00  0.00    -0.269 OA
BRANCH  27  30
ATOM     30  C   UNL A   1      34.151  34.410  29.395  1.00  0.00     0.039 A 
ATOM     31  C   UNL A   1      33.946  33.738  30.604  1.00  0.00     0.014 A 
ATOM     32  C   UNL A   1      35.448  34.605  28.929  1.00  0.00     0.014 A 
ATOM     33  C   UNL A   1      35.037  33.196  31.289  1.00  0.00     0.010 A 
ATOM     34  C   UNL A   1      36.507  33.933  29.520  1.00  0.00     0.010 A 
ATOM     35  C   UNL A   1      36.321  33.247  30.726  1.00  0.00    -0.014 A 
BRANCH  35  36
ATOM     36  C   UNL A   1      37.498  32.632  31.391  1.00  0.00     0.031 A 
ATOM     37  C   UNL A   1      38.215  31.482  30.732  1.00  0.00     0.074 A 
ATOM     38  C   UNL A   1      37.864  33.043  32.620  1.00  0.00     0.049 A 
ATOM     39  N   UNL A   1      39.195  30.743  31.189  1.00  0.00    -0.248 NA
ATOM     40  C   UNL A   1      37.734  31.075  29.401  1.00  0.00     0.031 C 
ATOM     41  C   UNL A   1      37.199  34.092  33.395  1.00  0.00     0.029 A 
ATOM     42  N   UNL A   1      38.875  32.614  33.442  1.00  0.00    -0.354 N 
ATOM     43  C   UNL A   1      39.417  29.773  30.219  1.00  0.00     0.074 A 
ATOM     44  C   UNL A   1      38.426  29.968  29.187  1.00  0.00     0.031 C 
ATOM     45  C   UNL A   1      37.835  34.245  34.566  1.00  0.00     0.029 A 
ATOM     46  C   UNL A   1      38.922  33.274  34.646  1.00  0.00     0.049 A 
ATOM     47  H   UNL A   1      39.506  31.900  33.194  1.00  0.00     0.167 HD
ATOM     48  C   UNL A   1      40.382  28.824  30.178  1.00  0.00     0.037 A 
ATOM     49  C   UNL A   1      39.742  33.106  35.701  1.00  0.00     0.037 A 
ATOM     50  C   UNL A   1      41.390  28.665  31.191  1.00  0.00     0.049 A 
ATOM     51  C   UNL A   1      40.826  32.066  35.622  1.00  0.00     0.074 A 
ATOM     52  C   UNL A   1      42.471  27.802  31.205  1.00  0.00     0.029 A 
ATOM     53  N   UNL A   1      41.435  29.384  32.378  1.00  0.00    -0.354 N 
ATOM     54  N   UNL A   1      41.091  31.217  34.658  1.00  0.00    -0.248 NA
ATOM     55  C   UNL A   1      41.732  31.967  36.774  1.00  0.00     0.031 C 
ATOM     56  C   UNL A   1      43.131  27.954  32.429  1.00  0.00     0.029 A 
ATOM     57  C   UNL A   1      42.504  28.959  33.147  1.00  0.00     0.049 A 
ATOM     58  H   UNL A   1      40.799  30.091  32.633  1.00  0.00     0.167 HD
ATOM     59  C   UNL A   1      42.203  30.499  35.074  1.00  0.00     0.074 A 
ATOM     60  C   UNL A   1      42.575  31.026  36.371  1.00  0.00     0.031 C 
ATOM     61  C   UNL A   1      42.857  29.494  34.440  1.00  0.00     0.037 A 
BRANCH  48  62
ATOM     62  C   UNL A   1      40.385  27.886  29.002  1.00  0.00     0.064 A 
ATOM     63  C   UNL A   1      41.131  28.148  27.841  1.00  0.00     0.173 A 
ATOM     64  C   UNL A   1      39.633  26.702  29.039  1.00  0.00     0.173 A 
ATOM     65  F   UNL A   1      41.859  29.271  27.746  1.00  0.00    -0.203 F 
ATOM     66  C   UNL A   1      41.085  27.287  26.748  1.00  0.00     0.198 A 
ATOM     67  C   UNL A   1      39.622  25.823  27.959  1.00  0.00     0.198 A 
ATOM     68  F   UNL A   1      38.906  26.394  30.124  1.00  0.00    -0.203 F 
ATOM     69  F   UNL A   1      41.747  27.599  25.624  1.00  0.00    -0.200 F 
ATOM     70  C   UNL A   1      40.337  26.123  26.809  1.00  0.00     0.200 A 
ATOM     71  F   UNL A   1      38.910  24.689  28.027  1.00  0.00    -0.200 F 
ATOM     72  F   UNL A   1      40.294  25.295  25.756  1.00  0.00    -0.200 F 
ENDBRANCH  48  62
BRANCH  49  73
ATOM     73  C   UNL A   1      39.574  33.961  36.905  1.00  0.00     0.064 A 
ATOM     74  C   UNL A   1      40.168  35.228  36.982  1.00  0.00     0.173 A 
ATOM     75  C   UNL A   1      38.795  33.539  37.993  1.00  0.00     0.173 A 
ATOM     76  F   UNL A   1      40.937  35.670  35.976  1.00  0.00    -0.203 F 
ATOM     77  C   UNL A   1      40.002  36.034  38.107  1.00  0.00     0.198 A 
ATOM     78  C   UNL A   1      38.604  34.358  39.103  1.00  0.00     0.198 A 
ATOM     79  F   UNL A   1      38.199  32.338  37.967  1.00  0.00    -0.203 F 
ATOM     80  F   UNL A   1      40.614  37.224  38.172  1.00  0.00    -0.200 F 
ATOM     81  C   UNL A   1      39.213  35.602  39.163  1.00  0.00     0.200 A 
ATOM     82  F   UNL A   1      37.827  33.945  40.113  1.00  0.00    -0.200 F 
ATOM     83  F   UNL A   1      39.044  36.383  40.239  1.00  0.00    -0.200 F 
ENDBRANCH  49  73
BRANCH  61  84
ATOM     84  C   UNL A   1      44.062  28.916  35.126  1.00  0.00     0.064 A 
ATOM     85  C   UNL A   1      45.347  29.440  34.927  1.00  0.00     0.173 A 
ATOM     86  C   UNL A   1      43.918  27.854  36.032  1.00  0.00     0.173 A 
ATOM     87  F   UNL A   1      45.540  30.448  34.061  1.00  0.00    -0.203 F 
ATOM     88  C   UNL A   1      46.449  28.903  35.588  1.00  0.00     0.198 A 
ATOM     89  C   UNL A   1      45.016  27.344  36.719  1.00  0.00     0.198 A 
ATOM     90  F   UNL A   1      42.710  27.321  36.265  1.00  0.00    -0.203 F 
ATOM     91  F   UNL A   1      47.674  29.386  35.343  1.00  0.00    -0.200 F 
ATOM     92  C   UNL A   1      46.281  27.862  36.489  1.00  0.00     0.200 A 
ATOM     93  F   UNL A   1      44.849  26.350  37.602  1.00  0.00    -0.200 F 
ATOM     94  F   UNL A   1      47.341  27.355  37.133  1.00  0.00    -0.200 F 
ENDBRANCH  61  84
ENDBRANCH  35  36
ENDBRANCH  27  30
ENDBRANCH  25  26
ENDBRANCH   1  25
TORSDOF 12
ENDMDL
MODEL 2
REMARK VINA RESULT:     -13.4      0.471      1.667
REMARK SMILES Cc1cnc(NC(=O)[C@H]2[C@H]3CC[C@H](CC3)[C@H]2C(=O)NCCCNC(=O)c2ccc(-c3c4nc(c(-c5c(F)c(F)c(F)c(F)c5F)c5ccc([nH]5)c(-c5c(F)c(F)c(F)c(F)c5F)c5nc(c(-c6c(F)c(F)c(F)c(F)c6F)c6ccc3[nH]6)C=C5)C=C4)cc2)s1
REMARK SMILES IDX 21 1 20 2 19 3 17 4 18 5 16 7 9 8 10 9 15 10 11 11 13 12
REMARK SMILES IDX 14 13 12 14 7 15 6 16 8 18 5 19 1 20 2 21 3 22 89 23 4 24
REMARK SMILES IDX 22 25 23 26 24 27 25 29 26 30 27 31 88 32 28 33 87 34 29 35
REMARK SMILES IDX 30 36 31 37 81 38 32 39 86 40 80 41 82 42 33 43 85 44 79 45
REMARK SMILES IDX 78 46 34 48 66 49 46 50 65 51 47 52 50 53 64 54 83 55 48 56
REMARK SMILES IDX 49 57 63 59 84 60 51 61 35 62 36 63 44 64 37 65 38 66 42 67
REMARK SMILES IDX 45 68 39 69 40 70 43 71 41 72 67 73 68 74 76 75 69 76 70 77
REMARK SMILES IDX 74 78 77 79 71 80 72 81 75 82 73 83 52 84 53 85 61 86 54 87
REMARK SMILES IDX 55 88 59 89 62 90 56 91 57 92 60 93 58 94
REMARK H PARENT 19 6 6 17 23 28 82 47 50 58
REMARK Flexibility Score: inf
ROOT
ATOM      1  C   UNL A   1      31.456  32.316  26.569  1.00  0.00     0.042 C 
ENDROOT
BRANCH   1   2
ATOM      2  C   UNL A   1      31.491  30.815  26.420  1.00  0.00     0.117 C 
BRANCH   2   3
ATOM      3  N   UNL A   1      32.778  30.179  26.451  1.00  0.00    -0.356 N 
ATOM      4  C   UNL A   1      33.138  29.020  25.836  1.00  0.00     0.224 C 
ATOM      5  O   UNL A   1      34.345  28.872  25.607  1.00  0.00    -0.275 OA
ATOM      6  H   UNL A   1      33.477  30.632  26.977  1.00  0.00     0.163 HD
BRANCH   4   7
ATOM      7  C   UNL A   1      32.147  27.908  25.429  1.00  0.00     0.094 C 
ATOM      8  C   UNL A   1      31.912  27.551  23.940  1.00  0.00     0.094 C 
ATOM      9  C   UNL A   1      32.077  26.000  23.745  1.00  0.00     0.002 C 
ATOM     10  C   UNL A   1      33.303  25.352  24.429  1.00  0.00     0.005 C 
ATOM     11  C   UNL A   1      30.868  25.366  24.472  1.00  0.00     0.005 C 
ATOM     12  C   UNL A   1      32.164  26.615  26.282  1.00  0.00     0.002 C 
ATOM     13  C   UNL A   1      33.343  25.705  25.926  1.00  0.00     0.005 C 
ATOM     14  C   UNL A   1      30.870  25.817  25.950  1.00  0.00     0.005 C 
BRANCH   8  15
ATOM     15  C   UNL A   1      32.529  28.464  22.876  1.00  0.00     0.230 C 
ATOM     16  N   UNL A   1      31.807  29.458  22.265  1.00  0.00    -0.302 N 
ATOM     17  H   UNL A   1      32.332  30.054  21.684  1.00  0.00     0.172 HD
ATOM     18  O   UNL A   1      33.719  28.337  22.568  1.00  0.00    -0.274 OA
BRANCH  16  19
ATOM     19  C   UNL A   1      30.471  29.749  22.338  1.00  0.00     0.189 A 
ATOM     20  C   UNL A   1      27.369  31.575  23.653  1.00  0.00     0.058 C 
ATOM     21  C   UNL A   1      28.373  30.728  22.964  1.00  0.00     0.023 A 
ATOM     22  C   UNL A   1      28.495  30.378  21.633  1.00  0.00     0.128 A 
ATOM     23  S   UNL A   1      29.685  30.044  23.823  1.00  0.00    -0.102 S 
ATOM     24  N   UNL A   1      29.674  29.727  21.295  1.00  0.00    -0.228 NA
ENDBRANCH  16  19
ENDBRANCH   8  15
ENDBRANCH   4   7
ENDBRANCH   2   3
ENDBRANCH   1   2
BRANCH   1  25
ATOM     25  C   UNL A   1      32.640  32.887  27.311  1.00  0.00     0.118 C 
BRANCH  25  26
ATOM     26  N   UNL A   1      32.454  34.280  27.697  1.00  0.00    -0.352 N 
ATOM     27  C   UNL A   1      33.039  35.037  28.685  1.00  0.00     0.251 C 
ATOM     28  H   UNL A   1      31.793  34.765  27.154  1.00  0.00     0.163 HD
ATOM     29  O   UNL A   1      32.581  36.142  28.950  1.00  0.00    -0.269 OA
BRANCH  27  30
ATOM     30  C   UNL A   1      34.197  34.520  29.449  1.00  0.00     0.039 A 
ATOM     31  C   UNL A   1      33.982  33.904  30.686  1.00  0.00     0.014 A 
ATOM     32  C   UNL A   1      35.495  34.649  28.963  1.00  0.00     0.014 A 
ATOM     33  C   UNL A   1      35.061  33.352  31.382  1.00  0.00     0.010 A 
ATOM     34  C   UNL A   1      36.536  33.964  29.571  1.00  0.00     0.010 A 
ATOM     35  C   UNL A   1      36.340  33.334  30.805  1.00  0.00    -0.014 A 
BRANCH  35  36
ATOM     36  C   UNL A   1      37.501  32.704  31.483  1.00  0.00     0.031 A 
ATOM     37  C   UNL A   1      38.215  31.549  30.829  1.00  0.00     0.074 A 
ATOM     38  C   UNL A   1      37.855  33.106  32.719  1.00  0.00     0.049 A 
ATOM     39  N   UNL A   1      39.181  30.798  31.296  1.00  0.00    -0.248 NA
ATOM     40  C   UNL A   1      37.747  31.152  29.491  1.00  0.00     0.031 C 
ATOM     41  C   UNL A   1      37.192  34.160  33.488  1.00  0.00     0.029 A 
ATOM     42  N   UNL A   1      38.851  32.664  33.552  1.00  0.00    -0.354 N 
ATOM     43  C   UNL A   1      39.406  29.830  30.325  1.00  0.00     0.074 A 
ATOM     44  C   UNL A   1      38.430  30.039  29.281  1.00  0.00     0.031 C 
ATOM     45  C   UNL A   1      37.813  34.301  34.668  1.00  0.00     0.029 A 
ATOM     46  C   UNL A   1      38.889  33.319  34.759  1.00  0.00     0.049 A 
ATOM     47  H   UNL A   1      39.478  31.945  33.309  1.00  0.00     0.167 HD
ATOM     48  C   UNL A   1      40.361  28.871  30.293  1.00  0.00     0.037 A 
ATOM     49  C   UNL A   1      39.693  33.139  35.824  1.00  0.00     0.037 A 
ATOM     50  C   UNL A   1      41.354  28.697  31.318  1.00  0.00     0.049 A 
ATOM     51  C   UNL A   1      40.767  32.087  35.756  1.00  0.00     0.074 A 
ATOM     52  C   UNL A   1      42.426  27.824  31.343  1.00  0.00     0.029 A 
ATOM     53  N   UNL A   1      41.391  29.412  32.509  1.00  0.00    -0.354 N 
ATOM     54  N   UNL A   1      41.036  31.240  34.791  1.00  0.00    -0.248 NA
ATOM     55  C   UNL A   1      41.657  31.974  36.918  1.00  0.00     0.031 C 
ATOM     56  C   UNL A   1      43.072  27.964  32.576  1.00  0.00     0.029 A 
ATOM     57  C   UNL A   1      42.446  28.973  33.291  1.00  0.00     0.049 A 
ATOM     58  H   UNL A   1      40.759  30.125  32.758  1.00  0.00     0.167 HD
ATOM     59  C   UNL A   1      42.135  30.509  35.219  1.00  0.00     0.074 A 
ATOM     60  C   UNL A   1      42.496  31.027  36.523  1.00  0.00     0.031 C 
ATOM     61  C   UNL A   1      42.787  29.500  34.590  1.00  0.00     0.037 A 
BRANCH  48  62
ATOM     62  C   UNL A   1      40.370  27.938  29.114  1.00  0.00     0.064 A 
ATOM     63  C   UNL A   1      41.131  28.198  27.962  1.00  0.00     0.173 A 
ATOM     64  C   UNL A   1      39.609  26.760  29.138  1.00  0.00     0.173 A 
ATOM     65  F   UNL A   1      41.869  29.316  27.879  1.00  0.00    -0.203 F 
ATOM     66  C   UNL A   1      41.091  27.342  26.865  1.00  0.00     0.198 A 
ATOM     67  C   UNL A   1      39.602  25.885  28.054  1.00  0.00     0.198 A 
ATOM     68  F   UNL A   1      38.867  26.454  30.213  1.00  0.00    -0.203 F 
ATOM     69  F   UNL A   1      41.768  27.652  25.750  1.00  0.00    -0.200 F 
ATOM     70  C   UNL A   1      40.333  26.183  26.913  1.00  0.00     0.200 A 
ATOM     71  F   UNL A   1      38.881  24.757  28.109  1.00  0.00    -0.200 F 
ATOM     72  F   UNL A   1      40.296  25.360  25.857  1.00  0.00    -0.200 F 
ENDBRANCH  48  62
BRANCH  49  73
ATOM     73  C   UNL A   1      39.519  33.991  37.029  1.00  0.00     0.064 A 
ATOM     74  C   UNL A   1      38.771  33.546  38.128  1.00  0.00     0.173 A 
ATOM     75  C   UNL A   1      40.117  35.257  37.117  1.00  0.00     0.173 A 
ATOM     76  F   UNL A   1      38.165  32.350  38.086  1.00  0.00    -0.203 F 
ATOM     77  C   UNL A   1      38.616  34.341  39.262  1.00  0.00     0.198 A 
ATOM     78  C   UNL A   1      39.987  36.037  38.263  1.00  0.00     0.198 A 
ATOM     79  F   UNL A   1      40.849  35.726  36.096  1.00  0.00    -0.203 F 
ATOM     80  F   UNL A   1      37.863  33.908  40.283  1.00  0.00    -0.200 F 
ATOM     81  C   UNL A   1      39.232  35.582  39.333  1.00  0.00     0.200 A 
ATOM     82  F   UNL A   1      40.598  37.227  38.335  1.00  0.00    -0.200 F 
ATOM     83  F   UNL A   1      39.092  36.340  40.429  1.00  0.00    -0.200 F 
ENDBRANCH  49  73
BRANCH  61  84
ATOM     84  C   UNL A   1      43.976  28.906  35.289  1.00  0.00     0.064 A 
ATOM     85  C   UNL A   1      43.847  27.833  36.183  1.00  0.00     0.173 A 
ATOM     86  C   UNL A   1      45.267  29.387  35.022  1.00  0.00     0.173 A 
ATOM     87  F   UNL A   1      42.634  27.344  36.482  1.00  0.00    -0.203 F 
ATOM     88  C   UNL A   1      44.965  27.283  36.806  1.00  0.00     0.198 A 
ATOM     89  C   UNL A   1      46.386  28.811  35.618  1.00  0.00     0.198 A 
ATOM     90  F   UNL A   1      45.447  30.405  34.168  1.00  0.00    -0.203 F 
ATOM     91  F   UNL A   1      44.813  26.293  37.695  1.00  0.00    -0.200 F 
ATOM     92  C   UNL A   1      46.233  27.766  36.516  1.00  0.00     0.200 A 
ATOM     93  F   UNL A   1      47.610  29.267  35.323  1.00  0.00    -0.200 F 
ATOM     94  F   UNL A   1      47.307  27.226  37.107  1.00  0.00    -0.200 F 
ENDBRANCH  61  84
ENDBRANCH  35  36
ENDBRANCH  27  30
ENDBRANCH  25  26
ENDBRANCH   1  25
TORSDOF 12
ENDMDL
MODEL 3
REMARK VINA RESULT:     -13.4      6.426     11.504
REMARK SMILES Cc1cnc(NC(=O)[C@H]2[C@H]3CC[C@H](CC3)[C@H]2C(=O)NCCCNC(=O)c2ccc(-c3c4nc(c(-c5c(F)c(F)c(F)c(F)c5F)c5ccc([nH]5)c(-c5c(F)c(F)c(F)c(F)c5F)c5nc(c(-c6c(F)c(F)c(F)c(F)c6F)c6ccc3[nH]6)C=C5)C=C4)cc2)s1
REMARK SMILES IDX 21 1 20 2 19 3 17 4 18 5 16 7 9 8 10 9 15 10 11 11 13 12
REMARK SMILES IDX 14 13 12 14 7 15 6 16 8 18 5 19 1 20 2 21 3 22 89 23 4 24
REMARK SMILES IDX 22 25 23 26 24 27 25 29 26 30 27 31 88 32 28 33 87 34 29 35
REMARK SMILES IDX 30 36 31 37 81 38 32 39 86 40 80 41 82 42 33 43 85 44 79 45
REMARK SMILES IDX 78 46 34 48 66 49 46 50 65 51 47 52 50 53 64 54 83 55 48 56
REMARK SMILES IDX 49 57 63 59 84 60 51 61 35 62 36 63 44 64 37 65 38 66 42 67
REMARK SMILES IDX 45 68 39 69 40 70 43 71 41 72 67 73 68 74 76 75 69 76 70 77
REMARK SMILES IDX 74 78 77 79 71 80 72 81 75 82 73 83 52 84 53 85 61 86 54 87
REMARK SMILES IDX 55 88 59 89 62 90 56 91 57 92 60 93 58 94
REMARK H PARENT 19 6 6 17 23 28 82 47 50 58
REMARK Flexibility Score: inf
ROOT
ATOM      1  C   UNL A   1      38.154  19.548  24.885  1.00  0.00     0.042 C 
ENDROOT
BRANCH   1   2
ATOM      2  C   UNL A   1      36.870  20.321  25.059  1.00  0.00     0.117 C 
BRANCH   2   3
ATOM      3  N   UNL A   1      36.979  21.703  25.434  1.00  0.00    -0.356 N 
ATOM      4  C   UNL A   1      36.001  22.649  25.383  1.00  0.00     0.224 C 
ATOM      5  O   UNL A   1      36.138  23.621  26.135  1.00  0.00    -0.275 OA
ATOM      6  H   UNL A   1      37.859  22.000  25.763  1.00  0.00     0.163 HD
BRANCH   4   7
ATOM      7  C   UNL A   1      34.770  22.577  24.453  1.00  0.00     0.094 C 
ATOM      8  C   UNL A   1      33.391  22.114  24.985  1.00  0.00     0.094 C 
ATOM      9  C   UNL A   1      32.298  23.170  24.587  1.00  0.00     0.002 C 
ATOM     10  C   UNL A   1      32.667  24.655  24.816  1.00  0.00     0.005 C 
ATOM     11  C   UNL A   1      32.159  23.055  23.051  1.00  0.00     0.005 C 
ATOM     12  C   UNL A   1      34.580  23.750  23.458  1.00  0.00     0.002 C 
ATOM     13  C   UNL A   1      34.005  24.995  24.138  1.00  0.00     0.005 C 
ATOM     14  C   UNL A   1      33.537  23.299  22.395  1.00  0.00     0.005 C 
BRANCH   8  15
ATOM     15  C   UNL A   1      33.326  21.532  26.401  1.00  0.00     0.230 C 
ATOM     16  N   UNL A   1      33.237  20.182  26.628  1.00  0.00    -0.302 N 
ATOM     17  H   UNL A   1      33.316  19.914  27.572  1.00  0.00     0.172 HD
ATOM     18  O   UNL A   1      33.385  22.283  27.380  1.00  0.00    -0.274 OA
BRANCH  16  19
ATOM     19  C   UNL A   1      33.056  19.150  25.746  1.00  0.00     0.189 A 
ATOM     20  C   UNL A   1      34.015  16.830  22.851  1.00  0.00     0.058 C 
ATOM     21  C   UNL A   1      33.394  17.559  23.984  1.00  0.00     0.023 A 
ATOM     22  C   UNL A   1      32.700  17.093  25.083  1.00  0.00     0.128 A 
ATOM     23  S   UNL A   1      33.520  19.261  24.108  1.00  0.00    -0.102 S 
ATOM     24  N   UNL A   1      32.426  18.042  26.060  1.00  0.00    -0.228 NA
ENDBRANCH  16  19
ENDBRANCH   8  15
ENDBRANCH   4   7
ENDBRANCH   2   3
ENDBRANCH   1   2
BRANCH   1  25
ATOM     25  C   UNL A   1      39.278  20.017  25.775  1.00  0.00     0.118 C 
BRANCH  25  26
ATOM     26  N   UNL A   1      40.336  19.026  25.929  1.00  0.00    -0.352 N 
ATOM     27  C   UNL A   1      41.691  19.161  26.118  1.00  0.00     0.251 C 
ATOM     28  H   UNL A   1      40.024  18.093  25.893  1.00  0.00     0.163 HD
ATOM     29  O   UNL A   1      42.415  18.176  26.026  1.00  0.00    -0.269 OA
BRANCH  27  30
ATOM     30  C   UNL A   1      42.287  20.486  26.403  1.00  0.00     0.039 A 
ATOM     31  C   UNL A   1      42.762  21.266  25.344  1.00  0.00     0.014 A 
ATOM     32  C   UNL A   1      42.394  20.961  27.707  1.00  0.00     0.014 A 
ATOM     33  C   UNL A   1      43.261  22.546  25.596  1.00  0.00     0.010 A 
ATOM     34  C   UNL A   1      42.738  22.284  27.939  1.00  0.00     0.010 A 
ATOM     35  C   UNL A   1      43.207  23.085  26.891  1.00  0.00    -0.014 A 
BRANCH  35  36
ATOM     36  C   UNL A   1      43.672  24.462  27.192  1.00  0.00     0.031 A 
ATOM     37  C   UNL A   1      42.687  25.497  27.671  1.00  0.00     0.074 A 
ATOM     38  C   UNL A   1      44.951  24.806  26.948  1.00  0.00     0.049 A 
ATOM     39  N   UNL A   1      42.867  26.775  27.892  1.00  0.00    -0.248 NA
ATOM     40  C   UNL A   1      41.302  25.047  27.885  1.00  0.00     0.031 C 
ATOM     41  C   UNL A   1      45.979  23.915  26.408  1.00  0.00     0.029 A 
ATOM     42  N   UNL A   1      45.601  26.004  27.107  1.00  0.00    -0.354 N 
ATOM     43  C   UNL A   1      41.618  27.277  28.234  1.00  0.00     0.074 A 
ATOM     44  C   UNL A   1      40.676  26.189  28.119  1.00  0.00     0.031 C 
ATOM     45  C   UNL A   1      47.135  24.588  26.306  1.00  0.00     0.029 A 
ATOM     46  C   UNL A   1      46.920  25.968  26.728  1.00  0.00     0.049 A 
ATOM     47  H   UNL A   1      45.162  26.813  27.458  1.00  0.00     0.167 HD
ATOM     48  C   UNL A   1      41.290  28.527  28.637  1.00  0.00     0.037 A 
ATOM     49  C   UNL A   1      47.850  26.943  26.710  1.00  0.00     0.037 A 
ATOM     50  C   UNL A   1      42.242  29.594  28.788  1.00  0.00     0.049 A 
ATOM     51  C   UNL A   1      47.471  28.318  27.191  1.00  0.00     0.074 A 
ATOM     52  C   UNL A   1      42.038  30.870  29.281  1.00  0.00     0.029 A 
ATOM     53  N   UNL A   1      43.583  29.508  28.438  1.00  0.00    -0.354 N 
ATOM     54  N   UNL A   1      46.308  28.759  27.606  1.00  0.00    -0.248 NA
ATOM     55  C   UNL A   1      48.538  29.327  27.211  1.00  0.00     0.031 C 
ATOM     56  C   UNL A   1      43.241  31.576  29.168  1.00  0.00     0.029 A 
ATOM     57  C   UNL A   1      44.211  30.720  28.671  1.00  0.00     0.049 A 
ATOM     58  H   UNL A   1      44.022  28.703  28.078  1.00  0.00     0.167 HD
ATOM     59  C   UNL A   1      46.505  30.087  27.957  1.00  0.00     0.074 A 
ATOM     60  C   UNL A   1      47.906  30.374  27.724  1.00  0.00     0.031 C 
ATOM     61  C   UNL A   1      45.608  30.988  28.429  1.00  0.00     0.037 A 
BRANCH  48  62
ATOM     62  C   UNL A   1      39.842  28.804  28.938  1.00  0.00     0.064 A 
ATOM     63  C   UNL A   1      39.299  28.624  30.220  1.00  0.00     0.173 A 
ATOM     64  C   UNL A   1      38.985  29.262  27.926  1.00  0.00     0.173 A 
ATOM     65  F   UNL A   1      40.071  28.177  31.224  1.00  0.00    -0.203 F 
ATOM     66  C   UNL A   1      37.947  28.845  30.466  1.00  0.00     0.198 A 
ATOM     67  C   UNL A   1      37.641  29.520  28.185  1.00  0.00     0.198 A 
ATOM     68  F   UNL A   1      39.448  29.458  26.682  1.00  0.00    -0.203 F 
ATOM     69  F   UNL A   1      37.439  28.594  31.681  1.00  0.00    -0.200 F 
ATOM     70  C   UNL A   1      37.120  29.299  29.451  1.00  0.00     0.200 A 
ATOM     71  F   UNL A   1      36.847  29.975  27.206  1.00  0.00    -0.200 F 
ATOM     72  F   UNL A   1      35.818  29.512  29.689  1.00  0.00    -0.200 F 
ENDBRANCH  48  62
BRANCH  49  73
ATOM     73  C   UNL A   1      49.226  26.638  26.240  1.00  0.00     0.064 A 
ATOM     74  C   UNL A   1      49.607  26.875  24.913  1.00  0.00     0.173 A 
ATOM     75  C   UNL A   1      50.196  26.126  27.115  1.00  0.00     0.173 A 
ATOM     76  F   UNL A   1      48.711  27.347  24.032  1.00  0.00    -0.203 F 
ATOM     77  C   UNL A   1      50.900  26.599  24.474  1.00  0.00     0.198 A 
ATOM     78  C   UNL A   1      51.497  25.880  26.684  1.00  0.00     0.198 A 
ATOM     79  F   UNL A   1      49.885  25.889  28.398  1.00  0.00    -0.203 F 
ATOM     80  F   UNL A   1      51.227  26.796  23.190  1.00  0.00    -0.200 F 
ATOM     81  C   UNL A   1      51.847  26.110  25.362  1.00  0.00     0.200 A 
ATOM     82  F   UNL A   1      52.413  25.425  27.549  1.00  0.00    -0.200 F 
ATOM     83  F   UNL A   1      53.094  25.856  24.943  1.00  0.00    -0.200 F 
ENDBRANCH  49  73
BRANCH  61  84
ATOM     84  C   UNL A   1      46.117  32.363  28.753  1.00  0.00     0.064 A 
ATOM     85  C   UNL A   1      46.094  33.400  27.808  1.00  0.00     0.173 A 
ATOM     86  C   UNL A   1      46.589  32.657  30.041  1.00  0.00     0.173 A 
ATOM     87  F   UNL A   1      45.664  33.167  26.559  1.00  0.00    -0.203 F 
ATOM     88  C   UNL A   1      46.552  34.674  28.135  1.00  0.00     0.198 A 
ATOM     89  C   UNL A   1      47.012  33.941  30.374  1.00  0.00     0.198 A 
ATOM     90  F   UNL A   1      46.624  31.704  30.984  1.00  0.00    -0.203 F 
ATOM     91  F   UNL A   1      46.569  35.636  27.202  1.00  0.00    -0.200 F 
ATOM     92  C   UNL A   1      47.002  34.946  29.419  1.00  0.00     0.200 A 
ATOM     93  F   UNL A   1      47.428  34.206  31.619  1.00  0.00    -0.200 F 
ATOM     94  F   UNL A   1      47.430  36.176  29.733  1.00  0.00    -0.200 F 
ENDBRANCH  61  84
ENDBRANCH  35  36
ENDBRANCH  27  30
ENDBRANCH  25  26
ENDBRANCH   1  25
TORSDOF 12
ENDMDL
