MODEL 1
REMARK VINA RESULT:     -11.3      0.000      0.000
REMARK SMILES CCC(C)(C)[C@@H]([NH3+])C(C)(C)C(=O)NCCCNC(=O)c1ccc(-c2c3nc(c(-c4c(F)c(F)c(F)c(F)c4F)c4ccc([nH]4)c(-c4c(F)c(F)c(F)c(F)c4F)c4nc(c(-c5c(F)c(F)c(F)c(F)c5F)c5ccc2[nH]5)C=C4)C=C3)cc1
REMARK SMILES IDX 14 1 13 2 11 3 12 4 8 6 9 7 10 8 6 9 3 10 4 11 5 12 2 13
REMARK SMILES IDX 1 14 7 15 15 19 16 20 17 21 18 22 19 24 20 25 21 26 82 27
REMARK SMILES IDX 22 28 81 29 23 30 24 31 25 32 75 33 26 34 80 35 74 36 76 37
REMARK SMILES IDX 27 38 79 39 73 40 72 41 28 43 60 44 40 45 59 46 41 47 44 48
REMARK SMILES IDX 58 49 77 50 42 51 43 52 57 54 78 55 45 56 29 57 30 58 38 59
REMARK SMILES IDX 31 60 32 61 36 62 39 63 33 64 34 65 37 66 35 67 61 68 62 69
REMARK SMILES IDX 70 70 63 71 64 72 68 73 71 74 65 75 66 76 69 77 67 78 46 79
REMARK SMILES IDX 47 80 55 81 48 82 49 83 53 84 56 85 50 86 51 87 54 88 52 89
REMARK H PARENT 13 5 7 16 7 17 7 18 17 23 76 42 44 53
REMARK Flexibility Score: inf
ROOT
ATOM      1  C   UNL A   1      31.727  30.609  26.585  1.00  0.00     0.117 C 
ENDROOT
BRANCH   1   2
ATOM      2  N   UNL A   1      31.909  30.191  25.212  1.00  0.00    -0.355 N 
ATOM      3  C   UNL A   1      32.405  29.064  24.649  1.00  0.00     0.231 C 
ATOM      4  O   UNL A   1      32.837  29.240  23.507  1.00  0.00    -0.274 OA
ATOM      5  H   UNL A   1      31.614  30.862  24.555  1.00  0.00     0.163 HD
BRANCH   3   6
ATOM      6  C   UNL A   1      32.496  27.712  25.389  1.00  0.00     0.096 C 
ATOM      7  C   UNL A   1      31.407  27.515  26.466  1.00  0.00     0.028 C 
ATOM      8  C   UNL A   1      33.856  27.732  26.139  1.00  0.00     0.028 C 
BRANCH   6   9
ATOM      9  C   UNL A   1      32.441  26.475  24.368  1.00  0.00     0.201 C 
BRANCH   9  10
ATOM     10  C   UNL A   1      31.123  26.202  23.476  1.00  0.00     0.017 C 
ATOM     11  C   UNL A   1      30.601  24.754  23.604  1.00  0.00     0.017 C 
ATOM     12  C   UNL A   1      31.528  26.326  21.971  1.00  0.00     0.017 C 
BRANCH  10  13
ATOM     13  C   UNL A   1      29.960  27.223  23.685  1.00  0.00     0.009 C 
ATOM     14  C   UNL A   1      28.555  26.657  23.876  1.00  0.00     0.005 C 
ENDBRANCH  10  13
ENDBRANCH   9  10
BRANCH   9  15
ATOM     15  N   UNL A   1      33.644  26.405  23.512  1.00  0.00    -0.354 N 
ATOM     16  H   UNL A   1      34.081  27.325  23.464  1.00  0.00     0.344 HD
ATOM     17  H   UNL A   1      33.376  26.107  22.574  1.00  0.00     0.344 HD
ATOM     18  H   UNL A   1      34.303  25.734  23.905  1.00  0.00     0.344 HD
ENDBRANCH   9  15
ENDBRANCH   6   9
ENDBRANCH   3   6
ENDBRANCH   1   2
BRANCH   1  19
ATOM     19  C   UNL A   1      31.580  32.121  26.666  1.00  0.00     0.042 C 
BRANCH  19  20
ATOM     20  C   UNL A   1      32.787  32.812  27.285  1.00  0.00     0.118 C 
BRANCH  20  21
ATOM     21  N   UNL A   1      32.518  34.203  27.626  1.00  0.00    -0.352 N 
ATOM     22  C   UNL A   1      33.027  34.961  28.651  1.00  0.00     0.251 C 
ATOM     23  H   UNL A   1      31.878  34.665  27.037  1.00  0.00     0.163 HD
ATOM     24  O   UNL A   1      32.529  36.047  28.928  1.00  0.00    -0.269 OA
BRANCH  22  25
ATOM     25  C   UNL A   1      34.168  34.447  29.433  1.00  0.00     0.039 A 
ATOM     26  C   UNL A   1      33.931  33.833  30.664  1.00  0.00     0.014 A 
ATOM     27  C   UNL A   1      35.470  34.554  28.937  1.00  0.00     0.014 A 
ATOM     28  C   UNL A   1      34.995  33.261  31.363  1.00  0.00     0.010 A 
ATOM     29  C   UNL A   1      36.508  33.893  29.579  1.00  0.00     0.010 A 
ATOM     30  C   UNL A   1      36.284  33.251  30.806  1.00  0.00    -0.014 A 
BRANCH  30  31
ATOM     31  C   UNL A   1      37.422  32.595  31.497  1.00  0.00     0.031 A 
ATOM     32  C   UNL A   1      38.129  31.441  30.844  1.00  0.00     0.074 A 
ATOM     33  C   UNL A   1      37.774  32.995  32.733  1.00  0.00     0.049 A 
ATOM     34  N   UNL A   1      39.097  30.690  31.307  1.00  0.00    -0.248 NA
ATOM     35  C   UNL A   1      37.665  31.055  29.501  1.00  0.00     0.031 C 
ATOM     36  C   UNL A   1      37.132  34.072  33.491  1.00  0.00     0.029 A 
ATOM     37  N   UNL A   1      38.755  32.536  33.576  1.00  0.00    -0.354 N 
ATOM     38  C   UNL A   1      39.344  29.744  30.322  1.00  0.00     0.074 A 
ATOM     39  C   UNL A   1      38.379  29.966  29.269  1.00  0.00     0.031 C 
ATOM     40  C   UNL A   1      37.761  34.216  34.668  1.00  0.00     0.029 A 
ATOM     41  C   UNL A   1      38.817  33.215  34.769  1.00  0.00     0.049 A 
ATOM     42  H   UNL A   1      39.357  31.793  33.347  1.00  0.00     0.167 HD
ATOM     43  C   UNL A   1      40.310  28.796  30.282  1.00  0.00     0.037 A 
ATOM     44  C   UNL A   1      39.634  33.042  35.825  1.00  0.00     0.037 A 
ATOM     45  C   UNL A   1      41.278  28.590  31.326  1.00  0.00     0.049 A 
ATOM     46  C   UNL A   1      40.680  31.961  35.771  1.00  0.00     0.074 A 
ATOM     47  C   UNL A   1      42.326  27.689  31.368  1.00  0.00     0.029 A 
ATOM     48  N   UNL A   1      41.310  29.297  32.521  1.00  0.00    -0.354 N 
ATOM     49  N   UNL A   1      40.951  31.117  34.805  1.00  0.00    -0.248 NA
ATOM     50  C   UNL A   1      41.537  31.813  36.955  1.00  0.00     0.031 C 
ATOM     51  C   UNL A   1      42.961  27.815  32.609  1.00  0.00     0.029 A 
ATOM     52  C   UNL A   1      42.346  28.836  33.316  1.00  0.00     0.049 A 
ATOM     53  H   UNL A   1      40.688  30.020  32.766  1.00  0.00     0.167 HD
ATOM     54  C   UNL A   1      42.030  30.362  35.248  1.00  0.00     0.074 A 
ATOM     55  C   UNL A   1      42.371  30.859  36.565  1.00  0.00     0.031 C 
ATOM     56  C   UNL A   1      42.679  29.351  34.621  1.00  0.00     0.037 A 
BRANCH  43  57
ATOM     57  C   UNL A   1      40.363  27.914  29.066  1.00  0.00     0.064 A 
ATOM     58  C   UNL A   1      41.129  28.257  27.940  1.00  0.00     0.173 A 
ATOM     59  C   UNL A   1      39.648  26.708  29.025  1.00  0.00     0.173 A 
ATOM     60  F   UNL A   1      41.824  29.406  27.920  1.00  0.00    -0.203 F 
ATOM     61  C   UNL A   1      41.144  27.449  26.807  1.00  0.00     0.198 A 
ATOM     62  C   UNL A   1      39.693  25.884  27.904  1.00  0.00     0.198 A 
ATOM     63  F   UNL A   1      38.903  26.328  30.074  1.00  0.00    -0.203 F 
ATOM     64  F   UNL A   1      41.830  27.832  25.722  1.00  0.00    -0.200 F 
ATOM     65  C   UNL A   1      40.432  26.260  26.792  1.00  0.00     0.200 A 
ATOM     66  F   UNL A   1      39.016  24.727  27.896  1.00  0.00    -0.200 F 
ATOM     67  F   UNL A   1      40.447  25.482  25.701  1.00  0.00    -0.200 F 
ENDBRANCH  43  57
BRANCH  44  68
ATOM     68  C   UNL A   1      39.523  33.937  37.007  1.00  0.00     0.064 A 
ATOM     69  C   UNL A   1      38.765  33.557  38.124  1.00  0.00     0.173 A 
ATOM     70  C   UNL A   1      40.162  35.185  37.049  1.00  0.00     0.173 A 
ATOM     71  F   UNL A   1      38.119  32.381  38.126  1.00  0.00    -0.203 F 
ATOM     72  C   UNL A   1      38.629  34.400  39.225  1.00  0.00     0.198 A 
ATOM     73  C   UNL A   1      40.052  36.013  38.164  1.00  0.00     0.198 A 
ATOM     74  F   UNL A   1      40.905  35.594  36.011  1.00  0.00    -0.203 F 
ATOM     75  F   UNL A   1      37.859  34.031  40.257  1.00  0.00    -0.200 F 
ATOM     76  C   UNL A   1      39.278  35.625  39.247  1.00  0.00     0.200 A 
ATOM     77  F   UNL A   1      40.693  37.190  38.187  1.00  0.00    -0.200 F 
ATOM     78  F   UNL A   1      39.152  36.433  40.307  1.00  0.00    -0.200 F 
ENDBRANCH  44  68
BRANCH  56  79
ATOM     79  C   UNL A   1      43.855  28.744  35.331  1.00  0.00     0.064 A 
ATOM     80  C   UNL A   1      43.714  27.647  36.193  1.00  0.00     0.173 A 
ATOM     81  C   UNL A   1      45.148  29.245  35.113  1.00  0.00     0.173 A 
ATOM     82  F   UNL A   1      42.498  27.140  36.448  1.00  0.00    -0.203 F 
ATOM     83  C   UNL A   1      44.820  27.093  36.833  1.00  0.00     0.198 A 
ATOM     84  C   UNL A   1      46.254  28.667  35.727  1.00  0.00     0.198 A 
ATOM     85  F   UNL A   1      45.340  30.288  34.291  1.00  0.00    -0.203 F 
ATOM     86  F   UNL A   1      44.654  26.080  37.696  1.00  0.00    -0.200 F 
ATOM     87  C   UNL A   1      46.089  27.597  36.594  1.00  0.00     0.200 A 
ATOM     88  F   UNL A   1      47.482  29.145  35.480  1.00  0.00    -0.200 F 
ATOM     89  F   UNL A   1      47.153  27.057  37.204  1.00  0.00    -0.200 F 
ENDBRANCH  56  79
ENDBRANCH  30  31
ENDBRANCH  22  25
ENDBRANCH  20  21
ENDBRANCH  19  20
ENDBRANCH   1  19
TORSDOF 14
ENDMDL
MODEL 2
REMARK VINA RESULT:     -11.2      0.813      1.637
REMARK SMILES CCC(C)(C)[C@@H]([NH3+])C(C)(C)C(=O)NCCCNC(=O)c1ccc(-c2c3nc(c(-c4c(F)c(F)c(F)c(F)c4F)c4ccc([nH]4)c(-c4c(F)c(F)c(F)c(F)c4F)c4nc(c(-c5c(F)c(F)c(F)c(F)c5F)c5ccc2[nH]5)C=C4)C=C3)cc1
REMARK SMILES IDX 14 1 13 2 11 3 12 4 8 6 9 7 10 8 6 9 3 10 4 11 5 12 2 13
REMARK SMILES IDX 1 14 7 15 15 19 16 20 17 21 18 22 19 24 20 25 21 26 82 27
REMARK SMILES IDX 22 28 81 29 23 30 24 31 25 32 75 33 26 34 80 35 74 36 76 37
REMARK SMILES IDX 27 38 79 39 73 40 72 41 28 43 60 44 40 45 59 46 41 47 44 48
REMARK SMILES IDX 58 49 77 50 42 51 43 52 57 54 78 55 45 56 29 57 30 58 38 59
REMARK SMILES IDX 31 60 32 61 36 62 39 63 33 64 34 65 37 66 35 67 61 68 62 69
REMARK SMILES IDX 70 70 63 71 64 72 68 73 71 74 65 75 66 76 69 77 67 78 46 79
REMARK SMILES IDX 47 80 55 81 48 82 49 83 53 84 56 85 50 86 51 87 54 88 52 89
REMARK H PARENT 13 5 7 16 7 17 7 18 17 23 76 42 44 53
REMARK Flexibility Score: inf
ROOT
ATOM      1  C   UNL A   1      31.676  30.754  26.155  1.00  0.00     0.117 C 
ENDROOT
BRANCH   1   2
ATOM      2  N   UNL A   1      32.969  30.296  26.614  1.00  0.00    -0.355 N 
ATOM      3  C   UNL A   1      33.583  29.089  26.590  1.00  0.00     0.231 C 
ATOM      4  O   UNL A   1      34.444  28.964  27.463  1.00  0.00    -0.274 OA
ATOM      5  H   UNL A   1      33.512  31.005  27.029  1.00  0.00     0.163 HD
BRANCH   3   6
ATOM      6  C   UNL A   1      33.188  27.955  25.619  1.00  0.00     0.096 C 
ATOM      7  C   UNL A   1      33.986  26.649  25.829  1.00  0.00     0.028 C 
ATOM      8  C   UNL A   1      33.551  28.468  24.199  1.00  0.00     0.028 C 
BRANCH   6   9
ATOM      9  C   UNL A   1      31.621  27.621  25.708  1.00  0.00     0.201 C 
BRANCH   9  10
ATOM     10  C   UNL A   1      30.873  26.853  24.500  1.00  0.00     0.017 C 
ATOM     11  C   UNL A   1      30.136  27.815  23.542  1.00  0.00     0.017 C 
ATOM     12  C   UNL A   1      29.728  25.985  25.119  1.00  0.00     0.017 C 
BRANCH  10  13
ATOM     13  C   UNL A   1      31.767  25.858  23.695  1.00  0.00     0.009 C 
ATOM     14  C   UNL A   1      31.762  25.984  22.173  1.00  0.00     0.005 C 
ENDBRANCH  10  13
ENDBRANCH   9  10
BRANCH   9  15
ATOM     15  N   UNL A   1      31.257  26.994  26.996  1.00  0.00    -0.354 N 
ATOM     16  H   UNL A   1      31.995  26.352  27.283  1.00  0.00     0.344 HD
ATOM     17  H   UNL A   1      30.382  26.480  26.889  1.00  0.00     0.344 HD
ATOM     18  H   UNL A   1      31.140  27.717  27.706  1.00  0.00     0.344 HD
ENDBRANCH   9  15
ENDBRANCH   6   9
ENDBRANCH   3   6
ENDBRANCH   1   2
BRANCH   1  19
ATOM     19  C   UNL A   1      31.410  32.172  26.640  1.00  0.00     0.042 C 
BRANCH  19  20
ATOM     20  C   UNL A   1      32.591  32.789  27.375  1.00  0.00     0.118 C 
BRANCH  20  21
ATOM     21  N   UNL A   1      32.412  34.216  27.616  1.00  0.00    -0.352 N 
ATOM     22  C   UNL A   1      33.008  35.019  28.557  1.00  0.00     0.251 C 
ATOM     23  H   UNL A   1      31.772  34.667  27.020  1.00  0.00     0.163 HD
ATOM     24  O   UNL A   1      32.581  36.150  28.768  1.00  0.00    -0.269 OA
BRANCH  22  25
ATOM     25  C   UNL A   1      34.153  34.502  29.330  1.00  0.00     0.039 A 
ATOM     26  C   UNL A   1      33.926  33.893  30.565  1.00  0.00     0.014 A 
ATOM     27  C   UNL A   1      35.451  34.601  28.821  1.00  0.00     0.014 A 
ATOM     28  C   UNL A   1      34.994  33.318  31.256  1.00  0.00     0.010 A 
ATOM     29  C   UNL A   1      36.492  33.938  29.455  1.00  0.00     0.010 A 
ATOM     30  C   UNL A   1      36.277  33.300  30.685  1.00  0.00    -0.014 A 
BRANCH  30  31
ATOM     31  C   UNL A   1      37.419  32.641  31.368  1.00  0.00     0.031 A 
ATOM     32  C   UNL A   1      38.137  31.505  30.696  1.00  0.00     0.074 A 
ATOM     33  C   UNL A   1      37.764  33.021  32.612  1.00  0.00     0.049 A 
ATOM     34  N   UNL A   1      39.110  30.754  31.148  1.00  0.00    -0.248 NA
ATOM     35  C   UNL A   1      37.680  31.140  29.344  1.00  0.00     0.031 C 
ATOM     36  C   UNL A   1      37.112  34.078  33.388  1.00  0.00     0.029 A 
ATOM     37  N   UNL A   1      38.746  32.555  33.450  1.00  0.00    -0.354 N 
ATOM     38  C   UNL A   1      39.367  29.828  30.146  1.00  0.00     0.074 A 
ATOM     39  C   UNL A   1      38.403  30.061  29.095  1.00  0.00     0.031 C 
ATOM     40  C   UNL A   1      37.736  34.207  34.569  1.00  0.00     0.029 A 
ATOM     41  C   UNL A   1      38.800  33.212  34.655  1.00  0.00     0.049 A 
ATOM     42  H   UNL A   1      39.355  31.821  33.209  1.00  0.00     0.167 HD
ATOM     43  C   UNL A   1      40.341  28.889  30.091  1.00  0.00     0.037 A 
ATOM     44  C   UNL A   1      39.616  33.027  35.710  1.00  0.00     0.037 A 
ATOM     45  C   UNL A   1      41.308  28.672  31.135  1.00  0.00     0.049 A 
ATOM     46  C   UNL A   1      40.670  31.956  35.638  1.00  0.00     0.074 A 
ATOM     47  C   UNL A   1      42.363  27.779  31.163  1.00  0.00     0.029 A 
ATOM     48  N   UNL A   1      41.331  29.357  32.342  1.00  0.00    -0.354 N 
ATOM     49  N   UNL A   1      40.951  31.131  34.659  1.00  0.00    -0.248 NA
ATOM     50  C   UNL A   1      41.526  31.793  36.822  1.00  0.00     0.031 C 
ATOM     51  C   UNL A   1      42.994  27.887  32.408  1.00  0.00     0.029 A 
ATOM     52  C   UNL A   1      42.369  28.890  33.132  1.00  0.00     0.049 A 
ATOM     53  H   UNL A   1      40.703  30.070  32.599  1.00  0.00     0.167 HD
ATOM     54  C   UNL A   1      42.034  30.377  35.091  1.00  0.00     0.074 A 
ATOM     55  C   UNL A   1      42.368  30.853  36.417  1.00  0.00     0.031 C 
ATOM     56  C   UNL A   1      42.694  29.383  34.447  1.00  0.00     0.037 A 
BRANCH  43  57
ATOM     57  C   UNL A   1      40.404  28.030  28.860  1.00  0.00     0.064 A 
ATOM     58  C   UNL A   1      41.147  28.414  27.732  1.00  0.00     0.173 A 
ATOM     59  C   UNL A   1      39.723  26.805  28.806  1.00  0.00     0.173 A 
ATOM     60  F   UNL A   1      41.809  29.582  27.724  1.00  0.00    -0.203 F 
ATOM     61  C   UNL A   1      41.172  27.626  26.585  1.00  0.00     0.198 A 
ATOM     62  C   UNL A   1      39.779  26.001  27.670  1.00  0.00     0.198 A 
ATOM     63  F   UNL A   1      39.002  26.385  29.856  1.00  0.00    -0.203 F 
ATOM     64  F   UNL A   1      41.833  28.047  25.498  1.00  0.00    -0.200 F 
ATOM     65  C   UNL A   1      40.493  26.417  26.557  1.00  0.00     0.200 A 
ATOM     66  F   UNL A   1      39.134  24.826  27.650  1.00  0.00    -0.200 F 
ATOM     67  F   UNL A   1      40.518  25.659  25.452  1.00  0.00    -0.200 F 
ENDBRANCH  43  57
BRANCH  44  68
ATOM     68  C   UNL A   1      39.494  33.899  36.908  1.00  0.00     0.064 A 
ATOM     69  C   UNL A   1      38.752  33.484  38.023  1.00  0.00     0.173 A 
ATOM     70  C   UNL A   1      40.106  35.159  36.966  1.00  0.00     0.173 A 
ATOM     71  F   UNL A   1      38.133  32.294  38.010  1.00  0.00    -0.203 F 
ATOM     72  C   UNL A   1      38.607  34.304  39.140  1.00  0.00     0.198 A 
ATOM     73  C   UNL A   1      39.986  35.966  38.096  1.00  0.00     0.198 A 
ATOM     74  F   UNL A   1      40.832  35.602  35.930  1.00  0.00    -0.203 F 
ATOM     75  F   UNL A   1      37.852  33.902  40.171  1.00  0.00    -0.200 F 
ATOM     76  C   UNL A   1      39.229  35.543  39.178  1.00  0.00     0.200 A 
ATOM     77  F   UNL A   1      40.602  37.156  38.134  1.00  0.00    -0.200 F 
ATOM     78  F   UNL A   1      39.093  36.330  40.253  1.00  0.00    -0.200 F 
ENDBRANCH  44  68
BRANCH  56  79
ATOM     79  C   UNL A   1      43.873  28.773  35.149  1.00  0.00     0.064 A 
ATOM     80  C   UNL A   1      45.172  29.274  34.988  1.00  0.00     0.173 A 
ATOM     81  C   UNL A   1      43.691  27.693  36.028  1.00  0.00     0.173 A 
ATOM     82  F   UNL A   1      45.403  30.296  34.149  1.00  0.00    -0.203 F 
ATOM     83  C   UNL A   1      46.249  28.699  35.657  1.00  0.00     0.198 A 
ATOM     84  C   UNL A   1      44.764  27.143  36.721  1.00  0.00     0.198 A 
ATOM     85  F   UNL A   1      42.467  27.180  36.224  1.00  0.00    -0.203 F 
ATOM     86  F   UNL A   1      47.490  29.160  35.445  1.00  0.00    -0.200 F 
ATOM     87  C   UNL A   1      46.044  27.640  36.529  1.00  0.00     0.200 A 
ATOM     88  F   UNL A   1      44.560  26.131  37.575  1.00  0.00    -0.200 F 
ATOM     89  F   UNL A   1      47.081  27.094  37.178  1.00  0.00    -0.200 F 
ENDBRANCH  56  79
ENDBRANCH  30  31
ENDBRANCH  22  25
ENDBRANCH  20  21
ENDBRANCH  19  20
ENDBRANCH   1  19
TORSDOF 14
ENDMDL
MODEL 3
REMARK VINA RESULT:     -11.2      0.817      2.011
REMARK SMILES CCC(C)(C)[C@@H]([NH3+])C(C)(C)C(=O)NCCCNC(=O)c1ccc(-c2c3nc(c(-c4c(F)c(F)c(F)c(F)c4F)c4ccc([nH]4)c(-c4c(F)c(F)c(F)c(F)c4F)c4nc(c(-c5c(F)c(F)c(F)c(F)c5F)c5ccc2[nH]5)C=C4)C=C3)cc1
REMARK SMILES IDX 14 1 13 2 11 3 12 4 8 6 9 7 10 8 6 9 3 10 4 11 5 12 2 13
REMARK SMILES IDX 1 14 7 15 15 19 16 20 17 21 18 22 19 24 20 25 21 26 82 27
REMARK SMILES IDX 22 28 81 29 23 30 24 31 25 32 75 33 26 34 80 35 74 36 76 37
REMARK SMILES IDX 27 38 79 39 73 40 72 41 28 43 60 44 40 45 59 46 41 47 44 48
REMARK SMILES IDX 58 49 77 50 42 51 43 52 57 54 78 55 45 56 29 57 30 58 38 59
REMARK SMILES IDX 31 60 32 61 36 62 39 63 33 64 34 65 37 66 35 67 61 68 62 69
REMARK SMILES IDX 70 70 63 71 64 72 68 73 71 74 65 75 66 76 69 77 67 78 46 79
REMARK SMILES IDX 47 80 55 81 48 82 49 83 53 84 56 85 50 86 51 87 54 88 52 89
REMARK H PARENT 13 5 7 16 7 17 7 18 17 23 76 42 44 53
REMARK Flexibility Score: inf
ROOT
ATOM      1  C   UNL A   1      31.696  30.774  26.150  1.00  0.00     0.117 C 
ENDROOT
BRANCH   1   2
ATOM      2  N   UNL A   1      32.949  30.275  26.675  1.00  0.00    -0.355 N 
ATOM      3  C   UNL A   1      33.535  29.054  26.661  1.00  0.00     0.231 C 
ATOM      4  O   UNL A   1      34.340  28.890  27.581  1.00  0.00    -0.274 OA
ATOM      5  H   UNL A   1      33.482  30.963  27.135  1.00  0.00     0.163 HD
BRANCH   3   6
ATOM      6  C   UNL A   1      33.172  27.949  25.645  1.00  0.00     0.096 C 
ATOM      7  C   UNL A   1      33.927  26.621  25.873  1.00  0.00     0.028 C 
ATOM      8  C   UNL A   1      33.629  28.482  24.260  1.00  0.00     0.028 C 
BRANCH   6   9
ATOM      9  C   UNL A   1      31.596  27.651  25.636  1.00  0.00     0.201 C 
BRANCH   9  10
ATOM     10  C   UNL A   1      30.891  26.984  24.344  1.00  0.00     0.017 C 
ATOM     11  C   UNL A   1      30.245  28.029  23.407  1.00  0.00     0.017 C 
ATOM     12  C   UNL A   1      29.683  26.127  24.845  1.00  0.00     0.017 C 
BRANCH  10  13
ATOM     13  C   UNL A   1      31.794  26.004  23.531  1.00  0.00     0.009 C 
ATOM     14  C   UNL A   1      31.643  26.008  22.011  1.00  0.00     0.005 C 
ENDBRANCH  10  13
ENDBRANCH   9  10
BRANCH   9  15
ATOM     15  N   UNL A   1      31.153  26.949  26.860  1.00  0.00    -0.354 N 
ATOM     16  H   UNL A   1      30.276  26.464  26.676  1.00  0.00     0.344 HD
ATOM     17  H   UNL A   1      31.016  27.628  27.609  1.00  0.00     0.344 HD
ATOM     18  H   UNL A   1      31.864  26.274  27.141  1.00  0.00     0.344 HD
ENDBRANCH   9  15
ENDBRANCH   6   9
ENDBRANCH   3   6
ENDBRANCH   1   2
BRANCH   1  19
ATOM     19  C   UNL A   1      31.417  32.173  26.678  1.00  0.00     0.042 C 
BRANCH  19  20
ATOM     20  C   UNL A   1      32.620  32.813  27.355  1.00  0.00     0.118 C 
BRANCH  20  21
ATOM     21  N   UNL A   1      32.419  34.232  27.621  1.00  0.00    -0.352 N 
ATOM     22  C   UNL A   1      32.998  35.027  28.580  1.00  0.00     0.251 C 
ATOM     23  H   UNL A   1      31.776  34.685  27.029  1.00  0.00     0.163 HD
ATOM     24  O   UNL A   1      32.553  36.147  28.809  1.00  0.00    -0.269 OA
BRANCH  22  25
ATOM     25  C   UNL A   1      34.147  34.513  29.350  1.00  0.00     0.039 A 
ATOM     26  C   UNL A   1      33.924  33.906  30.587  1.00  0.00     0.014 A 
ATOM     27  C   UNL A   1      35.442  34.612  28.835  1.00  0.00     0.014 A 
ATOM     28  C   UNL A   1      34.995  33.334  31.275  1.00  0.00     0.010 A 
ATOM     29  C   UNL A   1      36.486  33.951  29.467  1.00  0.00     0.010 A 
ATOM     30  C   UNL A   1      36.276  33.316  30.700  1.00  0.00    -0.014 A 
BRANCH  30  31
ATOM     31  C   UNL A   1      37.421  32.659  31.379  1.00  0.00     0.031 A 
ATOM     32  C   UNL A   1      38.136  31.520  30.709  1.00  0.00     0.074 A 
ATOM     33  C   UNL A   1      37.772  33.044  32.621  1.00  0.00     0.049 A 
ATOM     34  N   UNL A   1      39.111  30.771  31.159  1.00  0.00    -0.248 NA
ATOM     35  C   UNL A   1      37.673  31.150  29.361  1.00  0.00     0.031 C 
ATOM     36  C   UNL A   1      37.123  34.104  33.395  1.00  0.00     0.029 A 
ATOM     37  N   UNL A   1      38.758  32.581  33.455  1.00  0.00    -0.354 N 
ATOM     38  C   UNL A   1      39.364  29.841  30.160  1.00  0.00     0.074 A 
ATOM     39  C   UNL A   1      38.395  30.070  29.112  1.00  0.00     0.031 C 
ATOM     40  C   UNL A   1      37.753  34.237  34.574  1.00  0.00     0.029 A 
ATOM     41  C   UNL A   1      38.817  33.243  34.658  1.00  0.00     0.049 A 
ATOM     42  H   UNL A   1      39.366  31.846  33.214  1.00  0.00     0.167 HD
ATOM     43  C   UNL A   1      40.337  28.901  30.104  1.00  0.00     0.037 A 
ATOM     44  C   UNL A   1      39.638  33.061  35.710  1.00  0.00     0.037 A 
ATOM     45  C   UNL A   1      41.309  28.688  31.144  1.00  0.00     0.049 A 
ATOM     46  C   UNL A   1      40.692  31.990  35.638  1.00  0.00     0.074 A 
ATOM     47  C   UNL A   1      42.364  27.795  31.171  1.00  0.00     0.029 A 
ATOM     48  N   UNL A   1      41.337  29.379  32.349  1.00  0.00    -0.354 N 
ATOM     49  N   UNL A   1      40.968  31.162  34.660  1.00  0.00    -0.248 NA
ATOM     50  C   UNL A   1      41.553  31.831  36.818  1.00  0.00     0.031 C 
ATOM     51  C   UNL A   1      43.001  27.908  32.412  1.00  0.00     0.029 A 
ATOM     52  C   UNL A   1      42.379  28.914  33.135  1.00  0.00     0.049 A 
ATOM     53  H   UNL A   1      40.710  30.092  32.605  1.00  0.00     0.167 HD
ATOM     54  C   UNL A   1      42.054  30.409  35.090  1.00  0.00     0.074 A 
ATOM     55  C   UNL A   1      42.394  30.890  36.413  1.00  0.00     0.031 C 
ATOM     56  C   UNL A   1      42.710  29.413  34.446  1.00  0.00     0.037 A 
BRANCH  43  57
ATOM     57  C   UNL A   1      40.395  28.038  28.876  1.00  0.00     0.064 A 
ATOM     58  C   UNL A   1      39.710  26.814  28.804  1.00  0.00     0.173 A 
ATOM     59  C   UNL A   1      41.134  28.438  27.753  1.00  0.00     0.173 A 
ATOM     60  F   UNL A   1      38.997  26.375  29.853  1.00  0.00    -0.203 F 
ATOM     61  C   UNL A   1      39.797  26.007  27.673  1.00  0.00     0.198 A 
ATOM     62  C   UNL A   1      41.189  27.646  26.609  1.00  0.00     0.198 A 
ATOM     63  F   UNL A   1      41.803  29.601  27.763  1.00  0.00    -0.203 F 
ATOM     64  F   UNL A   1      39.189  24.813  27.654  1.00  0.00    -0.200 F 
ATOM     65  C   UNL A   1      40.531  26.426  26.574  1.00  0.00     0.200 A 
ATOM     66  F   UNL A   1      41.888  28.060  25.542  1.00  0.00    -0.200 F 
ATOM     67  F   UNL A   1      40.614  25.650  25.485  1.00  0.00    -0.200 F 
ENDBRANCH  43  57
BRANCH  44  68
ATOM     68  C   UNL A   1      39.522  33.938  36.905  1.00  0.00     0.064 A 
ATOM     69  C   UNL A   1      40.168  35.181  36.947  1.00  0.00     0.173 A 
ATOM     70  C   UNL A   1      38.774  33.556  38.028  1.00  0.00     0.173 A 
ATOM     71  F   UNL A   1      40.912  35.585  35.905  1.00  0.00    -0.203 F 
ATOM     72  C   UNL A   1      40.091  35.998  38.073  1.00  0.00     0.198 A 
ATOM     73  C   UNL A   1      38.671  34.387  39.142  1.00  0.00     0.198 A 
ATOM     74  F   UNL A   1      38.130  32.379  38.038  1.00  0.00    -0.203 F 
ATOM     75  F   UNL A   1      40.759  37.158  38.104  1.00  0.00    -0.200 F 
ATOM     76  C   UNL A   1      39.337  35.603  39.168  1.00  0.00     0.200 A 
ATOM     77  F   UNL A   1      37.928  34.007  40.191  1.00  0.00    -0.200 F 
ATOM     78  F   UNL A   1      39.259  36.389  40.249  1.00  0.00    -0.200 F 
ENDBRANCH  44  68
BRANCH  56  79
ATOM     79  C   UNL A   1      43.892  28.804  35.146  1.00  0.00     0.064 A 
ATOM     80  C   UNL A   1      43.761  27.696  35.994  1.00  0.00     0.173 A 
ATOM     81  C   UNL A   1      45.181  29.318  34.931  1.00  0.00     0.173 A 
ATOM     82  F   UNL A   1      42.550  27.176  36.245  1.00  0.00    -0.203 F 
ATOM     83  C   UNL A   1      44.873  27.142  36.624  1.00  0.00     0.198 A 
ATOM     84  C   UNL A   1      46.293  28.740  35.534  1.00  0.00     0.198 A 
ATOM     85  F   UNL A   1      45.363  30.373  34.122  1.00  0.00    -0.203 F 
ATOM     86  F   UNL A   1      44.717  26.116  37.473  1.00  0.00    -0.200 F 
ATOM     87  C   UNL A   1      46.138  27.658  36.387  1.00  0.00     0.200 A 
ATOM     88  F   UNL A   1      47.516  29.230  35.290  1.00  0.00    -0.200 F 
ATOM     89  F   UNL A   1      47.207  27.118  36.988  1.00  0.00    -0.200 F 
ENDBRANCH  56  79
ENDBRANCH  30  31
ENDBRANCH  22  25
ENDBRANCH  20  21
ENDBRANCH  19  20
ENDBRANCH   1  19
TORSDOF 14
ENDMDL
