MODEL 1
REMARK VINA RESULT:     -11.8      0.000      0.000
REMARK SMILES CC(C)(Cn1ccc(=O)nc1SCC(=O)NCCCNC(=O)c1ccc(-c2c3nc(c(-c4c(F)c(F)c(F)c(F)c4F)c4ccc([nH]4)c(-c4c(F)c(F)c(F)c(F)c4F)c4nc(c(-c5c(F)c(F)c(F)c(F)c5F)c5ccc2[nH]5)C=C4)C=C3)cc1)S(C)(=O)=O
REMARK SMILES IDX 14 1 15 2 16 3 13 5 12 6 11 7 5 8 6 9 7 10 10 11 8 12 9 13
REMARK SMILES IDX 4 14 2 15 1 16 3 17 86 18 87 19 88 20 89 21 17 22 18 23
REMARK SMILES IDX 19 24 20 25 21 26 22 28 23 29 24 30 85 31 25 32 84 33 26 34
REMARK SMILES IDX 27 35 28 36 78 37 29 38 83 39 77 40 79 41 30 42 82 43 76 44
REMARK SMILES IDX 75 45 31 47 63 48 43 49 62 50 44 51 47 52 61 53 80 54 45 55
REMARK SMILES IDX 46 56 60 58 81 59 48 60 32 61 33 62 41 63 34 64 35 65 39 66
REMARK SMILES IDX 42 67 36 68 37 69 40 70 38 71 64 72 65 73 73 74 66 75 67 76
REMARK SMILES IDX 71 77 74 78 68 79 69 80 72 81 70 82 49 83 50 84 58 85 51 86
REMARK SMILES IDX 52 87 56 88 59 89 53 90 54 91 57 92 55 93
REMARK H PARENT 16 4 20 27 79 46 47 57
REMARK Flexibility Score: inf
ROOT
ATOM      1  C   UNL A   1      33.844  29.379  26.767  1.00  0.00     0.230 C 
ATOM      2  O   UNL A   1      35.042  29.460  27.037  1.00  0.00    -0.274 OA
ATOM      3  N   UNL A   1      33.217  30.462  26.230  1.00  0.00    -0.355 N 
ATOM      4  H   UNL A   1      33.795  31.137  25.808  1.00  0.00     0.163 HD
ENDROOT
BRANCH   1   5
ATOM      5  C   UNL A   1      33.073  28.096  26.917  1.00  0.00     0.178 C 
BRANCH   5   6
ATOM      6  S   UNL A   1      33.615  26.746  25.888  1.00  0.00    -0.078 SA
BRANCH   6   7
ATOM      7  C   UNL A   1      32.740  25.266  26.249  1.00  0.00     0.172 A 
ATOM      8  N   UNL A   1      33.238  23.958  26.244  1.00  0.00    -0.326 N 
ATOM      9  C   UNL A   1      32.376  22.992  26.765  1.00  0.00     0.094 A 
ATOM     10  C   UNL A   1      31.087  23.223  27.013  1.00  0.00     0.091 A 
ATOM     11  N   UNL A   1      31.487  25.551  26.455  1.00  0.00    -0.185 NA
ATOM     12  C   UNL A   1      30.570  24.552  26.647  1.00  0.00     0.273 A 
ATOM     13  O   UNL A   1      29.358  24.709  26.551  1.00  0.00    -0.267 OA
BRANCH   8  14
ATOM     14  C   UNL A   1      34.612  23.532  25.927  1.00  0.00     0.146 C 
BRANCH  14  15
ATOM     15  C   UNL A   1      34.863  22.717  24.634  1.00  0.00     0.084 C 
ATOM     16  C   UNL A   1      34.440  21.243  24.620  1.00  0.00     0.030 C 
ATOM     17  C   UNL A   1      34.044  23.431  23.523  1.00  0.00     0.030 C 
BRANCH  15  18
ATOM     18  S   UNL A   1      36.624  22.823  24.144  1.00  0.00     0.154 S 
ATOM     19  C   UNL A   1      37.377  21.263  24.553  1.00  0.00     0.158 C 
ATOM     20  O   UNL A   1      36.663  22.932  22.696  1.00  0.00    -0.229 OA
ATOM     21  O   UNL A   1      37.264  23.838  24.960  1.00  0.00    -0.229 OA
ENDBRANCH  15  18
ENDBRANCH  14  15
ENDBRANCH   8  14
ENDBRANCH   6   7
ENDBRANCH   5   6
ENDBRANCH   1   5
BRANCH   3  22
ATOM     22  C   UNL A   1      31.790  30.734  26.209  1.00  0.00     0.117 C 
BRANCH  22  23
ATOM     23  C   UNL A   1      31.508  32.137  26.732  1.00  0.00     0.042 C 
BRANCH  23  24
ATOM     24  C   UNL A   1      32.745  32.785  27.337  1.00  0.00     0.118 C 
BRANCH  24  25
ATOM     25  N   UNL A   1      32.520  34.196  27.632  1.00  0.00    -0.352 N 
ATOM     26  C   UNL A   1      33.022  34.945  28.666  1.00  0.00     0.251 C 
ATOM     27  H   UNL A   1      31.929  34.674  27.005  1.00  0.00     0.163 HD
ATOM     28  O   UNL A   1      32.516  36.019  28.968  1.00  0.00    -0.269 OA
BRANCH  26  29
ATOM     29  C   UNL A   1      34.173  34.416  29.417  1.00  0.00     0.039 A 
ATOM     30  C   UNL A   1      35.456  34.557  28.885  1.00  0.00     0.014 A 
ATOM     31  C   UNL A   1      33.968  33.740  30.620  1.00  0.00     0.014 A 
ATOM     32  C   UNL A   1      36.510  33.866  29.456  1.00  0.00     0.010 A 
ATOM     33  C   UNL A   1      35.056  33.146  31.259  1.00  0.00     0.010 A 
ATOM     34  C   UNL A   1      36.328  33.175  30.663  1.00  0.00    -0.014 A 
BRANCH  34  35
ATOM     35  C   UNL A   1      37.494  32.535  31.314  1.00  0.00     0.031 A 
ATOM     36  C   UNL A   1      38.269  31.456  30.617  1.00  0.00     0.074 A 
ATOM     37  C   UNL A   1      37.861  32.964  32.535  1.00  0.00     0.049 A 
ATOM     38  N   UNL A   1      39.251  30.721  31.075  1.00  0.00    -0.248 NA
ATOM     39  C   UNL A   1      37.891  31.153  29.228  1.00  0.00     0.031 C 
ATOM     40  C   UNL A   1      37.202  34.038  33.286  1.00  0.00     0.029 A 
ATOM     41  N   UNL A   1      38.884  32.569  33.356  1.00  0.00    -0.354 N 
ATOM     42  C   UNL A   1      39.593  29.858  30.043  1.00  0.00     0.074 A 
ATOM     43  C   UNL A   1      38.700  30.143  28.939  1.00  0.00     0.031 C 
ATOM     44  C   UNL A   1      37.864  34.247  34.430  1.00  0.00     0.029 A 
ATOM     45  C   UNL A   1      38.933  33.263  34.539  1.00  0.00     0.049 A 
ATOM     46  H   UNL A   1      39.522  31.856  33.121  1.00  0.00     0.167 HD
ATOM     47  C   UNL A   1      40.569  28.920  30.025  1.00  0.00     0.037 A 
ATOM     48  C   UNL A   1      39.726  33.102  35.613  1.00  0.00     0.037 A 
ATOM     49  C   UNL A   1      41.460  28.664  31.129  1.00  0.00     0.049 A 
ATOM     50  C   UNL A   1      40.755  32.013  35.589  1.00  0.00     0.074 A 
ATOM     51  C   UNL A   1      42.473  27.725  31.223  1.00  0.00     0.029 A 
ATOM     52  N   UNL A   1      41.449  29.358  32.332  1.00  0.00    -0.354 N 
ATOM     53  N   UNL A   1      41.040  31.168  34.628  1.00  0.00    -0.248 NA
ATOM     54  C   UNL A   1      41.566  31.847  36.800  1.00  0.00     0.031 C 
ATOM     55  C   UNL A   1      43.045  27.822  32.494  1.00  0.00     0.029 A 
ATOM     56  C   UNL A   1      42.431  28.861  33.175  1.00  0.00     0.049 A 
ATOM     57  H   UNL A   1      40.835  30.096  32.552  1.00  0.00     0.167 HD
ATOM     58  C   UNL A   1      42.080  30.385  35.105  1.00  0.00     0.074 A 
ATOM     59  C   UNL A   1      42.383  30.867  36.438  1.00  0.00     0.031 C 
ATOM     60  C   UNL A   1      42.724  29.361  34.495  1.00  0.00     0.037 A 
BRANCH  47  61
ATOM     61  C   UNL A   1      40.722  28.084  28.786  1.00  0.00     0.064 A 
ATOM     62  C   UNL A   1      40.015  26.886  28.612  1.00  0.00     0.173 A 
ATOM     63  C   UNL A   1      41.531  28.526  27.727  1.00  0.00     0.173 A 
ATOM     64  F   UNL A   1      39.238  26.411  29.597  1.00  0.00    -0.203 F 
ATOM     65  C   UNL A   1      40.121  26.155  27.430  1.00  0.00     0.198 A 
ATOM     66  C   UNL A   1      41.611  27.810  26.536  1.00  0.00     0.198 A 
ATOM     67  F   UNL A   1      42.227  29.668  27.837  1.00  0.00    -0.203 F 
ATOM     68  F   UNL A   1      39.459  24.997  27.297  1.00  0.00    -0.200 F 
ATOM     69  C   UNL A   1      40.909  26.624  26.389  1.00  0.00     0.200 A 
ATOM     70  F   UNL A   1      42.362  28.271  25.527  1.00  0.00    -0.200 F 
ATOM     71  F   UNL A   1      40.994  25.930  25.245  1.00  0.00    -0.200 F 
ENDBRANCH  47  61
BRANCH  48  72
ATOM     72  C   UNL A   1      39.558  33.997  36.786  1.00  0.00     0.064 A 
ATOM     73  C   UNL A   1      38.788  33.599  37.886  1.00  0.00     0.173 A 
ATOM     74  C   UNL A   1      40.203  35.241  36.854  1.00  0.00     0.173 A 
ATOM     75  F   UNL A   1      38.139  32.425  37.860  1.00  0.00    -0.203 F 
ATOM     76  C   UNL A   1      38.666  34.414  39.010  1.00  0.00     0.198 A 
ATOM     77  C   UNL A   1      40.108  36.040  37.991  1.00  0.00     0.198 A 
ATOM     78  F   UNL A   1      40.960  35.663  35.831  1.00  0.00    -0.203 F 
ATOM     79  F   UNL A   1      37.900  34.024  40.037  1.00  0.00    -0.200 F 
ATOM     80  C   UNL A   1      39.335  35.628  39.065  1.00  0.00     0.200 A 
ATOM     81  F   UNL A   1      40.775  37.200  38.049  1.00  0.00    -0.200 F 
ATOM     82  F   UNL A   1      39.235  36.400  40.155  1.00  0.00    -0.200 F 
ENDBRANCH  48  72
BRANCH  60  83
ATOM     83  C   UNL A   1      43.855  28.723  35.245  1.00  0.00     0.064 A 
ATOM     84  C   UNL A   1      45.178  29.166  35.104  1.00  0.00     0.173 A 
ATOM     85  C   UNL A   1      43.604  27.678  36.147  1.00  0.00     0.173 A 
ATOM     86  F   UNL A   1      45.471  30.153  34.242  1.00  0.00    -0.203 F 
ATOM     87  C   UNL A   1      46.212  28.566  35.816  1.00  0.00     0.198 A 
ATOM     88  C   UNL A   1      44.635  27.103  36.882  1.00  0.00     0.198 A 
ATOM     89  F   UNL A   1      42.354  27.223  36.324  1.00  0.00    -0.203 F 
ATOM     90  F   UNL A   1      47.476  28.970  35.627  1.00  0.00    -0.200 F 
ATOM     91  C   UNL A   1      45.939  27.542  36.710  1.00  0.00     0.200 A 
ATOM     92  F   UNL A   1      44.368  26.123  37.755  1.00  0.00    -0.200 F 
ATOM     93  F   UNL A   1      46.935  26.970  37.401  1.00  0.00    -0.200 F 
ENDBRANCH  60  83
ENDBRANCH  34  35
ENDBRANCH  26  29
ENDBRANCH  24  25
ENDBRANCH  23  24
ENDBRANCH  22  23
ENDBRANCH   3  22
TORSDOF 15
ENDMDL
MODEL 2
REMARK VINA RESULT:     -11.7      0.485      7.335
REMARK SMILES CC(C)(Cn1ccc(=O)nc1SCC(=O)NCCCNC(=O)c1ccc(-c2c3nc(c(-c4c(F)c(F)c(F)c(F)c4F)c4ccc([nH]4)c(-c4c(F)c(F)c(F)c(F)c4F)c4nc(c(-c5c(F)c(F)c(F)c(F)c5F)c5ccc2[nH]5)C=C4)C=C3)cc1)S(C)(=O)=O
REMARK SMILES IDX 14 1 15 2 16 3 13 5 12 6 11 7 5 8 6 9 7 10 10 11 8 12 9 13
REMARK SMILES IDX 4 14 2 15 1 16 3 17 86 18 87 19 88 20 89 21 17 22 18 23
REMARK SMILES IDX 19 24 20 25 21 26 22 28 23 29 24 30 85 31 25 32 84 33 26 34
REMARK SMILES IDX 27 35 28 36 78 37 29 38 83 39 77 40 79 41 30 42 82 43 76 44
REMARK SMILES IDX 75 45 31 47 63 48 43 49 62 50 44 51 47 52 61 53 80 54 45 55
REMARK SMILES IDX 46 56 60 58 81 59 48 60 32 61 33 62 41 63 34 64 35 65 39 66
REMARK SMILES IDX 42 67 36 68 37 69 40 70 38 71 64 72 65 73 73 74 66 75 67 76
REMARK SMILES IDX 71 77 74 78 68 79 69 80 72 81 70 82 49 83 50 84 58 85 51 86
REMARK SMILES IDX 52 87 56 88 59 89 53 90 54 91 57 92 55 93
REMARK H PARENT 16 4 20 27 79 46 47 57
REMARK Flexibility Score: inf
ROOT
ATOM      1  C   UNL A   1      33.661  29.311  26.879  1.00  0.00     0.230 C 
ATOM      2  O   UNL A   1      34.851  29.304  27.195  1.00  0.00    -0.274 OA
ATOM      3  N   UNL A   1      33.113  30.464  26.408  1.00  0.00    -0.355 N 
ATOM      4  H   UNL A   1      33.741  31.136  26.059  1.00  0.00     0.163 HD
ENDROOT
BRANCH   1   5
ATOM      5  C   UNL A   1      32.819  28.065  26.903  1.00  0.00     0.178 C 
BRANCH   5   6
ATOM      6  S   UNL A   1      33.343  26.758  25.811  1.00  0.00    -0.078 SA
BRANCH   6   7
ATOM      7  C   UNL A   1      32.616  25.219  26.248  1.00  0.00     0.172 A 
ATOM      8  N   UNL A   1      33.227  23.959  26.255  1.00  0.00    -0.326 N 
ATOM      9  C   UNL A   1      32.474  22.938  26.838  1.00  0.00     0.094 A 
ATOM     10  C   UNL A   1      31.181  23.064  27.135  1.00  0.00     0.091 A 
ATOM     11  N   UNL A   1      31.353  25.401  26.500  1.00  0.00    -0.185 NA
ATOM     12  C   UNL A   1      30.536  24.333  26.757  1.00  0.00     0.273 A 
ATOM     13  O   UNL A   1      29.312  24.381  26.709  1.00  0.00    -0.267 OA
BRANCH   8  14
ATOM     14  C   UNL A   1      34.619  23.644  25.890  1.00  0.00     0.146 C 
BRANCH  14  15
ATOM     15  C   UNL A   1      34.883  22.727  24.671  1.00  0.00     0.084 C 
ATOM     16  C   UNL A   1      34.469  21.254  24.777  1.00  0.00     0.030 C 
ATOM     17  C   UNL A   1      34.068  23.342  23.500  1.00  0.00     0.030 C 
BRANCH  15  18
ATOM     18  S   UNL A   1      36.647  22.802  24.186  1.00  0.00     0.154 S 
ATOM     19  C   UNL A   1      37.359  21.212  24.550  1.00  0.00     0.158 C 
ATOM     20  O   UNL A   1      36.691  22.952  22.742  1.00  0.00    -0.229 OA
ATOM     21  O   UNL A   1      37.312  23.776  25.032  1.00  0.00    -0.229 OA
ENDBRANCH  15  18
ENDBRANCH  14  15
ENDBRANCH   8  14
ENDBRANCH   6   7
ENDBRANCH   5   6
ENDBRANCH   1   5
BRANCH   3  22
ATOM     22  C   UNL A   1      31.704  30.816  26.360  1.00  0.00     0.117 C 
BRANCH  22  23
ATOM     23  C   UNL A   1      31.511  32.285  26.712  1.00  0.00     0.042 C 
BRANCH  23  24
ATOM     24  C   UNL A   1      32.785  32.921  27.251  1.00  0.00     0.118 C 
BRANCH  24  25
ATOM     25  N   UNL A   1      32.562  34.304  27.657  1.00  0.00    -0.352 N 
ATOM     26  C   UNL A   1      33.035  34.957  28.768  1.00  0.00     0.251 C 
ATOM     27  H   UNL A   1      31.998  34.841  27.053  1.00  0.00     0.163 HD
ATOM     28  O   UNL A   1      32.528  36.007  29.143  1.00  0.00    -0.269 OA
BRANCH  26  29
ATOM     29  C   UNL A   1      34.154  34.352  29.509  1.00  0.00     0.039 A 
ATOM     30  C   UNL A   1      35.456  34.520  29.033  1.00  0.00     0.014 A 
ATOM     31  C   UNL A   1      33.902  33.583  30.645  1.00  0.00     0.014 A 
ATOM     32  C   UNL A   1      36.483  33.770  29.578  1.00  0.00     0.010 A 
ATOM     33  C   UNL A   1      34.961  32.924  31.268  1.00  0.00     0.010 A 
ATOM     34  C   UNL A   1      36.252  32.985  30.717  1.00  0.00    -0.014 A 
BRANCH  34  35
ATOM     35  C   UNL A   1      37.390  32.278  31.351  1.00  0.00     0.031 A 
ATOM     36  C   UNL A   1      37.879  32.672  32.712  1.00  0.00     0.074 A 
ATOM     37  C   UNL A   1      37.958  31.255  30.686  1.00  0.00     0.049 A 
ATOM     38  N   UNL A   1      38.920  32.231  33.373  1.00  0.00    -0.248 NA
ATOM     39  C   UNL A   1      37.107  33.700  33.428  1.00  0.00     0.031 C 
ATOM     40  C   UNL A   1      37.533  30.762  29.372  1.00  0.00     0.029 A 
ATOM     41  N   UNL A   1      39.000  30.432  31.025  1.00  0.00    -0.354 N 
ATOM     42  C   UNL A   1      38.940  32.938  34.567  1.00  0.00     0.074 A 
ATOM     43  C   UNL A   1      37.821  33.856  34.535  1.00  0.00     0.031 C 
ATOM     44  C   UNL A   1      38.272  29.696  29.040  1.00  0.00     0.029 A 
ATOM     45  C   UNL A   1      39.283  29.489  30.069  1.00  0.00     0.049 A 
ATOM     46  H   UNL A   1      39.497  30.509  31.871  1.00  0.00     0.167 HD
ATOM     47  C   UNL A   1      39.815  32.821  35.594  1.00  0.00     0.037 A 
ATOM     48  C   UNL A   1      40.272  28.581  30.006  1.00  0.00     0.037 A 
ATOM     49  C   UNL A   1      40.913  31.888  35.614  1.00  0.00     0.049 A 
ATOM     50  C   UNL A   1      41.263  28.519  31.128  1.00  0.00     0.074 A 
ATOM     51  C   UNL A   1      41.870  31.700  36.597  1.00  0.00     0.029 A 
ATOM     52  N   UNL A   1      41.197  30.979  34.604  1.00  0.00    -0.354 N 
ATOM     53  N   UNL A   1      41.305  29.226  32.231  1.00  0.00    -0.248 NA
ATOM     54  C   UNL A   1      42.349  27.542  30.994  1.00  0.00     0.031 C 
ATOM     55  C   UNL A   1      42.755  30.708  36.164  1.00  0.00     0.029 A 
ATOM     56  C   UNL A   1      42.318  30.234  34.937  1.00  0.00     0.049 A 
ATOM     57  H   UNL A   1      40.677  30.877  33.774  1.00  0.00     0.167 HD
ATOM     58  C   UNL A   1      42.406  28.764  32.937  1.00  0.00     0.074 A 
ATOM     59  C   UNL A   1      42.995  27.706  32.140  1.00  0.00     0.031 C 
ATOM     60  C   UNL A   1      42.884  29.179  34.135  1.00  0.00     0.037 A 
BRANCH  47  61
ATOM     61  C   UNL A   1      39.641  33.732  36.776  1.00  0.00     0.064 A 
ATOM     62  C   UNL A   1      40.211  35.012  36.813  1.00  0.00     0.173 A 
ATOM     63  C   UNL A   1      38.829  33.347  37.855  1.00  0.00     0.173 A 
ATOM     64  F   UNL A   1      41.006  35.426  35.815  1.00  0.00    -0.203 F 
ATOM     65  C   UNL A   1      39.987  35.867  37.890  1.00  0.00     0.198 A 
ATOM     66  C   UNL A   1      38.583  34.214  38.915  1.00  0.00     0.198 A 
ATOM     67  F   UNL A   1      38.254  32.134  37.870  1.00  0.00    -0.203 F 
ATOM     68  F   UNL A   1      40.568  37.075  37.919  1.00  0.00    -0.200 F 
ATOM     69  C   UNL A   1      39.164  35.472  38.934  1.00  0.00     0.200 A 
ATOM     70  F   UNL A   1      37.776  33.836  39.916  1.00  0.00    -0.200 F 
ATOM     71  F   UNL A   1      38.933  36.304  39.960  1.00  0.00    -0.200 F 
ENDBRANCH  47  61
BRANCH  48  72
ATOM     72  C   UNL A   1      40.357  27.674  28.832  1.00  0.00     0.064 A 
ATOM     73  C   UNL A   1      39.638  26.473  28.801  1.00  0.00     0.173 A 
ATOM     74  C   UNL A   1      41.117  28.012  27.702  1.00  0.00     0.173 A 
ATOM     75  F   UNL A   1      38.910  26.099  29.865  1.00  0.00    -0.203 F 
ATOM     76  C   UNL A   1      39.676  25.642  27.684  1.00  0.00     0.198 A 
ATOM     77  C   UNL A   1      41.129  27.197  26.573  1.00  0.00     0.198 A 
ATOM     78  F   UNL A   1      41.817  29.156  27.679  1.00  0.00    -0.203 F 
ATOM     79  F   UNL A   1      39.002  24.484  27.689  1.00  0.00    -0.200 F 
ATOM     80  C   UNL A   1      40.412  26.010  26.567  1.00  0.00     0.200 A 
ATOM     81  F   UNL A   1      41.822  27.569  25.489  1.00  0.00    -0.200 F 
ATOM     82  F   UNL A   1      40.431  25.221  25.485  1.00  0.00    -0.200 F 
ENDBRANCH  48  72
BRANCH  60  83
ATOM     83  C   UNL A   1      44.078  28.453  34.681  1.00  0.00     0.064 A 
ATOM     84  C   UNL A   1      45.386  28.897  34.441  1.00  0.00     0.173 A 
ATOM     85  C   UNL A   1      43.905  27.318  35.488  1.00  0.00     0.173 A 
ATOM     86  F   UNL A   1      45.603  29.969  33.663  1.00  0.00    -0.203 F 
ATOM     87  C   UNL A   1      46.480  28.214  34.965  1.00  0.00     0.198 A 
ATOM     88  C   UNL A   1      44.999  26.657  36.036  1.00  0.00     0.198 A 
ATOM     89  F   UNL A   1      42.673  26.857  35.754  1.00  0.00    -0.203 F 
ATOM     90  F   UNL A   1      47.723  28.625  34.680  1.00  0.00    -0.200 F 
ATOM     91  C   UNL A   1      46.285  27.100  35.768  1.00  0.00     0.200 A 
ATOM     92  F   UNL A   1      44.809  25.590  36.824  1.00  0.00    -0.200 F 
ATOM     93  F   UNL A   1      47.339  26.448  36.278  1.00  0.00    -0.200 F 
ENDBRANCH  60  83
ENDBRANCH  34  35
ENDBRANCH  26  29
ENDBRANCH  24  25
ENDBRANCH  23  24
ENDBRANCH  22  23
ENDBRANCH   3  22
TORSDOF 15
ENDMDL
MODEL 3
REMARK VINA RESULT:     -11.7      5.557      9.812
REMARK SMILES CC(C)(Cn1ccc(=O)nc1SCC(=O)NCCCNC(=O)c1ccc(-c2c3nc(c(-c4c(F)c(F)c(F)c(F)c4F)c4ccc([nH]4)c(-c4c(F)c(F)c(F)c(F)c4F)c4nc(c(-c5c(F)c(F)c(F)c(F)c5F)c5ccc2[nH]5)C=C4)C=C3)cc1)S(C)(=O)=O
REMARK SMILES IDX 14 1 15 2 16 3 13 5 12 6 11 7 5 8 6 9 7 10 10 11 8 12 9 13
REMARK SMILES IDX 4 14 2 15 1 16 3 17 86 18 87 19 88 20 89 21 17 22 18 23
REMARK SMILES IDX 19 24 20 25 21 26 22 28 23 29 24 30 85 31 25 32 84 33 26 34
REMARK SMILES IDX 27 35 28 36 78 37 29 38 83 39 77 40 79 41 30 42 82 43 76 44
REMARK SMILES IDX 75 45 31 47 63 48 43 49 62 50 44 51 47 52 61 53 80 54 45 55
REMARK SMILES IDX 46 56 60 58 81 59 48 60 32 61 33 62 41 63 34 64 35 65 39 66
REMARK SMILES IDX 42 67 36 68 37 69 40 70 38 71 64 72 65 73 73 74 66 75 67 76
REMARK SMILES IDX 71 77 74 78 68 79 69 80 72 81 70 82 49 83 50 84 58 85 51 86
REMARK SMILES IDX 52 87 56 88 59 89 53 90 54 91 57 92 55 93
REMARK H PARENT 16 4 20 27 79 46 47 57
REMARK Flexibility Score: inf
ROOT
ATOM      1  C   UNL A   1      36.778  22.889  23.915  1.00  0.00     0.230 C 
ATOM      2  O   UNL A   1      36.668  23.444  22.821  1.00  0.00    -0.274 OA
ATOM      3  N   UNL A   1      37.169  21.585  23.954  1.00  0.00    -0.355 N 
ATOM      4  H   UNL A   1      37.630  21.243  23.155  1.00  0.00     0.163 HD
ENDROOT
BRANCH   1   5
ATOM      5  C   UNL A   1      36.592  23.628  25.211  1.00  0.00     0.178 C 
BRANCH   5   6
ATOM      6  S   UNL A   1      34.942  23.605  25.883  1.00  0.00    -0.078 SA
BRANCH   6   7
ATOM      7  C   UNL A   1      33.796  22.890  24.758  1.00  0.00     0.172 A 
ATOM      8  N   UNL A   1      33.194  23.501  23.652  1.00  0.00    -0.326 N 
ATOM      9  C   UNL A   1      32.479  22.642  22.816  1.00  0.00     0.094 A 
ATOM     10  C   UNL A   1      32.163  21.392  23.153  1.00  0.00     0.091 A 
ATOM     11  N   UNL A   1      33.507  21.686  25.153  1.00  0.00    -0.185 NA
ATOM     12  C   UNL A   1      32.547  20.954  24.506  1.00  0.00     0.273 A 
ATOM     13  O   UNL A   1      32.012  19.958  24.978  1.00  0.00    -0.267 OA
BRANCH   8  14
ATOM     14  C   UNL A   1      33.384  24.887  23.188  1.00  0.00     0.146 C 
BRANCH  14  15
ATOM     15  C   UNL A   1      32.596  26.023  23.885  1.00  0.00     0.084 C 
ATOM     16  C   UNL A   1      31.641  25.642  25.023  1.00  0.00     0.030 C 
ATOM     17  C   UNL A   1      33.670  26.966  24.494  1.00  0.00     0.030 C 
BRANCH  15  18
ATOM     18  S   UNL A   1      31.667  27.005  22.650  1.00  0.00     0.154 S 
ATOM     19  C   UNL A   1      30.013  27.206  23.275  1.00  0.00     0.158 C 
ATOM     20  O   UNL A   1      32.260  28.331  22.621  1.00  0.00    -0.229 OA
ATOM     21  O   UNL A   1      31.575  26.231  21.426  1.00  0.00    -0.229 OA
ENDBRANCH  15  18
ENDBRANCH  14  15
ENDBRANCH   8  14
ENDBRANCH   6   7
ENDBRANCH   5   6
ENDBRANCH   1   5
BRANCH   3  22
ATOM     22  C   UNL A   1      36.983  20.641  25.043  1.00  0.00     0.117 C 
BRANCH  22  23
ATOM     23  C   UNL A   1      38.135  19.646  25.085  1.00  0.00     0.042 C 
BRANCH  23  24
ATOM     24  C   UNL A   1      39.348  20.198  25.820  1.00  0.00     0.118 C 
BRANCH  24  25
ATOM     25  N   UNL A   1      40.372  19.176  26.007  1.00  0.00    -0.352 N 
ATOM     26  C   UNL A   1      41.733  19.333  26.091  1.00  0.00     0.251 C 
ATOM     27  H   UNL A   1      40.043  18.251  26.083  1.00  0.00     0.163 HD
ATOM     28  O   UNL A   1      42.486  18.379  25.939  1.00  0.00    -0.269 OA
BRANCH  26  29
ATOM     29  C   UNL A   1      42.265  20.682  26.349  1.00  0.00     0.039 A 
ATOM     30  C   UNL A   1      42.469  21.093  27.667  1.00  0.00     0.014 A 
ATOM     31  C   UNL A   1      42.514  21.547  25.283  1.00  0.00     0.014 A 
ATOM     32  C   UNL A   1      42.741  22.423  27.932  1.00  0.00     0.010 A 
ATOM     33  C   UNL A   1      42.908  22.858  25.550  1.00  0.00     0.010 A 
ATOM     34  C   UNL A   1      42.990  23.314  26.877  1.00  0.00    -0.014 A 
BRANCH  34  35
ATOM     35  C   UNL A   1      43.389  24.707  27.185  1.00  0.00     0.031 A 
ATOM     36  C   UNL A   1      44.790  25.179  26.937  1.00  0.00     0.074 A 
ATOM     37  C   UNL A   1      42.456  25.548  27.669  1.00  0.00     0.049 A 
ATOM     38  N   UNL A   1      45.337  26.330  27.239  1.00  0.00    -0.248 NA
ATOM     39  C   UNL A   1      45.704  24.239  26.269  1.00  0.00     0.031 C 
ATOM     40  C   UNL A   1      41.051  25.202  27.909  1.00  0.00     0.029 A 
ATOM     41  N   UNL A   1      42.537  26.867  28.029  1.00  0.00    -0.354 N 
ATOM     42  C   UNL A   1      46.657  26.245  26.820  1.00  0.00     0.074 A 
ATOM     43  C   UNL A   1      46.841  24.922  26.260  1.00  0.00     0.031 C 
ATOM     44  C   UNL A   1      40.394  26.291  28.328  1.00  0.00     0.029 A 
ATOM     45  C   UNL A   1      41.347  27.383  28.478  1.00  0.00     0.049 A 
ATOM     46  H   UNL A   1      43.367  27.394  27.971  1.00  0.00     0.167 HD
ATOM     47  C   UNL A   1      47.621  27.193  26.894  1.00  0.00     0.037 A 
ATOM     48  C   UNL A   1      41.059  28.592  28.992  1.00  0.00     0.037 A 
ATOM     49  C   UNL A   1      47.414  28.512  27.438  1.00  0.00     0.049 A 
ATOM     50  C   UNL A   1      42.161  29.599  29.120  1.00  0.00     0.074 A 
ATOM     51  C   UNL A   1      48.327  29.543  27.577  1.00  0.00     0.029 A 
ATOM     52  N   UNL A   1      46.203  28.984  27.928  1.00  0.00    -0.354 N 
ATOM     53  N   UNL A   1      43.419  29.494  28.767  1.00  0.00    -0.248 NA
ATOM     54  C   UNL A   1      41.809  30.887  29.727  1.00  0.00     0.031 C 
ATOM     55  C   UNL A   1      47.681  30.622  28.188  1.00  0.00     0.029 A 
ATOM     56  C   UNL A   1      46.349  30.287  28.377  1.00  0.00     0.049 A 
ATOM     57  H   UNL A   1      45.364  28.469  27.952  1.00  0.00     0.167 HD
ATOM     58  C   UNL A   1      44.006  30.710  29.084  1.00  0.00     0.074 A 
ATOM     59  C   UNL A   1      42.959  31.541  29.647  1.00  0.00     0.031 C 
ATOM     60  C   UNL A   1      45.293  31.101  28.925  1.00  0.00     0.037 A 
BRANCH  47  61
ATOM     61  C   UNL A   1      48.994  26.844  26.394  1.00  0.00     0.064 A 
ATOM     62  C   UNL A   1      49.949  26.237  27.221  1.00  0.00     0.173 A 
ATOM     63  C   UNL A   1      49.334  27.053  25.048  1.00  0.00     0.173 A 
ATOM     64  F   UNL A   1      49.682  26.026  28.519  1.00  0.00    -0.203 F 
ATOM     65  C   UNL A   1      51.196  25.862  26.724  1.00  0.00     0.198 A 
ATOM     66  C   UNL A   1      50.569  26.650  24.547  1.00  0.00     0.198 A 
ATOM     67  F   UNL A   1      48.457  27.626  24.209  1.00  0.00    -0.203 F 
ATOM     68  F   UNL A   1      52.105  25.311  27.541  1.00  0.00    -0.200 F 
ATOM     69  C   UNL A   1      51.500  26.058  25.385  1.00  0.00     0.200 A 
ATOM     70  F   UNL A   1      50.855  26.828  23.250  1.00  0.00    -0.200 F 
ATOM     71  F   UNL A   1      52.693  25.679  24.904  1.00  0.00    -0.200 F 
ENDBRANCH  47  61
BRANCH  48  72
ATOM     72  C   UNL A   1      39.668  28.892  29.419  1.00  0.00     0.064 A 
ATOM     73  C   UNL A   1      38.733  29.398  28.509  1.00  0.00     0.173 A 
ATOM     74  C   UNL A   1      39.235  28.632  30.728  1.00  0.00     0.173 A 
ATOM     75  F   UNL A   1      39.105  29.678  27.250  1.00  0.00    -0.203 F 
ATOM     76  C   UNL A   1      37.414  29.636  28.892  1.00  0.00     0.198 A 
ATOM     77  C   UNL A   1      37.909  28.839  31.101  1.00  0.00     0.198 A 
ATOM     78  F   UNL A   1      40.090  28.138  31.635  1.00  0.00    -0.203 F 
ATOM     79  F   UNL A   1      36.545  30.147  28.010  1.00  0.00    -0.200 F 
ATOM     80  C   UNL A   1      37.001  29.345  30.184  1.00  0.00     0.200 A 
ATOM     81  F   UNL A   1      37.510  28.534  32.343  1.00  0.00    -0.200 F 
ATOM     82  F   UNL A   1      35.729  29.554  30.545  1.00  0.00    -0.200 F 
ENDBRANCH  48  72
BRANCH  60  83
ATOM     83  C   UNL A   1      45.632  32.508  29.319  1.00  0.00     0.064 A 
ATOM     84  C   UNL A   1      46.104  32.823  30.601  1.00  0.00     0.173 A 
ATOM     85  C   UNL A   1      45.516  33.550  28.385  1.00  0.00     0.173 A 
ATOM     86  F   UNL A   1      46.217  31.864  31.533  1.00  0.00    -0.203 F 
ATOM     87  C   UNL A   1      46.422  34.135  30.943  1.00  0.00     0.198 A 
ATOM     88  C   UNL A   1      45.866  34.853  28.721  1.00  0.00     0.198 A 
ATOM     89  F   UNL A   1      45.077  33.299  27.142  1.00  0.00    -0.203 F 
ATOM     90  F   UNL A   1      46.822  34.421  32.190  1.00  0.00    -0.200 F 
ATOM     91  C   UNL A   1      46.310  35.146  30.001  1.00  0.00     0.200 A 
ATOM     92  F   UNL A   1      45.771  35.827  27.805  1.00  0.00    -0.200 F 
ATOM     93  F   UNL A   1      46.623  36.407  30.330  1.00  0.00    -0.200 F 
ENDBRANCH  60  83
ENDBRANCH  34  35
ENDBRANCH  26  29
ENDBRANCH  24  25
ENDBRANCH  23  24
ENDBRANCH  22  23
ENDBRANCH   3  22
TORSDOF 15
ENDMDL
