MODEL 1
REMARK VINA RESULT:     -12.0      0.000      0.000
REMARK SMILES Cc1ccsc1C(=O)N1CCN(C(=O)OC(C)(C)C)C[C@@H]1C(=O)NCCCNC(=O)c1ccc(-c2c3nc(c(-c4c(F)c(F)c(F)c(F)c4F)c4ccc([nH]4)c(-c4c(F)c(F)c(F)c(F)c4F)c4nc(c(-c5c(F)c(F)c(F)c(F)c5F)c5ccc2[nH]5)C=C4)C=C3)cc1
REMARK SMILES IDX 25 1 24 2 22 3 23 4 21 6 9 7 10 8 11 9 20 10 12 11 7 12 8 13
REMARK SMILES IDX 6 14 1 15 2 16 3 17 4 18 5 19 13 20 14 21 15 22 16 23 17 24
REMARK SMILES IDX 18 25 19 26 26 27 27 28 28 29 29 30 30 32 31 33 32 34 93 35
REMARK SMILES IDX 33 36 92 37 34 38 35 39 36 40 86 41 37 42 91 43 85 44 87 45
REMARK SMILES IDX 38 46 90 47 84 48 83 49 39 51 71 52 51 53 70 54 52 55 55 56
REMARK SMILES IDX 69 57 88 58 53 59 54 60 68 62 89 63 56 64 40 65 41 66 49 67
REMARK SMILES IDX 42 68 43 69 47 70 50 71 44 72 45 73 48 74 46 75 72 76 73 77
REMARK SMILES IDX 81 78 74 79 75 80 79 81 82 82 76 83 77 84 80 85 78 86 57 87
REMARK SMILES IDX 58 88 66 89 59 90 60 91 64 92 67 93 61 94 62 95 65 96 63 97
REMARK H PARENT 24 5 28 31 87 50 55 61
REMARK Flexibility Score: inf
ROOT
ATOM      1  C   UNL A   1      32.652  26.983  26.495  1.00  0.00     0.117 C 
ENDROOT
BRANCH   1   2
ATOM      2  N   UNL A   1      31.331  26.443  26.721  1.00  0.00    -0.354 N 
ATOM      3  C   UNL A   1      30.519  25.662  25.969  1.00  0.00     0.244 C 
ATOM      4  O   UNL A   1      29.499  25.267  26.558  1.00  0.00    -0.273 OA
ATOM      5  H   UNL A   1      30.944  26.692  27.592  1.00  0.00     0.163 HD
BRANCH   3   6
ATOM      6  C   UNL A   1      30.616  25.417  24.435  1.00  0.00     0.194 C 
ATOM      7  N   UNL A   1      31.834  25.081  23.684  1.00  0.00    -0.322 N 
ATOM      8  C   UNL A   1      32.701  26.135  23.173  1.00  0.00     0.142 C 
ATOM      9  C   UNL A   1      31.953  27.357  22.635  1.00  0.00     0.144 C 
ATOM     10  C   UNL A   1      29.859  26.574  23.748  1.00  0.00     0.158 C 
ATOM     11  N   UNL A   1      30.743  27.685  23.385  1.00  0.00    -0.304 N 
BRANCH   7  12
ATOM     12  C   UNL A   1      32.333  23.791  23.763  1.00  0.00     0.265 C 
ATOM     13  O   UNL A   1      32.285  23.074  22.763  1.00  0.00    -0.268 OA
BRANCH  12  14
ATOM     14  C   UNL A   1      32.855  23.374  25.072  1.00  0.00     0.095 A 
ATOM     15  C   UNL A   1      35.147  24.567  25.351  1.00  0.00     0.046 C 
ATOM     16  C   UNL A   1      34.024  23.681  25.772  1.00  0.00    -0.027 A 
ATOM     17  C   UNL A   1      34.076  22.996  27.035  1.00  0.00     0.016 A 
ATOM     18  C   UNL A   1      32.974  22.215  27.269  1.00  0.00     0.066 A 
ATOM     19  S   UNL A   1      31.870  22.280  25.978  1.00  0.00    -0.138 S 
ENDBRANCH  12  14
ENDBRANCH   7  12
BRANCH  11  20
ATOM     20  C   UNL A   1      30.396  29.009  23.570  1.00  0.00     0.410 C 
ATOM     21  O   UNL A   1      30.666  29.640  24.579  1.00  0.00    -0.224 OA
BRANCH  20  22
ATOM     22  O   UNL A   1      29.734  29.505  22.496  1.00  0.00    -0.444 OA
BRANCH  22  23
ATOM     23  C   UNL A   1      28.417  30.094  22.622  1.00  0.00     0.106 C 
ATOM     24  C   UNL A   1      27.428  29.039  23.123  1.00  0.00     0.056 C 
ATOM     25  C   UNL A   1      28.421  31.353  23.496  1.00  0.00     0.056 C 
ATOM     26  C   UNL A   1      28.037  30.502  21.190  1.00  0.00     0.056 C 
ENDBRANCH  22  23
ENDBRANCH  20  22
ENDBRANCH  11  20
ENDBRANCH   3   6
ENDBRANCH   1   2
BRANCH   1  27
ATOM     27  C   UNL A   1      32.823  28.391  27.055  1.00  0.00     0.042 C 
BRANCH  27  28
ATOM     28  C   UNL A   1      33.726  29.300  26.233  1.00  0.00     0.118 C 
BRANCH  28  29
ATOM     29  N   UNL A   1      33.621  30.688  26.656  1.00  0.00    -0.352 N 
ATOM     30  C   UNL A   1      34.313  31.376  27.621  1.00  0.00     0.251 C 
ATOM     31  H   UNL A   1      32.947  31.219  26.172  1.00  0.00     0.163 HD
ATOM     32  O   UNL A   1      33.884  32.458  28.012  1.00  0.00    -0.269 OA
BRANCH  30  33
ATOM     33  C   UNL A   1      35.568  30.839  28.197  1.00  0.00     0.039 A 
ATOM     34  C   UNL A   1      35.487  29.824  29.158  1.00  0.00     0.014 A 
ATOM     35  C   UNL A   1      36.815  31.373  27.861  1.00  0.00     0.014 A 
ATOM     36  C   UNL A   1      36.650  29.327  29.749  1.00  0.00     0.010 A 
ATOM     37  C   UNL A   1      37.979  30.817  28.384  1.00  0.00     0.010 A 
ATOM     38  C   UNL A   1      37.909  29.803  29.350  1.00  0.00    -0.014 A 
BRANCH  38  39
ATOM     39  C   UNL A   1      39.158  29.269  29.949  1.00  0.00     0.031 A 
ATOM     40  C   UNL A   1      39.702  29.857  31.222  1.00  0.00     0.074 A 
ATOM     41  C   UNL A   1      39.832  28.290  29.317  1.00  0.00     0.049 A 
ATOM     42  N   UNL A   1      40.794  29.554  31.878  1.00  0.00    -0.248 NA
ATOM     43  C   UNL A   1      38.926  30.951  31.825  1.00  0.00     0.031 C 
ATOM     44  C   UNL A   1      39.427  27.667  28.058  1.00  0.00     0.029 A 
ATOM     45  N   UNL A   1      41.000  27.649  29.647  1.00  0.00    -0.354 N 
ATOM     46  C   UNL A   1      40.843  30.428  32.956  1.00  0.00     0.074 A 
ATOM     47  C   UNL A   1      39.706  31.314  32.831  1.00  0.00     0.031 C 
ATOM     48  C   UNL A   1      40.310  26.708  27.739  1.00  0.00     0.029 A 
ATOM     49  C   UNL A   1      41.366  26.680  28.746  1.00  0.00     0.049 A 
ATOM     50  H   UNL A   1      41.524  27.863  30.453  1.00  0.00     0.167 HD
ATOM     51  C   UNL A   1      41.741  30.474  33.970  1.00  0.00     0.037 A 
ATOM     52  C   UNL A   1      42.437  25.864  28.733  1.00  0.00     0.037 A 
ATOM     53  C   UNL A   1      42.867  29.582  34.088  1.00  0.00     0.049 A 
ATOM     54  C   UNL A   1      43.440  25.954  29.849  1.00  0.00     0.074 A 
ATOM     55  C   UNL A   1      43.804  29.502  35.103  1.00  0.00     0.029 A 
ATOM     56  N   UNL A   1      43.215  28.622  33.148  1.00  0.00    -0.354 N 
ATOM     57  N   UNL A   1      43.439  26.733  30.904  1.00  0.00    -0.248 NA
ATOM     58  C   UNL A   1      44.593  25.047  29.774  1.00  0.00     0.031 C 
ATOM     59  C   UNL A   1      44.758  28.543  34.743  1.00  0.00     0.029 A 
ATOM     60  C   UNL A   1      44.375  27.972  33.539  1.00  0.00     0.049 A 
ATOM     61  H   UNL A   1      42.712  28.431  32.323  1.00  0.00     0.167 HD
ATOM     62  C   UNL A   1      44.569  26.391  31.635  1.00  0.00     0.074 A 
ATOM     63  C   UNL A   1      45.226  25.323  30.906  1.00  0.00     0.031 C 
ATOM     64  C   UNL A   1      45.020  26.911  32.803  1.00  0.00     0.037 A 
BRANCH  51  65
ATOM     65  C   UNL A   1      41.550  31.540  35.016  1.00  0.00     0.064 A 
ATOM     66  C   UNL A   1      40.599  31.412  36.042  1.00  0.00     0.173 A 
ATOM     67  C   UNL A   1      42.322  32.710  34.988  1.00  0.00     0.173 A 
ATOM     68  F   UNL A   1      39.827  30.317  36.116  1.00  0.00    -0.203 F 
ATOM     69  C   UNL A   1      40.393  32.436  36.963  1.00  0.00     0.198 A 
ATOM     70  C   UNL A   1      42.141  33.716  35.935  1.00  0.00     0.198 A 
ATOM     71  F   UNL A   1      43.255  32.885  34.039  1.00  0.00    -0.203 F 
ATOM     72  F   UNL A   1      39.425  32.322  37.884  1.00  0.00    -0.200 F 
ATOM     73  C   UNL A   1      41.167  33.585  36.912  1.00  0.00     0.200 A 
ATOM     74  F   UNL A   1      42.903  34.818  35.894  1.00  0.00    -0.200 F 
ATOM     75  F   UNL A   1      40.964  34.573  37.796  1.00  0.00    -0.200 F 
ENDBRANCH  51  65
BRANCH  52  76
ATOM     76  C   UNL A   1      42.584  24.863  27.644  1.00  0.00     0.064 A 
ATOM     77  C   UNL A   1      43.394  25.129  26.532  1.00  0.00     0.173 A 
ATOM     78  C   UNL A   1      41.947  23.615  27.703  1.00  0.00     0.173 A 
ATOM     79  F   UNL A   1      44.009  26.316  26.420  1.00  0.00    -0.203 F 
ATOM     80  C   UNL A   1      43.554  24.191  25.516  1.00  0.00     0.198 A 
ATOM     81  C   UNL A   1      42.131  22.665  26.701  1.00  0.00     0.198 A 
ATOM     82  F   UNL A   1      41.164  23.308  28.749  1.00  0.00    -0.203 F 
ATOM     83  F   UNL A   1      44.306  24.485  24.446  1.00  0.00    -0.200 F 
ATOM     84  C   UNL A   1      42.929  22.955  25.605  1.00  0.00     0.200 A 
ATOM     85  F   UNL A   1      41.540  21.466  26.799  1.00  0.00    -0.200 F 
ATOM     86  F   UNL A   1      43.095  22.048  24.634  1.00  0.00    -0.200 F 
ENDBRANCH  52  76
BRANCH  64  87
ATOM     87  C   UNL A   1      46.266  26.309  33.390  1.00  0.00     0.064 A 
ATOM     88  C   UNL A   1      47.543  26.801  33.080  1.00  0.00     0.173 A 
ATOM     89  C   UNL A   1      46.177  25.247  34.303  1.00  0.00     0.173 A 
ATOM     90  F   UNL A   1      47.686  27.805  32.202  1.00  0.00    -0.203 F 
ATOM     91  C   UNL A   1      48.684  26.233  33.640  1.00  0.00     0.198 A 
ATOM     92  C   UNL A   1      47.317  24.706  34.889  1.00  0.00     0.198 A 
ATOM     93  F   UNL A   1      44.980  24.742  34.639  1.00  0.00    -0.203 F 
ATOM     94  F   UNL A   1      49.896  26.682  33.288  1.00  0.00    -0.200 F 
ATOM     95  C   UNL A   1      48.570  25.192  34.551  1.00  0.00     0.200 A 
ATOM     96  F   UNL A   1      47.203  23.712  35.782  1.00  0.00    -0.200 F 
ATOM     97  F   UNL A   1      49.670  24.652  35.096  1.00  0.00    -0.200 F 
ENDBRANCH  64  87
ENDBRANCH  38  39
ENDBRANCH  30  33
ENDBRANCH  28  29
ENDBRANCH  27  28
ENDBRANCH   1  27
TORSDOF 15
ENDMDL
MODEL 2
REMARK VINA RESULT:     -11.9      0.561      1.420
REMARK SMILES Cc1ccsc1C(=O)N1CCN(C(=O)OC(C)(C)C)C[C@@H]1C(=O)NCCCNC(=O)c1ccc(-c2c3nc(c(-c4c(F)c(F)c(F)c(F)c4F)c4ccc([nH]4)c(-c4c(F)c(F)c(F)c(F)c4F)c4nc(c(-c5c(F)c(F)c(F)c(F)c5F)c5ccc2[nH]5)C=C4)C=C3)cc1
REMARK SMILES IDX 25 1 24 2 22 3 23 4 21 6 9 7 10 8 11 9 20 10 12 11 7 12 8 13
REMARK SMILES IDX 6 14 1 15 2 16 3 17 4 18 5 19 13 20 14 21 15 22 16 23 17 24
REMARK SMILES IDX 18 25 19 26 26 27 27 28 28 29 29 30 30 32 31 33 32 34 93 35
REMARK SMILES IDX 33 36 92 37 34 38 35 39 36 40 86 41 37 42 91 43 85 44 87 45
REMARK SMILES IDX 38 46 90 47 84 48 83 49 39 51 71 52 51 53 70 54 52 55 55 56
REMARK SMILES IDX 69 57 88 58 53 59 54 60 68 62 89 63 56 64 40 65 41 66 49 67
REMARK SMILES IDX 42 68 43 69 47 70 50 71 44 72 45 73 48 74 46 75 72 76 73 77
REMARK SMILES IDX 81 78 74 79 75 80 79 81 82 82 76 83 77 84 80 85 78 86 57 87
REMARK SMILES IDX 58 88 66 89 59 90 60 91 64 92 67 93 61 94 62 95 65 96 63 97
REMARK H PARENT 24 5 28 31 87 50 55 61
REMARK Flexibility Score: inf
ROOT
ATOM      1  C   UNL A   1      32.562  26.997  26.449  1.00  0.00     0.117 C 
ENDROOT
BRANCH   1   2
ATOM      2  N   UNL A   1      31.247  26.454  26.704  1.00  0.00    -0.354 N 
ATOM      3  C   UNL A   1      30.425  25.664  25.972  1.00  0.00     0.244 C 
ATOM      4  O   UNL A   1      29.417  25.270  26.583  1.00  0.00    -0.273 OA
ATOM      5  H   UNL A   1      30.875  26.709  27.579  1.00  0.00     0.163 HD
BRANCH   3   6
ATOM      6  C   UNL A   1      30.495  25.407  24.439  1.00  0.00     0.194 C 
ATOM      7  N   UNL A   1      31.694  25.039  23.673  1.00  0.00    -0.322 N 
ATOM      8  C   UNL A   1      32.577  26.070  23.144  1.00  0.00     0.142 C 
ATOM      9  C   UNL A   1      31.849  27.305  22.607  1.00  0.00     0.144 C 
ATOM     10  C   UNL A   1      29.754  26.577  23.755  1.00  0.00     0.158 C 
ATOM     11  N   UNL A   1      30.657  27.665  23.373  1.00  0.00    -0.304 N 
BRANCH   7  12
ATOM     12  C   UNL A   1      32.165  23.739  23.754  1.00  0.00     0.265 C 
ATOM     13  O   UNL A   1      31.573  22.854  23.136  1.00  0.00    -0.268 OA
BRANCH  12  14
ATOM     14  C   UNL A   1      33.336  23.523  24.616  1.00  0.00     0.095 A 
ATOM     15  C   UNL A   1      32.404  23.038  26.993  1.00  0.00     0.046 C 
ATOM     16  C   UNL A   1      33.475  23.222  25.973  1.00  0.00    -0.027 A 
ATOM     17  C   UNL A   1      34.860  23.117  26.348  1.00  0.00     0.016 A 
ATOM     18  C   UNL A   1      35.718  23.322  25.300  1.00  0.00     0.066 A 
ATOM     19  S   UNL A   1      34.883  23.654  23.857  1.00  0.00    -0.138 S 
ENDBRANCH  12  14
ENDBRANCH   7  12
BRANCH  11  20
ATOM     20  C   UNL A   1      30.343  28.998  23.553  1.00  0.00     0.410 C 
ATOM     21  O   UNL A   1      30.602  29.617  24.573  1.00  0.00    -0.224 OA
BRANCH  20  22
ATOM     22  O   UNL A   1      29.727  29.517  22.463  1.00  0.00    -0.444 OA
BRANCH  22  23
ATOM     23  C   UNL A   1      28.452  30.196  22.564  1.00  0.00     0.106 C 
ATOM     24  C   UNL A   1      27.396  29.231  23.107  1.00  0.00     0.056 C 
ATOM     25  C   UNL A   1      28.542  31.486  23.387  1.00  0.00     0.056 C 
ATOM     26  C   UNL A   1      28.097  30.570  21.117  1.00  0.00     0.056 C 
ENDBRANCH  22  23
ENDBRANCH  20  22
ENDBRANCH  11  20
ENDBRANCH   3   6
ENDBRANCH   1   2
BRANCH   1  27
ATOM     27  C   UNL A   1      32.756  28.388  27.045  1.00  0.00     0.042 C 
BRANCH  27  28
ATOM     28  C   UNL A   1      33.712  29.286  26.273  1.00  0.00     0.118 C 
BRANCH  28  29
ATOM     29  N   UNL A   1      33.568  30.681  26.656  1.00  0.00    -0.352 N 
ATOM     30  C   UNL A   1      34.213  31.405  27.628  1.00  0.00     0.251 C 
ATOM     31  H   UNL A   1      32.903  31.188  26.136  1.00  0.00     0.163 HD
ATOM     32  O   UNL A   1      33.752  32.488  27.976  1.00  0.00    -0.269 OA
BRANCH  30  33
ATOM     33  C   UNL A   1      35.456  30.905  28.261  1.00  0.00     0.039 A 
ATOM     34  C   UNL A   1      36.676  31.492  27.902  1.00  0.00     0.014 A 
ATOM     35  C   UNL A   1      35.445  29.820  29.141  1.00  0.00     0.014 A 
ATOM     36  C   UNL A   1      37.869  31.015  28.450  1.00  0.00     0.010 A 
ATOM     37  C   UNL A   1      36.624  29.404  29.754  1.00  0.00     0.010 A 
ATOM     38  C   UNL A   1      37.851  29.982  29.399  1.00  0.00    -0.014 A 
BRANCH  38  39
ATOM     39  C   UNL A   1      39.106  29.478  30.011  1.00  0.00     0.031 A 
ATOM     40  C   UNL A   1      39.613  30.066  31.299  1.00  0.00     0.074 A 
ATOM     41  C   UNL A   1      39.818  28.526  29.379  1.00  0.00     0.049 A 
ATOM     42  N   UNL A   1      40.704  29.787  31.969  1.00  0.00    -0.248 NA
ATOM     43  C   UNL A   1      38.796  31.130  31.902  1.00  0.00     0.031 C 
ATOM     44  C   UNL A   1      39.450  27.906  28.107  1.00  0.00     0.029 A 
ATOM     45  N   UNL A   1      40.999  27.916  29.720  1.00  0.00    -0.354 N 
ATOM     46  C   UNL A   1      40.711  30.649  33.057  1.00  0.00     0.074 A 
ATOM     47  C   UNL A   1      39.550  31.503  32.925  1.00  0.00     0.031 C 
ATOM     48  C   UNL A   1      40.366  26.978  27.790  1.00  0.00     0.029 A 
ATOM     49  C   UNL A   1      41.407  26.968  28.813  1.00  0.00     0.049 A 
ATOM     50  H   UNL A   1      41.504  28.135  30.536  1.00  0.00     0.167 HD
ATOM     51  C   UNL A   1      41.592  30.709  34.086  1.00  0.00     0.037 A 
ATOM     52  C   UNL A   1      42.502  26.184  28.807  1.00  0.00     0.037 A 
ATOM     53  C   UNL A   1      42.741  29.849  34.211  1.00  0.00     0.049 A 
ATOM     54  C   UNL A   1      43.484  26.290  29.940  1.00  0.00     0.074 A 
ATOM     55  C   UNL A   1      43.664  29.784  35.239  1.00  0.00     0.029 A 
ATOM     56  N   UNL A   1      43.131  28.911  33.265  1.00  0.00    -0.354 N 
ATOM     57  N   UNL A   1      43.444  27.056  31.004  1.00  0.00    -0.248 NA
ATOM     58  C   UNL A   1      44.664  25.417  29.873  1.00  0.00     0.031 C 
ATOM     59  C   UNL A   1      44.651  28.857  34.884  1.00  0.00     0.029 A 
ATOM     60  C   UNL A   1      44.303  28.290  33.667  1.00  0.00     0.049 A 
ATOM     61  H   UNL A   1      42.646  28.715  32.430  1.00  0.00     0.167 HD
ATOM     62  C   UNL A   1      44.573  26.738  31.748  1.00  0.00     0.074 A 
ATOM     63  C   UNL A   1      45.271  25.699  31.017  1.00  0.00     0.031 C 
ATOM     64  C   UNL A   1      44.990  27.257  32.929  1.00  0.00     0.037 A 
BRANCH  51  65
ATOM     65  C   UNL A   1      41.353  31.757  35.140  1.00  0.00     0.064 A 
ATOM     66  C   UNL A   1      40.392  31.589  36.151  1.00  0.00     0.173 A 
ATOM     67  C   UNL A   1      42.091  32.950  35.137  1.00  0.00     0.173 A 
ATOM     68  F   UNL A   1      39.652  30.471  36.201  1.00  0.00    -0.203 F 
ATOM     69  C   UNL A   1      40.142  32.595  37.080  1.00  0.00     0.198 A 
ATOM     70  C   UNL A   1      41.866  33.938  36.093  1.00  0.00     0.198 A 
ATOM     71  F   UNL A   1      43.031  33.163  34.204  1.00  0.00    -0.203 F 
ATOM     72  F   UNL A   1      39.165  32.442  37.985  1.00  0.00    -0.200 F 
ATOM     73  C   UNL A   1      40.882  33.767  37.053  1.00  0.00     0.200 A 
ATOM     74  F   UNL A   1      42.595  35.063  36.076  1.00  0.00    -0.200 F 
ATOM     75  F   UNL A   1      40.637  34.738  37.945  1.00  0.00    -0.200 F 
ENDBRANCH  51  65
BRANCH  52  76
ATOM     76  C   UNL A   1      42.694  25.201  27.710  1.00  0.00     0.064 A 
ATOM     77  C   UNL A   1      42.032  23.965  27.732  1.00  0.00     0.173 A 
ATOM     78  C   UNL A   1      43.514  25.481  26.607  1.00  0.00     0.173 A 
ATOM     79  F   UNL A   1      41.252  23.642  28.775  1.00  0.00    -0.203 F 
ATOM     80  C   UNL A   1      42.190  23.045  26.700  1.00  0.00     0.198 A 
ATOM     81  C   UNL A   1      43.648  24.572  25.561  1.00  0.00     0.198 A 
ATOM     82  F   UNL A   1      44.166  26.652  26.535  1.00  0.00    -0.203 F 
ATOM     83  F   UNL A   1      41.574  21.856  26.764  1.00  0.00    -0.200 F 
ATOM     84  C   UNL A   1      42.991  23.352  25.610  1.00  0.00     0.200 A 
ATOM     85  F   UNL A   1      44.409  24.880  24.501  1.00  0.00    -0.200 F 
ATOM     86  F   UNL A   1      43.132  22.471  24.610  1.00  0.00    -0.200 F 
ENDBRANCH  52  76
BRANCH  64  87
ATOM     87  C   UNL A   1      46.244  26.685  33.528  1.00  0.00     0.064 A 
ATOM     88  C   UNL A   1      47.504  27.257  33.295  1.00  0.00     0.173 A 
ATOM     89  C   UNL A   1      46.178  25.569  34.376  1.00  0.00     0.173 A 
ATOM     90  F   UNL A   1      47.627  28.315  32.480  1.00  0.00    -0.203 F 
ATOM     91  C   UNL A   1      48.653  26.714  33.865  1.00  0.00     0.198 A 
ATOM     92  C   UNL A   1      47.324  25.052  34.974  1.00  0.00     0.198 A 
ATOM     93  F   UNL A   1      44.998  24.987  34.639  1.00  0.00    -0.203 F 
ATOM     94  F   UNL A   1      49.852  27.242  33.584  1.00  0.00    -0.200 F 
ATOM     95  C   UNL A   1      48.561  25.618  34.712  1.00  0.00     0.200 A 
ATOM     96  F   UNL A   1      47.230  24.005  35.806  1.00  0.00    -0.200 F 
ATOM     97  F   UNL A   1      49.667  25.103  35.267  1.00  0.00    -0.200 F 
ENDBRANCH  64  87
ENDBRANCH  38  39
ENDBRANCH  30  33
ENDBRANCH  28  29
ENDBRANCH  27  28
ENDBRANCH   1  27
TORSDOF 15
ENDMDL
MODEL 3
REMARK VINA RESULT:     -11.9      0.282      1.583
REMARK SMILES Cc1ccsc1C(=O)N1CCN(C(=O)OC(C)(C)C)C[C@@H]1C(=O)NCCCNC(=O)c1ccc(-c2c3nc(c(-c4c(F)c(F)c(F)c(F)c4F)c4ccc([nH]4)c(-c4c(F)c(F)c(F)c(F)c4F)c4nc(c(-c5c(F)c(F)c(F)c(F)c5F)c5ccc2[nH]5)C=C4)C=C3)cc1
REMARK SMILES IDX 25 1 24 2 22 3 23 4 21 6 9 7 10 8 11 9 20 10 12 11 7 12 8 13
REMARK SMILES IDX 6 14 1 15 2 16 3 17 4 18 5 19 13 20 14 21 15 22 16 23 17 24
REMARK SMILES IDX 18 25 19 26 26 27 27 28 28 29 29 30 30 32 31 33 32 34 93 35
REMARK SMILES IDX 33 36 92 37 34 38 35 39 36 40 86 41 37 42 91 43 85 44 87 45
REMARK SMILES IDX 38 46 90 47 84 48 83 49 39 51 71 52 51 53 70 54 52 55 55 56
REMARK SMILES IDX 69 57 88 58 53 59 54 60 68 62 89 63 56 64 40 65 41 66 49 67
REMARK SMILES IDX 42 68 43 69 47 70 50 71 44 72 45 73 48 74 46 75 72 76 73 77
REMARK SMILES IDX 81 78 74 79 75 80 79 81 82 82 76 83 77 84 80 85 78 86 57 87
REMARK SMILES IDX 58 88 66 89 59 90 60 91 64 92 67 93 61 94 62 95 65 96 63 97
REMARK H PARENT 24 5 28 31 87 50 55 61
REMARK Flexibility Score: inf
ROOT
ATOM      1  C   UNL A   1      32.550  26.926  26.478  1.00  0.00     0.117 C 
ENDROOT
BRANCH   1   2
ATOM      2  N   UNL A   1      31.225  26.401  26.718  1.00  0.00    -0.354 N 
ATOM      3  C   UNL A   1      30.404  25.614  25.982  1.00  0.00     0.244 C 
ATOM      4  O   UNL A   1      29.383  25.236  26.582  1.00  0.00    -0.273 OA
ATOM      5  H   UNL A   1      30.844  26.667  27.586  1.00  0.00     0.163 HD
BRANCH   3   6
ATOM      6  C   UNL A   1      30.492  25.342  24.453  1.00  0.00     0.194 C 
ATOM      7  N   UNL A   1      31.699  24.960  23.705  1.00  0.00    -0.322 N 
ATOM      8  C   UNL A   1      32.595  25.982  23.178  1.00  0.00     0.142 C 
ATOM      9  C   UNL A   1      31.881  27.216  22.622  1.00  0.00     0.144 C 
ATOM     10  C   UNL A   1      29.767  26.510  23.749  1.00  0.00     0.158 C 
ATOM     11  N   UNL A   1      30.682  27.590  23.368  1.00  0.00    -0.304 N 
BRANCH   7  12
ATOM     12  C   UNL A   1      32.161  23.659  23.804  1.00  0.00     0.265 C 
ATOM     13  O   UNL A   1      31.964  22.887  22.866  1.00  0.00    -0.268 OA
BRANCH  12  14
ATOM     14  C   UNL A   1      32.831  23.298  25.061  1.00  0.00     0.095 A 
ATOM     15  C   UNL A   1      35.158  24.454  24.999  1.00  0.00     0.046 C 
ATOM     16  C   UNL A   1      34.081  23.616  25.599  1.00  0.00    -0.027 A 
ATOM     17  C   UNL A   1      34.273  22.996  26.883  1.00  0.00     0.016 A 
ATOM     18  C   UNL A   1      33.196  22.252  27.288  1.00  0.00     0.066 A 
ATOM     19  S   UNL A   1      31.946  22.275  26.137  1.00  0.00    -0.138 S 
ENDBRANCH  12  14
ENDBRANCH   7  12
BRANCH  11  20
ATOM     20  C   UNL A   1      30.373  28.925  23.533  1.00  0.00     0.410 C 
ATOM     21  O   UNL A   1      30.671  29.566  24.528  1.00  0.00    -0.224 OA
BRANCH  20  22
ATOM     22  O   UNL A   1      29.713  29.421  22.457  1.00  0.00    -0.444 OA
BRANCH  22  23
ATOM     23  C   UNL A   1      28.434  30.086  22.592  1.00  0.00     0.106 C 
ATOM     24  C   UNL A   1      27.382  29.084  23.073  1.00  0.00     0.056 C 
ATOM     25  C   UNL A   1      28.512  31.326  23.488  1.00  0.00     0.056 C 
ATOM     26  C   UNL A   1      28.082  30.541  21.167  1.00  0.00     0.056 C 
ENDBRANCH  22  23
ENDBRANCH  20  22
ENDBRANCH  11  20
ENDBRANCH   3   6
ENDBRANCH   1   2
BRANCH   1  27
ATOM     27  C   UNL A   1      32.755  28.314  27.074  1.00  0.00     0.042 C 
BRANCH  27  28
ATOM     28  C   UNL A   1      33.827  29.151  26.390  1.00  0.00     0.118 C 
BRANCH  28  29
ATOM     29  N   UNL A   1      33.729  30.555  26.757  1.00  0.00    -0.352 N 
ATOM     30  C   UNL A   1      34.441  31.282  27.678  1.00  0.00     0.251 C 
ATOM     31  H   UNL A   1      33.045  31.066  26.266  1.00  0.00     0.163 HD
ATOM     32  O   UNL A   1      34.019  32.380  28.032  1.00  0.00    -0.269 OA
BRANCH  30  33
ATOM     33  C   UNL A   1      35.709  30.770  28.248  1.00  0.00     0.039 A 
ATOM     34  C   UNL A   1      35.650  29.797  29.253  1.00  0.00     0.014 A 
ATOM     35  C   UNL A   1      36.948  31.290  27.863  1.00  0.00     0.014 A 
ATOM     36  C   UNL A   1      36.826  29.325  29.839  1.00  0.00     0.010 A 
ATOM     37  C   UNL A   1      38.123  30.756  28.384  1.00  0.00     0.010 A 
ATOM     38  C   UNL A   1      38.075  29.783  29.393  1.00  0.00    -0.014 A 
BRANCH  38  39
ATOM     39  C   UNL A   1      39.338  29.276  29.987  1.00  0.00     0.031 A 
ATOM     40  C   UNL A   1      39.906  29.915  31.224  1.00  0.00     0.074 A 
ATOM     41  C   UNL A   1      40.000  28.272  29.381  1.00  0.00     0.049 A 
ATOM     42  N   UNL A   1      41.013  29.639  31.868  1.00  0.00    -0.248 NA
ATOM     43  C   UNL A   1      39.142  31.031  31.798  1.00  0.00     0.031 C 
ATOM     44  C   UNL A   1      39.569  27.599  28.157  1.00  0.00     0.029 A 
ATOM     45  N   UNL A   1      41.175  27.646  29.712  1.00  0.00    -0.354 N 
ATOM     46  C   UNL A   1      41.083  30.555  32.909  1.00  0.00     0.074 A 
ATOM     47  C   UNL A   1      39.942  31.434  32.773  1.00  0.00     0.031 C 
ATOM     48  C   UNL A   1      40.447  26.629  27.857  1.00  0.00     0.029 A 
ATOM     49  C   UNL A   1      41.524  26.642  28.843  1.00  0.00     0.049 A 
ATOM     50  H   UNL A   1      41.716  27.893  30.497  1.00  0.00     0.167 HD
ATOM     51  C   UNL A   1      42.002  30.643  33.902  1.00  0.00     0.037 A 
ATOM     52  C   UNL A   1      42.597  25.827  28.840  1.00  0.00     0.037 A 
ATOM     53  C   UNL A   1      43.131  29.757  34.032  1.00  0.00     0.049 A 
ATOM     54  C   UNL A   1      43.622  25.963  29.931  1.00  0.00     0.074 A 
ATOM     55  C   UNL A   1      44.090  29.719  35.029  1.00  0.00     0.029 A 
ATOM     56  N   UNL A   1      43.461  28.761  33.124  1.00  0.00    -0.354 N 
ATOM     57  N   UNL A   1      43.641  26.783  30.954  1.00  0.00    -0.248 NA
ATOM     58  C   UNL A   1      44.774  25.054  29.868  1.00  0.00     0.031 C 
ATOM     59  C   UNL A   1      45.037  28.747  34.689  1.00  0.00     0.029 A 
ATOM     60  C   UNL A   1      44.630  28.128  33.517  1.00  0.00     0.049 A 
ATOM     61  H   UNL A   1      42.941  28.536  32.318  1.00  0.00     0.167 HD
ATOM     62  C   UNL A   1      44.788  26.472  31.673  1.00  0.00     0.074 A 
ATOM     63  C   UNL A   1      45.430  25.377  30.974  1.00  0.00     0.031 C 
ATOM     64  C   UNL A   1      45.262  27.039  32.810  1.00  0.00     0.037 A 
BRANCH  51  65
ATOM     65  C   UNL A   1      41.830  31.750  34.907  1.00  0.00     0.064 A 
ATOM     66  C   UNL A   1      42.554  32.951  34.821  1.00  0.00     0.173 A 
ATOM     67  C   UNL A   1      40.935  31.606  35.978  1.00  0.00     0.173 A 
ATOM     68  F   UNL A   1      43.429  33.142  33.822  1.00  0.00    -0.203 F 
ATOM     69  C   UNL A   1      42.429  33.938  35.796  1.00  0.00     0.198 A 
ATOM     70  C   UNL A   1      40.782  32.613  36.929  1.00  0.00     0.198 A 
ATOM     71  F   UNL A   1      40.207  30.486  36.108  1.00  0.00    -0.203 F 
ATOM     72  F   UNL A   1      43.188  35.041  35.732  1.00  0.00    -0.200 F 
ATOM     73  C   UNL A   1      41.540  33.770  36.846  1.00  0.00     0.200 A 
ATOM     74  F   UNL A   1      39.909  32.456  37.934  1.00  0.00    -0.200 F 
ATOM     75  F   UNL A   1      41.423  34.719  37.786  1.00  0.00    -0.200 F 
ENDBRANCH  51  65
BRANCH  52  76
ATOM     76  C   UNL A   1      42.722  24.783  27.790  1.00  0.00     0.064 A 
ATOM     77  C   UNL A   1      43.377  25.060  26.581  1.00  0.00     0.173 A 
ATOM     78  C   UNL A   1      42.221  23.487  27.979  1.00  0.00     0.173 A 
ATOM     79  F   UNL A   1      43.856  26.290  26.346  1.00  0.00    -0.203 F 
ATOM     80  C   UNL A   1      43.517  24.083  25.599  1.00  0.00     0.198 A 
ATOM     81  C   UNL A   1      42.388  22.503  27.007  1.00  0.00     0.198 A 
ATOM     82  F   UNL A   1      41.591  23.169  29.119  1.00  0.00    -0.203 F 
ATOM     83  F   UNL A   1      44.116  24.384  24.438  1.00  0.00    -0.200 F 
ATOM     84  C   UNL A   1      43.031  22.802  25.816  1.00  0.00     0.200 A 
ATOM     85  F   UNL A   1      41.932  21.262  27.228  1.00  0.00    -0.200 F 
ATOM     86  F   UNL A   1      43.179  21.859  24.875  1.00  0.00    -0.200 F 
ENDBRANCH  52  76
BRANCH  64  87
ATOM     87  C   UNL A   1      46.520  26.463  33.394  1.00  0.00     0.064 A 
ATOM     88  C   UNL A   1      46.496  25.371  34.276  1.00  0.00     0.173 A 
ATOM     89  C   UNL A   1      47.772  26.990  33.040  1.00  0.00     0.173 A 
ATOM     90  F   UNL A   1      45.326  24.838  34.660  1.00  0.00    -0.203 F 
ATOM     91  C   UNL A   1      47.675  24.848  34.801  1.00  0.00     0.198 A 
ATOM     92  C   UNL A   1      48.950  26.441  33.538  1.00  0.00     0.198 A 
ATOM     93  F   UNL A   1      47.854  28.030  32.195  1.00  0.00    -0.203 F 
ATOM     94  F   UNL A   1      47.624  23.841  35.684  1.00  0.00    -0.200 F 
ATOM     95  C   UNL A   1      48.901  25.377  34.425  1.00  0.00     0.200 A 
ATOM     96  F   UNL A   1      50.134  26.942  33.159  1.00  0.00    -0.200 F 
ATOM     97  F   UNL A   1      50.035  24.867  34.925  1.00  0.00    -0.200 F 
ENDBRANCH  64  87
ENDBRANCH  38  39
ENDBRANCH  30  33
ENDBRANCH  28  29
ENDBRANCH  27  28
ENDBRANCH   1  27
TORSDOF 15
ENDMDL
