MODEL 1
REMARK VINA RESULT:     -11.6      0.000      0.000
REMARK SMILES CC(C)C[C@@H](C[C@H](O)c1ccccc1)C(=O)NCCCNC(=O)c1ccc(-c2c3nc(c(-c4c(F)c(F)c(F)c(F)c4F)c4ccc([nH]4)c(-c4c(F)c(F)c(F)c(F)c4F)c4nc(c(-c5c(F)c(F)c(F)c(F)c5F)c5ccc2[nH]5)C=C4)C=C3)cc1
REMARK SMILES IDX 18 1 17 2 15 3 16 4 5 6 4 7 2 8 1 9 3 10 6 11 7 12 9 13
REMARK SMILES IDX 10 14 14 15 11 16 13 17 12 18 8 19 19 21 20 22 21 23 22 24
REMARK SMILES IDX 23 26 24 27 25 28 86 29 26 30 85 31 27 32 28 33 29 34 79 35
REMARK SMILES IDX 30 36 84 37 78 38 80 39 31 40 83 41 77 42 76 43 32 45 64 46
REMARK SMILES IDX 44 47 63 48 45 49 48 50 62 51 81 52 46 53 47 54 61 56 82 57
REMARK SMILES IDX 49 58 33 59 34 60 42 61 35 62 36 63 40 64 43 65 37 66 38 67
REMARK SMILES IDX 41 68 39 69 65 70 66 71 74 72 67 73 68 74 72 75 75 76 69 77
REMARK SMILES IDX 70 78 73 79 71 80 50 81 51 82 59 83 52 84 53 85 57 86 60 87
REMARK SMILES IDX 54 88 55 89 58 90 56 91
REMARK H PARENT 17 5 8 20 21 25 80 44 48 55
REMARK Flexibility Score: inf
ROOT
ATOM      1  C   UNL A   1      32.038  30.462  25.978  1.00  0.00     0.117 C 
ENDROOT
BRANCH   1   2
ATOM      2  N   UNL A   1      31.165  30.271  24.830  1.00  0.00    -0.356 N 
ATOM      3  C   UNL A   1      30.853  29.205  24.052  1.00  0.00     0.223 C 
ATOM      4  O   UNL A   1      29.918  29.377  23.262  1.00  0.00    -0.275 OA
ATOM      5  H   UNL A   1      30.698  31.094  24.559  1.00  0.00     0.163 HD
BRANCH   3   6
ATOM      6  C   UNL A   1      31.540  27.844  24.128  1.00  0.00     0.081 C 
BRANCH   6   7
ATOM      7  C   UNL A   1      30.975  26.956  25.251  1.00  0.00     0.016 C 
BRANCH   7   8
ATOM      8  C   UNL A   1      31.955  26.491  26.341  1.00  0.00    -0.017 C 
ATOM      9  C   UNL A   1      32.079  24.971  26.409  1.00  0.00     0.007 C 
ATOM     10  C   UNL A   1      33.332  27.109  26.066  1.00  0.00     0.007 C 
ENDBRANCH   7   8
ENDBRANCH   6   7
BRANCH   6  11
ATOM     11  C   UNL A   1      31.829  27.237  22.732  1.00  0.00     0.050 C 
BRANCH  11  12
ATOM     12  C   UNL A   1      33.161  26.501  22.525  1.00  0.00     0.145 C 
BRANCH  12  13
ATOM     13  C   UNL A   1      33.154  25.029  22.924  1.00  0.00    -0.020 A 
ATOM     14  C   UNL A   1      32.014  24.221  22.786  1.00  0.00     0.006 A 
ATOM     15  C   UNL A   1      34.330  24.414  23.392  1.00  0.00     0.006 A 
ATOM     16  C   UNL A   1      32.054  22.855  23.088  1.00  0.00     0.000 A 
ATOM     17  C   UNL A   1      34.370  23.051  23.699  1.00  0.00     0.000 A 
ATOM     18  C   UNL A   1      33.232  22.270  23.541  1.00  0.00     0.000 A 
ENDBRANCH  12  13
BRANCH  12  19
ATOM     19  O   UNL A   1      33.558  26.682  21.163  1.00  0.00    -0.388 OA
ATOM     20  H   UNL A   1      33.722  27.624  20.997  1.00  0.00     0.211 HD
ENDBRANCH  12  19
ENDBRANCH  11  12
ENDBRANCH   6  11
ENDBRANCH   3   6
ENDBRANCH   1   2
BRANCH   1  21
ATOM     21  C   UNL A   1      31.642  31.656  26.826  1.00  0.00     0.042 C 
BRANCH  21  22
ATOM     22  C   UNL A   1      32.841  32.458  27.304  1.00  0.00     0.118 C 
BRANCH  22  23
ATOM     23  N   UNL A   1      32.516  33.858  27.568  1.00  0.00    -0.352 N 
ATOM     24  C   UNL A   1      33.018  34.738  28.497  1.00  0.00     0.251 C 
ATOM     25  H   UNL A   1      31.821  34.235  26.982  1.00  0.00     0.163 HD
ATOM     26  O   UNL A   1      32.463  35.817  28.683  1.00  0.00    -0.269 OA
BRANCH  24  27
ATOM     27  C   UNL A   1      34.199  34.371  29.305  1.00  0.00     0.039 A 
ATOM     28  C   UNL A   1      34.018  33.810  30.572  1.00  0.00     0.014 A 
ATOM     29  C   UNL A   1      35.485  34.562  28.805  1.00  0.00     0.014 A 
ATOM     30  C   UNL A   1      35.124  33.335  31.280  1.00  0.00     0.010 A 
ATOM     31  C   UNL A   1      36.566  33.977  29.448  1.00  0.00     0.010 A 
ATOM     32  C   UNL A   1      36.400  33.355  30.694  1.00  0.00    -0.014 A 
BRANCH  32  33
ATOM     33  C   UNL A   1      37.583  32.736  31.346  1.00  0.00     0.031 A 
ATOM     34  C   UNL A   1      38.287  31.585  30.681  1.00  0.00     0.074 A 
ATOM     35  C   UNL A   1      37.948  33.131  32.582  1.00  0.00     0.049 A 
ATOM     36  N   UNL A   1      39.219  30.797  31.153  1.00  0.00    -0.248 NA
ATOM     37  C   UNL A   1      37.849  31.243  29.317  1.00  0.00     0.031 C 
ATOM     38  C   UNL A   1      37.307  34.192  33.360  1.00  0.00     0.029 A 
ATOM     39  N   UNL A   1      38.939  32.666  33.412  1.00  0.00    -0.354 N 
ATOM     40  C   UNL A   1      39.448  29.850  30.163  1.00  0.00     0.074 A 
ATOM     41  C   UNL A   1      38.519  30.123  29.090  1.00  0.00     0.031 C 
ATOM     42  C   UNL A   1      37.936  34.316  34.539  1.00  0.00     0.029 A 
ATOM     43  C   UNL A   1      38.991  33.312  34.623  1.00  0.00     0.049 A 
ATOM     44  H   UNL A   1      39.553  31.939  33.163  1.00  0.00     0.167 HD
ATOM     45  C   UNL A   1      40.370  28.858  30.140  1.00  0.00     0.037 A 
ATOM     46  C   UNL A   1      39.791  33.108  35.687  1.00  0.00     0.037 A 
ATOM     47  C   UNL A   1      41.329  28.627  31.186  1.00  0.00     0.049 A 
ATOM     48  C   UNL A   1      40.822  32.014  35.627  1.00  0.00     0.074 A 
ATOM     49  C   UNL A   1      42.361  27.707  31.222  1.00  0.00     0.029 A 
ATOM     50  N   UNL A   1      41.376  29.331  32.381  1.00  0.00    -0.354 N 
ATOM     51  N   UNL A   1      41.073  31.167  34.659  1.00  0.00    -0.248 NA
ATOM     52  C   UNL A   1      41.680  31.849  36.807  1.00  0.00     0.031 C 
ATOM     53  C   UNL A   1      43.010  27.827  32.455  1.00  0.00     0.029 A 
ATOM     54  C   UNL A   1      42.409  28.852  33.170  1.00  0.00     0.049 A 
ATOM     55  H   UNL A   1      40.766  30.062  32.631  1.00  0.00     0.167 HD
ATOM     56  C   UNL A   1      42.129  30.384  35.101  1.00  0.00     0.074 A 
ATOM     57  C   UNL A   1      42.484  30.868  36.420  1.00  0.00     0.031 C 
ATOM     58  C   UNL A   1      42.749  29.354  34.476  1.00  0.00     0.037 A 
BRANCH  45  59
ATOM     59  C   UNL A   1      40.392  27.960  28.938  1.00  0.00     0.064 A 
ATOM     60  C   UNL A   1      41.165  28.263  27.806  1.00  0.00     0.173 A 
ATOM     61  C   UNL A   1      39.653  26.768  28.925  1.00  0.00     0.173 A 
ATOM     62  F   UNL A   1      41.880  29.398  27.762  1.00  0.00    -0.203 F 
ATOM     63  C   UNL A   1      41.170  27.425  26.695  1.00  0.00     0.198 A 
ATOM     64  C   UNL A   1      39.686  25.915  27.825  1.00  0.00     0.198 A 
ATOM     65  F   UNL A   1      38.901  26.426  29.983  1.00  0.00    -0.203 F 
ATOM     66  F   UNL A   1      41.872  27.765  25.605  1.00  0.00    -0.200 F 
ATOM     67  C   UNL A   1      40.436  26.249  26.708  1.00  0.00     0.200 A 
ATOM     68  F   UNL A   1      38.985  24.773  27.842  1.00  0.00    -0.200 F 
ATOM     69  F   UNL A   1      40.445  25.441  25.638  1.00  0.00    -0.200 F 
ENDBRANCH  45  59
BRANCH  46  70
ATOM     70  C   UNL A   1      39.665  33.972  36.890  1.00  0.00     0.064 A 
ATOM     71  C   UNL A   1      40.343  35.196  36.965  1.00  0.00     0.173 A 
ATOM     72  C   UNL A   1      38.871  33.598  37.983  1.00  0.00     0.173 A 
ATOM     73  F   UNL A   1      41.129  35.588  35.952  1.00  0.00    -0.203 F 
ATOM     74  C   UNL A   1      40.248  36.004  38.096  1.00  0.00     0.198 A 
ATOM     75  C   UNL A   1      38.754  34.419  39.103  1.00  0.00     0.198 A 
ATOM     76  F   UNL A   1      38.196  32.439  37.959  1.00  0.00    -0.203 F 
ATOM     77  F   UNL A   1      40.941  37.149  38.159  1.00  0.00    -0.200 F 
ATOM     78  C   UNL A   1      39.450  35.618  39.162  1.00  0.00     0.200 A 
ATOM     79  F   UNL A   1      37.970  34.049  40.125  1.00  0.00    -0.200 F 
ATOM     80  F   UNL A   1      39.355  36.397  40.247  1.00  0.00    -0.200 F 
ENDBRANCH  46  70
BRANCH  58  81
ATOM     81  C   UNL A   1      43.890  28.700  35.196  1.00  0.00     0.064 A 
ATOM     82  C   UNL A   1      43.685  27.610  36.054  1.00  0.00     0.173 A 
ATOM     83  C   UNL A   1      45.207  29.135  34.984  1.00  0.00     0.173 A 
ATOM     84  F   UNL A   1      42.442  27.168  36.299  1.00  0.00    -0.203 F 
ATOM     85  C   UNL A   1      44.758  26.991  36.690  1.00  0.00     0.198 A 
ATOM     86  C   UNL A   1      46.278  28.497  35.599  1.00  0.00     0.198 A 
ATOM     87  F   UNL A   1      45.454  30.170  34.167  1.00  0.00    -0.203 F 
ATOM     88  F   UNL A   1      44.537  25.978  37.539  1.00  0.00    -0.200 F 
ATOM     89  C   UNL A   1      46.053  27.429  36.457  1.00  0.00     0.200 A 
ATOM     90  F   UNL A   1      47.530  28.913  35.363  1.00  0.00    -0.200 F 
ATOM     91  F   UNL A   1      47.085  26.826  37.062  1.00  0.00    -0.200 F 
ENDBRANCH  58  81
ENDBRANCH  32  33
ENDBRANCH  24  27
ENDBRANCH  22  23
ENDBRANCH  21  22
ENDBRANCH   1  21
TORSDOF 16
ENDMDL
MODEL 2
REMARK VINA RESULT:     -11.6      4.507     10.733
REMARK SMILES CC(C)C[C@@H](C[C@H](O)c1ccccc1)C(=O)NCCCNC(=O)c1ccc(-c2c3nc(c(-c4c(F)c(F)c(F)c(F)c4F)c4ccc([nH]4)c(-c4c(F)c(F)c(F)c(F)c4F)c4nc(c(-c5c(F)c(F)c(F)c(F)c5F)c5ccc2[nH]5)C=C4)C=C3)cc1
REMARK SMILES IDX 18 1 17 2 15 3 16 4 5 6 4 7 2 8 1 9 3 10 6 11 7 12 9 13
REMARK SMILES IDX 10 14 14 15 11 16 13 17 12 18 8 19 19 21 20 22 21 23 22 24
REMARK SMILES IDX 23 26 24 27 25 28 86 29 26 30 85 31 27 32 28 33 29 34 79 35
REMARK SMILES IDX 30 36 84 37 78 38 80 39 31 40 83 41 77 42 76 43 32 45 64 46
REMARK SMILES IDX 44 47 63 48 45 49 48 50 62 51 81 52 46 53 47 54 61 56 82 57
REMARK SMILES IDX 49 58 33 59 34 60 42 61 35 62 36 63 40 64 43 65 37 66 38 67
REMARK SMILES IDX 41 68 39 69 65 70 66 71 74 72 67 73 68 74 72 75 75 76 69 77
REMARK SMILES IDX 70 78 73 79 71 80 50 81 51 82 59 83 52 84 53 85 57 86 60 87
REMARK SMILES IDX 54 88 55 89 58 90 56 91
REMARK H PARENT 17 5 8 20 21 25 80 44 48 55
REMARK Flexibility Score: inf
ROOT
ATOM      1  C   UNL A   1      34.797  32.329  31.578  1.00  0.00     0.117 C 
ENDROOT
BRANCH   1   2
ATOM      2  N   UNL A   1      34.770  32.842  32.939  1.00  0.00    -0.356 N 
ATOM      3  C   UNL A   1      35.723  33.083  33.873  1.00  0.00     0.223 C 
ATOM      4  O   UNL A   1      35.344  33.699  34.875  1.00  0.00    -0.275 OA
ATOM      5  H   UNL A   1      33.863  33.062  33.250  1.00  0.00     0.163 HD
BRANCH   3   6
ATOM      6  C   UNL A   1      37.192  32.687  33.738  1.00  0.00     0.081 C 
BRANCH   6   7
ATOM      7  C   UNL A   1      38.151  33.834  34.102  1.00  0.00     0.016 C 
BRANCH   7   8
ATOM      8  C   UNL A   1      38.850  34.562  32.943  1.00  0.00    -0.017 C 
ATOM      9  C   UNL A   1      40.368  34.400  32.977  1.00  0.00     0.007 C 
ATOM     10  C   UNL A   1      38.304  34.021  31.615  1.00  0.00     0.007 C 
ENDBRANCH   7   8
ENDBRANCH   6   7
BRANCH   6  11
ATOM     11  C   UNL A   1      37.476  31.249  34.240  1.00  0.00     0.050 C 
BRANCH  11  12
ATOM     12  C   UNL A   1      37.869  30.186  33.204  1.00  0.00     0.145 C 
BRANCH  12  13
ATOM     13  C   UNL A   1      39.355  29.850  33.155  1.00  0.00    -0.020 A 
ATOM     14  C   UNL A   1      40.338  30.729  33.635  1.00  0.00     0.006 A 
ATOM     15  C   UNL A   1      39.785  28.598  32.676  1.00  0.00     0.006 A 
ATOM     16  C   UNL A   1      41.690  30.367  33.648  1.00  0.00     0.000 A 
ATOM     17  C   UNL A   1      41.135  28.237  32.684  1.00  0.00     0.000 A 
ATOM     18  C   UNL A   1      42.088  29.120  33.176  1.00  0.00     0.000 A 
ENDBRANCH  12  13
BRANCH  12  19
ATOM     19  O   UNL A   1      37.067  29.025  33.439  1.00  0.00    -0.388 OA
ATOM     20  H   UNL A   1      36.772  29.018  34.363  1.00  0.00     0.211 HD
ENDBRANCH  12  19
ENDBRANCH  11  12
ENDBRANCH   6  11
ENDBRANCH   3   6
ENDBRANCH   1   2
BRANCH   1  21
ATOM     21  C   UNL A   1      34.821  33.430  30.534  1.00  0.00     0.042 C 
BRANCH  21  22
ATOM     22  C   UNL A   1      35.207  32.922  29.155  1.00  0.00     0.118 C 
BRANCH  22  23
ATOM     23  N   UNL A   1      34.329  31.856  28.678  1.00  0.00    -0.352 N 
ATOM     24  C   UNL A   1      34.615  30.592  28.221  1.00  0.00     0.251 C 
ATOM     25  H   UNL A   1      33.371  32.081  28.686  1.00  0.00     0.163 HD
ATOM     26  O   UNL A   1      33.740  29.923  27.678  1.00  0.00    -0.269 OA
BRANCH  24  27
ATOM     27  C   UNL A   1      35.984  30.051  28.342  1.00  0.00     0.039 A 
ATOM     28  C   UNL A   1      36.858  30.143  27.256  1.00  0.00     0.014 A 
ATOM     29  C   UNL A   1      36.412  29.470  29.534  1.00  0.00     0.014 A 
ATOM     30  C   UNL A   1      38.192  29.759  27.410  1.00  0.00     0.010 A 
ATOM     31  C   UNL A   1      37.761  29.211  29.726  1.00  0.00     0.010 A 
ATOM     32  C   UNL A   1      38.670  29.353  28.666  1.00  0.00    -0.014 A 
BRANCH  32  33
ATOM     33  C   UNL A   1      40.106  29.069  28.917  1.00  0.00     0.031 A 
ATOM     34  C   UNL A   1      40.980  30.124  29.537  1.00  0.00     0.074 A 
ATOM     35  C   UNL A   1      40.646  27.913  28.480  1.00  0.00     0.049 A 
ATOM     36  N   UNL A   1      42.281  30.148  29.679  1.00  0.00    -0.248 NA
ATOM     37  C   UNL A   1      40.305  31.341  30.018  1.00  0.00     0.031 C 
ATOM     38  C   UNL A   1      39.918  26.836  27.807  1.00  0.00     0.029 A 
ATOM     39  N   UNL A   1      41.943  27.461  28.519  1.00  0.00    -0.354 N 
ATOM     40  C   UNL A   1      42.577  31.389  30.228  1.00  0.00     0.074 A 
ATOM     41  C   UNL A   1      41.332  32.113  30.339  1.00  0.00     0.031 C 
ATOM     42  C   UNL A   1      40.771  25.839  27.521  1.00  0.00     0.029 A 
ATOM     43  C   UNL A   1      42.113  26.225  27.944  1.00  0.00     0.049 A 
ATOM     44  H   UNL A   1      42.680  27.975  28.920  1.00  0.00     0.167 HD
ATOM     45  C   UNL A   1      43.779  31.869  30.629  1.00  0.00     0.037 A 
ATOM     46  C   UNL A   1      43.228  25.492  27.767  1.00  0.00     0.037 A 
ATOM     47  C   UNL A   1      45.005  31.122  30.568  1.00  0.00     0.049 A 
ATOM     48  C   UNL A   1      44.546  26.040  28.242  1.00  0.00     0.074 A 
ATOM     49  C   UNL A   1      46.259  31.483  31.030  1.00  0.00     0.029 A 
ATOM     50  N   UNL A   1      45.129  29.855  30.017  1.00  0.00    -0.354 N 
ATOM     51  N   UNL A   1      44.805  27.188  28.820  1.00  0.00    -0.248 NA
ATOM     52  C   UNL A   1      45.727  25.190  28.041  1.00  0.00     0.031 C 
ATOM     53  C   UNL A   1      47.150  30.449  30.723  1.00  0.00     0.029 A 
ATOM     54  C   UNL A   1      46.443  29.427  30.109  1.00  0.00     0.049 A 
ATOM     55  H   UNL A   1      44.392  29.337  29.619  1.00  0.00     0.167 HD
ATOM     56  C   UNL A   1      46.169  27.190  29.071  1.00  0.00     0.074 A 
ATOM     57  C   UNL A   1      46.682  25.920  28.598  1.00  0.00     0.031 C 
ATOM     58  C   UNL A   1      46.930  28.156  29.638  1.00  0.00     0.037 A 
BRANCH  45  59
ATOM     59  C   UNL A   1      43.817  33.264  31.182  1.00  0.00     0.064 A 
ATOM     60  C   UNL A   1      43.900  33.507  32.562  1.00  0.00     0.173 A 
ATOM     61  C   UNL A   1      43.797  34.373  30.323  1.00  0.00     0.173 A 
ATOM     62  F   UNL A   1      43.909  32.482  33.429  1.00  0.00    -0.203 F 
ATOM     63  C   UNL A   1      43.927  34.805  33.062  1.00  0.00     0.198 A 
ATOM     64  C   UNL A   1      43.857  35.670  30.824  1.00  0.00     0.198 A 
ATOM     65  F   UNL A   1      43.724  34.198  28.994  1.00  0.00    -0.203 F 
ATOM     66  F   UNL A   1      43.949  35.012  34.386  1.00  0.00    -0.200 F 
ATOM     67  C   UNL A   1      43.912  35.886  32.192  1.00  0.00     0.200 A 
ATOM     68  F   UNL A   1      43.855  36.713  29.982  1.00  0.00    -0.200 F 
ATOM     69  F   UNL A   1      43.943  37.136  32.675  1.00  0.00    -0.200 F 
ENDBRANCH  45  59
BRANCH  46  70
ATOM     70  C   UNL A   1      43.144  24.152  27.130  1.00  0.00     0.064 A 
ATOM     71  C   UNL A   1      42.722  23.036  27.866  1.00  0.00     0.173 A 
ATOM     72  C   UNL A   1      43.482  23.956  25.784  1.00  0.00     0.173 A 
ATOM     73  F   UNL A   1      42.406  23.170  29.162  1.00  0.00    -0.203 F 
ATOM     74  C   UNL A   1      42.658  21.771  27.285  1.00  0.00     0.198 A 
ATOM     75  C   UNL A   1      43.392  22.695  25.195  1.00  0.00     0.198 A 
ATOM     76  F   UNL A   1      43.886  24.992  25.033  1.00  0.00    -0.203 F 
ATOM     77  F   UNL A   1      42.293  20.715  28.023  1.00  0.00    -0.200 F 
ATOM     78  C   UNL A   1      42.989  21.602  25.949  1.00  0.00     0.200 A 
ATOM     79  F   UNL A   1      43.698  22.539  23.900  1.00  0.00    -0.200 F 
ATOM     80  F   UNL A   1      42.924  20.388  25.389  1.00  0.00    -0.200 F 
ENDBRANCH  46  70
BRANCH  58  81
ATOM     81  C   UNL A   1      48.393  27.869  29.804  1.00  0.00     0.064 A 
ATOM     82  C   UNL A   1      49.329  28.250  28.832  1.00  0.00     0.173 A 
ATOM     83  C   UNL A   1      48.868  27.253  30.972  1.00  0.00     0.173 A 
ATOM     84  F   UNL A   1      48.920  28.828  27.692  1.00  0.00    -0.203 F 
ATOM     85  C   UNL A   1      50.687  28.006  29.015  1.00  0.00     0.198 A 
ATOM     86  C   UNL A   1      50.228  27.036  31.163  1.00  0.00     0.198 A 
ATOM     87  F   UNL A   1      48.012  26.875  31.934  1.00  0.00    -0.203 F 
ATOM     88  F   UNL A   1      51.561  28.340  28.055  1.00  0.00    -0.200 F 
ATOM     89  C   UNL A   1      51.136  27.408  30.182  1.00  0.00     0.200 A 
ATOM     90  F   UNL A   1      50.662  26.469  32.298  1.00  0.00    -0.200 F 
ATOM     91  F   UNL A   1      52.446  27.183  30.361  1.00  0.00    -0.200 F 
ENDBRANCH  58  81
ENDBRANCH  32  33
ENDBRANCH  24  27
ENDBRANCH  22  23
ENDBRANCH  21  22
ENDBRANCH   1  21
TORSDOF 16
ENDMDL
MODEL 3
REMARK VINA RESULT:     -11.5      0.430      2.038
REMARK SMILES CC(C)C[C@@H](C[C@H](O)c1ccccc1)C(=O)NCCCNC(=O)c1ccc(-c2c3nc(c(-c4c(F)c(F)c(F)c(F)c4F)c4ccc([nH]4)c(-c4c(F)c(F)c(F)c(F)c4F)c4nc(c(-c5c(F)c(F)c(F)c(F)c5F)c5ccc2[nH]5)C=C4)C=C3)cc1
REMARK SMILES IDX 18 1 17 2 15 3 16 4 5 6 4 7 2 8 1 9 3 10 6 11 7 12 9 13
REMARK SMILES IDX 10 14 14 15 11 16 13 17 12 18 8 19 19 21 20 22 21 23 22 24
REMARK SMILES IDX 23 26 24 27 25 28 86 29 26 30 85 31 27 32 28 33 29 34 79 35
REMARK SMILES IDX 30 36 84 37 78 38 80 39 31 40 83 41 77 42 76 43 32 45 64 46
REMARK SMILES IDX 44 47 63 48 45 49 48 50 62 51 81 52 46 53 47 54 61 56 82 57
REMARK SMILES IDX 49 58 33 59 34 60 42 61 35 62 36 63 40 64 43 65 37 66 38 67
REMARK SMILES IDX 41 68 39 69 65 70 66 71 74 72 67 73 68 74 72 75 75 76 69 77
REMARK SMILES IDX 70 78 73 79 71 80 50 81 51 82 59 83 52 84 53 85 57 86 60 87
REMARK SMILES IDX 54 88 55 89 58 90 56 91
REMARK H PARENT 17 5 8 20 21 25 80 44 48 55
REMARK Flexibility Score: inf
ROOT
ATOM      1  C   UNL A   1      31.905  30.452  25.957  1.00  0.00     0.117 C 
ENDROOT
BRANCH   1   2
ATOM      2  N   UNL A   1      31.023  30.421  24.800  1.00  0.00    -0.356 N 
ATOM      3  C   UNL A   1      30.589  29.437  23.974  1.00  0.00     0.223 C 
ATOM      4  O   UNL A   1      29.688  29.758  23.191  1.00  0.00    -0.275 OA
ATOM      5  H   UNL A   1      30.664  31.307  24.565  1.00  0.00     0.163 HD
BRANCH   3   6
ATOM      6  C   UNL A   1      31.103  27.999  23.990  1.00  0.00     0.081 C 
BRANCH   6   7
ATOM      7  C   UNL A   1      30.133  27.030  24.690  1.00  0.00     0.016 C 
BRANCH   7   8
ATOM      8  C   UNL A   1      30.701  26.164  25.826  1.00  0.00    -0.017 C 
ATOM      9  C   UNL A   1      30.984  24.730  25.383  1.00  0.00     0.007 C 
ATOM     10  C   UNL A   1      31.993  26.808  26.343  1.00  0.00     0.007 C 
ENDBRANCH   7   8
ENDBRANCH   6   7
BRANCH   6  11
ATOM     11  C   UNL A   1      31.783  27.589  22.661  1.00  0.00     0.050 C 
BRANCH  11  12
ATOM     12  C   UNL A   1      33.262  27.176  22.703  1.00  0.00     0.145 C 
BRANCH  12  13
ATOM     13  C   UNL A   1      33.512  25.688  22.922  1.00  0.00    -0.020 A 
ATOM     14  C   UNL A   1      32.975  24.706  22.076  1.00  0.00     0.006 A 
ATOM     15  C   UNL A   1      34.354  25.255  23.963  1.00  0.00     0.006 A 
ATOM     16  C   UNL A   1      33.279  23.352  22.253  1.00  0.00     0.000 A 
ATOM     17  C   UNL A   1      34.656  23.902  24.145  1.00  0.00     0.000 A 
ATOM     18  C   UNL A   1      34.122  22.951  23.285  1.00  0.00     0.000 A 
ENDBRANCH  12  13
BRANCH  12  19
ATOM     19  O   UNL A   1      33.886  27.651  21.506  1.00  0.00    -0.388 OA
ATOM     20  H   UNL A   1      34.553  27.010  21.214  1.00  0.00     0.211 HD
ENDBRANCH  12  19
ENDBRANCH  11  12
ENDBRANCH   6  11
ENDBRANCH   3   6
ENDBRANCH   1   2
BRANCH   1  21
ATOM     21  C   UNL A   1      31.584  31.587  26.911  1.00  0.00     0.042 C 
BRANCH  21  22
ATOM     22  C   UNL A   1      32.809  32.408  27.277  1.00  0.00     0.118 C 
BRANCH  22  23
ATOM     23  N   UNL A   1      32.497  33.815  27.517  1.00  0.00    -0.352 N 
ATOM     24  C   UNL A   1      33.009  34.708  28.428  1.00  0.00     0.251 C 
ATOM     25  H   UNL A   1      31.804  34.187  26.925  1.00  0.00     0.163 HD
ATOM     26  O   UNL A   1      32.464  35.795  28.596  1.00  0.00    -0.269 OA
BRANCH  24  27
ATOM     27  C   UNL A   1      34.189  34.345  29.240  1.00  0.00     0.039 A 
ATOM     28  C   UNL A   1      34.006  33.776  30.503  1.00  0.00     0.014 A 
ATOM     29  C   UNL A   1      35.476  34.548  28.747  1.00  0.00     0.014 A 
ATOM     30  C   UNL A   1      35.113  33.306  31.215  1.00  0.00     0.010 A 
ATOM     31  C   UNL A   1      36.558  33.968  29.392  1.00  0.00     0.010 A 
ATOM     32  C   UNL A   1      36.391  33.338  30.634  1.00  0.00    -0.014 A 
BRANCH  32  33
ATOM     33  C   UNL A   1      37.575  32.726  31.288  1.00  0.00     0.031 A 
ATOM     34  C   UNL A   1      38.294  31.586  30.619  1.00  0.00     0.074 A 
ATOM     35  C   UNL A   1      37.930  33.114  32.530  1.00  0.00     0.049 A 
ATOM     36  N   UNL A   1      39.229  30.802  31.091  1.00  0.00    -0.248 NA
ATOM     37  C   UNL A   1      37.866  31.250  29.250  1.00  0.00     0.031 C 
ATOM     38  C   UNL A   1      37.274  34.163  33.312  1.00  0.00     0.029 A 
ATOM     39  N   UNL A   1      38.920  32.652  33.363  1.00  0.00    -0.354 N 
ATOM     40  C   UNL A   1      39.472  29.864  30.095  1.00  0.00     0.074 A 
ATOM     41  C   UNL A   1      38.548  30.138  29.019  1.00  0.00     0.031 C 
ATOM     42  C   UNL A   1      37.895  34.284  34.496  1.00  0.00     0.029 A 
ATOM     43  C   UNL A   1      38.958  33.288  34.579  1.00  0.00     0.049 A 
ATOM     44  H   UNL A   1      39.541  31.931  33.112  1.00  0.00     0.167 HD
ATOM     45  C   UNL A   1      40.403  28.881  30.071  1.00  0.00     0.037 A 
ATOM     46  C   UNL A   1      39.754  33.083  35.646  1.00  0.00     0.037 A 
ATOM     47  C   UNL A   1      41.358  28.650  31.121  1.00  0.00     0.049 A 
ATOM     48  C   UNL A   1      40.794  31.999  35.584  1.00  0.00     0.074 A 
ATOM     49  C   UNL A   1      42.398  27.739  31.156  1.00  0.00     0.029 A 
ATOM     50  N   UNL A   1      41.392  29.345  32.321  1.00  0.00    -0.354 N 
ATOM     51  N   UNL A   1      41.059  31.161  34.610  1.00  0.00    -0.248 NA
ATOM     52  C   UNL A   1      41.648  31.832  36.768  1.00  0.00     0.031 C 
ATOM     53  C   UNL A   1      43.039  27.856  32.393  1.00  0.00     0.029 A 
ATOM     54  C   UNL A   1      42.424  28.870  33.112  1.00  0.00     0.049 A 
ATOM     55  H   UNL A   1      40.774  30.069  32.572  1.00  0.00     0.167 HD
ATOM     56  C   UNL A   1      42.120  30.385  35.054  1.00  0.00     0.074 A 
ATOM     57  C   UNL A   1      42.462  30.862  36.378  1.00  0.00     0.031 C 
ATOM     58  C   UNL A   1      42.752  29.365  34.424  1.00  0.00     0.037 A 
BRANCH  45  59
ATOM     59  C   UNL A   1      40.440  27.992  28.862  1.00  0.00     0.064 A 
ATOM     60  C   UNL A   1      39.724  26.785  28.812  1.00  0.00     0.173 A 
ATOM     61  C   UNL A   1      41.178  28.362  27.728  1.00  0.00     0.173 A 
ATOM     62  F   UNL A   1      39.013  26.378  29.876  1.00  0.00    -0.203 F 
ATOM     63  C   UNL A   1      39.775  25.967  27.688  1.00  0.00     0.198 A 
ATOM     64  C   UNL A   1      41.200  27.557  26.592  1.00  0.00     0.198 A 
ATOM     65  F   UNL A   1      41.877  29.508  27.719  1.00  0.00    -0.203 F 
ATOM     66  F   UNL A   1      39.128  24.793  27.686  1.00  0.00    -0.200 F 
ATOM     67  C   UNL A   1      40.506  26.357  26.576  1.00  0.00     0.200 A 
ATOM     68  F   UNL A   1      41.898  27.940  25.514  1.00  0.00    -0.200 F 
ATOM     69  F   UNL A   1      40.549  25.569  25.492  1.00  0.00    -0.200 F 
ENDBRANCH  45  59
BRANCH  46  70
ATOM     70  C   UNL A   1      39.613  33.937  36.855  1.00  0.00     0.064 A 
ATOM     71  C   UNL A   1      38.817  33.524  37.932  1.00  0.00     0.173 A 
ATOM     72  C   UNL A   1      40.266  35.173  36.961  1.00  0.00     0.173 A 
ATOM     73  F   UNL A   1      38.158  32.358  37.869  1.00  0.00    -0.203 F 
ATOM     74  C   UNL A   1      38.662  34.325  39.062  1.00  0.00     0.198 A 
ATOM     75  C   UNL A   1      40.132  35.961  38.103  1.00  0.00     0.198 A 
ATOM     76  F   UNL A   1      41.045  35.611  35.961  1.00  0.00    -0.203 F 
ATOM     77  F   UNL A   1      37.860  33.926  40.058  1.00  0.00    -0.200 F 
ATOM     78  C   UNL A   1      39.324  35.540  39.149  1.00  0.00     0.200 A 
ATOM     79  F   UNL A   1      40.785  37.129  38.189  1.00  0.00    -0.200 F 
ATOM     80  F   UNL A   1      39.178  36.308  40.236  1.00  0.00    -0.200 F 
ENDBRANCH  46  70
BRANCH  58  81
ATOM     81  C   UNL A   1      43.894  28.715  35.146  1.00  0.00     0.064 A 
ATOM     82  C   UNL A   1      45.206  29.195  35.023  1.00  0.00     0.173 A 
ATOM     83  C   UNL A   1      43.666  27.633  36.010  1.00  0.00     0.173 A 
ATOM     84  F   UNL A   1      45.476  30.218  34.197  1.00  0.00    -0.203 F 
ATOM     85  C   UNL A   1      46.252  28.602  35.724  1.00  0.00     0.198 A 
ATOM     86  C   UNL A   1      44.709  27.061  36.730  1.00  0.00     0.198 A 
ATOM     87  F   UNL A   1      42.427  27.142  36.166  1.00  0.00    -0.203 F 
ATOM     88  F   UNL A   1      47.505  29.050  35.560  1.00  0.00    -0.200 F 
ATOM     89  C   UNL A   1      46.002  27.542  36.583  1.00  0.00     0.200 A 
ATOM     90  F   UNL A   1      44.464  26.045  37.569  1.00  0.00    -0.200 F 
ATOM     91  F   UNL A   1      47.009  26.979  37.265  1.00  0.00    -0.200 F 
ENDBRANCH  58  81
ENDBRANCH  32  33
ENDBRANCH  24  27
ENDBRANCH  22  23
ENDBRANCH  21  22
ENDBRANCH   1  21
TORSDOF 16
ENDMDL
