MODEL 1
REMARK VINA RESULT:     -13.2      0.000      0.000
REMARK SMILES O=C(NCCCNC(=O)c1c(S(=O)(=O)N2CCO[C@@H](CCO)C2)sc2c1CC[NH2+]C2)c1ccc(-c2c3nc(c(-c4c(F)c(F)c(F)c(F)c4F)c4ccc([nH]4)c(-c4c(F)c(F)c(F)c(F)c4F)c4nc(c(-c5c(F)c(F)c(F)c(F)c5F)c5ccc2[nH]5)C=C4)C=C3)cc1
REMARK SMILES IDX 7 1 8 2 9 3 6 5 5 6 4 7 3 8 1 9 2 10 31 12 32 13 93 14 33 15
REMARK SMILES IDX 92 16 34 17 35 18 36 19 86 20 37 21 91 22 85 23 87 24 38 25
REMARK SMILES IDX 90 26 84 27 83 28 39 30 71 31 51 32 70 33 52 34 55 35 69 36
REMARK SMILES IDX 88 37 53 38 54 39 68 41 89 42 56 43 40 44 41 45 49 46 42 47
REMARK SMILES IDX 43 48 47 49 50 50 44 51 45 52 48 53 46 54 72 55 73 56 81 57
REMARK SMILES IDX 74 58 75 59 79 60 82 61 76 62 77 63 80 64 78 65 57 66 58 67
REMARK SMILES IDX 66 68 59 69 60 70 64 71 67 72 61 73 62 74 65 75 63 76 10 77
REMARK SMILES IDX 11 78 26 79 24 80 25 81 27 82 30 83 28 84 29 85 12 88 13 89
REMARK SMILES IDX 14 90 15 91 16 92 23 93 17 94 19 95 18 96 20 97 21 98 22 99
REMARK H PARENT 7 4 3 11 87 29 55 40 29 86 29 87 22 100
REMARK Flexibility Score: inf
ROOT
ATOM      1  N   UNL A   1      33.988  27.780  25.538  1.00  0.00    -0.352 N 
ATOM      2  C   UNL A   1      33.831  26.616  24.818  1.00  0.00     0.253 C 
ATOM      3  O   UNL A   1      34.068  26.651  23.611  1.00  0.00    -0.269 OA
ATOM      4  H   UNL A   1      34.298  28.552  25.011  1.00  0.00     0.163 HD
ENDROOT
BRANCH   1   5
ATOM      5  C   UNL A   1      33.772  28.048  26.944  1.00  0.00     0.118 C 
BRANCH   5   6
ATOM      6  C   UNL A   1      33.212  29.422  27.271  1.00  0.00     0.042 C 
BRANCH   6   7
ATOM      7  C   UNL A   1      34.193  30.592  27.316  1.00  0.00     0.118 C 
BRANCH   7   8
ATOM      8  N   UNL A   1      34.182  31.418  28.507  1.00  0.00    -0.352 N 
ATOM      9  O   UNL A   1      34.764  32.733  30.177  1.00  0.00    -0.269 OA
ATOM     10  C   UNL A   1      35.095  31.785  29.457  1.00  0.00     0.251 C 
ATOM     11  H   UNL A   1      33.297  31.815  28.673  1.00  0.00     0.163 HD
BRANCH  10  12
ATOM     12  C   UNL A   1      36.403  31.119  29.725  1.00  0.00     0.039 A 
ATOM     13  C   UNL A   1      37.655  31.723  29.644  1.00  0.00     0.014 A 
ATOM     14  C   UNL A   1      36.354  29.744  30.026  1.00  0.00     0.014 A 
ATOM     15  C   UNL A   1      38.825  30.966  29.760  1.00  0.00     0.010 A 
ATOM     16  C   UNL A   1      37.519  28.991  30.181  1.00  0.00     0.010 A 
ATOM     17  C   UNL A   1      38.765  29.592  30.005  1.00  0.00    -0.014 A 
BRANCH  17  18
ATOM     18  C   UNL A   1      40.025  28.847  30.130  1.00  0.00     0.031 A 
ATOM     19  C   UNL A   1      40.603  28.676  31.500  1.00  0.00     0.074 A 
ATOM     20  C   UNL A   1      40.597  28.154  29.123  1.00  0.00     0.049 A 
ATOM     21  N   UNL A   1      41.822  28.880  31.898  1.00  0.00    -0.248 NA
ATOM     22  C   UNL A   1      39.707  28.181  32.555  1.00  0.00     0.031 C 
ATOM     23  C   UNL A   1      40.043  27.885  27.796  1.00  0.00     0.029 A 
ATOM     24  N   UNL A   1      41.764  27.436  29.131  1.00  0.00    -0.354 N 
ATOM     25  C   UNL A   1      41.892  28.402  33.206  1.00  0.00     0.074 A 
ATOM     26  C   UNL A   1      40.548  28.036  33.580  1.00  0.00     0.031 C 
ATOM     27  C   UNL A   1      40.760  26.901  27.211  1.00  0.00     0.029 A 
ATOM     28  C   UNL A   1      41.888  26.562  28.065  1.00  0.00     0.049 A 
ATOM     29  H   UNL A   1      42.452  27.533  29.829  1.00  0.00     0.167 HD
ATOM     30  C   UNL A   1      43.070  28.193  33.855  1.00  0.00     0.037 A 
ATOM     31  C   UNL A   1      42.805  25.580  27.909  1.00  0.00     0.037 A 
ATOM     32  C   UNL A   1      44.161  28.926  33.278  1.00  0.00     0.049 A 
ATOM     33  C   UNL A   1      43.952  25.839  28.807  1.00  0.00     0.074 A 
ATOM     34  C   UNL A   1      44.430  30.260  33.038  1.00  0.00     0.029 A 
ATOM     35  N   UNL A   1      45.159  28.239  32.638  1.00  0.00    -0.354 N 
ATOM     36  N   UNL A   1      44.847  26.769  28.633  1.00  0.00    -0.248 NA
ATOM     37  C   UNL A   1      43.979  25.182  30.106  1.00  0.00     0.031 C 
ATOM     38  C   UNL A   1      45.289  30.279  31.900  1.00  0.00     0.029 A 
ATOM     39  C   UNL A   1      45.465  28.952  31.510  1.00  0.00     0.049 A 
ATOM     40  H   UNL A   1      45.575  27.396  32.932  1.00  0.00     0.167 HD
ATOM     41  C   UNL A   1      45.277  27.084  29.910  1.00  0.00     0.074 A 
ATOM     42  C   UNL A   1      44.835  25.979  30.746  1.00  0.00     0.031 C 
ATOM     43  C   UNL A   1      45.687  28.347  30.221  1.00  0.00     0.037 A 
BRANCH  30  44
ATOM     44  C   UNL A   1      43.298  27.108  34.880  1.00  0.00     0.064 A 
ATOM     45  C   UNL A   1      43.584  27.452  36.218  1.00  0.00     0.173 A 
ATOM     46  C   UNL A   1      43.534  25.761  34.533  1.00  0.00     0.173 A 
ATOM     47  F   UNL A   1      43.433  28.715  36.646  1.00  0.00    -0.203 F 
ATOM     48  C   UNL A   1      44.117  26.529  37.122  1.00  0.00     0.198 A 
ATOM     49  C   UNL A   1      44.017  24.830  35.454  1.00  0.00     0.198 A 
ATOM     50  F   UNL A   1      43.406  25.330  33.272  1.00  0.00    -0.203 F 
ATOM     51  F   UNL A   1      44.481  26.932  38.347  1.00  0.00    -0.200 F 
ATOM     52  C   UNL A   1      44.334  25.219  36.739  1.00  0.00     0.200 A 
ATOM     53  F   UNL A   1      44.242  23.567  35.060  1.00  0.00    -0.200 F 
ATOM     54  F   UNL A   1      44.892  24.346  37.589  1.00  0.00    -0.200 F 
ENDBRANCH  30  44
BRANCH  31  55
ATOM     55  C   UNL A   1      42.681  24.317  27.147  1.00  0.00     0.064 A 
ATOM     56  C   UNL A   1      43.179  24.200  25.841  1.00  0.00     0.173 A 
ATOM     57  C   UNL A   1      42.277  23.123  27.775  1.00  0.00     0.173 A 
ATOM     58  F   UNL A   1      43.640  25.278  25.192  1.00  0.00    -0.203 F 
ATOM     59  C   UNL A   1      43.264  22.961  25.198  1.00  0.00     0.198 A 
ATOM     60  C   UNL A   1      42.346  21.890  27.128  1.00  0.00     0.198 A 
ATOM     61  F   UNL A   1      41.887  23.118  29.058  1.00  0.00    -0.203 F 
ATOM     62  F   UNL A   1      43.794  22.880  23.970  1.00  0.00    -0.200 F 
ATOM     63  C   UNL A   1      42.849  21.807  25.843  1.00  0.00     0.200 A 
ATOM     64  F   UNL A   1      41.975  20.777  27.776  1.00  0.00    -0.200 F 
ATOM     65  F   UNL A   1      42.969  20.615  25.243  1.00  0.00    -0.200 F 
ENDBRANCH  31  55
BRANCH  43  66
ATOM     66  C   UNL A   1      46.055  29.259  29.093  1.00  0.00     0.064 A 
ATOM     67  C   UNL A   1      45.112  29.979  28.341  1.00  0.00     0.173 A 
ATOM     68  C   UNL A   1      47.412  29.512  28.851  1.00  0.00     0.173 A 
ATOM     69  F   UNL A   1      43.801  29.867  28.595  1.00  0.00    -0.203 F 
ATOM     70  C   UNL A   1      45.514  30.870  27.350  1.00  0.00     0.198 A 
ATOM     71  C   UNL A   1      47.810  30.430  27.883  1.00  0.00     0.198 A 
ATOM     72  F   UNL A   1      48.353  28.899  29.586  1.00  0.00    -0.203 F 
ATOM     73  F   UNL A   1      44.597  31.536  26.632  1.00  0.00    -0.200 F 
ATOM     74  C   UNL A   1      46.862  31.098  27.125  1.00  0.00     0.200 A 
ATOM     75  F   UNL A   1      49.114  30.686  27.703  1.00  0.00    -0.200 F 
ATOM     76  F   UNL A   1      47.248  31.985  26.197  1.00  0.00    -0.200 F 
ENDBRANCH  43  66
ENDBRANCH  17  18
ENDBRANCH  10  12
ENDBRANCH   7   8
ENDBRANCH   6   7
ENDBRANCH   5   6
ENDBRANCH   1   5
BRANCH   2  77
ATOM     77  C   UNL A   1      33.523  25.357  25.498  1.00  0.00     0.074 A 
ATOM     78  C   UNL A   1      32.278  24.988  26.011  1.00  0.00     0.148 A 
ATOM     79  C   UNL A   1      34.424  24.222  25.572  1.00  0.00    -0.009 A 
ATOM     80  S   UNL A   1      32.453  23.649  27.067  1.00  0.00    -0.120 S 
ATOM     81  C   UNL A   1      33.878  23.181  26.294  1.00  0.00     0.064 A 
ATOM     82  C   UNL A   1      35.794  24.066  24.970  1.00  0.00     0.099 C 
ATOM     83  C   UNL A   1      34.455  21.804  26.400  1.00  0.00     0.308 C 
ATOM     84  C   UNL A   1      36.215  22.574  24.922  1.00  0.00     0.265 C 
ATOM     85  N   UNL A   1      35.908  21.828  26.162  1.00  0.00    -0.342 N 
ATOM     86  H   UNL A   1      36.370  22.281  26.951  1.00  0.00     0.346 HD
ATOM     87  H   UNL A   1      36.242  20.870  26.063  1.00  0.00     0.346 HD
BRANCH  78  88
ATOM     88  S   UNL A   1      30.629  25.658  25.876  1.00  0.00     0.253 S 
ATOM     89  O   UNL A   1      29.782  24.705  26.574  1.00  0.00    -0.206 OA
ATOM     90  O   UNL A   1      30.768  27.012  26.350  1.00  0.00    -0.206 OA
BRANCH  88  91
ATOM     91  N   UNL A   1      30.119  25.726  24.273  1.00  0.00    -0.192 NA
ATOM     92  C   UNL A   1      30.950  25.211  23.160  1.00  0.00     0.131 C 
ATOM     93  C   UNL A   1      29.154  26.768  23.859  1.00  0.00     0.134 C 
ATOM     94  C   UNL A   1      31.443  26.313  22.204  1.00  0.00     0.177 C 
ATOM     95  C   UNL A   1      29.899  27.878  23.107  1.00  0.00     0.135 C 
ATOM     96  O   UNL A   1      30.463  27.318  21.902  1.00  0.00    -0.375 OA
BRANCH  95  97
ATOM     97  C   UNL A   1      29.029  29.077  22.725  1.00  0.00     0.061 C 
BRANCH  97  98
ATOM     98  C   UNL A   1      29.614  29.944  21.618  1.00  0.00     0.159 C 
BRANCH  98  99
ATOM     99  O   UNL A   1      31.030  29.987  21.729  1.00  0.00    -0.396 OA
ATOM    100  H   UNL A   1      31.374  29.087  21.835  1.00  0.00     0.210 HD
ENDBRANCH  98  99
ENDBRANCH  97  98
ENDBRANCH  95  97
ENDBRANCH  88  91
ENDBRANCH  78  88
ENDBRANCH   2  77
TORSDOF 15
ENDMDL
MODEL 2
REMARK VINA RESULT:     -13.1      1.317      3.403
REMARK SMILES O=C(NCCCNC(=O)c1c(S(=O)(=O)N2CCO[C@@H](CCO)C2)sc2c1CC[NH2+]C2)c1ccc(-c2c3nc(c(-c4c(F)c(F)c(F)c(F)c4F)c4ccc([nH]4)c(-c4c(F)c(F)c(F)c(F)c4F)c4nc(c(-c5c(F)c(F)c(F)c(F)c5F)c5ccc2[nH]5)C=C4)C=C3)cc1
REMARK SMILES IDX 7 1 8 2 9 3 6 5 5 6 4 7 3 8 1 9 2 10 31 12 32 13 93 14 33 15
REMARK SMILES IDX 92 16 34 17 35 18 36 19 86 20 37 21 91 22 85 23 87 24 38 25
REMARK SMILES IDX 90 26 84 27 83 28 39 30 71 31 51 32 70 33 52 34 55 35 69 36
REMARK SMILES IDX 88 37 53 38 54 39 68 41 89 42 56 43 40 44 41 45 49 46 42 47
REMARK SMILES IDX 43 48 47 49 50 50 44 51 45 52 48 53 46 54 72 55 73 56 81 57
REMARK SMILES IDX 74 58 75 59 79 60 82 61 76 62 77 63 80 64 78 65 57 66 58 67
REMARK SMILES IDX 66 68 59 69 60 70 64 71 67 72 61 73 62 74 65 75 63 76 10 77
REMARK SMILES IDX 11 78 26 79 24 80 25 81 27 82 30 83 28 84 29 85 12 88 13 89
REMARK SMILES IDX 14 90 15 91 16 92 23 93 17 94 19 95 18 96 20 97 21 98 22 99
REMARK H PARENT 7 4 3 11 87 29 55 40 29 86 29 87 22 100
REMARK Flexibility Score: inf
ROOT
ATOM      1  N   UNL A   1      32.820  29.812  24.766  1.00  0.00    -0.352 N 
ATOM      2  C   UNL A   1      32.493  28.988  23.713  1.00  0.00     0.253 C 
ATOM      3  O   UNL A   1      33.328  28.833  22.823  1.00  0.00    -0.269 OA
ATOM      4  H   UNL A   1      33.722  30.205  24.718  1.00  0.00     0.163 HD
ENDROOT
BRANCH   1   5
ATOM      5  C   UNL A   1      32.051  30.193  25.931  1.00  0.00     0.118 C 
BRANCH   5   6
ATOM      6  C   UNL A   1      32.795  30.137  27.255  1.00  0.00     0.042 C 
BRANCH   6   7
ATOM      7  C   UNL A   1      34.030  31.022  27.409  1.00  0.00     0.118 C 
BRANCH   7   8
ATOM      8  N   UNL A   1      34.236  31.649  28.700  1.00  0.00    -0.352 N 
ATOM      9  O   UNL A   1      35.136  32.613  30.466  1.00  0.00    -0.269 OA
ATOM     10  C   UNL A   1      35.273  31.756  29.587  1.00  0.00     0.251 C 
ATOM     11  H   UNL A   1      33.429  32.115  29.017  1.00  0.00     0.163 HD
BRANCH  10  12
ATOM     12  C   UNL A   1      36.500  30.909  29.612  1.00  0.00     0.039 A 
ATOM     13  C   UNL A   1      36.533  29.531  29.805  1.00  0.00     0.014 A 
ATOM     14  C   UNL A   1      37.729  31.585  29.486  1.00  0.00     0.014 A 
ATOM     15  C   UNL A   1      37.749  28.859  29.969  1.00  0.00     0.010 A 
ATOM     16  C   UNL A   1      38.947  30.914  29.611  1.00  0.00     0.010 A 
ATOM     17  C   UNL A   1      38.962  29.549  29.897  1.00  0.00    -0.014 A 
BRANCH  17  18
ATOM     18  C   UNL A   1      40.210  28.792  30.065  1.00  0.00     0.031 A 
ATOM     19  C   UNL A   1      40.747  28.629  31.453  1.00  0.00     0.074 A 
ATOM     20  C   UNL A   1      40.802  28.084  29.081  1.00  0.00     0.049 A 
ATOM     21  N   UNL A   1      41.957  28.823  31.882  1.00  0.00    -0.248 NA
ATOM     22  C   UNL A   1      39.817  28.152  32.486  1.00  0.00     0.031 C 
ATOM     23  C   UNL A   1      40.283  27.808  27.741  1.00  0.00     0.029 A 
ATOM     24  N   UNL A   1      41.961  27.354  29.128  1.00  0.00    -0.354 N 
ATOM     25  C   UNL A   1      41.984  28.357  33.197  1.00  0.00     0.074 A 
ATOM     26  C   UNL A   1      40.627  28.009  33.536  1.00  0.00     0.031 C 
ATOM     27  C   UNL A   1      41.006  26.811  27.186  1.00  0.00     0.029 A 
ATOM     28  C   UNL A   1      42.106  26.468  28.075  1.00  0.00     0.049 A 
ATOM     29  H   UNL A   1      42.631  27.450  29.844  1.00  0.00     0.167 HD
ATOM     30  C   UNL A   1      43.141  28.142  33.880  1.00  0.00     0.037 A 
ATOM     31  C   UNL A   1      43.016  25.475  27.954  1.00  0.00     0.037 A 
ATOM     32  C   UNL A   1      44.256  28.857  33.328  1.00  0.00     0.049 A 
ATOM     33  C   UNL A   1      44.140  25.731  28.881  1.00  0.00     0.074 A 
ATOM     34  C   UNL A   1      44.546  30.186  33.083  1.00  0.00     0.029 A 
ATOM     35  N   UNL A   1      45.264  28.154  32.723  1.00  0.00    -0.354 N 
ATOM     36  N   UNL A   1      45.050  26.651  28.724  1.00  0.00    -0.248 NA
ATOM     37  C   UNL A   1      44.124  25.086  30.186  1.00  0.00     0.031 C 
ATOM     38  C   UNL A   1      45.437  30.185  31.970  1.00  0.00     0.029 A 
ATOM     39  C   UNL A   1      45.610  28.853  31.598  1.00  0.00     0.049 A 
ATOM     40  H   UNL A   1      45.663  27.310  33.036  1.00  0.00     0.167 HD
ATOM     41  C   UNL A   1      45.447  26.972  30.010  1.00  0.00     0.074 A 
ATOM     42  C   UNL A   1      44.970  25.880  30.842  1.00  0.00     0.031 C 
ATOM     43  C   UNL A   1      45.861  28.234  30.320  1.00  0.00     0.037 A 
BRANCH  30  44
ATOM     44  C   UNL A   1      43.329  27.064  34.921  1.00  0.00     0.064 A 
ATOM     45  C   UNL A   1      43.650  27.416  36.250  1.00  0.00     0.173 A 
ATOM     46  C   UNL A   1      43.493  25.701  34.595  1.00  0.00     0.173 A 
ATOM     47  F   UNL A   1      43.567  28.691  36.657  1.00  0.00    -0.203 F 
ATOM     48  C   UNL A   1      44.149  26.482  37.163  1.00  0.00     0.198 A 
ATOM     49  C   UNL A   1      43.941  24.763  35.526  1.00  0.00     0.198 A 
ATOM     50  F   UNL A   1      43.327  25.256  33.343  1.00  0.00    -0.203 F 
ATOM     51  F   UNL A   1      44.549  26.887  38.375  1.00  0.00    -0.200 F 
ATOM     52  C   UNL A   1      44.294  25.157  36.800  1.00  0.00     0.200 A 
ATOM     53  F   UNL A   1      44.097  23.484  35.152  1.00  0.00    -0.200 F 
ATOM     54  F   UNL A   1      44.820  24.272  37.657  1.00  0.00    -0.200 F 
ENDBRANCH  30  44
BRANCH  31  55
ATOM     55  C   UNL A   1      42.900  24.207  27.200  1.00  0.00     0.064 A 
ATOM     56  C   UNL A   1      43.486  24.053  25.934  1.00  0.00     0.173 A 
ATOM     57  C   UNL A   1      42.408  23.037  27.811  1.00  0.00     0.173 A 
ATOM     58  F   UNL A   1      44.032  25.104  25.307  1.00  0.00    -0.203 F 
ATOM     59  C   UNL A   1      43.571  22.802  25.314  1.00  0.00     0.198 A 
ATOM     60  C   UNL A   1      42.478  21.793  27.185  1.00  0.00     0.198 A 
ATOM     61  F   UNL A   1      41.927  23.066  29.062  1.00  0.00    -0.203 F 
ATOM     62  F   UNL A   1      44.184  22.685  24.128  1.00  0.00    -0.200 F 
ATOM     63  C   UNL A   1      43.068  21.674  25.942  1.00  0.00     0.200 A 
ATOM     64  F   UNL A   1      42.020  20.704  27.819  1.00  0.00    -0.200 F 
ATOM     65  F   UNL A   1      43.186  20.469  25.366  1.00  0.00    -0.200 F 
ENDBRANCH  31  55
BRANCH  43  66
ATOM     66  C   UNL A   1      46.271  29.132  29.195  1.00  0.00     0.064 A 
ATOM     67  C   UNL A   1      45.358  29.862  28.417  1.00  0.00     0.173 A 
ATOM     68  C   UNL A   1      47.638  29.359  28.983  1.00  0.00     0.173 A 
ATOM     69  F   UNL A   1      44.039  29.775  28.642  1.00  0.00    -0.203 F 
ATOM     70  C   UNL A   1      45.798  30.740  27.429  1.00  0.00     0.198 A 
ATOM     71  C   UNL A   1      48.073  30.264  28.018  1.00  0.00     0.198 A 
ATOM     72  F   UNL A   1      48.551  28.735  29.743  1.00  0.00    -0.203 F 
ATOM     73  F   UNL A   1      44.909  31.416  26.686  1.00  0.00    -0.200 F 
ATOM     74  C   UNL A   1      47.154  30.942  27.234  1.00  0.00     0.200 A 
ATOM     75  F   UNL A   1      49.385  30.496  27.866  1.00  0.00    -0.200 F 
ATOM     76  F   UNL A   1      47.577  31.816  26.309  1.00  0.00    -0.200 F 
ENDBRANCH  43  66
ENDBRANCH  17  18
ENDBRANCH  10  12
ENDBRANCH   7   8
ENDBRANCH   6   7
ENDBRANCH   5   6
ENDBRANCH   1   5
BRANCH   2  77
ATOM     77  C   UNL A   1      31.247  28.219  23.730  1.00  0.00     0.074 A 
ATOM     78  C   UNL A   1      31.083  26.938  24.258  1.00  0.00     0.148 A 
ATOM     79  C   UNL A   1      29.948  28.753  23.366  1.00  0.00    -0.009 A 
ATOM     80  S   UNL A   1      29.608  26.260  23.710  1.00  0.00    -0.120 S 
ATOM     81  C   UNL A   1      28.958  27.796  23.454  1.00  0.00     0.064 A 
ATOM     82  C   UNL A   1      29.588  30.153  22.947  1.00  0.00     0.099 C 
ATOM     83  C   UNL A   1      27.489  28.057  23.337  1.00  0.00     0.308 C 
ATOM     84  C   UNL A   1      28.062  30.397  23.071  1.00  0.00     0.265 C 
ATOM     85  N   UNL A   1      27.236  29.281  22.559  1.00  0.00    -0.342 N 
ATOM     86  H   UNL A   1      27.470  29.111  21.580  1.00  0.00     0.346 HD
ATOM     87  H   UNL A   1      26.252  29.531  22.645  1.00  0.00     0.346 HD
BRANCH  78  88
ATOM     88  S   UNL A   1      32.099  25.869  25.265  1.00  0.00     0.253 S 
ATOM     89  O   UNL A   1      32.841  26.771  26.132  1.00  0.00    -0.206 OA
ATOM     90  O   UNL A   1      31.163  24.919  25.811  1.00  0.00    -0.206 OA
BRANCH  88  91
ATOM     91  N   UNL A   1      33.212  25.016  24.333  1.00  0.00    -0.192 NA
ATOM     92  C   UNL A   1      33.476  25.355  22.917  1.00  0.00     0.131 C 
ATOM     93  C   UNL A   1      33.520  23.610  24.673  1.00  0.00     0.134 C 
ATOM     94  C   UNL A   1      33.029  24.260  21.931  1.00  0.00     0.177 C 
ATOM     95  C   UNL A   1      32.795  22.680  23.692  1.00  0.00     0.135 C 
ATOM     96  O   UNL A   1      33.312  22.920  22.366  1.00  0.00    -0.375 OA
BRANCH  95  97
ATOM     97  C   UNL A   1      32.939  21.190  24.007  1.00  0.00     0.061 C 
BRANCH  97  98
ATOM     98  C   UNL A   1      32.642  20.830  25.457  1.00  0.00     0.159 C 
BRANCH  98  99
ATOM     99  O   UNL A   1      31.302  21.172  25.781  1.00  0.00    -0.396 OA
ATOM    100  H   UNL A   1      30.701  20.775  25.132  1.00  0.00     0.210 HD
ENDBRANCH  98  99
ENDBRANCH  97  98
ENDBRANCH  95  97
ENDBRANCH  88  91
ENDBRANCH  78  88
ENDBRANCH   2  77
TORSDOF 15
ENDMDL
MODEL 3
REMARK VINA RESULT:     -13.0      2.999      8.019
REMARK SMILES O=C(NCCCNC(=O)c1c(S(=O)(=O)N2CCO[C@@H](CCO)C2)sc2c1CC[NH2+]C2)c1ccc(-c2c3nc(c(-c4c(F)c(F)c(F)c(F)c4F)c4ccc([nH]4)c(-c4c(F)c(F)c(F)c(F)c4F)c4nc(c(-c5c(F)c(F)c(F)c(F)c5F)c5ccc2[nH]5)C=C4)C=C3)cc1
REMARK SMILES IDX 7 1 8 2 9 3 6 5 5 6 4 7 3 8 1 9 2 10 31 12 32 13 93 14 33 15
REMARK SMILES IDX 92 16 34 17 35 18 36 19 86 20 37 21 91 22 85 23 87 24 38 25
REMARK SMILES IDX 90 26 84 27 83 28 39 30 71 31 51 32 70 33 52 34 55 35 69 36
REMARK SMILES IDX 88 37 53 38 54 39 68 41 89 42 56 43 40 44 41 45 49 46 42 47
REMARK SMILES IDX 43 48 47 49 50 50 44 51 45 52 48 53 46 54 72 55 73 56 81 57
REMARK SMILES IDX 74 58 75 59 79 60 82 61 76 62 77 63 80 64 78 65 57 66 58 67
REMARK SMILES IDX 66 68 59 69 60 70 64 71 67 72 61 73 62 74 65 75 63 76 10 77
REMARK SMILES IDX 11 78 26 79 24 80 25 81 27 82 30 83 28 84 29 85 12 88 13 89
REMARK SMILES IDX 14 90 15 91 16 92 23 93 17 94 19 95 18 96 20 97 21 98 22 99
REMARK H PARENT 7 4 3 11 87 29 55 40 29 86 29 87 22 100
REMARK Flexibility Score: inf
ROOT
ATOM      1  N   UNL A   1      34.469  22.101  27.338  1.00  0.00    -0.352 N 
ATOM      2  C   UNL A   1      33.141  22.314  27.046  1.00  0.00     0.253 C 
ATOM      3  O   UNL A   1      32.393  22.631  27.971  1.00  0.00    -0.269 OA
ATOM      4  H   UNL A   1      34.711  22.237  28.283  1.00  0.00     0.163 HD
ENDROOT
BRANCH   1   5
ATOM      5  C   UNL A   1      35.566  21.709  26.479  1.00  0.00     0.118 C 
BRANCH   5   6
ATOM      6  C   UNL A   1      36.208  22.833  25.681  1.00  0.00     0.042 C 
BRANCH   6   7
ATOM      7  C   UNL A   1      37.295  22.455  24.678  1.00  0.00     0.118 C 
BRANCH   7   8
ATOM      8  N   UNL A   1      38.439  21.724  25.187  1.00  0.00    -0.352 N 
ATOM      9  O   UNL A   1      40.026  20.912  26.481  1.00  0.00    -0.269 OA
ATOM     10  C   UNL A   1      39.355  21.906  26.186  1.00  0.00     0.251 C 
ATOM     11  H   UNL A   1      38.594  20.889  24.690  1.00  0.00     0.163 HD
BRANCH  10  12
ATOM     12  C   UNL A   1      39.642  23.186  26.896  1.00  0.00     0.039 A 
ATOM     13  C   UNL A   1      38.904  24.361  26.783  1.00  0.00     0.014 A 
ATOM     14  C   UNL A   1      40.797  23.210  27.701  1.00  0.00     0.014 A 
ATOM     15  C   UNL A   1      39.353  25.549  27.370  1.00  0.00     0.010 A 
ATOM     16  C   UNL A   1      41.230  24.384  28.320  1.00  0.00     0.010 A 
ATOM     17  C   UNL A   1      40.530  25.574  28.121  1.00  0.00    -0.014 A 
BRANCH  17  18
ATOM     18  C   UNL A   1      40.949  26.846  28.725  1.00  0.00     0.031 A 
ATOM     19  C   UNL A   1      42.191  27.495  28.197  1.00  0.00     0.074 A 
ATOM     20  C   UNL A   1      40.197  27.556  29.591  1.00  0.00     0.049 A 
ATOM     21  N   UNL A   1      43.199  27.976  28.859  1.00  0.00    -0.248 NA
ATOM     22  C   UNL A   1      42.302  27.656  26.740  1.00  0.00     0.031 C 
ATOM     23  C   UNL A   1      38.811  27.304  29.986  1.00  0.00     0.029 A 
ATOM     24  N   UNL A   1      40.493  28.741  30.213  1.00  0.00    -0.354 N 
ATOM     25  C   UNL A   1      44.002  28.631  27.925  1.00  0.00     0.074 A 
ATOM     26  C   UNL A   1      43.433  28.354  26.629  1.00  0.00     0.031 C 
ATOM     27  C   UNL A   1      38.321  28.402  30.600  1.00  0.00     0.029 A 
ATOM     28  C   UNL A   1      39.389  29.380  30.750  1.00  0.00     0.049 A 
ATOM     29  H   UNL A   1      41.406  29.104  30.274  1.00  0.00     0.167 HD
ATOM     30  C   UNL A   1      44.998  29.488  28.280  1.00  0.00     0.037 A 
ATOM     31  C   UNL A   1      39.321  30.643  31.227  1.00  0.00     0.037 A 
ATOM     32  C   UNL A   1      45.444  29.295  29.631  1.00  0.00     0.049 A 
ATOM     33  C   UNL A   1      40.689  31.123  31.528  1.00  0.00     0.074 A 
ATOM     34  C   UNL A   1      45.977  28.241  30.347  1.00  0.00     0.029 A 
ATOM     35  N   UNL A   1      45.186  30.267  30.562  1.00  0.00    -0.354 N 
ATOM     36  N   UNL A   1      41.418  30.729  32.533  1.00  0.00    -0.248 NA
ATOM     37  C   UNL A   1      41.385  31.910  30.521  1.00  0.00     0.031 C 
ATOM     38  C   UNL A   1      45.580  28.457  31.699  1.00  0.00     0.029 A 
ATOM     39  C   UNL A   1      44.811  29.620  31.709  1.00  0.00     0.049 A 
ATOM     40  H   UNL A   1      45.255  31.240  30.431  1.00  0.00     0.167 HD
ATOM     41  C   UNL A   1      42.723  30.875  32.096  1.00  0.00     0.074 A 
ATOM     42  C   UNL A   1      42.642  31.744  30.933  1.00  0.00     0.031 C 
ATOM     43  C   UNL A   1      43.706  30.039  32.535  1.00  0.00     0.037 A 
BRANCH  30  44
ATOM     44  C   UNL A   1      45.411  30.697  27.474  1.00  0.00     0.064 A 
ATOM     45  C   UNL A   1      46.772  30.910  27.171  1.00  0.00     0.173 A 
ATOM     46  C   UNL A   1      44.556  31.796  27.245  1.00  0.00     0.173 A 
ATOM     47  F   UNL A   1      47.680  29.946  27.387  1.00  0.00    -0.203 F 
ATOM     48  C   UNL A   1      47.246  32.147  26.725  1.00  0.00     0.198 A 
ATOM     49  C   UNL A   1      45.026  33.013  26.750  1.00  0.00     0.198 A 
ATOM     50  F   UNL A   1      43.263  31.761  27.592  1.00  0.00    -0.203 F 
ATOM     51  F   UNL A   1      48.563  32.336  26.563  1.00  0.00    -0.200 F 
ATOM     52  C   UNL A   1      46.373  33.197  26.516  1.00  0.00     0.200 A 
ATOM     53  F   UNL A   1      44.168  34.029  26.572  1.00  0.00    -0.200 F 
ATOM     54  F   UNL A   1      46.832  34.398  26.138  1.00  0.00    -0.200 F 
ENDBRANCH  30  44
BRANCH  31  55
ATOM     55  C   UNL A   1      38.149  31.545  31.284  1.00  0.00     0.064 A 
ATOM     56  C   UNL A   1      37.617  32.127  30.123  1.00  0.00     0.173 A 
ATOM     57  C   UNL A   1      37.380  31.669  32.457  1.00  0.00     0.173 A 
ATOM     58  F   UNL A   1      38.255  32.005  28.951  1.00  0.00    -0.203 F 
ATOM     59  C   UNL A   1      36.390  32.797  30.136  1.00  0.00     0.198 A 
ATOM     60  C   UNL A   1      36.165  32.352  32.474  1.00  0.00     0.198 A 
ATOM     61  F   UNL A   1      37.753  31.057  33.591  1.00  0.00    -0.203 F 
ATOM     62  F   UNL A   1      35.888  33.295  28.998  1.00  0.00    -0.200 F 
ATOM     63  C   UNL A   1      35.665  32.907  31.311  1.00  0.00     0.200 A 
ATOM     64  F   UNL A   1      35.456  32.419  33.610  1.00  0.00    -0.200 F 
ATOM     65  F   UNL A   1      34.469  33.513  31.315  1.00  0.00    -0.200 F 
ENDBRANCH  31  55
BRANCH  43  66
ATOM     66  C   UNL A   1      43.449  29.251  33.781  1.00  0.00     0.064 A 
ATOM     67  C   UNL A   1      43.812  29.692  35.064  1.00  0.00     0.173 A 
ATOM     68  C   UNL A   1      42.698  28.072  33.685  1.00  0.00     0.173 A 
ATOM     69  F   UNL A   1      44.436  30.866  35.236  1.00  0.00    -0.203 F 
ATOM     70  C   UNL A   1      43.484  28.952  36.197  1.00  0.00     0.198 A 
ATOM     71  C   UNL A   1      42.341  27.353  34.823  1.00  0.00     0.198 A 
ATOM     72  F   UNL A   1      42.271  27.640  32.488  1.00  0.00    -0.203 F 
ATOM     73  F   UNL A   1      43.854  29.383  37.412  1.00  0.00    -0.200 F 
ATOM     74  C   UNL A   1      42.746  27.786  36.075  1.00  0.00     0.200 A 
ATOM     75  F   UNL A   1      41.584  26.252  34.707  1.00  0.00    -0.200 F 
ATOM     76  F   UNL A   1      42.397  27.094  37.170  1.00  0.00    -0.200 F 
ENDBRANCH  43  66
ENDBRANCH  17  18
ENDBRANCH  10  12
ENDBRANCH   7   8
ENDBRANCH   6   7
ENDBRANCH   5   6
ENDBRANCH   1   5
BRANCH   2  77
ATOM     77  C   UNL A   1      32.672  22.296  25.660  1.00  0.00     0.074 A 
ATOM     78  C   UNL A   1      32.424  23.417  24.865  1.00  0.00     0.148 A 
ATOM     79  C   UNL A   1      32.575  21.102  24.841  1.00  0.00    -0.009 A 
ATOM     80  S   UNL A   1      31.514  22.967  23.484  1.00  0.00    -0.120 S 
ATOM     81  C   UNL A   1      32.080  21.381  23.584  1.00  0.00     0.064 A 
ATOM     82  C   UNL A   1      32.948  19.686  25.191  1.00  0.00     0.099 C 
ATOM     83  C   UNL A   1      32.035  20.420  22.437  1.00  0.00     0.308 C 
ATOM     84  C   UNL A   1      33.094  18.816  23.916  1.00  0.00     0.265 C 
ATOM     85  N   UNL A   1      32.018  19.030  22.923  1.00  0.00    -0.342 N 
ATOM     86  H   UNL A   1      31.115  18.837  23.358  1.00  0.00     0.346 HD
ATOM     87  H   UNL A   1      32.167  18.402  22.134  1.00  0.00     0.346 HD
BRANCH  78  88
ATOM     88  S   UNL A   1      32.762  25.161  25.036  1.00  0.00     0.253 S 
ATOM     89  O   UNL A   1      31.824  25.624  26.046  1.00  0.00    -0.206 OA
ATOM     90  O   UNL A   1      34.184  25.215  25.267  1.00  0.00    -0.206 OA
BRANCH  88  91
ATOM     91  N   UNL A   1      32.442  25.996  23.610  1.00  0.00    -0.192 NA
ATOM     92  C   UNL A   1      33.515  26.383  22.667  1.00  0.00     0.131 C 
ATOM     93  C   UNL A   1      31.239  26.853  23.522  1.00  0.00     0.134 C 
ATOM     94  C   UNL A   1      33.720  27.905  22.562  1.00  0.00     0.177 C 
ATOM     95  C   UNL A   1      31.653  28.323  23.659  1.00  0.00     0.135 C 
ATOM     96  O   UNL A   1      32.502  28.667  22.543  1.00  0.00    -0.375 OA
BRANCH  95  97
ATOM     97  C   UNL A   1      30.484  29.309  23.701  1.00  0.00     0.061 C 
BRANCH  97  98
ATOM     98  C   UNL A   1      29.702  29.404  22.397  1.00  0.00     0.159 C 
BRANCH  98  99
ATOM     99  O   UNL A   1      30.466  30.096  21.420  1.00  0.00    -0.396 OA
ATOM    100  H   UNL A   1      30.965  30.810  21.846  1.00  0.00     0.210 HD
ENDBRANCH  98  99
ENDBRANCH  97  98
ENDBRANCH  95  97
ENDBRANCH  88  91
ENDBRANCH  78  88
ENDBRANCH   2  77
TORSDOF 15
ENDMDL
