MODEL 1
REMARK VINA RESULT:     -13.4      0.000      0.000
REMARK SMILES CC1=C(C)C[C@@H](C(=O)NCC(=O)c2ccccc2)[C@H](C(=O)NCCCNC(=O)c2ccc(-c3c4nc(c(-c5c(F)c(F)c(F)c(F)c5F)c5ccc([nH]5)c(-c5c(F)c(F)c(F)c(F)c5F)c5nc(c(-c6c(F)c(F)c(F)c(F)c6F)c6ccc3[nH]6)C=C5)C=C4)cc2)C1
REMARK SMILES IDX 23 1 22 2 20 3 21 4 19 6 1 7 2 8 3 9 92 10 4 11 5 12 6 13
REMARK SMILES IDX 7 14 8 15 9 16 10 18 11 19 12 20 13 21 14 22 18 23 15 24
REMARK SMILES IDX 17 25 16 26 24 27 25 28 26 29 27 30 28 32 29 33 30 34 91 35
REMARK SMILES IDX 31 36 90 37 32 38 33 39 34 40 84 41 35 42 89 43 83 44 85 45
REMARK SMILES IDX 36 46 88 47 82 48 81 49 37 51 69 52 49 53 68 54 50 55 53 56
REMARK SMILES IDX 67 57 86 58 51 59 52 60 66 62 87 63 54 64 38 65 39 66 47 67
REMARK SMILES IDX 40 68 41 69 45 70 48 71 42 72 43 73 46 74 44 75 70 76 71 77
REMARK SMILES IDX 79 78 72 79 73 80 77 81 80 82 74 83 75 84 78 85 76 86 55 87
REMARK SMILES IDX 56 88 64 89 57 90 58 91 62 92 65 93 59 94 60 95 63 96 61 97
REMARK H PARENT 22 5 9 17 26 31 85 50 53 61
REMARK Flexibility Score: inf
ROOT
ATOM      1  C   UNL A   1      34.094  28.557  22.971  1.00  0.00     0.117 C 
ENDROOT
BRANCH   1   2
ATOM      2  N   UNL A   1      33.752  27.608  21.938  1.00  0.00    -0.356 N 
ATOM      3  C   UNL A   1      33.345  26.318  22.038  1.00  0.00     0.224 C 
ATOM      4  O   UNL A   1      33.094  25.727  20.983  1.00  0.00    -0.275 OA
ATOM      5  H   UNL A   1      33.826  27.951  21.017  1.00  0.00     0.163 HD
BRANCH   3   6
ATOM      6  C   UNL A   1      33.229  25.592  23.380  1.00  0.00     0.095 C 
ATOM      7  C   UNL A   1      35.381  22.348  23.876  1.00  0.00     0.039 C 
ATOM      8  C   UNL A   1      34.117  23.162  23.758  1.00  0.00    -0.074 C 
ATOM      9  C   UNL A   1      32.867  22.652  23.692  1.00  0.00    -0.074 C 
ATOM     10  C   UNL A   1      34.402  24.648  23.655  1.00  0.00     0.045 C 
ATOM     11  C   UNL A   1      32.528  21.182  23.682  1.00  0.00     0.039 C 
ATOM     12  C   UNL A   1      31.637  23.521  23.562  1.00  0.00     0.045 C 
ATOM     13  C   UNL A   1      31.820  25.039  23.595  1.00  0.00     0.095 C 
BRANCH  13  14
ATOM     14  C   UNL A   1      31.134  25.664  24.810  1.00  0.00     0.224 C 
ATOM     15  O   UNL A   1      31.593  25.470  25.940  1.00  0.00    -0.275 OA
ATOM     16  N   UNL A   1      30.028  26.442  24.742  1.00  0.00    -0.348 N 
ATOM     17  H   UNL A   1      29.710  26.746  25.623  1.00  0.00     0.163 HD
BRANCH  16  18
ATOM     18  C   UNL A   1      29.214  26.921  23.642  1.00  0.00     0.197 C 
BRANCH  18  19
ATOM     19  C   UNL A   1      29.675  28.084  22.751  1.00  0.00     0.181 C 
ATOM     20  O   UNL A   1      30.465  27.859  21.829  1.00  0.00    -0.292 OA
BRANCH  19  21
ATOM     21  C   UNL A   1      29.057  29.441  22.814  1.00  0.00     0.019 A 
ATOM     22  C   UNL A   1      29.528  30.311  23.813  1.00  0.00     0.012 A 
ATOM     23  C   UNL A   1      28.083  29.898  21.923  1.00  0.00     0.012 A 
ATOM     24  C   UNL A   1      29.083  31.632  23.876  1.00  0.00     0.001 A 
ATOM     25  C   UNL A   1      27.654  31.228  21.976  1.00  0.00     0.001 A 
ATOM     26  C   UNL A   1      28.158  32.094  22.945  1.00  0.00     0.000 A 
ENDBRANCH  19  21
ENDBRANCH  18  19
ENDBRANCH  16  18
ENDBRANCH  13  14
ENDBRANCH   3   6
ENDBRANCH   1   2
BRANCH   1  27
ATOM     27  C   UNL A   1      32.898  28.954  23.808  1.00  0.00     0.042 C 
BRANCH  27  28
ATOM     28  C   UNL A   1      33.276  29.186  25.257  1.00  0.00     0.118 C 
BRANCH  28  29
ATOM     29  N   UNL A   1      32.752  30.453  25.761  1.00  0.00    -0.352 N 
ATOM     30  C   UNL A   1      33.137  31.193  26.846  1.00  0.00     0.251 C 
ATOM     31  H   UNL A   1      32.007  30.833  25.241  1.00  0.00     0.163 HD
ATOM     32  O   UNL A   1      32.421  32.102  27.262  1.00  0.00    -0.269 OA
BRANCH  30  33
ATOM     33  C   UNL A   1      34.411  30.885  27.518  1.00  0.00     0.039 A 
ATOM     34  C   UNL A   1      35.366  31.892  27.674  1.00  0.00     0.014 A 
ATOM     35  C   UNL A   1      34.654  29.598  28.004  1.00  0.00     0.014 A 
ATOM     36  C   UNL A   1      36.536  31.618  28.380  1.00  0.00     0.010 A 
ATOM     37  C   UNL A   1      35.756  29.363  28.807  1.00  0.00     0.010 A 
ATOM     38  C   UNL A   1      36.720  30.364  28.986  1.00  0.00    -0.014 A 
BRANCH  38  39
ATOM     39  C   UNL A   1      37.926  30.056  29.787  1.00  0.00     0.031 A 
ATOM     40  C   UNL A   1      38.955  29.104  29.242  1.00  0.00     0.074 A 
ATOM     41  C   UNL A   1      38.050  30.565  31.027  1.00  0.00     0.049 A 
ATOM     42  N   UNL A   1      40.026  28.625  29.820  1.00  0.00    -0.248 NA
ATOM     43  C   UNL A   1      38.731  28.593  27.879  1.00  0.00     0.031 C 
ATOM     44  C   UNL A   1      37.084  31.453  31.678  1.00  0.00     0.029 A 
ATOM     45  N   UNL A   1      39.033  30.398  31.967  1.00  0.00    -0.354 N 
ATOM     46  C   UNL A   1      40.584  27.744  28.902  1.00  0.00     0.074 A 
ATOM     47  C   UNL A   1      39.703  27.703  27.758  1.00  0.00     0.031 C 
ATOM     48  C   UNL A   1      37.535  31.772  32.901  1.00  0.00     0.029 A 
ATOM     49  C   UNL A   1      38.796  31.076  33.138  1.00  0.00     0.049 A 
ATOM     50  H   UNL A   1      39.834  29.845  31.817  1.00  0.00     0.167 HD
ATOM     51  C   UNL A   1      41.744  27.053  28.996  1.00  0.00     0.037 A 
ATOM     52  C   UNL A   1      39.511  31.117  34.278  1.00  0.00     0.037 A 
ATOM     53  C   UNL A   1      42.629  27.127  30.127  1.00  0.00     0.049 A 
ATOM     54  C   UNL A   1      40.797  30.339  34.357  1.00  0.00     0.074 A 
ATOM     55  C   UNL A   1      43.862  26.525  30.298  1.00  0.00     0.029 A 
ATOM     56  N   UNL A   1      42.370  27.848  31.285  1.00  0.00    -0.354 N 
ATOM     57  N   UNL A   1      41.356  29.569  33.453  1.00  0.00    -0.248 NA
ATOM     58  C   UNL A   1      41.556  30.440  35.609  1.00  0.00     0.031 C 
ATOM     59  C   UNL A   1      44.322  26.832  31.581  1.00  0.00     0.029 A 
ATOM     60  C   UNL A   1      43.409  27.683  32.185  1.00  0.00     0.049 A 
ATOM     61  H   UNL A   1      41.567  28.396  31.442  1.00  0.00     0.167 HD
ATOM     62  C   UNL A   1      42.545  29.125  34.013  1.00  0.00     0.074 A 
ATOM     63  C   UNL A   1      42.633  29.721  35.330  1.00  0.00     0.031 C 
ATOM     64  C   UNL A   1      43.482  28.298  33.486  1.00  0.00     0.037 A 
BRANCH  51  65
ATOM     65  C   UNL A   1      42.123  26.162  27.848  1.00  0.00     0.064 A 
ATOM     66  C   UNL A   1      43.026  26.576  26.858  1.00  0.00     0.173 A 
ATOM     67  C   UNL A   1      41.603  24.862  27.758  1.00  0.00     0.173 A 
ATOM     68  F   UNL A   1      43.543  27.813  26.887  1.00  0.00    -0.203 F 
ATOM     69  C   UNL A   1      43.373  25.731  25.805  1.00  0.00     0.198 A 
ATOM     70  C   UNL A   1      41.980  24.008  26.725  1.00  0.00     0.198 A 
ATOM     71  F   UNL A   1      40.737  24.413  28.680  1.00  0.00    -0.203 F 
ATOM     72  F   UNL A   1      44.196  26.168  24.842  1.00  0.00    -0.200 F 
ATOM     73  C   UNL A   1      42.857  24.446  25.745  1.00  0.00     0.200 A 
ATOM     74  F   UNL A   1      41.492  22.761  26.677  1.00  0.00    -0.200 F 
ATOM     75  F   UNL A   1      43.201  23.631  24.739  1.00  0.00    -0.200 F 
ENDBRANCH  51  65
BRANCH  52  76
ATOM     76  C   UNL A   1      39.036  31.933  35.427  1.00  0.00     0.064 A 
ATOM     77  C   UNL A   1      39.360  33.294  35.527  1.00  0.00     0.173 A 
ATOM     78  C   UNL A   1      38.259  31.372  36.450  1.00  0.00     0.173 A 
ATOM     79  F   UNL A   1      40.114  33.874  34.581  1.00  0.00    -0.203 F 
ATOM     80  C   UNL A   1      38.949  34.054  36.620  1.00  0.00     0.198 A 
ATOM     81  C   UNL A   1      37.821  32.141  37.527  1.00  0.00     0.198 A 
ATOM     82  F   UNL A   1      37.913  30.078  36.400  1.00  0.00    -0.203 F 
ATOM     83  F   UNL A   1      39.318  35.339  36.717  1.00  0.00    -0.200 F 
ATOM     84  C   UNL A   1      38.176  33.478  37.616  1.00  0.00     0.200 A 
ATOM     85  F   UNL A   1      37.057  31.585  38.477  1.00  0.00    -0.200 F 
ATOM     86  F   UNL A   1      37.778  34.211  38.666  1.00  0.00    -0.200 F 
ENDBRANCH  52  76
BRANCH  64  87
ATOM     87  C   UNL A   1      44.707  28.028  34.311  1.00  0.00     0.064 A 
ATOM     88  C   UNL A   1      45.821  28.879  34.282  1.00  0.00     0.173 A 
ATOM     89  C   UNL A   1      44.743  26.927  35.182  1.00  0.00     0.173 A 
ATOM     90  F   UNL A   1      45.843  29.936  33.457  1.00  0.00    -0.203 F 
ATOM     91  C   UNL A   1      46.937  28.623  35.074  1.00  0.00     0.198 A 
ATOM     92  C   UNL A   1      45.844  26.695  35.998  1.00  0.00     0.198 A 
ATOM     93  F   UNL A   1      43.699  26.087  35.255  1.00  0.00    -0.203 F 
ATOM     94  F   UNL A   1      48.011  29.420  34.992  1.00  0.00    -0.200 F 
ATOM     95  C   UNL A   1      46.944  27.537  35.939  1.00  0.00     0.200 A 
ATOM     96  F   UNL A   1      45.842  25.656  36.846  1.00  0.00    -0.200 F 
ATOM     97  F   UNL A   1      48.014  27.299  36.708  1.00  0.00    -0.200 F 
ENDBRANCH  64  87
ENDBRANCH  38  39
ENDBRANCH  30  33
ENDBRANCH  28  29
ENDBRANCH  27  28
ENDBRANCH   1  27
TORSDOF 14
ENDMDL
MODEL 2
REMARK VINA RESULT:     -13.3      2.113      4.137
REMARK SMILES CC1=C(C)C[C@@H](C(=O)NCC(=O)c2ccccc2)[C@H](C(=O)NCCCNC(=O)c2ccc(-c3c4nc(c(-c5c(F)c(F)c(F)c(F)c5F)c5ccc([nH]5)c(-c5c(F)c(F)c(F)c(F)c5F)c5nc(c(-c6c(F)c(F)c(F)c(F)c6F)c6ccc3[nH]6)C=C5)C=C4)cc2)C1
REMARK SMILES IDX 23 1 22 2 20 3 21 4 19 6 1 7 2 8 3 9 92 10 4 11 5 12 6 13
REMARK SMILES IDX 7 14 8 15 9 16 10 18 11 19 12 20 13 21 14 22 18 23 15 24
REMARK SMILES IDX 17 25 16 26 24 27 25 28 26 29 27 30 28 32 29 33 30 34 91 35
REMARK SMILES IDX 31 36 90 37 32 38 33 39 34 40 84 41 35 42 89 43 83 44 85 45
REMARK SMILES IDX 36 46 88 47 82 48 81 49 37 51 69 52 49 53 68 54 50 55 53 56
REMARK SMILES IDX 67 57 86 58 51 59 52 60 66 62 87 63 54 64 38 65 39 66 47 67
REMARK SMILES IDX 40 68 41 69 45 70 48 71 42 72 43 73 46 74 44 75 70 76 71 77
REMARK SMILES IDX 79 78 72 79 73 80 77 81 80 82 74 83 75 84 78 85 76 86 55 87
REMARK SMILES IDX 56 88 64 89 57 90 58 91 62 92 65 93 59 94 60 95 63 96 61 97
REMARK H PARENT 22 5 9 17 26 31 85 50 53 61
REMARK Flexibility Score: inf
ROOT
ATOM      1  C   UNL A   1      31.683  30.768  26.051  1.00  0.00     0.117 C 
ENDROOT
BRANCH   1   2
ATOM      2  N   UNL A   1      30.905  30.552  24.854  1.00  0.00    -0.356 N 
ATOM      3  C   UNL A   1      30.830  29.465  24.046  1.00  0.00     0.224 C 
ATOM      4  O   UNL A   1      30.059  29.535  23.085  1.00  0.00    -0.275 OA
ATOM      5  H   UNL A   1      30.340  31.312  24.583  1.00  0.00     0.163 HD
BRANCH   3   6
ATOM      6  C   UNL A   1      31.678  28.211  24.270  1.00  0.00     0.095 C 
ATOM      7  C   UNL A   1      32.106  25.749  21.246  1.00  0.00     0.039 C 
ATOM      8  C   UNL A   1      31.670  26.182  22.623  1.00  0.00    -0.074 C 
ATOM      9  C   UNL A   1      30.886  25.460  23.453  1.00  0.00    -0.074 C 
ATOM     10  C   UNL A   1      32.164  27.574  22.966  1.00  0.00     0.045 C 
ATOM     11  C   UNL A   1      30.278  24.118  23.126  1.00  0.00     0.039 C 
ATOM     12  C   UNL A   1      30.472  25.953  24.821  1.00  0.00     0.045 C 
ATOM     13  C   UNL A   1      31.042  27.286  25.308  1.00  0.00     0.095 C 
BRANCH  13  14
ATOM     14  C   UNL A   1      31.928  27.104  26.540  1.00  0.00     0.224 C 
ATOM     15  O   UNL A   1      31.493  27.400  27.657  1.00  0.00    -0.275 OA
ATOM     16  N   UNL A   1      33.195  26.626  26.501  1.00  0.00    -0.348 N 
ATOM     17  H   UNL A   1      33.626  26.592  27.385  1.00  0.00     0.163 HD
BRANCH  16  18
ATOM     18  C   UNL A   1      34.048  26.154  25.428  1.00  0.00     0.197 C 
BRANCH  18  19
ATOM     19  C   UNL A   1      34.539  24.700  25.375  1.00  0.00     0.181 C 
ATOM     20  O   UNL A   1      35.683  24.437  25.758  1.00  0.00    -0.292 OA
BRANCH  19  21
ATOM     21  C   UNL A   1      33.631  23.554  25.077  1.00  0.00     0.019 A 
ATOM     22  C   UNL A   1      33.768  22.943  23.818  1.00  0.00     0.012 A 
ATOM     23  C   UNL A   1      32.699  23.040  25.981  1.00  0.00     0.012 A 
ATOM     24  C   UNL A   1      33.034  21.799  23.498  1.00  0.00     0.001 A 
ATOM     25  C   UNL A   1      31.980  21.883  25.665  1.00  0.00     0.001 A 
ATOM     26  C   UNL A   1      32.153  21.260  24.430  1.00  0.00     0.000 A 
ENDBRANCH  19  21
ENDBRANCH  18  19
ENDBRANCH  16  18
ENDBRANCH  13  14
ENDBRANCH   3   6
ENDBRANCH   1   2
BRANCH   1  27
ATOM     27  C   UNL A   1      31.400  32.111  26.689  1.00  0.00     0.042 C 
BRANCH  27  28
ATOM     28  C   UNL A   1      32.656  32.744  27.252  1.00  0.00     0.118 C 
BRANCH  28  29
ATOM     29  N   UNL A   1      32.461  34.158  27.565  1.00  0.00    -0.352 N 
ATOM     30  C   UNL A   1      33.001  34.918  28.568  1.00  0.00     0.251 C 
ATOM     31  H   UNL A   1      31.846  34.637  26.964  1.00  0.00     0.163 HD
ATOM     32  O   UNL A   1      32.530  36.023  28.829  1.00  0.00    -0.269 OA
BRANCH  30  33
ATOM     33  C   UNL A   1      34.143  34.396  29.338  1.00  0.00     0.039 A 
ATOM     34  C   UNL A   1      33.909  33.682  30.514  1.00  0.00     0.014 A 
ATOM     35  C   UNL A   1      35.448  34.606  28.884  1.00  0.00     0.014 A 
ATOM     36  C   UNL A   1      34.987  33.121  31.197  1.00  0.00     0.010 A 
ATOM     37  C   UNL A   1      36.501  33.946  29.494  1.00  0.00     0.010 A 
ATOM     38  C   UNL A   1      36.285  33.215  30.669  1.00  0.00    -0.014 A 
BRANCH  38  39
ATOM     39  C   UNL A   1      37.445  32.587  31.340  1.00  0.00     0.031 A 
ATOM     40  C   UNL A   1      38.159  31.443  30.672  1.00  0.00     0.074 A 
ATOM     41  C   UNL A   1      37.799  32.989  32.575  1.00  0.00     0.049 A 
ATOM     42  N   UNL A   1      39.127  30.692  31.128  1.00  0.00    -0.248 NA
ATOM     43  C   UNL A   1      37.696  31.069  29.325  1.00  0.00     0.031 C 
ATOM     44  C   UNL A   1      37.141  34.050  33.341  1.00  0.00     0.029 A 
ATOM     45  N   UNL A   1      38.791  32.544  33.409  1.00  0.00    -0.354 N 
ATOM     46  C   UNL A   1      39.369  29.750  30.137  1.00  0.00     0.074 A 
ATOM     47  C   UNL A   1      38.407  29.979  29.085  1.00  0.00     0.031 C 
ATOM     48  C   UNL A   1      37.764  34.190  34.522  1.00  0.00     0.029 A 
ATOM     49  C   UNL A   1      38.832  33.200  34.615  1.00  0.00     0.049 A 
ATOM     50  H   UNL A   1      39.417  31.823  33.167  1.00  0.00     0.167 HD
ATOM     51  C   UNL A   1      40.329  28.796  30.099  1.00  0.00     0.037 A 
ATOM     52  C   UNL A   1      39.634  33.011  35.681  1.00  0.00     0.037 A 
ATOM     53  C   UNL A   1      41.302  28.599  31.139  1.00  0.00     0.049 A 
ATOM     54  C   UNL A   1      40.693  31.944  35.611  1.00  0.00     0.074 A 
ATOM     55  C   UNL A   1      42.361  27.710  31.172  1.00  0.00     0.029 A 
ATOM     56  N   UNL A   1      41.331  29.303  32.335  1.00  0.00    -0.354 N 
ATOM     57  N   UNL A   1      40.965  31.108  34.637  1.00  0.00    -0.248 NA
ATOM     58  C   UNL A   1      41.562  31.798  36.786  1.00  0.00     0.031 C 
ATOM     59  C   UNL A   1      42.995  27.834  32.411  1.00  0.00     0.029 A 
ATOM     60  C   UNL A   1      42.374  28.849  33.124  1.00  0.00     0.049 A 
ATOM     61  H   UNL A   1      40.703  30.019  32.585  1.00  0.00     0.167 HD
ATOM     62  C   UNL A   1      42.055  30.364  35.066  1.00  0.00     0.074 A 
ATOM     63  C   UNL A   1      42.402  30.855  36.383  1.00  0.00     0.031 C 
ATOM     64  C   UNL A   1      42.710  29.363  34.428  1.00  0.00     0.037 A 
BRANCH  51  65
ATOM     65  C   UNL A   1      40.375  27.899  28.896  1.00  0.00     0.064 A 
ATOM     66  C   UNL A   1      39.643  26.703  28.836  1.00  0.00     0.173 A 
ATOM     67  C   UNL A   1      41.133  28.259  27.771  1.00  0.00     0.173 A 
ATOM     68  F   UNL A   1      38.913  26.303  29.888  1.00  0.00    -0.203 F 
ATOM     69  C   UNL A   1      39.691  25.888  27.707  1.00  0.00     0.198 A 
ATOM     70  C   UNL A   1      41.150  27.460  26.631  1.00  0.00     0.198 A 
ATOM     71  F   UNL A   1      41.850  29.393  27.772  1.00  0.00    -0.203 F 
ATOM     72  F   UNL A   1      39.026  24.725  27.695  1.00  0.00    -0.200 F 
ATOM     73  C   UNL A   1      40.436  26.271  26.603  1.00  0.00     0.200 A 
ATOM     74  F   UNL A   1      41.859  27.839  25.559  1.00  0.00    -0.200 F 
ATOM     75  F   UNL A   1      40.471  25.492  25.514  1.00  0.00    -0.200 F 
ENDBRANCH  51  65
BRANCH  52  76
ATOM     76  C   UNL A   1      39.477  33.860  36.891  1.00  0.00     0.064 A 
ATOM     77  C   UNL A   1      40.114  35.105  36.986  1.00  0.00     0.173 A 
ATOM     78  C   UNL A   1      38.698  33.443  37.980  1.00  0.00     0.173 A 
ATOM     79  F   UNL A   1      40.883  35.543  35.978  1.00  0.00    -0.203 F 
ATOM     80  C   UNL A   1      40.000  35.888  38.134  1.00  0.00     0.198 A 
ATOM     81  C   UNL A   1      38.558  34.240  39.114  1.00  0.00     0.198 A 
ATOM     82  F   UNL A   1      38.059  32.265  37.938  1.00  0.00    -0.203 F 
ATOM     83  F   UNL A   1      40.663  37.049  38.219  1.00  0.00    -0.200 F 
ATOM     84  C   UNL A   1      39.218  35.457  39.194  1.00  0.00     0.200 A 
ATOM     85  F   UNL A   1      37.785  33.829  40.128  1.00  0.00    -0.200 F 
ATOM     86  F   UNL A   1      39.107  36.211  40.297  1.00  0.00    -0.200 F 
ENDBRANCH  52  76
BRANCH  64  87
ATOM     87  C   UNL A   1      43.901  28.766  35.121  1.00  0.00     0.064 A 
ATOM     88  C   UNL A   1      45.188  29.301  34.975  1.00  0.00     0.173 A 
ATOM     89  C   UNL A   1      43.738  27.671  35.985  1.00  0.00     0.173 A 
ATOM     90  F   UNL A   1      45.399  30.339  34.150  1.00  0.00    -0.203 F 
ATOM     91  C   UNL A   1      46.274  28.747  35.647  1.00  0.00     0.198 A 
ATOM     92  C   UNL A   1      44.819  27.142  36.682  1.00  0.00     0.198 A 
ATOM     93  F   UNL A   1      42.526  27.126  36.166  1.00  0.00    -0.203 F 
ATOM     94  F   UNL A   1      47.504  29.243  35.452  1.00  0.00    -0.200 F 
ATOM     95  C   UNL A   1      46.087  27.674  36.507  1.00  0.00     0.200 A 
ATOM     96  F   UNL A   1      44.634  26.118  37.527  1.00  0.00    -0.200 F 
ATOM     97  F   UNL A   1      47.131  27.149  37.161  1.00  0.00    -0.200 F 
ENDBRANCH  64  87
ENDBRANCH  38  39
ENDBRANCH  30  33
ENDBRANCH  28  29
ENDBRANCH  27  28
ENDBRANCH   1  27
TORSDOF 14
ENDMDL
MODEL 3
REMARK VINA RESULT:     -13.2      0.614      2.083
REMARK SMILES CC1=C(C)C[C@@H](C(=O)NCC(=O)c2ccccc2)[C@H](C(=O)NCCCNC(=O)c2ccc(-c3c4nc(c(-c5c(F)c(F)c(F)c(F)c5F)c5ccc([nH]5)c(-c5c(F)c(F)c(F)c(F)c5F)c5nc(c(-c6c(F)c(F)c(F)c(F)c6F)c6ccc3[nH]6)C=C5)C=C4)cc2)C1
REMARK SMILES IDX 23 1 22 2 20 3 21 4 19 6 1 7 2 8 3 9 92 10 4 11 5 12 6 13
REMARK SMILES IDX 7 14 8 15 9 16 10 18 11 19 12 20 13 21 14 22 18 23 15 24
REMARK SMILES IDX 17 25 16 26 24 27 25 28 26 29 27 30 28 32 29 33 30 34 91 35
REMARK SMILES IDX 31 36 90 37 32 38 33 39 34 40 84 41 35 42 89 43 83 44 85 45
REMARK SMILES IDX 36 46 88 47 82 48 81 49 37 51 69 52 49 53 68 54 50 55 53 56
REMARK SMILES IDX 67 57 86 58 51 59 52 60 66 62 87 63 54 64 38 65 39 66 47 67
REMARK SMILES IDX 40 68 41 69 45 70 48 71 42 72 43 73 46 74 44 75 70 76 71 77
REMARK SMILES IDX 79 78 72 79 73 80 77 81 80 82 74 83 75 84 78 85 76 86 55 87
REMARK SMILES IDX 56 88 64 89 57 90 58 91 62 92 65 93 59 94 60 95 63 96 61 97
REMARK H PARENT 22 5 9 17 26 31 85 50 53 61
REMARK Flexibility Score: inf
ROOT
ATOM      1  C   UNL A   1      32.656  28.850  22.984  1.00  0.00     0.117 C 
ENDROOT
BRANCH   1   2
ATOM      2  N   UNL A   1      32.989  27.876  21.972  1.00  0.00    -0.356 N 
ATOM      3  C   UNL A   1      32.998  26.521  22.033  1.00  0.00     0.224 C 
ATOM      4  O   UNL A   1      33.307  25.916  21.003  1.00  0.00    -0.275 OA
ATOM      5  H   UNL A   1      33.250  28.255  21.101  1.00  0.00     0.163 HD
BRANCH   3   6
ATOM      6  C   UNL A   1      32.682  25.752  23.318  1.00  0.00     0.095 C 
ATOM      7  C   UNL A   1      34.952  22.675  24.195  1.00  0.00     0.039 C 
ATOM      8  C   UNL A   1      33.674  23.391  23.838  1.00  0.00    -0.074 C 
ATOM      9  C   UNL A   1      32.508  22.786  23.521  1.00  0.00    -0.074 C 
ATOM     10  C   UNL A   1      33.852  24.896  23.809  1.00  0.00     0.045 C 
ATOM     11  C   UNL A   1      32.298  21.295  23.428  1.00  0.00     0.039 C 
ATOM     12  C   UNL A   1      31.259  23.560  23.160  1.00  0.00     0.045 C 
ATOM     13  C   UNL A   1      31.307  25.086  23.245  1.00  0.00     0.095 C 
BRANCH  13  14
ATOM     14  C   UNL A   1      30.348  25.622  24.307  1.00  0.00     0.224 C 
ATOM     15  O   UNL A   1      30.268  25.057  25.402  1.00  0.00    -0.275 OA
ATOM     16  N   UNL A   1      29.555  26.707  24.137  1.00  0.00    -0.348 N 
ATOM     17  H   UNL A   1      28.987  26.901  24.917  1.00  0.00     0.163 HD
BRANCH  16  18
ATOM     18  C   UNL A   1      29.368  27.641  23.044  1.00  0.00     0.197 C 
BRANCH  18  19
ATOM     19  C   UNL A   1      28.178  28.612  23.015  1.00  0.00     0.181 C 
ATOM     20  O   UNL A   1      27.089  28.242  23.464  1.00  0.00    -0.292 OA
BRANCH  19  21
ATOM     21  C   UNL A   1      28.324  30.054  22.659  1.00  0.00     0.019 A 
ATOM     22  C   UNL A   1      28.099  30.405  21.316  1.00  0.00     0.012 A 
ATOM     23  C   UNL A   1      28.624  31.060  23.579  1.00  0.00     0.012 A 
ATOM     24  C   UNL A   1      28.109  31.742  20.917  1.00  0.00     0.001 A 
ATOM     25  C   UNL A   1      28.614  32.400  23.182  1.00  0.00     0.001 A 
ATOM     26  C   UNL A   1      28.349  32.741  21.856  1.00  0.00     0.000 A 
ENDBRANCH  19  21
ENDBRANCH  18  19
ENDBRANCH  16  18
ENDBRANCH  13  14
ENDBRANCH   3   6
ENDBRANCH   1   2
BRANCH   1  27
ATOM     27  C   UNL A   1      33.786  29.072  23.966  1.00  0.00     0.042 C 
BRANCH  27  28
ATOM     28  C   UNL A   1      33.305  29.014  25.401  1.00  0.00     0.118 C 
BRANCH  28  29
ATOM     29  N   UNL A   1      32.794  30.304  25.858  1.00  0.00    -0.352 N 
ATOM     30  C   UNL A   1      33.205  31.093  26.899  1.00  0.00     0.251 C 
ATOM     31  H   UNL A   1      32.038  30.661  25.338  1.00  0.00     0.163 HD
ATOM     32  O   UNL A   1      32.500  32.021  27.288  1.00  0.00    -0.269 OA
BRANCH  30  33
ATOM     33  C   UNL A   1      34.494  30.813  27.555  1.00  0.00     0.039 A 
ATOM     34  C   UNL A   1      35.442  31.832  27.668  1.00  0.00     0.014 A 
ATOM     35  C   UNL A   1      34.757  29.541  28.068  1.00  0.00     0.014 A 
ATOM     36  C   UNL A   1      36.627  31.586  28.359  1.00  0.00     0.010 A 
ATOM     37  C   UNL A   1      35.876  29.336  28.857  1.00  0.00     0.010 A 
ATOM     38  C   UNL A   1      36.834  30.350  28.993  1.00  0.00    -0.014 A 
BRANCH  38  39
ATOM     39  C   UNL A   1      38.057  30.073  29.780  1.00  0.00     0.031 A 
ATOM     40  C   UNL A   1      39.097  29.137  29.229  1.00  0.00     0.074 A 
ATOM     41  C   UNL A   1      38.188  30.596  31.013  1.00  0.00     0.049 A 
ATOM     42  N   UNL A   1      40.185  28.684  29.795  1.00  0.00    -0.248 NA
ATOM     43  C   UNL A   1      38.863  28.608  27.874  1.00  0.00     0.031 C 
ATOM     44  C   UNL A   1      37.214  31.471  31.670  1.00  0.00     0.029 A 
ATOM     45  N   UNL A   1      39.187  30.458  31.941  1.00  0.00    -0.354 N 
ATOM     46  C   UNL A   1      40.747  27.806  28.878  1.00  0.00     0.074 A 
ATOM     47  C   UNL A   1      39.851  27.737  27.747  1.00  0.00     0.031 C 
ATOM     48  C   UNL A   1      37.676  31.811  32.883  1.00  0.00     0.029 A 
ATOM     49  C   UNL A   1      38.953  31.141  33.108  1.00  0.00     0.049 A 
ATOM     50  H   UNL A   1      39.997  29.919  31.784  1.00  0.00     0.167 HD
ATOM     51  C   UNL A   1      41.922  27.138  28.961  1.00  0.00     0.037 A 
ATOM     52  C   UNL A   1      39.683  31.207  34.238  1.00  0.00     0.037 A 
ATOM     53  C   UNL A   1      42.821  27.241  30.079  1.00  0.00     0.049 A 
ATOM     54  C   UNL A   1      40.986  30.455  34.305  1.00  0.00     0.074 A 
ATOM     55  C   UNL A   1      44.068  26.664  30.238  1.00  0.00     0.029 A 
ATOM     56  N   UNL A   1      42.564  27.967  31.234  1.00  0.00    -0.354 N 
ATOM     57  N   UNL A   1      41.547  29.688  33.400  1.00  0.00    -0.248 NA
ATOM     58  C   UNL A   1      41.760  30.583  35.546  1.00  0.00     0.031 C 
ATOM     59  C   UNL A   1      44.540  26.992  31.512  1.00  0.00     0.029 A 
ATOM     60  C   UNL A   1      43.619  27.831  32.120  1.00  0.00     0.049 A 
ATOM     61  H   UNL A   1      41.753  28.500  31.397  1.00  0.00     0.167 HD
ATOM     62  C   UNL A   1      42.753  29.273  33.948  1.00  0.00     0.074 A 
ATOM     63  C   UNL A   1      42.847  29.883  35.258  1.00  0.00     0.031 C 
ATOM     64  C   UNL A   1      43.698  28.459  33.415  1.00  0.00     0.037 A 
BRANCH  51  65
ATOM     65  C   UNL A   1      42.302  26.245  27.817  1.00  0.00     0.064 A 
ATOM     66  C   UNL A   1      41.770  24.954  27.677  1.00  0.00     0.173 A 
ATOM     67  C   UNL A   1      43.182  26.701  26.823  1.00  0.00     0.173 A 
ATOM     68  F   UNL A   1      40.935  24.462  28.605  1.00  0.00    -0.203 F 
ATOM     69  C   UNL A   1      42.127  24.142  26.602  1.00  0.00     0.198 A 
ATOM     70  C   UNL A   1      43.509  25.901  25.731  1.00  0.00     0.198 A 
ATOM     71  F   UNL A   1      43.718  27.928  26.905  1.00  0.00    -0.203 F 
ATOM     72  F   UNL A   1      41.648  22.894  26.520  1.00  0.00    -0.200 F 
ATOM     73  C   UNL A   1      42.988  24.620  25.626  1.00  0.00     0.200 A 
ATOM     74  F   UNL A   1      44.329  26.369  24.781  1.00  0.00    -0.200 F 
ATOM     75  F   UNL A   1      43.321  23.843  24.586  1.00  0.00    -0.200 F 
ENDBRANCH  51  65
BRANCH  52  76
ATOM     76  C   UNL A   1      39.209  32.025  35.386  1.00  0.00     0.064 A 
ATOM     77  C   UNL A   1      38.454  31.450  36.417  1.00  0.00     0.173 A 
ATOM     78  C   UNL A   1      39.490  33.396  35.471  1.00  0.00     0.173 A 
ATOM     79  F   UNL A   1      38.145  30.145  36.374  1.00  0.00    -0.203 F 
ATOM     80  C   UNL A   1      37.975  32.220  37.476  1.00  0.00     0.198 A 
ATOM     81  C   UNL A   1      39.039  34.159  36.547  1.00  0.00     0.198 A 
ATOM     82  F   UNL A   1      40.217  33.994  34.516  1.00  0.00    -0.203 F 
ATOM     83  F   UNL A   1      37.210  31.655  38.420  1.00  0.00    -0.200 F 
ATOM     84  C   UNL A   1      38.272  33.573  37.542  1.00  0.00     0.200 A 
ATOM     85  F   UNL A   1      39.346  35.461  36.616  1.00  0.00    -0.200 F 
ATOM     86  F   UNL A   1      37.814  34.312  38.561  1.00  0.00    -0.200 F 
ENDBRANCH  52  76
BRANCH  64  87
ATOM     87  C   UNL A   1      44.940  28.221  34.225  1.00  0.00     0.064 A 
ATOM     88  C   UNL A   1      45.054  27.136  35.105  1.00  0.00     0.173 A 
ATOM     89  C   UNL A   1      46.051  29.066  34.075  1.00  0.00     0.173 A 
ATOM     90  F   UNL A   1      44.016  26.307  35.294  1.00  0.00    -0.203 F 
ATOM     91  C   UNL A   1      46.224  26.921  35.827  1.00  0.00     0.198 A 
ATOM     92  C   UNL A   1      47.232  28.828  34.771  1.00  0.00     0.198 A 
ATOM     93  F   UNL A   1      45.998  30.114  33.239  1.00  0.00    -0.203 F 
ATOM     94  F   UNL A   1      46.292  25.908  36.702  1.00  0.00    -0.200 F 
ATOM     95  C   UNL A   1      47.315  27.761  35.653  1.00  0.00     0.200 A 
ATOM     96  F   UNL A   1      48.290  29.629  34.587  1.00  0.00    -0.200 F 
ATOM     97  F   UNL A   1      48.444  27.545  36.339  1.00  0.00    -0.200 F 
ENDBRANCH  64  87
ENDBRANCH  38  39
ENDBRANCH  30  33
ENDBRANCH  28  29
ENDBRANCH  27  28
ENDBRANCH   1  27
TORSDOF 14
ENDMDL
