MODEL 1
REMARK VINA RESULT:     -14.1      0.000      0.000
REMARK SMILES COc1ccccc1[C@@H]1CN(C(=O)c2cnn3ccccc23)C[C@H]1C(=O)NCCCNC(=O)c1ccc(-c2c3nc(c(-c4c(F)c(F)c(F)c(F)c4F)c4ccc([nH]4)c(-c4c(F)c(F)c(F)c(F)c4F)c4nc(c(-c5c(F)c(F)c(F)c(F)c5F)c5ccc2[nH]5)C=C4)C=C3)cc1
REMARK SMILES IDX 29 1 28 2 27 3 25 4 26 5 24 7 9 8 10 9 11 10 23 11 8 12 3 13
REMARK SMILES IDX 4 14 5 15 7 16 6 17 2 18 1 19 12 20 13 21 14 22 15 23 22 24
REMARK SMILES IDX 16 25 17 26 21 27 18 28 20 29 19 30 30 31 31 32 32 33 33 35
REMARK SMILES IDX 34 36 35 37 96 38 36 39 95 40 37 41 38 42 39 43 89 44 40 45
REMARK SMILES IDX 94 46 88 47 90 48 41 49 93 50 87 51 86 52 42 54 74 55 54 56
REMARK SMILES IDX 73 57 55 58 58 59 72 60 91 61 56 62 57 63 71 65 92 66 59 67
REMARK SMILES IDX 43 68 44 69 52 70 45 71 46 72 50 73 53 74 47 75 48 76 51 77
REMARK SMILES IDX 49 78 75 79 76 80 84 81 77 82 78 83 82 84 85 85 79 86 80 87
REMARK SMILES IDX 83 88 81 89 60 90 61 91 69 92 62 93 63 94 67 95 70 96 64 97
REMARK SMILES IDX 65 98 68 99 66 100
REMARK H PARENT 27 6 31 34 90 53 58 64
REMARK Flexibility Score: inf
ROOT
ATOM      1  C   UNL A   1      38.587  21.481  25.629  1.00  0.00     0.042 C 
ENDROOT
BRANCH   1   2
ATOM      2  C   UNL A   1      37.677  22.701  25.512  1.00  0.00     0.117 C 
BRANCH   2   3
ATOM      3  N   UNL A   1      37.124  22.887  24.179  1.00  0.00    -0.356 N 
ATOM      4  C   UNL A   1      35.901  23.306  23.762  1.00  0.00     0.225 C 
ATOM      5  O   UNL A   1      35.736  23.417  22.543  1.00  0.00    -0.275 OA
ATOM      6  H   UNL A   1      37.748  22.670  23.450  1.00  0.00     0.163 HD
BRANCH   4   7
ATOM      7  C   UNL A   1      34.755  23.611  24.712  1.00  0.00     0.107 C 
ATOM      8  C   UNL A   1      33.566  24.326  24.040  1.00  0.00     0.057 C 
ATOM      9  C   UNL A   1      32.321  23.726  24.688  1.00  0.00     0.129 C 
ATOM     10  N   UNL A   1      32.745  22.376  25.019  1.00  0.00    -0.337 N 
ATOM     11  C   UNL A   1      34.161  22.368  25.376  1.00  0.00     0.134 C 
BRANCH   8  12
ATOM     12  C   UNL A   1      33.624  25.836  23.986  1.00  0.00    -0.000 A 
ATOM     13  C   UNL A   1      33.604  26.619  22.820  1.00  0.00     0.122 A 
ATOM     14  C   UNL A   1      33.677  28.017  22.909  1.00  0.00     0.047 A 
ATOM     15  C   UNL A   1      33.810  28.653  24.144  1.00  0.00     0.004 A 
ATOM     16  C   UNL A   1      33.766  26.504  25.223  1.00  0.00     0.008 A 
ATOM     17  C   UNL A   1      33.878  27.891  25.303  1.00  0.00     0.001 A 
BRANCH  13  18
ATOM     18  O   UNL A   1      33.774  26.116  21.557  1.00  0.00    -0.496 OA
ATOM     19  C   UNL A   1      32.582  25.807  20.848  1.00  0.00     0.278 C 
ENDBRANCH  13  18
ENDBRANCH   8  12
BRANCH  10  20
ATOM     20  C   UNL A   1      31.980  21.232  25.127  1.00  0.00     0.257 C 
ATOM     21  O   UNL A   1      31.011  21.190  25.890  1.00  0.00    -0.269 OA
BRANCH  20  22
ATOM     22  C   UNL A   1      32.307  20.087  24.304  1.00  0.00     0.085 A 
ATOM     23  C   UNL A   1      32.245  20.054  22.896  1.00  0.00     0.150 A 
ATOM     24  C   UNL A   1      32.632  18.785  24.650  1.00  0.00     0.079 A 
ATOM     25  N   UNL A   1      32.591  18.877  22.377  1.00  0.00    -0.176 NA
ATOM     26  N   UNL A   1      32.831  18.087  23.450  1.00  0.00    -0.240 N 
ATOM     27  C   UNL A   1      32.786  18.050  25.865  1.00  0.00     0.029 A 
ATOM     28  C   UNL A   1      33.226  16.748  23.427  1.00  0.00     0.113 A 
ATOM     29  C   UNL A   1      33.170  16.761  25.830  1.00  0.00     0.004 A 
ATOM     30  C   UNL A   1      33.410  16.074  24.574  1.00  0.00     0.020 A 
ENDBRANCH  20  22
ENDBRANCH  10  20
ENDBRANCH   4   7
ENDBRANCH   2   3
ENDBRANCH   1   2
BRANCH   1  31
ATOM     31  C   UNL A   1      39.740  21.714  26.578  1.00  0.00     0.118 C 
BRANCH  31  32
ATOM     32  N   UNL A   1      41.044  21.690  25.899  1.00  0.00    -0.352 N 
ATOM     33  C   UNL A   1      41.971  22.707  25.788  1.00  0.00     0.251 C 
ATOM     34  H   UNL A   1      41.287  20.840  25.466  1.00  0.00     0.163 HD
ATOM     35  O   UNL A   1      42.849  22.681  24.920  1.00  0.00    -0.269 OA
BRANCH  33  36
ATOM     36  C   UNL A   1      41.900  23.818  26.742  1.00  0.00     0.039 A 
ATOM     37  C   UNL A   1      42.705  23.913  27.880  1.00  0.00     0.014 A 
ATOM     38  C   UNL A   1      41.038  24.848  26.395  1.00  0.00     0.014 A 
ATOM     39  C   UNL A   1      42.640  25.085  28.632  1.00  0.00     0.010 A 
ATOM     40  C   UNL A   1      41.260  26.084  26.906  1.00  0.00     0.010 A 
ATOM     41  C   UNL A   1      41.906  26.166  28.123  1.00  0.00    -0.014 A 
BRANCH  41  42
ATOM     42  C   UNL A   1      41.840  27.471  28.753  1.00  0.00     0.031 A 
ATOM     43  C   UNL A   1      42.936  28.361  28.323  1.00  0.00     0.074 A 
ATOM     44  C   UNL A   1      40.733  27.898  29.406  1.00  0.00     0.049 A 
ATOM     45  N   UNL A   1      43.991  28.671  28.996  1.00  0.00    -0.248 NA
ATOM     46  C   UNL A   1      42.988  28.770  26.909  1.00  0.00     0.031 C 
ATOM     47  C   UNL A   1      39.444  27.213  29.574  1.00  0.00     0.029 A 
ATOM     48  N   UNL A   1      40.497  29.105  29.988  1.00  0.00    -0.354 N 
ATOM     49  C   UNL A   1      44.702  29.541  28.179  1.00  0.00     0.074 A 
ATOM     50  C   UNL A   1      44.201  29.326  26.850  1.00  0.00     0.031 C 
ATOM     51  C   UNL A   1      38.512  28.086  30.017  1.00  0.00     0.029 A 
ATOM     52  C   UNL A   1      39.163  29.346  30.318  1.00  0.00     0.049 A 
ATOM     53  H   UNL A   1      41.212  29.759  30.162  1.00  0.00     0.167 HD
ATOM     54  C   UNL A   1      45.372  30.593  28.729  1.00  0.00     0.037 A 
ATOM     55  C   UNL A   1      38.650  30.517  30.779  1.00  0.00     0.037 A 
ATOM     56  C   UNL A   1      45.487  30.410  30.163  1.00  0.00     0.049 A 
ATOM     57  C   UNL A   1      39.795  31.315  31.294  1.00  0.00     0.074 A 
ATOM     58  C   UNL A   1      46.031  29.442  30.988  1.00  0.00     0.029 A 
ATOM     59  N   UNL A   1      44.618  31.123  30.954  1.00  0.00    -0.354 N 
ATOM     60  N   UNL A   1      40.489  30.981  32.347  1.00  0.00    -0.248 NA
ATOM     61  C   UNL A   1      40.471  32.193  30.352  1.00  0.00     0.031 C 
ATOM     62  C   UNL A   1      45.121  29.332  32.085  1.00  0.00     0.029 A 
ATOM     63  C   UNL A   1      44.124  30.294  31.924  1.00  0.00     0.049 A 
ATOM     64  H   UNL A   1      44.389  32.074  30.841  1.00  0.00     0.167 HD
ATOM     65  C   UNL A   1      41.808  31.215  31.986  1.00  0.00     0.074 A 
ATOM     66  C   UNL A   1      41.728  32.036  30.776  1.00  0.00     0.031 C 
ATOM     67  C   UNL A   1      42.817  30.463  32.518  1.00  0.00     0.037 A 
BRANCH  54  68
ATOM     68  C   UNL A   1      45.492  31.970  28.099  1.00  0.00     0.064 A 
ATOM     69  C   UNL A   1      44.300  32.628  27.730  1.00  0.00     0.173 A 
ATOM     70  C   UNL A   1      46.672  32.526  27.556  1.00  0.00     0.173 A 
ATOM     71  F   UNL A   1      43.115  32.213  28.202  1.00  0.00    -0.203 F 
ATOM     72  C   UNL A   1      44.280  33.653  26.781  1.00  0.00     0.198 A 
ATOM     73  C   UNL A   1      46.652  33.580  26.646  1.00  0.00     0.198 A 
ATOM     74  F   UNL A   1      47.889  32.030  27.792  1.00  0.00    -0.203 F 
ATOM     75  F   UNL A   1      43.107  34.136  26.351  1.00  0.00    -0.200 F 
ATOM     76  C   UNL A   1      45.456  34.116  26.225  1.00  0.00     0.200 A 
ATOM     77  F   UNL A   1      47.806  34.011  26.117  1.00  0.00    -0.200 F 
ATOM     78  F   UNL A   1      45.437  35.043  25.259  1.00  0.00    -0.200 F 
ENDBRANCH  54  68
BRANCH  55  79
ATOM     79  C   UNL A   1      37.320  31.130  30.531  1.00  0.00     0.064 A 
ATOM     80  C   UNL A   1      36.430  31.392  31.589  1.00  0.00     0.173 A 
ATOM     81  C   UNL A   1      37.022  31.748  29.302  1.00  0.00     0.173 A 
ATOM     82  F   UNL A   1      36.664  30.883  32.807  1.00  0.00    -0.203 F 
ATOM     83  C   UNL A   1      35.331  32.246  31.435  1.00  0.00     0.198 A 
ATOM     84  C   UNL A   1      35.923  32.597  29.148  1.00  0.00     0.198 A 
ATOM     85  F   UNL A   1      37.849  31.623  28.254  1.00  0.00    -0.203 F 
ATOM     86  F   UNL A   1      34.547  32.526  32.485  1.00  0.00    -0.200 F 
ATOM     87  C   UNL A   1      35.087  32.859  30.217  1.00  0.00     0.200 A 
ATOM     88  F   UNL A   1      35.721  33.216  27.976  1.00  0.00    -0.200 F 
ATOM     89  F   UNL A   1      34.078  33.731  30.087  1.00  0.00    -0.200 F 
ENDBRANCH  55  79
BRANCH  67  90
ATOM     90  C   UNL A   1      42.487  29.597  33.704  1.00  0.00     0.064 A 
ATOM     91  C   UNL A   1      42.001  28.279  33.622  1.00  0.00     0.173 A 
ATOM     92  C   UNL A   1      42.784  30.090  34.982  1.00  0.00     0.173 A 
ATOM     93  F   UNL A   1      41.788  27.695  32.437  1.00  0.00    -0.203 F 
ATOM     94  C   UNL A   1      41.771  27.517  34.768  1.00  0.00     0.198 A 
ATOM     95  C   UNL A   1      42.592  29.315  36.121  1.00  0.00     0.198 A 
ATOM     96  F   UNL A   1      43.304  31.320  35.121  1.00  0.00    -0.203 F 
ATOM     97  F   UNL A   1      41.285  26.272  34.661  1.00  0.00    -0.200 F 
ATOM     98  C   UNL A   1      42.071  28.036  36.016  1.00  0.00     0.200 A 
ATOM     99  F   UNL A   1      42.931  29.803  37.322  1.00  0.00    -0.200 F 
ATOM    100  F   UNL A   1      41.881  27.294  37.117  1.00  0.00    -0.200 F 
ENDBRANCH  67  90
ENDBRANCH  41  42
ENDBRANCH  33  36
ENDBRANCH  31  32
ENDBRANCH   1  31
TORSDOF 14
ENDMDL
MODEL 2
REMARK VINA RESULT:     -14.0      2.837      8.116
REMARK SMILES COc1ccccc1[C@@H]1CN(C(=O)c2cnn3ccccc23)C[C@H]1C(=O)NCCCNC(=O)c1ccc(-c2c3nc(c(-c4c(F)c(F)c(F)c(F)c4F)c4ccc([nH]4)c(-c4c(F)c(F)c(F)c(F)c4F)c4nc(c(-c5c(F)c(F)c(F)c(F)c5F)c5ccc2[nH]5)C=C4)C=C3)cc1
REMARK SMILES IDX 29 1 28 2 27 3 25 4 26 5 24 7 9 8 10 9 11 10 23 11 8 12 3 13
REMARK SMILES IDX 4 14 5 15 7 16 6 17 2 18 1 19 12 20 13 21 14 22 15 23 22 24
REMARK SMILES IDX 16 25 17 26 21 27 18 28 20 29 19 30 30 31 31 32 32 33 33 35
REMARK SMILES IDX 34 36 35 37 96 38 36 39 95 40 37 41 38 42 39 43 89 44 40 45
REMARK SMILES IDX 94 46 88 47 90 48 41 49 93 50 87 51 86 52 42 54 74 55 54 56
REMARK SMILES IDX 73 57 55 58 58 59 72 60 91 61 56 62 57 63 71 65 92 66 59 67
REMARK SMILES IDX 43 68 44 69 52 70 45 71 46 72 50 73 53 74 47 75 48 76 51 77
REMARK SMILES IDX 49 78 75 79 76 80 84 81 77 82 78 83 82 84 85 85 79 86 80 87
REMARK SMILES IDX 83 88 81 89 60 90 61 91 69 92 62 93 63 94 67 95 70 96 64 97
REMARK SMILES IDX 65 98 68 99 66 100
REMARK H PARENT 27 6 31 34 90 53 58 64
REMARK Flexibility Score: inf
ROOT
ATOM      1  C   UNL A   1      37.728  19.853  24.960  1.00  0.00     0.042 C 
ENDROOT
BRANCH   1   2
ATOM      2  C   UNL A   1      36.639  20.921  24.899  1.00  0.00     0.117 C 
BRANCH   2   3
ATOM      3  N   UNL A   1      35.856  21.023  26.121  1.00  0.00    -0.356 N 
ATOM      4  C   UNL A   1      34.596  21.477  26.349  1.00  0.00     0.225 C 
ATOM      5  O   UNL A   1      34.173  21.389  27.506  1.00  0.00    -0.275 OA
ATOM      6  H   UNL A   1      36.323  20.705  26.927  1.00  0.00     0.163 HD
BRANCH   4   7
ATOM      7  C   UNL A   1      33.724  22.093  25.268  1.00  0.00     0.107 C 
ATOM      8  C   UNL A   1      32.365  21.387  25.091  1.00  0.00     0.057 C 
ATOM      9  C   UNL A   1      31.366  22.508  24.816  1.00  0.00     0.129 C 
ATOM     10  N   UNL A   1      31.931  23.633  25.541  1.00  0.00    -0.337 N 
ATOM     11  C   UNL A   1      33.390  23.565  25.513  1.00  0.00     0.134 C 
BRANCH   8  12
ATOM     12  C   UNL A   1      32.328  20.215  24.136  1.00  0.00    -0.000 A 
ATOM     13  C   UNL A   1      32.455  18.861  24.490  1.00  0.00     0.122 A 
ATOM     14  C   UNL A   1      32.416  17.868  23.499  1.00  0.00     0.047 A 
ATOM     15  C   UNL A   1      32.291  18.203  22.151  1.00  0.00     0.004 A 
ATOM     16  C   UNL A   1      32.208  20.527  22.763  1.00  0.00     0.008 A 
ATOM     17  C   UNL A   1      32.210  19.538  21.780  1.00  0.00     0.001 A 
BRANCH  13  18
ATOM     18  O   UNL A   1      32.874  18.428  25.719  1.00  0.00    -0.496 OA
ATOM     19  C   UNL A   1      33.240  17.057  25.802  1.00  0.00     0.278 C 
ENDBRANCH  13  18
ENDBRANCH   8  12
BRANCH  10  20
ATOM     20  C   UNL A   1      31.282  24.716  26.098  1.00  0.00     0.257 C 
ATOM     21  O   UNL A   1      30.690  24.612  27.176  1.00  0.00    -0.269 OA
BRANCH  20  22
ATOM     22  C   UNL A   1      31.334  25.993  25.418  1.00  0.00     0.085 A 
ATOM     23  C   UNL A   1      31.236  26.176  24.024  1.00  0.00     0.150 A 
ATOM     24  C   UNL A   1      31.588  27.266  25.900  1.00  0.00     0.079 A 
ATOM     25  N   UNL A   1      31.319  27.451  23.648  1.00  0.00    -0.176 NA
ATOM     26  N   UNL A   1      31.537  28.133  24.798  1.00  0.00    -0.240 N 
ATOM     27  C   UNL A   1      31.880  27.847  27.172  1.00  0.00     0.029 A 
ATOM     28  C   UNL A   1      31.698  29.513  24.931  1.00  0.00     0.113 A 
ATOM     29  C   UNL A   1      32.031  29.180  27.287  1.00  0.00     0.004 A 
ATOM     30  C   UNL A   1      31.931  30.058  26.136  1.00  0.00     0.020 A 
ENDBRANCH  20  22
ENDBRANCH  10  20
ENDBRANCH   4   7
ENDBRANCH   2   3
ENDBRANCH   1   2
BRANCH   1  31
ATOM     31  C   UNL A   1      38.975  20.343  25.659  1.00  0.00     0.118 C 
BRANCH  31  32
ATOM     32  N   UNL A   1      39.997  19.294  25.790  1.00  0.00    -0.352 N 
ATOM     33  C   UNL A   1      41.356  19.441  25.978  1.00  0.00     0.251 C 
ATOM     34  H   UNL A   1      39.670  18.367  25.736  1.00  0.00     0.163 HD
ATOM     35  O   UNL A   1      42.140  18.520  25.730  1.00  0.00    -0.269 OA
BRANCH  33  36
ATOM     36  C   UNL A   1      41.851  20.720  26.499  1.00  0.00     0.039 A 
ATOM     37  C   UNL A   1      42.369  21.735  25.691  1.00  0.00     0.014 A 
ATOM     38  C   UNL A   1      41.681  20.915  27.861  1.00  0.00     0.014 A 
ATOM     39  C   UNL A   1      42.676  22.956  26.290  1.00  0.00     0.010 A 
ATOM     40  C   UNL A   1      41.630  22.184  28.337  1.00  0.00     0.010 A 
ATOM     41  C   UNL A   1      42.296  23.160  27.624  1.00  0.00    -0.014 A 
BRANCH  41  42
ATOM     42  C   UNL A   1      42.463  24.415  28.334  1.00  0.00     0.031 A 
ATOM     43  C   UNL A   1      41.332  25.339  28.119  1.00  0.00     0.074 A 
ATOM     44  C   UNL A   1      43.391  24.571  29.306  1.00  0.00     0.049 A 
ATOM     45  N   UNL A   1      41.316  26.378  27.355  1.00  0.00    -0.248 NA
ATOM     46  C   UNL A   1      40.005  24.945  28.621  1.00  0.00     0.031 C 
ATOM     47  C   UNL A   1      44.331  23.578  29.848  1.00  0.00     0.029 A 
ATOM     48  N   UNL A   1      43.626  25.653  30.097  1.00  0.00    -0.354 N 
ATOM     49  C   UNL A   1      40.045  26.920  27.506  1.00  0.00     0.074 A 
ATOM     50  C   UNL A   1      39.231  25.863  28.037  1.00  0.00     0.031 C 
ATOM     51  C   UNL A   1      44.871  24.036  31.000  1.00  0.00     0.029 A 
ATOM     52  C   UNL A   1      44.446  25.407  31.199  1.00  0.00     0.049 A 
ATOM     53  H   UNL A   1      43.247  26.542  29.907  1.00  0.00     0.167 HD
ATOM     54  C   UNL A   1      39.883  28.273  27.512  1.00  0.00     0.037 A 
ATOM     55  C   UNL A   1      44.718  26.279  32.206  1.00  0.00     0.037 A 
ATOM     56  C   UNL A   1      41.082  28.919  27.015  1.00  0.00     0.049 A 
ATOM     57  C   UNL A   1      44.383  27.637  31.702  1.00  0.00     0.074 A 
ATOM     58  C   UNL A   1      41.810  28.864  25.840  1.00  0.00     0.029 A 
ATOM     59  N   UNL A   1      41.931  29.461  27.950  1.00  0.00    -0.354 N 
ATOM     60  N   UNL A   1      45.042  28.234  30.747  1.00  0.00    -0.248 NA
ATOM     61  C   UNL A   1      43.022  28.106  31.909  1.00  0.00     0.031 C 
ATOM     62  C   UNL A   1      43.179  28.937  26.244  1.00  0.00     0.029 A 
ATOM     63  C   UNL A   1      43.217  29.123  27.626  1.00  0.00     0.049 A 
ATOM     64  H   UNL A   1      41.659  30.004  28.724  1.00  0.00     0.167 HD
ATOM     65  C   UNL A   1      44.062  28.808  29.950  1.00  0.00     0.074 A 
ATOM     66  C   UNL A   1      42.843  28.763  30.760  1.00  0.00     0.031 C 
ATOM     67  C   UNL A   1      44.265  28.971  28.609  1.00  0.00     0.037 A 
BRANCH  54  68
ATOM     68  C   UNL A   1      38.889  29.022  28.385  1.00  0.00     0.064 A 
ATOM     69  C   UNL A   1      38.936  28.793  29.776  1.00  0.00     0.173 A 
ATOM     70  C   UNL A   1      37.725  29.679  27.927  1.00  0.00     0.173 A 
ATOM     71  F   UNL A   1      40.002  28.203  30.337  1.00  0.00    -0.203 F 
ATOM     72  C   UNL A   1      37.847  29.059  30.610  1.00  0.00     0.198 A 
ATOM     73  C   UNL A   1      36.660  29.986  28.771  1.00  0.00     0.198 A 
ATOM     74  F   UNL A   1      37.508  29.971  26.643  1.00  0.00    -0.203 F 
ATOM     75  F   UNL A   1      37.885  28.678  31.893  1.00  0.00    -0.200 F 
ATOM     76  C   UNL A   1      36.701  29.638  30.102  1.00  0.00     0.200 A 
ATOM     77  F   UNL A   1      35.556  30.546  28.255  1.00  0.00    -0.200 F 
ATOM     78  F   UNL A   1      35.626  29.823  30.878  1.00  0.00    -0.200 F 
ENDBRANCH  54  68
BRANCH  55  79
ATOM     79  C   UNL A   1      44.942  26.016  33.651  1.00  0.00     0.064 A 
ATOM     80  C   UNL A   1      43.868  25.719  34.511  1.00  0.00     0.173 A 
ATOM     81  C   UNL A   1      46.230  25.749  34.152  1.00  0.00     0.173 A 
ATOM     82  F   UNL A   1      42.605  25.897  34.098  1.00  0.00    -0.203 F 
ATOM     83  C   UNL A   1      44.072  25.159  35.778  1.00  0.00     0.198 A 
ATOM     84  C   UNL A   1      46.432  25.194  35.417  1.00  0.00     0.198 A 
ATOM     85  F   UNL A   1      47.313  25.927  33.381  1.00  0.00    -0.203 F 
ATOM     86  F   UNL A   1      43.021  24.825  36.540  1.00  0.00    -0.200 F 
ATOM     87  C   UNL A   1      45.354  24.884  36.225  1.00  0.00     0.200 A 
ATOM     88  F   UNL A   1      47.675  24.895  35.820  1.00  0.00    -0.200 F 
ATOM     89  F   UNL A   1      45.546  24.283  37.407  1.00  0.00    -0.200 F 
ENDBRANCH  55  79
BRANCH  67  90
ATOM     90  C   UNL A   1      45.668  28.788  28.092  1.00  0.00     0.064 A 
ATOM     91  C   UNL A   1      46.201  27.567  27.640  1.00  0.00     0.173 A 
ATOM     92  C   UNL A   1      46.468  29.928  27.944  1.00  0.00     0.173 A 
ATOM     93  F   UNL A   1      45.466  26.448  27.649  1.00  0.00    -0.203 F 
ATOM     94  C   UNL A   1      47.493  27.486  27.121  1.00  0.00     0.198 A 
ATOM     95  C   UNL A   1      47.742  29.853  27.390  1.00  0.00     0.198 A 
ATOM     96  F   UNL A   1      45.993  31.131  28.305  1.00  0.00    -0.203 F 
ATOM     97  F   UNL A   1      47.984  26.305  26.719  1.00  0.00    -0.200 F 
ATOM     98  C   UNL A   1      48.260  28.631  26.993  1.00  0.00     0.200 A 
ATOM     99  F   UNL A   1      48.461  30.972  27.222  1.00  0.00    -0.200 F 
ATOM    100  F   UNL A   1      49.491  28.562  26.464  1.00  0.00    -0.200 F 
ENDBRANCH  67  90
ENDBRANCH  41  42
ENDBRANCH  33  36
ENDBRANCH  31  32
ENDBRANCH   1  31
TORSDOF 14
ENDMDL
MODEL 3
REMARK VINA RESULT:     -14.0      3.440      7.519
REMARK SMILES COc1ccccc1[C@@H]1CN(C(=O)c2cnn3ccccc23)C[C@H]1C(=O)NCCCNC(=O)c1ccc(-c2c3nc(c(-c4c(F)c(F)c(F)c(F)c4F)c4ccc([nH]4)c(-c4c(F)c(F)c(F)c(F)c4F)c4nc(c(-c5c(F)c(F)c(F)c(F)c5F)c5ccc2[nH]5)C=C4)C=C3)cc1
REMARK SMILES IDX 29 1 28 2 27 3 25 4 26 5 24 7 9 8 10 9 11 10 23 11 8 12 3 13
REMARK SMILES IDX 4 14 5 15 7 16 6 17 2 18 1 19 12 20 13 21 14 22 15 23 22 24
REMARK SMILES IDX 16 25 17 26 21 27 18 28 20 29 19 30 30 31 31 32 32 33 33 35
REMARK SMILES IDX 34 36 35 37 96 38 36 39 95 40 37 41 38 42 39 43 89 44 40 45
REMARK SMILES IDX 94 46 88 47 90 48 41 49 93 50 87 51 86 52 42 54 74 55 54 56
REMARK SMILES IDX 73 57 55 58 58 59 72 60 91 61 56 62 57 63 71 65 92 66 59 67
REMARK SMILES IDX 43 68 44 69 52 70 45 71 46 72 50 73 53 74 47 75 48 76 51 77
REMARK SMILES IDX 49 78 75 79 76 80 84 81 77 82 78 83 82 84 85 85 79 86 80 87
REMARK SMILES IDX 83 88 81 89 60 90 61 91 69 92 62 93 63 94 67 95 70 96 64 97
REMARK SMILES IDX 65 98 68 99 66 100
REMARK H PARENT 27 6 31 34 90 53 58 64
REMARK Flexibility Score: inf
ROOT
ATOM      1  C   UNL A   1      31.456  31.283  26.468  1.00  0.00     0.042 C 
ENDROOT
BRANCH   1   2
ATOM      2  C   UNL A   1      31.780  29.847  26.066  1.00  0.00     0.117 C 
BRANCH   2   3
ATOM      3  N   UNL A   1      32.462  29.741  24.786  1.00  0.00    -0.356 N 
ATOM      4  C   UNL A   1      32.475  28.756  23.851  1.00  0.00     0.225 C 
ATOM      5  O   UNL A   1      33.117  28.976  22.819  1.00  0.00    -0.275 OA
ATOM      6  H   UNL A   1      33.012  30.524  24.556  1.00  0.00     0.163 HD
BRANCH   4   7
ATOM      7  C   UNL A   1      31.767  27.424  24.033  1.00  0.00     0.107 C 
ATOM      8  C   UNL A   1      30.764  27.095  22.909  1.00  0.00     0.057 C 
ATOM      9  C   UNL A   1      30.904  25.593  22.676  1.00  0.00     0.129 C 
ATOM     10  N   UNL A   1      32.295  25.340  23.015  1.00  0.00    -0.337 N 
ATOM     11  C   UNL A   1      32.718  26.228  24.094  1.00  0.00     0.134 C 
BRANCH   8  12
ATOM     12  C   UNL A   1      29.354  27.611  23.085  1.00  0.00    -0.000 A 
ATOM     13  C   UNL A   1      28.878  28.865  22.667  1.00  0.00     0.122 A 
ATOM     14  C   UNL A   1      27.543  29.227  22.905  1.00  0.00     0.047 A 
ATOM     15  C   UNL A   1      26.678  28.373  23.590  1.00  0.00     0.004 A 
ATOM     16  C   UNL A   1      28.459  26.768  23.783  1.00  0.00     0.008 A 
ATOM     17  C   UNL A   1      27.145  27.150  24.051  1.00  0.00     0.001 A 
BRANCH  13  18
ATOM     18  O   UNL A   1      29.686  29.892  22.259  1.00  0.00    -0.496 OA
ATOM     19  C   UNL A   1      29.029  30.987  21.636  1.00  0.00     0.278 C 
ENDBRANCH  13  18
ENDBRANCH   8  12
BRANCH  10  20
ATOM     20  C   UNL A   1      33.135  24.355  22.536  1.00  0.00     0.257 C 
ATOM     21  O   UNL A   1      33.636  24.442  21.411  1.00  0.00    -0.269 OA
BRANCH  20  22
ATOM     22  C   UNL A   1      33.453  23.228  23.387  1.00  0.00     0.085 A 
ATOM     23  C   UNL A   1      32.519  22.488  24.140  1.00  0.00     0.150 A 
ATOM     24  C   UNL A   1      34.674  22.686  23.754  1.00  0.00     0.079 A 
ATOM     25  N   UNL A   1      33.067  21.502  24.847  1.00  0.00    -0.176 NA
ATOM     26  N   UNL A   1      34.397  21.616  24.617  1.00  0.00    -0.240 N 
ATOM     27  C   UNL A   1      36.048  22.962  23.479  1.00  0.00     0.029 A 
ATOM     28  C   UNL A   1      35.406  20.805  25.142  1.00  0.00     0.113 A 
ATOM     29  C   UNL A   1      37.011  22.171  23.988  1.00  0.00     0.004 A 
ATOM     30  C   UNL A   1      36.693  21.043  24.845  1.00  0.00     0.020 A 
ENDBRANCH  20  22
ENDBRANCH  10  20
ENDBRANCH   4   7
ENDBRANCH   2   3
ENDBRANCH   1   2
BRANCH   1  31
ATOM     31  C   UNL A   1      32.590  31.940  27.220  1.00  0.00     0.118 C 
BRANCH  31  32
ATOM     32  N   UNL A   1      32.366  33.378  27.436  1.00  0.00    -0.352 N 
ATOM     33  C   UNL A   1      32.991  34.216  28.337  1.00  0.00     0.251 C 
ATOM     34  H   UNL A   1      31.682  33.795  26.866  1.00  0.00     0.163 HD
ATOM     35  O   UNL A   1      32.489  35.296  28.661  1.00  0.00    -0.269 OA
BRANCH  33  36
ATOM     36  C   UNL A   1      34.284  33.799  28.891  1.00  0.00     0.039 A 
ATOM     37  C   UNL A   1      34.420  33.100  30.093  1.00  0.00     0.014 A 
ATOM     38  C   UNL A   1      35.387  34.055  28.090  1.00  0.00     0.014 A 
ATOM     39  C   UNL A   1      35.688  32.639  30.442  1.00  0.00     0.010 A 
ATOM     40  C   UNL A   1      36.501  33.300  28.254  1.00  0.00     0.010 A 
ATOM     41  C   UNL A   1      36.722  32.751  29.501  1.00  0.00    -0.014 A 
BRANCH  41  42
ATOM     42  C   UNL A   1      38.060  32.222  29.697  1.00  0.00     0.031 A 
ATOM     43  C   UNL A   1      38.184  30.823  29.246  1.00  0.00     0.074 A 
ATOM     44  C   UNL A   1      39.116  33.024  29.969  1.00  0.00     0.049 A 
ATOM     45  N   UNL A   1      38.227  29.771  29.991  1.00  0.00    -0.248 NA
ATOM     46  C   UNL A   1      38.011  30.534  27.812  1.00  0.00     0.031 C 
ATOM     47  C   UNL A   1      39.152  34.490  30.077  1.00  0.00     0.029 A 
ATOM     48  N   UNL A   1      40.427  32.691  30.116  1.00  0.00    -0.354 N 
ATOM     49  C   UNL A   1      38.365  28.706  29.109  1.00  0.00     0.074 A 
ATOM     50  C   UNL A   1      37.937  29.201  27.830  1.00  0.00     0.031 C 
ATOM     51  C   UNL A   1      40.434  34.922  30.058  1.00  0.00     0.029 A 
ATOM     52  C   UNL A   1      41.312  33.769  30.097  1.00  0.00     0.049 A 
ATOM     53  H   UNL A   1      40.728  31.760  30.227  1.00  0.00     0.167 HD
ATOM     54  C   UNL A   1      39.148  27.643  29.447  1.00  0.00     0.037 A 
ATOM     55  C   UNL A   1      42.669  33.692  30.088  1.00  0.00     0.037 A 
ATOM     56  C   UNL A   1      39.446  27.679  30.865  1.00  0.00     0.049 A 
ATOM     57  C   UNL A   1      43.025  32.327  30.559  1.00  0.00     0.074 A 
ATOM     58  C   UNL A   1      38.694  27.682  32.025  1.00  0.00     0.029 A 
ATOM     59  N   UNL A   1      40.688  28.144  31.229  1.00  0.00    -0.354 N 
ATOM     60  N   UNL A   1      42.818  31.909  31.777  1.00  0.00    -0.248 NA
ATOM     61  C   UNL A   1      43.141  31.285  29.551  1.00  0.00     0.031 C 
ATOM     62  C   UNL A   1      39.373  28.577  32.909  1.00  0.00     0.029 A 
ATOM     63  C   UNL A   1      40.545  29.003  32.284  1.00  0.00     0.049 A 
ATOM     64  H   UNL A   1      41.540  27.897  30.801  1.00  0.00     0.167 HD
ATOM     65  C   UNL A   1      42.324  30.620  31.625  1.00  0.00     0.074 A 
ATOM     66  C   UNL A   1      42.621  30.263  30.237  1.00  0.00     0.031 C 
ATOM     67  C   UNL A   1      41.451  30.100  32.538  1.00  0.00     0.037 A 
BRANCH  54  68
ATOM     68  C   UNL A   1      40.027  26.871  28.477  1.00  0.00     0.064 A 
ATOM     69  C   UNL A   1      39.886  25.467  28.439  1.00  0.00     0.173 A 
ATOM     70  C   UNL A   1      41.184  27.370  27.839  1.00  0.00     0.173 A 
ATOM     71  F   UNL A   1      38.814  24.872  28.985  1.00  0.00    -0.203 F 
ATOM     72  C   UNL A   1      40.890  24.632  27.942  1.00  0.00     0.198 A 
ATOM     73  C   UNL A   1      42.161  26.536  27.302  1.00  0.00     0.198 A 
ATOM     74  F   UNL A   1      41.483  28.670  27.782  1.00  0.00    -0.203 F 
ATOM     75  F   UNL A   1      40.773  23.305  28.074  1.00  0.00    -0.200 F 
ATOM     76  C   UNL A   1      42.037  25.167  27.392  1.00  0.00     0.200 A 
ATOM     77  F   UNL A   1      43.268  27.078  26.774  1.00  0.00    -0.200 F 
ATOM     78  F   UNL A   1      43.036  24.374  26.986  1.00  0.00    -0.200 F 
ENDBRANCH  54  68
BRANCH  55  79
ATOM     79  C   UNL A   1      43.662  34.571  29.419  1.00  0.00     0.064 A 
ATOM     80  C   UNL A   1      43.933  34.449  28.044  1.00  0.00     0.173 A 
ATOM     81  C   UNL A   1      44.135  35.741  30.043  1.00  0.00     0.173 A 
ATOM     82  F   UNL A   1      43.479  33.389  27.359  1.00  0.00    -0.203 F 
ATOM     83  C   UNL A   1      44.605  35.451  27.332  1.00  0.00     0.198 A 
ATOM     84  C   UNL A   1      44.808  36.738  29.333  1.00  0.00     0.198 A 
ATOM     85  F   UNL A   1      43.863  35.986  31.333  1.00  0.00    -0.203 F 
ATOM     86  F   UNL A   1      44.782  35.329  26.009  1.00  0.00    -0.200 F 
ATOM     87  C   UNL A   1      45.030  36.601  27.976  1.00  0.00     0.200 A 
ATOM     88  F   UNL A   1      45.178  37.864  29.959  1.00  0.00    -0.200 F 
ATOM     89  F   UNL A   1      45.609  37.591  27.283  1.00  0.00    -0.200 F 
ENDBRANCH  55  79
BRANCH  67  90
ATOM     90  C   UNL A   1      41.282  30.840  33.839  1.00  0.00     0.064 A 
ATOM     91  C   UNL A   1      40.354  31.874  34.056  1.00  0.00     0.173 A 
ATOM     92  C   UNL A   1      42.021  30.402  34.945  1.00  0.00     0.173 A 
ATOM     93  F   UNL A   1      39.535  32.283  33.079  1.00  0.00    -0.203 F 
ATOM     94  C   UNL A   1      40.216  32.476  35.307  1.00  0.00     0.198 A 
ATOM     95  C   UNL A   1      41.855  30.976  36.202  1.00  0.00     0.198 A 
ATOM     96  F   UNL A   1      42.883  29.381  34.814  1.00  0.00    -0.203 F 
ATOM     97  F   UNL A   1      39.339  33.475  35.480  1.00  0.00    -0.200 F 
ATOM     98  C   UNL A   1      40.965  32.023  36.379  1.00  0.00     0.200 A 
ATOM     99  F   UNL A   1      42.545  30.500  37.247  1.00  0.00    -0.200 F 
ATOM    100  F   UNL A   1      40.811  32.577  37.591  1.00  0.00    -0.200 F 
ENDBRANCH  67  90
ENDBRANCH  41  42
ENDBRANCH  33  36
ENDBRANCH  31  32
ENDBRANCH   1  31
TORSDOF 14
ENDMDL
