MODEL 1
REMARK VINA RESULT:     -13.1      0.000      0.000
REMARK SMILES CCc1c(C(=O)NCCCNC(=O)c2ccc(-c3c4nc(c(-c5c(F)c(F)c(F)c(F)c5F)c5ccc([nH]5)c(-c5c(F)c(F)c(F)c(F)c5F)c5nc(c(-c6c(F)c(F)c(F)c(F)c6F)c6ccc3[nH]6)C=C5)C=C4)cc2)nnn1C[C@H]1C[C@H]2CC[C@@H]1C2
REMARK SMILES IDX 9 1 8 2 7 3 5 4 6 5 4 7 3 8 79 9 77 10 78 11 2 12 1 13 80 14
REMARK SMILES IDX 81 15 82 16 86 17 83 18 85 19 87 20 84 21 10 22 11 23 12 24
REMARK SMILES IDX 13 26 14 27 15 28 76 29 16 30 75 31 17 32 18 33 19 34 69 35
REMARK SMILES IDX 20 36 74 37 68 38 70 39 21 40 73 41 67 42 66 43 22 45 54 46
REMARK SMILES IDX 34 47 53 48 35 49 38 50 52 51 71 52 36 53 37 54 51 56 72 57
REMARK SMILES IDX 39 58 23 59 24 60 32 61 25 62 26 63 30 64 33 65 27 66 28 67
REMARK SMILES IDX 31 68 29 69 55 70 56 71 64 72 57 73 58 74 62 75 65 76 59 77
REMARK SMILES IDX 60 78 63 79 61 80 40 81 41 82 49 83 42 84 43 85 47 86 50 87
REMARK SMILES IDX 44 88 45 89 48 90 46 91
REMARK H PARENT 7 6 11 25 70 44 38 55
REMARK Flexibility Score: inf
ROOT
ATOM      1  C   UNL A   1      32.372  29.658  26.829  1.00  0.00     0.042 C 
ENDROOT
BRANCH   1   2
ATOM      2  C   UNL A   1      32.538  29.719  25.307  1.00  0.00     0.118 C 
BRANCH   2   3
ATOM      3  N   UNL A   1      31.275  29.884  24.631  1.00  0.00    -0.351 N 
ATOM      4  C   UNL A   1      30.489  29.071  23.857  1.00  0.00     0.273 C 
ATOM      5  O   UNL A   1      29.403  29.588  23.564  1.00  0.00    -0.267 OA
ATOM      6  H   UNL A   1      30.892  30.783  24.753  1.00  0.00     0.163 HD
BRANCH   4   7
ATOM      7  C   UNL A   1      30.816  27.714  23.382  1.00  0.00     0.173 A 
ATOM      8  C   UNL A   1      30.982  26.433  23.940  1.00  0.00     0.071 A 
ATOM      9  N   UNL A   1      31.374  25.675  22.862  1.00  0.00    -0.248 N 
ATOM     10  N   UNL A   1      31.087  27.622  22.028  1.00  0.00    -0.125 NA
ATOM     11  N   UNL A   1      31.413  26.385  21.732  1.00  0.00    -0.066 NA
BRANCH   8  12
ATOM     12  C   UNL A   1      30.827  25.923  25.331  1.00  0.00     0.055 C 
ATOM     13  C   UNL A   1      31.688  26.349  26.499  1.00  0.00     0.011 C 
ENDBRANCH   8  12
BRANCH   9  14
ATOM     14  C   UNL A   1      31.805  24.299  22.781  1.00  0.00     0.150 C 
BRANCH  14  15
ATOM     15  C   UNL A   1      33.321  24.152  22.664  1.00  0.00     0.014 C 
ATOM     16  C   UNL A   1      34.094  25.146  23.555  1.00  0.00     0.009 C 
ATOM     17  C   UNL A   1      33.839  22.773  23.152  1.00  0.00    -0.006 C 
ATOM     18  C   UNL A   1      34.865  24.214  24.500  1.00  0.00    -0.011 C 
ATOM     19  C   UNL A   1      33.252  22.420  24.526  1.00  0.00     0.004 C 
ATOM     20  C   UNL A   1      35.282  23.098  23.542  1.00  0.00     0.007 C 
ATOM     21  C   UNL A   1      33.855  23.506  25.428  1.00  0.00     0.004 C 
ENDBRANCH  14  15
ENDBRANCH   9  14
ENDBRANCH   4   7
ENDBRANCH   2   3
ENDBRANCH   1   2
BRANCH   1  22
ATOM     22  C   UNL A   1      33.636  29.978  27.581  1.00  0.00     0.118 C 
BRANCH  22  23
ATOM     23  N   UNL A   1      34.125  31.316  27.238  1.00  0.00    -0.352 N 
ATOM     24  C   UNL A   1      35.298  31.934  27.635  1.00  0.00     0.251 C 
ATOM     25  H   UNL A   1      33.543  31.845  26.647  1.00  0.00     0.163 HD
ATOM     26  O   UNL A   1      35.438  33.136  27.570  1.00  0.00    -0.269 OA
BRANCH  24  27
ATOM     27  C   UNL A   1      36.366  31.068  28.153  1.00  0.00     0.039 A 
ATOM     28  C   UNL A   1      36.538  29.762  27.694  1.00  0.00     0.014 A 
ATOM     29  C   UNL A   1      37.272  31.657  29.024  1.00  0.00     0.014 A 
ATOM     30  C   UNL A   1      37.698  29.085  28.054  1.00  0.00     0.010 A 
ATOM     31  C   UNL A   1      38.505  31.093  29.157  1.00  0.00     0.010 A 
ATOM     32  C   UNL A   1      38.690  29.774  28.766  1.00  0.00    -0.014 A 
BRANCH  32  33
ATOM     33  C   UNL A   1      39.978  29.174  29.073  1.00  0.00     0.031 A 
ATOM     34  C   UNL A   1      40.235  28.917  30.513  1.00  0.00     0.074 A 
ATOM     35  C   UNL A   1      40.768  28.675  28.097  1.00  0.00     0.049 A 
ATOM     36  N   UNL A   1      41.150  29.455  31.249  1.00  0.00    -0.248 NA
ATOM     37  C   UNL A   1      39.302  28.059  31.259  1.00  0.00     0.031 C 
ATOM     38  C   UNL A   1      40.504  28.587  26.653  1.00  0.00     0.029 A 
ATOM     39  N   UNL A   1      41.945  28.012  28.215  1.00  0.00    -0.354 N 
ATOM     40  C   UNL A   1      41.035  28.868  32.506  1.00  0.00     0.074 A 
ATOM     41  C   UNL A   1      39.783  28.156  32.502  1.00  0.00     0.031 C 
ATOM     42  C   UNL A   1      41.350  27.700  26.088  1.00  0.00     0.029 A 
ATOM     43  C   UNL A   1      42.325  27.304  27.084  1.00  0.00     0.049 A 
ATOM     44  H   UNL A   1      42.488  28.033  29.038  1.00  0.00     0.167 HD
ATOM     45  C   UNL A   1      42.098  28.832  33.358  1.00  0.00     0.037 A 
ATOM     46  C   UNL A   1      43.357  26.431  26.987  1.00  0.00     0.037 A 
ATOM     47  C   UNL A   1      43.126  29.753  32.937  1.00  0.00     0.049 A 
ATOM     48  C   UNL A   1      44.279  26.729  28.115  1.00  0.00     0.074 A 
ATOM     49  C   UNL A   1      43.169  31.118  32.726  1.00  0.00     0.029 A 
ATOM     50  N   UNL A   1      44.218  29.243  32.275  1.00  0.00    -0.354 N 
ATOM     51  N   UNL A   1      44.972  27.833  28.202  1.00  0.00    -0.248 NA
ATOM     52  C   UNL A   1      44.049  26.036  29.376  1.00  0.00     0.031 C 
ATOM     53  C   UNL A   1      43.960  31.282  31.549  1.00  0.00     0.029 A 
ATOM     54  C   UNL A   1      44.420  30.022  31.164  1.00  0.00     0.049 A 
ATOM     55  H   UNL A   1      44.755  28.463  32.548  1.00  0.00     0.167 HD
ATOM     56  C   UNL A   1      44.884  28.200  29.537  1.00  0.00     0.074 A 
ATOM     57  C   UNL A   1      44.379  27.013  30.227  1.00  0.00     0.031 C 
ATOM     58  C   UNL A   1      44.932  29.513  29.913  1.00  0.00     0.037 A 
BRANCH  45  59
ATOM     59  C   UNL A   1      42.382  27.726  34.346  1.00  0.00     0.064 A 
ATOM     60  C   UNL A   1      42.978  26.534  33.881  1.00  0.00     0.173 A 
ATOM     61  C   UNL A   1      41.822  27.658  35.638  1.00  0.00     0.173 A 
ATOM     62  F   UNL A   1      43.540  26.481  32.664  1.00  0.00    -0.203 F 
ATOM     63  C   UNL A   1      42.923  25.346  34.613  1.00  0.00     0.198 A 
ATOM     64  C   UNL A   1      41.817  26.483  36.389  1.00  0.00     0.198 A 
ATOM     65  F   UNL A   1      41.156  28.683  36.184  1.00  0.00    -0.203 F 
ATOM     66  F   UNL A   1      43.380  24.209  34.070  1.00  0.00    -0.200 F 
ATOM     67  C   UNL A   1      42.333  25.319  35.862  1.00  0.00     0.200 A 
ATOM     68  F   UNL A   1      41.228  26.475  37.593  1.00  0.00    -0.200 F 
ATOM     69  F   UNL A   1      42.216  24.168  36.535  1.00  0.00    -0.200 F 
ENDBRANCH  45  59
BRANCH  46  70
ATOM     70  C   UNL A   1      43.447  25.211  26.153  1.00  0.00     0.064 A 
ATOM     71  C   UNL A   1      44.523  25.009  25.276  1.00  0.00     0.173 A 
ATOM     72  C   UNL A   1      42.613  24.097  26.384  1.00  0.00     0.173 A 
ATOM     73  F   UNL A   1      45.389  26.003  25.033  1.00  0.00    -0.203 F 
ATOM     74  C   UNL A   1      44.764  23.764  24.684  1.00  0.00     0.198 A 
ATOM     75  C   UNL A   1      42.850  22.858  25.787  1.00  0.00     0.198 A 
ATOM     76  F   UNL A   1      41.604  24.162  27.266  1.00  0.00    -0.203 F 
ATOM     77  F   UNL A   1      45.837  23.594  23.899  1.00  0.00    -0.200 F 
ATOM     78  C   UNL A   1      43.933  22.687  24.948  1.00  0.00     0.200 A 
ATOM     79  F   UNL A   1      42.057  21.817  26.080  1.00  0.00    -0.200 F 
ATOM     80  F   UNL A   1      44.199  21.480  24.429  1.00  0.00    -0.200 F 
ENDBRANCH  46  70
BRANCH  58  81
ATOM     81  C   UNL A   1      45.317  30.535  28.877  1.00  0.00     0.064 A 
ATOM     82  C   UNL A   1      44.400  31.176  28.024  1.00  0.00     0.173 A 
ATOM     83  C   UNL A   1      46.639  30.999  28.857  1.00  0.00     0.173 A 
ATOM     84  F   UNL A   1      43.099  30.873  28.057  1.00  0.00    -0.203 F 
ATOM     85  C   UNL A   1      44.797  32.195  27.161  1.00  0.00     0.198 A 
ATOM     86  C   UNL A   1      47.026  32.044  28.022  1.00  0.00     0.198 A 
ATOM     87  F   UNL A   1      47.547  30.471  29.691  1.00  0.00    -0.203 F 
ATOM     88  F   UNL A   1      43.901  32.779  26.353  1.00  0.00    -0.200 F 
ATOM     89  C   UNL A   1      46.110  32.633  27.167  1.00  0.00     0.200 A 
ATOM     90  F   UNL A   1      48.285  32.501  28.070  1.00  0.00    -0.200 F 
ATOM     91  F   UNL A   1      46.485  33.643  26.369  1.00  0.00    -0.200 F 
ENDBRANCH  58  81
ENDBRANCH  32  33
ENDBRANCH  24  27
ENDBRANCH  22  23
ENDBRANCH   1  22
TORSDOF 13
ENDMDL
MODEL 2
REMARK VINA RESULT:     -13.0      3.725      7.728
REMARK SMILES CCc1c(C(=O)NCCCNC(=O)c2ccc(-c3c4nc(c(-c5c(F)c(F)c(F)c(F)c5F)c5ccc([nH]5)c(-c5c(F)c(F)c(F)c(F)c5F)c5nc(c(-c6c(F)c(F)c(F)c(F)c6F)c6ccc3[nH]6)C=C5)C=C4)cc2)nnn1C[C@H]1C[C@H]2CC[C@@H]1C2
REMARK SMILES IDX 9 1 8 2 7 3 5 4 6 5 4 7 3 8 79 9 77 10 78 11 2 12 1 13 80 14
REMARK SMILES IDX 81 15 82 16 86 17 83 18 85 19 87 20 84 21 10 22 11 23 12 24
REMARK SMILES IDX 13 26 14 27 15 28 76 29 16 30 75 31 17 32 18 33 19 34 69 35
REMARK SMILES IDX 20 36 74 37 68 38 70 39 21 40 73 41 67 42 66 43 22 45 54 46
REMARK SMILES IDX 34 47 53 48 35 49 38 50 52 51 71 52 36 53 37 54 51 56 72 57
REMARK SMILES IDX 39 58 23 59 24 60 32 61 25 62 26 63 30 64 33 65 27 66 28 67
REMARK SMILES IDX 31 68 29 69 55 70 56 71 64 72 57 73 58 74 62 75 65 76 59 77
REMARK SMILES IDX 60 78 63 79 61 80 40 81 41 82 49 83 42 84 43 85 47 86 50 87
REMARK SMILES IDX 44 88 45 89 48 90 46 91
REMARK H PARENT 7 6 11 25 70 44 38 55
REMARK Flexibility Score: inf
ROOT
ATOM      1  C   UNL A   1      37.853  19.886  24.896  1.00  0.00     0.042 C 
ENDROOT
BRANCH   1   2
ATOM      2  C   UNL A   1      36.636  20.802  25.072  1.00  0.00     0.118 C 
BRANCH   2   3
ATOM      3  N   UNL A   1      35.394  20.074  24.991  1.00  0.00    -0.351 N 
ATOM      4  C   UNL A   1      34.075  20.407  25.161  1.00  0.00     0.273 C 
ATOM      5  O   UNL A   1      33.305  19.480  24.878  1.00  0.00    -0.267 OA
ATOM      6  H   UNL A   1      35.523  19.125  24.762  1.00  0.00     0.163 HD
BRANCH   4   7
ATOM      7  C   UNL A   1      33.541  21.702  25.619  1.00  0.00     0.173 A 
ATOM      8  C   UNL A   1      32.864  22.801  25.058  1.00  0.00     0.071 A 
ATOM      9  N   UNL A   1      32.780  23.681  26.110  1.00  0.00    -0.248 N 
ATOM     10  N   UNL A   1      33.780  21.991  26.951  1.00  0.00    -0.125 NA
ATOM     11  N   UNL A   1      33.307  23.183  27.231  1.00  0.00    -0.066 NA
BRANCH   8  12
ATOM     12  C   UNL A   1      32.350  23.060  23.684  1.00  0.00     0.055 C 
ATOM     13  C   UNL A   1      33.103  22.732  22.414  1.00  0.00     0.011 C 
ENDBRANCH   8  12
BRANCH   9  14
ATOM     14  C   UNL A   1      32.293  25.040  26.168  1.00  0.00     0.150 C 
BRANCH  14  15
ATOM     15  C   UNL A   1      33.405  26.080  26.051  1.00  0.00     0.014 C 
ATOM     16  C   UNL A   1      33.812  26.367  24.591  1.00  0.00     0.009 C 
ATOM     17  C   UNL A   1      32.989  27.480  26.576  1.00  0.00    -0.006 C 
ATOM     18  C   UNL A   1      33.476  27.857  24.439  1.00  0.00    -0.011 C 
ATOM     19  C   UNL A   1      31.632  27.904  25.994  1.00  0.00     0.004 C 
ATOM     20  C   UNL A   1      33.926  28.402  25.794  1.00  0.00     0.007 C 
ATOM     21  C   UNL A   1      31.943  28.026  24.495  1.00  0.00     0.004 C 
ENDBRANCH  14  15
ENDBRANCH   9  14
ENDBRANCH   4   7
ENDBRANCH   2   3
ENDBRANCH   1   2
BRANCH   1  22
ATOM     22  C   UNL A   1      39.046  20.317  25.706  1.00  0.00     0.118 C 
BRANCH  22  23
ATOM     23  N   UNL A   1      40.069  19.268  25.732  1.00  0.00    -0.352 N 
ATOM     24  C   UNL A   1      41.435  19.399  25.909  1.00  0.00     0.251 C 
ATOM     25  H   UNL A   1      39.741  18.349  25.606  1.00  0.00     0.163 HD
ATOM     26  O   UNL A   1      42.206  18.522  25.581  1.00  0.00    -0.269 OA
BRANCH  24  27
ATOM     27  C   UNL A   1      41.914  20.655  26.501  1.00  0.00     0.039 A 
ATOM     28  C   UNL A   1      42.318  21.731  25.710  1.00  0.00     0.014 A 
ATOM     29  C   UNL A   1      41.820  20.763  27.881  1.00  0.00     0.014 A 
ATOM     30  C   UNL A   1      42.537  22.957  26.329  1.00  0.00     0.010 A 
ATOM     31  C   UNL A   1      41.783  22.008  28.434  1.00  0.00     0.010 A 
ATOM     32  C   UNL A   1      42.238  23.090  27.692  1.00  0.00    -0.014 A 
BRANCH  32  33
ATOM     33  C   UNL A   1      42.325  24.367  28.381  1.00  0.00     0.031 A 
ATOM     34  C   UNL A   1      41.152  25.262  28.214  1.00  0.00     0.074 A 
ATOM     35  C   UNL A   1      43.295  24.607  29.290  1.00  0.00     0.049 A 
ATOM     36  N   UNL A   1      41.131  26.420  27.641  1.00  0.00    -0.248 NA
ATOM     37  C   UNL A   1      39.824  24.777  28.619  1.00  0.00     0.031 C 
ATOM     38  C   UNL A   1      44.345  23.701  29.778  1.00  0.00     0.029 A 
ATOM     39  N   UNL A   1      43.468  25.698  30.076  1.00  0.00    -0.354 N 
ATOM     40  C   UNL A   1      39.829  26.898  27.775  1.00  0.00     0.074 A 
ATOM     41  C   UNL A   1      39.037  25.781  28.223  1.00  0.00     0.031 C 
ATOM     42  C   UNL A   1      44.860  24.178  30.930  1.00  0.00     0.029 A 
ATOM     43  C   UNL A   1      44.315  25.501  31.158  1.00  0.00     0.049 A 
ATOM     44  H   UNL A   1      43.029  26.561  29.894  1.00  0.00     0.167 HD
ATOM     45  C   UNL A   1      39.570  28.235  27.728  1.00  0.00     0.037 A 
ATOM     46  C   UNL A   1      44.527  26.361  32.183  1.00  0.00     0.037 A 
ATOM     47  C   UNL A   1      40.693  28.957  27.179  1.00  0.00     0.049 A 
ATOM     48  C   UNL A   1      44.099  27.705  31.712  1.00  0.00     0.074 A 
ATOM     49  C   UNL A   1      41.375  28.909  25.978  1.00  0.00     0.029 A 
ATOM     50  N   UNL A   1      41.529  29.611  28.053  1.00  0.00    -0.354 N 
ATOM     51  N   UNL A   1      44.721  28.369  30.776  1.00  0.00    -0.248 NA
ATOM     52  C   UNL A   1      42.707  28.082  31.924  1.00  0.00     0.031 C 
ATOM     53  C   UNL A   1      42.749  29.063  26.331  1.00  0.00     0.029 A 
ATOM     54  C   UNL A   1      42.816  29.279  27.708  1.00  0.00     0.049 A 
ATOM     55  H   UNL A   1      41.257  30.206  28.788  1.00  0.00     0.167 HD
ATOM     56  C   UNL A   1      43.710  28.916  30.000  1.00  0.00     0.074 A 
ATOM     57  C   UNL A   1      42.495  28.779  30.803  1.00  0.00     0.031 C 
ATOM     58  C   UNL A   1      43.890  29.146  28.665  1.00  0.00     0.037 A 
BRANCH  45  59
ATOM     59  C   UNL A   1      38.479  28.935  28.500  1.00  0.00     0.064 A 
ATOM     60  C   UNL A   1      37.621  29.822  27.815  1.00  0.00     0.173 A 
ATOM     61  C   UNL A   1      38.435  29.018  29.907  1.00  0.00     0.173 A 
ATOM     62  F   UNL A   1      37.580  29.834  26.474  1.00  0.00    -0.203 F 
ATOM     63  C   UNL A   1      36.861  30.782  28.486  1.00  0.00     0.198 A 
ATOM     64  C   UNL A   1      37.633  29.941  30.576  1.00  0.00     0.198 A 
ATOM     65  F   UNL A   1      39.245  28.296  30.691  1.00  0.00    -0.203 F 
ATOM     66  F   UNL A   1      36.170  31.692  27.786  1.00  0.00    -0.200 F 
ATOM     67  C   UNL A   1      36.877  30.848  29.866  1.00  0.00     0.200 A 
ATOM     68  F   UNL A   1      37.672  29.998  31.914  1.00  0.00    -0.200 F 
ATOM     69  F   UNL A   1      36.204  31.811  30.510  1.00  0.00    -0.200 F 
ENDBRANCH  45  59
BRANCH  46  70
ATOM     70  C   UNL A   1      44.820  26.041  33.599  1.00  0.00     0.064 A 
ATOM     71  C   UNL A   1      43.793  25.706  34.494  1.00  0.00     0.173 A 
ATOM     72  C   UNL A   1      46.137  25.807  34.045  1.00  0.00     0.173 A 
ATOM     73  F   UNL A   1      42.510  25.856  34.135  1.00  0.00    -0.203 F 
ATOM     74  C   UNL A   1      44.066  25.149  35.749  1.00  0.00     0.198 A 
ATOM     75  C   UNL A   1      46.408  25.260  35.300  1.00  0.00     0.198 A 
ATOM     76  F   UNL A   1      47.187  26.019  33.237  1.00  0.00    -0.203 F 
ATOM     77  F   UNL A   1      43.055  24.785  36.552  1.00  0.00    -0.200 F 
ATOM     78  C   UNL A   1      45.372  24.917  36.146  1.00  0.00     0.200 A 
ATOM     79  F   UNL A   1      47.676  25.010  35.656  1.00  0.00    -0.200 F 
ATOM     80  F   UNL A   1      45.630  24.330  37.323  1.00  0.00    -0.200 F 
ENDBRANCH  46  70
BRANCH  58  81
ATOM     81  C   UNL A   1      45.280  29.013  28.102  1.00  0.00     0.064 A 
ATOM     82  C   UNL A   1      45.809  27.817  27.583  1.00  0.00     0.173 A 
ATOM     83  C   UNL A   1      46.045  30.175  27.936  1.00  0.00     0.173 A 
ATOM     84  F   UNL A   1      45.101  26.685  27.600  1.00  0.00    -0.203 F 
ATOM     85  C   UNL A   1      47.061  27.779  26.973  1.00  0.00     0.198 A 
ATOM     86  C   UNL A   1      47.280  30.141  27.291  1.00  0.00     0.198 A 
ATOM     87  F   UNL A   1      45.569  31.357  28.353  1.00  0.00    -0.203 F 
ATOM     88  F   UNL A   1      47.542  26.621  26.497  1.00  0.00    -0.200 F 
ATOM     89  C   UNL A   1      47.792  28.944  26.821  1.00  0.00     0.200 A 
ATOM     90  F   UNL A   1      47.959  31.280  27.098  1.00  0.00    -0.200 F 
ATOM     91  F   UNL A   1      48.978  28.917  26.195  1.00  0.00    -0.200 F 
ENDBRANCH  58  81
ENDBRANCH  32  33
ENDBRANCH  24  27
ENDBRANCH  22  23
ENDBRANCH   1  22
TORSDOF 13
ENDMDL
MODEL 3
REMARK VINA RESULT:     -12.9      3.389      8.649
REMARK SMILES CCc1c(C(=O)NCCCNC(=O)c2ccc(-c3c4nc(c(-c5c(F)c(F)c(F)c(F)c5F)c5ccc([nH]5)c(-c5c(F)c(F)c(F)c(F)c5F)c5nc(c(-c6c(F)c(F)c(F)c(F)c6F)c6ccc3[nH]6)C=C5)C=C4)cc2)nnn1C[C@H]1C[C@H]2CC[C@@H]1C2
REMARK SMILES IDX 9 1 8 2 7 3 5 4 6 5 4 7 3 8 79 9 77 10 78 11 2 12 1 13 80 14
REMARK SMILES IDX 81 15 82 16 86 17 83 18 85 19 87 20 84 21 10 22 11 23 12 24
REMARK SMILES IDX 13 26 14 27 15 28 76 29 16 30 75 31 17 32 18 33 19 34 69 35
REMARK SMILES IDX 20 36 74 37 68 38 70 39 21 40 73 41 67 42 66 43 22 45 54 46
REMARK SMILES IDX 34 47 53 48 35 49 38 50 52 51 71 52 36 53 37 54 51 56 72 57
REMARK SMILES IDX 39 58 23 59 24 60 32 61 25 62 26 63 30 64 33 65 27 66 28 67
REMARK SMILES IDX 31 68 29 69 55 70 56 71 64 72 57 73 58 74 62 75 65 76 59 77
REMARK SMILES IDX 60 78 63 79 61 80 40 81 41 82 49 83 42 84 43 85 47 86 50 87
REMARK SMILES IDX 44 88 45 89 48 90 46 91
REMARK H PARENT 7 6 11 25 70 44 38 55
REMARK Flexibility Score: inf
ROOT
ATOM      1  C   UNL A   1      36.856  21.917  24.811  1.00  0.00     0.042 C 
ENDROOT
BRANCH   1   2
ATOM      2  C   UNL A   1      35.751  21.370  25.721  1.00  0.00     0.118 C 
BRANCH   2   3
ATOM      3  N   UNL A   1      34.591  20.952  24.974  1.00  0.00    -0.351 N 
ATOM      4  C   UNL A   1      33.619  21.610  24.266  1.00  0.00     0.273 C 
ATOM      5  O   UNL A   1      32.855  20.840  23.669  1.00  0.00    -0.267 OA
ATOM      6  H   UNL A   1      34.471  19.974  24.971  1.00  0.00     0.163 HD
BRANCH   4   7
ATOM      7  C   UNL A   1      33.432  23.068  24.164  1.00  0.00     0.173 A 
ATOM      8  C   UNL A   1      32.852  24.095  24.932  1.00  0.00     0.071 A 
ATOM      9  N   UNL A   1      32.994  25.200  24.127  1.00  0.00    -0.248 N 
ATOM     10  N   UNL A   1      33.896  23.633  22.988  1.00  0.00    -0.125 NA
ATOM     11  N   UNL A   1      33.630  24.919  22.988  1.00  0.00    -0.066 NA
BRANCH   8  12
ATOM     12  C   UNL A   1      32.201  24.092  26.272  1.00  0.00     0.055 C 
ATOM     13  C   UNL A   1      30.814  23.556  26.547  1.00  0.00     0.011 C 
ENDBRANCH   8  12
BRANCH   9  14
ATOM     14  C   UNL A   1      32.511  26.553  24.285  1.00  0.00     0.150 C 
BRANCH  14  15
ATOM     15  C   UNL A   1      33.569  27.506  24.835  1.00  0.00     0.014 C 
ATOM     16  C   UNL A   1      33.305  28.980  24.464  1.00  0.00     0.009 C 
ATOM     17  C   UNL A   1      33.613  27.541  26.386  1.00  0.00    -0.006 C 
ATOM     18  C   UNL A   1      33.125  29.640  25.838  1.00  0.00    -0.011 C 
ATOM     19  C   UNL A   1      32.204  27.720  26.971  1.00  0.00     0.004 C 
ATOM     20  C   UNL A   1      34.203  28.926  26.654  1.00  0.00     0.007 C 
ATOM     21  C   UNL A   1      31.818  29.119  26.470  1.00  0.00     0.004 C 
ENDBRANCH  14  15
ENDBRANCH   9  14
ENDBRANCH   4   7
ENDBRANCH   2   3
ENDBRANCH   1   2
BRANCH   1  22
ATOM     22  C   UNL A   1      37.863  22.768  25.538  1.00  0.00     0.118 C 
BRANCH  22  23
ATOM     23  N   UNL A   1      38.747  21.943  26.365  1.00  0.00    -0.352 N 
ATOM     24  C   UNL A   1      39.915  22.309  27.010  1.00  0.00     0.251 C 
ATOM     25  H   UNL A   1      38.475  21.004  26.476  1.00  0.00     0.163 HD
ATOM     26  O   UNL A   1      40.726  21.486  27.376  1.00  0.00    -0.269 OA
BRANCH  24  27
ATOM     27  C   UNL A   1      40.137  23.746  27.223  1.00  0.00     0.039 A 
ATOM     28  C   UNL A   1      39.120  24.682  27.029  1.00  0.00     0.014 A 
ATOM     29  C   UNL A   1      41.368  24.111  27.750  1.00  0.00     0.014 A 
ATOM     30  C   UNL A   1      39.331  25.984  27.468  1.00  0.00     0.010 A 
ATOM     31  C   UNL A   1      41.467  25.304  28.402  1.00  0.00     0.010 A 
ATOM     32  C   UNL A   1      40.503  26.277  28.180  1.00  0.00    -0.014 A 
BRANCH  32  33
ATOM     33  C   UNL A   1      40.740  27.582  28.774  1.00  0.00     0.031 A 
ATOM     34  C   UNL A   1      41.874  28.349  28.199  1.00  0.00     0.074 A 
ATOM     35  C   UNL A   1      39.843  28.140  29.617  1.00  0.00     0.049 A 
ATOM     36  N   UNL A   1      42.959  28.705  28.803  1.00  0.00    -0.248 NA
ATOM     37  C   UNL A   1      41.868  28.655  26.760  1.00  0.00     0.031 C 
ATOM     38  C   UNL A   1      38.532  27.626  30.040  1.00  0.00     0.029 A 
ATOM     39  N   UNL A   1      39.867  29.370  30.186  1.00  0.00    -0.354 N 
ATOM     40  C   UNL A   1      43.694  29.444  27.879  1.00  0.00     0.074 A 
ATOM     41  C   UNL A   1      43.063  29.232  26.603  1.00  0.00     0.031 C 
ATOM     42  C   UNL A   1      37.799  28.627  30.568  1.00  0.00     0.029 A 
ATOM     43  C   UNL A   1      38.647  29.795  30.693  1.00  0.00     0.049 A 
ATOM     44  H   UNL A   1      40.685  29.918  30.237  1.00  0.00     0.167 HD
ATOM     45  C   UNL A   1      44.621  30.353  28.295  1.00  0.00     0.037 A 
ATOM     46  C   UNL A   1      38.353  31.034  31.156  1.00  0.00     0.037 A 
ATOM     47  C   UNL A   1      44.951  30.151  29.685  1.00  0.00     0.049 A 
ATOM     48  C   UNL A   1      39.648  31.690  31.480  1.00  0.00     0.074 A 
ATOM     49  C   UNL A   1      45.468  29.093  30.409  1.00  0.00     0.029 A 
ATOM     50  N   UNL A   1      44.379  30.990  30.613  1.00  0.00    -0.354 N 
ATOM     51  N   UNL A   1      40.423  31.301  32.457  1.00  0.00    -0.248 NA
ATOM     52  C   UNL A   1      40.309  32.441  30.421  1.00  0.00     0.031 C 
ATOM     53  C   UNL A   1      44.735  29.096  31.634  1.00  0.00     0.029 A 
ATOM     54  C   UNL A   1      43.882  30.201  31.619  1.00  0.00     0.049 A 
ATOM     55  H   UNL A   1      44.334  31.972  30.564  1.00  0.00     0.167 HD
ATOM     56  C   UNL A   1      41.707  31.365  31.934  1.00  0.00     0.074 A 
ATOM     57  C   UNL A   1      41.582  32.155  30.709  1.00  0.00     0.031 C 
ATOM     58  C   UNL A   1      42.689  30.521  32.369  1.00  0.00     0.037 A 
BRANCH  45  59
ATOM     59  C   UNL A   1      44.957  31.639  27.579  1.00  0.00     0.064 A 
ATOM     60  C   UNL A   1      46.222  31.766  26.965  1.00  0.00     0.173 A 
ATOM     61  C   UNL A   1      44.236  32.841  27.733  1.00  0.00     0.173 A 
ATOM     62  F   UNL A   1      46.997  30.689  26.769  1.00  0.00    -0.203 F 
ATOM     63  C   UNL A   1      46.759  33.011  26.630  1.00  0.00     0.198 A 
ATOM     64  C   UNL A   1      44.753  34.076  27.347  1.00  0.00     0.198 A 
ATOM     65  F   UNL A   1      43.057  32.891  28.364  1.00  0.00    -0.203 F 
ATOM     66  F   UNL A   1      48.019  33.092  26.179  1.00  0.00    -0.200 F 
ATOM     67  C   UNL A   1      46.028  34.166  26.832  1.00  0.00     0.200 A 
ATOM     68  F   UNL A   1      44.034  35.186  27.563  1.00  0.00    -0.200 F 
ATOM     69  F   UNL A   1      46.567  35.366  26.577  1.00  0.00    -0.200 F 
ENDBRANCH  45  59
BRANCH  46  70
ATOM     70  C   UNL A   1      37.063  31.757  31.078  1.00  0.00     0.064 A 
ATOM     71  C   UNL A   1      36.238  31.892  32.205  1.00  0.00     0.173 A 
ATOM     72  C   UNL A   1      36.729  32.552  29.962  1.00  0.00     0.173 A 
ATOM     73  F   UNL A   1      36.508  31.205  33.324  1.00  0.00    -0.203 F 
ATOM     74  C   UNL A   1      35.159  32.784  32.222  1.00  0.00     0.198 A 
ATOM     75  C   UNL A   1      35.649  33.435  29.978  1.00  0.00     0.198 A 
ATOM     76  F   UNL A   1      37.500  32.557  28.864  1.00  0.00    -0.203 F 
ATOM     77  F   UNL A   1      34.431  32.929  33.339  1.00  0.00    -0.200 F 
ATOM     78  C   UNL A   1      34.872  33.561  31.113  1.00  0.00     0.200 A 
ATOM     79  F   UNL A   1      35.405  34.206  28.908  1.00  0.00    -0.200 F 
ATOM     80  F   UNL A   1      33.876  34.458  31.150  1.00  0.00    -0.200 F 
ENDBRANCH  46  70
BRANCH  58  81
ATOM     81  C   UNL A   1      42.415  29.681  33.589  1.00  0.00     0.064 A 
ATOM     82  C   UNL A   1      41.894  28.375  33.545  1.00  0.00     0.173 A 
ATOM     83  C   UNL A   1      42.846  30.155  34.835  1.00  0.00     0.173 A 
ATOM     84  F   UNL A   1      41.562  27.803  32.384  1.00  0.00    -0.203 F 
ATOM     85  C   UNL A   1      41.766  27.602  34.697  1.00  0.00     0.198 A 
ATOM     86  C   UNL A   1      42.753  29.366  35.980  1.00  0.00     0.198 A 
ATOM     87  F   UNL A   1      43.410  31.368  34.933  1.00  0.00    -0.203 F 
ATOM     88  F   UNL A   1      41.256  26.365  34.624  1.00  0.00    -0.200 F 
ATOM     89  C   UNL A   1      42.203  28.097  35.914  1.00  0.00     0.200 A 
ATOM     90  F   UNL A   1      43.227  29.829  37.145  1.00  0.00    -0.200 F 
ATOM     91  F   UNL A   1      42.121  27.340  37.017  1.00  0.00    -0.200 F 
ENDBRANCH  58  81
ENDBRANCH  32  33
ENDBRANCH  24  27
ENDBRANCH  22  23
ENDBRANCH   1  22
TORSDOF 13
ENDMDL
