MODEL 1
REMARK VINA RESULT:     -11.3      0.000      0.000
REMARK SMILES Cn1cccc1C[NH2+]Cc1ccc(C(=O)NCCCNC(=O)c2ccc(-c3c4nc(c(-c5c(F)c(F)c(F)c(F)c5F)c5ccc([nH]5)c(-c5c(F)c(F)c(F)c(F)c5F)c5nc(c(-c6c(F)c(F)c(F)c(F)c6F)c6ccc3[nH]6)C=C5)C=C4)cc2)cc1
REMARK SMILES IDX 17 1 16 2 14 3 15 4 13 6 10 7 11 8 87 9 12 10 86 11 9 12
REMARK SMILES IDX 8 13 7 16 6 17 1 18 2 19 3 20 4 21 5 22 18 23 19 24 20 25
REMARK SMILES IDX 21 26 22 28 23 29 24 30 85 31 25 32 84 33 26 34 27 35 28 36
REMARK SMILES IDX 78 37 29 38 83 39 77 40 79 41 30 42 82 43 76 44 75 45 31 47
REMARK SMILES IDX 63 48 43 49 62 50 44 51 47 52 61 53 80 54 45 55 46 56 60 58
REMARK SMILES IDX 81 59 48 60 32 61 33 62 41 63 34 64 35 65 39 66 42 67 36 68
REMARK SMILES IDX 37 69 40 70 38 71 64 72 65 73 73 74 66 75 67 76 71 77 74 78
REMARK SMILES IDX 68 79 69 80 72 81 70 82 49 83 50 84 58 85 51 86 52 87 56 88
REMARK SMILES IDX 59 89 53 90 54 91 57 92 55 93
REMARK H PARENT 16 5 8 14 8 15 20 27 79 46 47 57
REMARK Flexibility Score: inf
ROOT
ATOM      1  C   UNL A   1      31.658  30.537  26.910  1.00  0.00     0.118 C 
ENDROOT
BRANCH   1   2
ATOM      2  N   UNL A   1      32.908  30.225  27.582  1.00  0.00    -0.352 N 
ATOM      3  C   UNL A   1      33.936  29.391  27.213  1.00  0.00     0.251 C 
ATOM      4  O   UNL A   1      34.967  29.384  27.879  1.00  0.00    -0.269 OA
ATOM      5  H   UNL A   1      33.041  30.686  28.442  1.00  0.00     0.163 HD
BRANCH   3   6
ATOM      6  C   UNL A   1      33.844  28.549  25.998  1.00  0.00     0.039 A 
ATOM      7  C   UNL A   1      33.783  26.848  23.754  1.00  0.00     0.006 A 
ATOM      8  C   UNL A   1      33.607  26.333  25.049  1.00  0.00     0.010 A 
ATOM      9  C   UNL A   1      33.887  28.238  23.598  1.00  0.00     0.010 A 
ATOM     10  C   UNL A   1      33.636  27.177  26.163  1.00  0.00     0.014 A 
ATOM     11  C   UNL A   1      33.914  29.082  24.711  1.00  0.00     0.014 A 
BRANCH   7  12
ATOM     12  C   UNL A   1      33.797  25.896  22.574  1.00  0.00     0.297 C 
BRANCH  12  13
ATOM     13  N   UNL A   1      33.132  26.384  21.369  1.00  0.00    -0.338 N 
ATOM     14  H   UNL A   1      33.075  27.401  21.422  1.00  0.00     0.346 HD
ATOM     15  H   UNL A   1      33.687  26.065  20.574  1.00  0.00     0.346 HD
BRANCH  13  16
ATOM     16  C   UNL A   1      31.786  25.857  21.184  1.00  0.00     0.316 C 
BRANCH  16  17
ATOM     17  C   UNL A   1      30.928  26.331  22.318  1.00  0.00     0.072 A 
ATOM     18  C   UNL A   1      30.645  24.125  23.554  1.00  0.00     0.149 C 
ATOM     19  N   UNL A   1      30.442  25.540  23.339  1.00  0.00    -0.350 N 
ATOM     20  C   UNL A   1      29.685  26.309  24.193  1.00  0.00     0.085 A 
ATOM     21  C   UNL A   1      29.680  27.600  23.724  1.00  0.00     0.020 A 
ATOM     22  C   UNL A   1      30.461  27.617  22.550  1.00  0.00     0.029 A 
ENDBRANCH  16  17
ENDBRANCH  13  16
ENDBRANCH  12  13
ENDBRANCH   7  12
ENDBRANCH   3   6
ENDBRANCH   1   2
BRANCH   1  23
ATOM     23  C   UNL A   1      31.402  32.042  26.858  1.00  0.00     0.042 C 
BRANCH  23  24
ATOM     24  C   UNL A   1      32.673  32.887  26.854  1.00  0.00     0.118 C 
BRANCH  24  25
ATOM     25  N   UNL A   1      32.515  34.123  27.602  1.00  0.00    -0.352 N 
ATOM     26  C   UNL A   1      33.174  34.578  28.714  1.00  0.00     0.251 C 
ATOM     27  H   UNL A   1      31.823  34.730  27.252  1.00  0.00     0.163 HD
ATOM     28  O   UNL A   1      32.739  35.568  29.299  1.00  0.00    -0.269 OA
BRANCH  26  29
ATOM     29  C   UNL A   1      34.387  33.901  29.232  1.00  0.00     0.039 A 
ATOM     30  C   UNL A   1      34.219  32.752  30.014  1.00  0.00     0.014 A 
ATOM     31  C   UNL A   1      35.671  34.418  29.036  1.00  0.00     0.014 A 
ATOM     32  C   UNL A   1      35.329  32.114  30.573  1.00  0.00     0.010 A 
ATOM     33  C   UNL A   1      36.785  33.742  29.536  1.00  0.00     0.010 A 
ATOM     34  C   UNL A   1      36.624  32.597  30.329  1.00  0.00    -0.014 A 
BRANCH  34  35
ATOM     35  C   UNL A   1      37.806  31.933  30.938  1.00  0.00     0.031 A 
ATOM     36  C   UNL A   1      38.237  32.283  32.336  1.00  0.00     0.074 A 
ATOM     37  C   UNL A   1      38.505  31.030  30.226  1.00  0.00     0.049 A 
ATOM     38  N   UNL A   1      39.238  31.812  33.039  1.00  0.00    -0.248 NA
ATOM     39  C   UNL A   1      37.455  33.317  33.031  1.00  0.00     0.031 C 
ATOM     40  C   UNL A   1      38.220  30.640  28.845  1.00  0.00     0.029 A 
ATOM     41  N   UNL A   1      39.599  30.275  30.565  1.00  0.00    -0.354 N 
ATOM     42  C   UNL A   1      39.213  32.499  34.245  1.00  0.00     0.074 A 
ATOM     43  C   UNL A   1      38.131  33.456  34.163  1.00  0.00     0.031 C 
ATOM     44  C   UNL A   1      39.100  29.699  28.463  1.00  0.00     0.029 A 
ATOM     45  C   UNL A   1      40.023  29.436  29.564  1.00  0.00     0.049 A 
ATOM     46  H   UNL A   1      40.040  30.329  31.444  1.00  0.00     0.167 HD
ATOM     47  C   UNL A   1      40.005  32.334  35.331  1.00  0.00     0.037 A 
ATOM     48  C   UNL A   1      41.034  28.547  29.541  1.00  0.00     0.037 A 
ATOM     49  C   UNL A   1      41.062  31.363  35.426  1.00  0.00     0.049 A 
ATOM     50  C   UNL A   1      41.873  28.355  30.775  1.00  0.00     0.074 A 
ATOM     51  C   UNL A   1      41.891  31.085  36.499  1.00  0.00     0.029 A 
ATOM     52  N   UNL A   1      41.435  30.503  34.402  1.00  0.00    -0.354 N 
ATOM     53  N   UNL A   1      41.798  28.967  31.931  1.00  0.00    -0.248 NA
ATOM     54  C   UNL A   1      42.926  27.333  30.703  1.00  0.00     0.031 C 
ATOM     55  C   UNL A   1      42.784  30.078  36.116  1.00  0.00     0.029 A 
ATOM     56  C   UNL A   1      42.484  29.699  34.817  1.00  0.00     0.049 A 
ATOM     57  H   UNL A   1      41.015  30.468  33.513  1.00  0.00     0.167 HD
ATOM     58  C   UNL A   1      42.771  28.387  32.733  1.00  0.00     0.074 A 
ATOM     59  C   UNL A   1      43.413  27.362  31.936  1.00  0.00     0.031 C 
ATOM     60  C   UNL A   1      43.104  28.677  34.015  1.00  0.00     0.037 A 
BRANCH  47  61
ATOM     61  C   UNL A   1      39.750  33.224  36.515  1.00  0.00     0.064 A 
ATOM     62  C   UNL A   1      38.815  32.879  37.505  1.00  0.00     0.173 A 
ATOM     63  C   UNL A   1      40.464  34.420  36.676  1.00  0.00     0.173 A 
ATOM     64  F   UNL A   1      38.097  31.752  37.391  1.00  0.00    -0.203 F 
ATOM     65  C   UNL A   1      38.586  33.713  38.595  1.00  0.00     0.198 A 
ATOM     66  C   UNL A   1      40.253  35.237  37.783  1.00  0.00     0.198 A 
ATOM     67  F   UNL A   1      41.372  34.795  35.762  1.00  0.00    -0.203 F 
ATOM     68  F   UNL A   1      37.654  33.387  39.501  1.00  0.00    -0.200 F 
ATOM     69  C   UNL A   1      39.309  34.888  38.737  1.00  0.00     0.200 A 
ATOM     70  F   UNL A   1      40.960  36.368  37.924  1.00  0.00    -0.200 F 
ATOM     71  F   UNL A   1      39.090  35.687  39.790  1.00  0.00    -0.200 F 
ENDBRANCH  47  61
BRANCH  48  72
ATOM     72  C   UNL A   1      41.275  27.733  28.323  1.00  0.00     0.064 A 
ATOM     73  C   UNL A   1      40.621  26.508  28.136  1.00  0.00     0.173 A 
ATOM     74  C   UNL A   1      42.163  28.160  27.325  1.00  0.00     0.173 A 
ATOM     75  F   UNL A   1      39.778  26.050  29.073  1.00  0.00    -0.203 F 
ATOM     76  C   UNL A   1      40.861  25.729  27.006  1.00  0.00     0.198 A 
ATOM     77  C   UNL A   1      42.383  27.392  26.183  1.00  0.00     0.198 A 
ATOM     78  F   UNL A   1      42.809  29.328  27.455  1.00  0.00    -0.203 F 
ATOM     79  F   UNL A   1      40.254  24.542  26.872  1.00  0.00    -0.200 F 
ATOM     80  C   UNL A   1      41.737  26.174  26.028  1.00  0.00     0.200 A 
ATOM     81  F   UNL A   1      43.220  27.832  25.234  1.00  0.00    -0.200 F 
ATOM     82  F   UNL A   1      41.965  25.427  24.940  1.00  0.00    -0.200 F 
ENDBRANCH  48  72
BRANCH  60  83
ATOM     83  C   UNL A   1      44.183  27.845  34.645  1.00  0.00     0.064 A 
ATOM     84  C   UNL A   1      43.895  26.637  35.296  1.00  0.00     0.173 A 
ATOM     85  C   UNL A   1      45.522  28.256  34.581  1.00  0.00     0.173 A 
ATOM     86  F   UNL A   1      42.628  26.209  35.397  1.00  0.00    -0.203 F 
ATOM     87  C   UNL A   1      44.907  25.888  35.891  1.00  0.00     0.198 A 
ATOM     88  C   UNL A   1      46.535  27.491  35.152  1.00  0.00     0.198 A 
ATOM     89  F   UNL A   1      45.850  29.401  33.963  1.00  0.00    -0.203 F 
ATOM     90  F   UNL A   1      44.603  24.765  36.556  1.00  0.00    -0.200 F 
ATOM     91  C   UNL A   1      46.225  26.312  35.815  1.00  0.00     0.200 A 
ATOM     92  F   UNL A   1      47.808  27.897  35.069  1.00  0.00    -0.200 F 
ATOM     93  F   UNL A   1      47.197  25.591  36.390  1.00  0.00    -0.200 F 
ENDBRANCH  60  83
ENDBRANCH  34  35
ENDBRANCH  26  29
ENDBRANCH  24  25
ENDBRANCH  23  24
ENDBRANCH   1  23
TORSDOF 14
ENDMDL
MODEL 2
REMARK VINA RESULT:     -11.1      2.152      3.538
REMARK SMILES Cn1cccc1C[NH2+]Cc1ccc(C(=O)NCCCNC(=O)c2ccc(-c3c4nc(c(-c5c(F)c(F)c(F)c(F)c5F)c5ccc([nH]5)c(-c5c(F)c(F)c(F)c(F)c5F)c5nc(c(-c6c(F)c(F)c(F)c(F)c6F)c6ccc3[nH]6)C=C5)C=C4)cc2)cc1
REMARK SMILES IDX 17 1 16 2 14 3 15 4 13 6 10 7 11 8 87 9 12 10 86 11 9 12
REMARK SMILES IDX 8 13 7 16 6 17 1 18 2 19 3 20 4 21 5 22 18 23 19 24 20 25
REMARK SMILES IDX 21 26 22 28 23 29 24 30 85 31 25 32 84 33 26 34 27 35 28 36
REMARK SMILES IDX 78 37 29 38 83 39 77 40 79 41 30 42 82 43 76 44 75 45 31 47
REMARK SMILES IDX 63 48 43 49 62 50 44 51 47 52 61 53 80 54 45 55 46 56 60 58
REMARK SMILES IDX 81 59 48 60 32 61 33 62 41 63 34 64 35 65 39 66 42 67 36 68
REMARK SMILES IDX 37 69 40 70 38 71 64 72 65 73 73 74 66 75 67 76 71 77 74 78
REMARK SMILES IDX 68 79 69 80 72 81 70 82 49 83 50 84 58 85 51 86 52 87 56 88
REMARK SMILES IDX 59 89 53 90 54 91 57 92 55 93
REMARK H PARENT 16 5 8 14 8 15 20 27 79 46 47 57
REMARK Flexibility Score: inf
ROOT
ATOM      1  C   UNL A   1      33.171  28.114  22.755  1.00  0.00     0.118 C 
ENDROOT
BRANCH   1   2
ATOM      2  N   UNL A   1      31.793  28.301  22.334  1.00  0.00    -0.352 N 
ATOM      3  C   UNL A   1      30.638  27.695  22.767  1.00  0.00     0.251 C 
ATOM      4  O   UNL A   1      29.557  28.110  22.358  1.00  0.00    -0.269 OA
ATOM      5  H   UNL A   1      31.666  28.970  21.623  1.00  0.00     0.163 HD
BRANCH   3   6
ATOM      6  C   UNL A   1      30.671  26.595  23.759  1.00  0.00     0.039 A 
ATOM      7  C   UNL A   1      30.610  24.433  25.562  1.00  0.00     0.006 A 
ATOM      8  C   UNL A   1      30.715  24.210  24.179  1.00  0.00     0.010 A 
ATOM      9  C   UNL A   1      30.641  25.755  26.028  1.00  0.00     0.010 A 
ATOM     10  C   UNL A   1      30.746  25.284  23.283  1.00  0.00     0.014 A 
ATOM     11  C   UNL A   1      30.674  26.827  25.134  1.00  0.00     0.014 A 
BRANCH   7  12
ATOM     12  C   UNL A   1      30.528  23.244  26.499  1.00  0.00     0.297 C 
BRANCH  12  13
ATOM     13  N   UNL A   1      31.613  22.274  26.376  1.00  0.00    -0.338 N 
ATOM     14  H   UNL A   1      31.291  21.382  26.749  1.00  0.00     0.346 HD
ATOM     15  H   UNL A   1      31.853  22.220  25.386  1.00  0.00     0.346 HD
BRANCH  13  16
ATOM     16  C   UNL A   1      32.828  22.657  27.086  1.00  0.00     0.316 C 
BRANCH  16  17
ATOM     17  C   UNL A   1      33.831  23.145  26.085  1.00  0.00     0.072 A 
ATOM     18  C   UNL A   1      34.715  20.899  25.278  1.00  0.00     0.149 C 
ATOM     19  N   UNL A   1      34.646  22.343  25.312  1.00  0.00    -0.350 N 
ATOM     20  C   UNL A   1      35.445  23.132  24.517  1.00  0.00     0.085 A 
ATOM     21  C   UNL A   1      35.148  24.448  24.777  1.00  0.00     0.020 A 
ATOM     22  C   UNL A   1      34.135  24.458  25.757  1.00  0.00     0.029 A 
ENDBRANCH  16  17
ENDBRANCH  13  16
ENDBRANCH  12  13
ENDBRANCH   7  12
ENDBRANCH   3   6
ENDBRANCH   1   2
BRANCH   1  23
ATOM     23  C   UNL A   1      33.673  29.290  23.591  1.00  0.00     0.042 C 
BRANCH  23  24
ATOM     24  C   UNL A   1      33.435  29.131  25.090  1.00  0.00     0.118 C 
BRANCH  24  25
ATOM     25  N   UNL A   1      32.907  30.342  25.694  1.00  0.00    -0.352 N 
ATOM     26  C   UNL A   1      33.317  31.030  26.808  1.00  0.00     0.251 C 
ATOM     27  H   UNL A   1      32.132  30.731  25.230  1.00  0.00     0.163 HD
ATOM     28  O   UNL A   1      32.599  31.923  27.252  1.00  0.00    -0.269 OA
BRANCH  26  29
ATOM     29  C   UNL A   1      34.595  30.716  27.490  1.00  0.00     0.039 A 
ATOM     30  C   UNL A   1      34.767  29.427  28.009  1.00  0.00     0.014 A 
ATOM     31  C   UNL A   1      35.584  31.681  27.702  1.00  0.00     0.014 A 
ATOM     32  C   UNL A   1      35.930  29.103  28.712  1.00  0.00     0.010 A 
ATOM     33  C   UNL A   1      36.775  31.338  28.343  1.00  0.00     0.010 A 
ATOM     34  C   UNL A   1      36.950  30.052  28.875  1.00  0.00    -0.014 A 
BRANCH  34  35
ATOM     35  C   UNL A   1      38.180  29.717  29.640  1.00  0.00     0.031 A 
ATOM     36  C   UNL A   1      38.390  30.271  31.023  1.00  0.00     0.074 A 
ATOM     37  C   UNL A   1      39.119  28.930  29.082  1.00  0.00     0.049 A 
ATOM     38  N   UNL A   1      39.394  30.092  31.845  1.00  0.00    -0.248 NA
ATOM     39  C   UNL A   1      37.344  31.166  31.543  1.00  0.00     0.031 C 
ATOM     40  C   UNL A   1      39.059  28.371  27.731  1.00  0.00     0.029 A 
ATOM     41  N   UNL A   1      40.309  28.464  29.582  1.00  0.00    -0.354 N 
ATOM     42  C   UNL A   1      39.108  30.858  32.967  1.00  0.00     0.074 A 
ATOM     43  C   UNL A   1      37.862  31.545  32.703  1.00  0.00     0.031 C 
ATOM     44  C   UNL A   1      40.149  27.615  27.519  1.00  0.00     0.029 A 
ATOM     45  C   UNL A   1      40.995  27.655  28.709  1.00  0.00     0.049 A 
ATOM     46  H   UNL A   1      40.641  28.689  30.481  1.00  0.00     0.167 HD
ATOM     47  C   UNL A   1      39.807  30.964  34.123  1.00  0.00     0.037 A 
ATOM     48  C   UNL A   1      42.167  27.009  28.857  1.00  0.00     0.037 A 
ATOM     49  C   UNL A   1      41.030  30.258  34.399  1.00  0.00     0.049 A 
ATOM     50  C   UNL A   1      42.903  27.111  30.165  1.00  0.00     0.074 A 
ATOM     51  C   UNL A   1      41.790  30.260  35.557  1.00  0.00     0.029 A 
ATOM     52  N   UNL A   1      41.673  29.415  33.503  1.00  0.00    -0.354 N 
ATOM     53  N   UNL A   1      42.589  27.789  31.242  1.00  0.00    -0.248 NA
ATOM     54  C   UNL A   1      44.150  26.342  30.282  1.00  0.00     0.031 C 
ATOM     55  C   UNL A   1      42.907  29.443  35.350  1.00  0.00     0.029 A 
ATOM     56  C   UNL A   1      42.821  28.899  34.079  1.00  0.00     0.049 A 
ATOM     57  H   UNL A   1      41.358  29.214  32.593  1.00  0.00     0.167 HD
ATOM     58  C   UNL A   1      43.579  27.506  32.172  1.00  0.00     0.074 A 
ATOM     59  C   UNL A   1      44.497  26.582  31.539  1.00  0.00     0.031 C 
ATOM     60  C   UNL A   1      43.717  27.971  33.438  1.00  0.00     0.037 A 
BRANCH  47  61
ATOM     61  C   UNL A   1      39.257  31.874  35.183  1.00  0.00     0.064 A 
ATOM     62  C   UNL A   1      38.466  31.383  36.235  1.00  0.00     0.173 A 
ATOM     63  C   UNL A   1      39.543  33.247  35.164  1.00  0.00     0.173 A 
ATOM     64  F   UNL A   1      38.153  30.080  36.291  1.00  0.00    -0.203 F 
ATOM     65  C   UNL A   1      37.961  32.237  37.210  1.00  0.00     0.198 A 
ATOM     66  C   UNL A   1      39.059  34.094  36.158  1.00  0.00     0.198 A 
ATOM     67  F   UNL A   1      40.297  33.768  34.185  1.00  0.00    -0.203 F 
ATOM     68  F   UNL A   1      37.167  31.754  38.176  1.00  0.00    -0.200 F 
ATOM     69  C   UNL A   1      38.262  33.590  37.175  1.00  0.00     0.200 A 
ATOM     70  F   UNL A   1      39.360  35.400  36.129  1.00  0.00    -0.200 F 
ATOM     71  F   UNL A   1      37.777  34.411  38.118  1.00  0.00    -0.200 F 
ENDBRANCH  47  61
BRANCH  48  72
ATOM     72  C   UNL A   1      42.691  26.167  27.753  1.00  0.00     0.064 A 
ATOM     73  C   UNL A   1      42.268  24.840  27.598  1.00  0.00     0.173 A 
ATOM     74  C   UNL A   1      43.625  26.667  26.834  1.00  0.00     0.173 A 
ATOM     75  F   UNL A   1      41.391  24.313  28.465  1.00  0.00    -0.203 F 
ATOM     76  C   UNL A   1      42.773  24.037  26.578  1.00  0.00     0.198 A 
ATOM     77  C   UNL A   1      44.111  25.871  25.799  1.00  0.00     0.198 A 
ATOM     78  F   UNL A   1      44.057  27.933  26.936  1.00  0.00    -0.203 F 
ATOM     79  F   UNL A   1      42.383  22.759  26.479  1.00  0.00    -0.200 F 
ATOM     80  C   UNL A   1      43.690  24.555  25.676  1.00  0.00     0.200 A 
ATOM     81  F   UNL A   1      44.986  26.379  24.920  1.00  0.00    -0.200 F 
ATOM     82  F   UNL A   1      44.174  23.784  24.693  1.00  0.00    -0.200 F 
ENDBRANCH  48  72
BRANCH  60  83
ATOM     83  C   UNL A   1      44.880  27.452  34.233  1.00  0.00     0.064 A 
ATOM     84  C   UNL A   1      46.118  28.111  34.242  1.00  0.00     0.173 A 
ATOM     85  C   UNL A   1      44.747  26.290  35.007  1.00  0.00     0.173 A 
ATOM     86  F   UNL A   1      46.299  29.218  33.507  1.00  0.00    -0.203 F 
ATOM     87  C   UNL A   1      47.191  27.606  34.971  1.00  0.00     0.198 A 
ATOM     88  C   UNL A   1      45.814  25.803  35.757  1.00  0.00     0.198 A 
ATOM     89  F   UNL A   1      43.581  25.627  35.037  1.00  0.00    -0.203 F 
ATOM     90  F   UNL A   1      48.381  28.221  34.921  1.00  0.00    -0.200 F 
ATOM     91  C   UNL A   1      47.037  26.456  35.731  1.00  0.00     0.200 A 
ATOM     92  F   UNL A   1      45.661  24.698  36.498  1.00  0.00    -0.200 F 
ATOM     93  F   UNL A   1      48.072  25.969  36.430  1.00  0.00    -0.200 F 
ENDBRANCH  60  83
ENDBRANCH  34  35
ENDBRANCH  26  29
ENDBRANCH  24  25
ENDBRANCH  23  24
ENDBRANCH   1  23
TORSDOF 14
ENDMDL
MODEL 3
REMARK VINA RESULT:     -11.0      2.490      4.279
REMARK SMILES Cn1cccc1C[NH2+]Cc1ccc(C(=O)NCCCNC(=O)c2ccc(-c3c4nc(c(-c5c(F)c(F)c(F)c(F)c5F)c5ccc([nH]5)c(-c5c(F)c(F)c(F)c(F)c5F)c5nc(c(-c6c(F)c(F)c(F)c(F)c6F)c6ccc3[nH]6)C=C5)C=C4)cc2)cc1
REMARK SMILES IDX 17 1 16 2 14 3 15 4 13 6 10 7 11 8 87 9 12 10 86 11 9 12
REMARK SMILES IDX 8 13 7 16 6 17 1 18 2 19 3 20 4 21 5 22 18 23 19 24 20 25
REMARK SMILES IDX 21 26 22 28 23 29 24 30 85 31 25 32 84 33 26 34 27 35 28 36
REMARK SMILES IDX 78 37 29 38 83 39 77 40 79 41 30 42 82 43 76 44 75 45 31 47
REMARK SMILES IDX 63 48 43 49 62 50 44 51 47 52 61 53 80 54 45 55 46 56 60 58
REMARK SMILES IDX 81 59 48 60 32 61 33 62 41 63 34 64 35 65 39 66 42 67 36 68
REMARK SMILES IDX 37 69 40 70 38 71 64 72 65 73 73 74 66 75 67 76 71 77 74 78
REMARK SMILES IDX 68 79 69 80 72 81 70 82 49 83 50 84 58 85 51 86 52 87 56 88
REMARK SMILES IDX 59 89 53 90 54 91 57 92 55 93
REMARK H PARENT 16 5 8 14 8 15 20 27 79 46 47 57
REMARK Flexibility Score: inf
ROOT
ATOM      1  C   UNL A   1      31.882  27.256  25.308  1.00  0.00     0.118 C 
ENDROOT
BRANCH   1   2
ATOM      2  N   UNL A   1      30.694  26.610  25.839  1.00  0.00    -0.352 N 
ATOM      3  C   UNL A   1      30.453  25.289  26.133  1.00  0.00     0.251 C 
ATOM      4  O   UNL A   1      29.409  24.986  26.704  1.00  0.00    -0.269 OA
ATOM      5  H   UNL A   1      29.938  27.216  26.016  1.00  0.00     0.163 HD
BRANCH   3   6
ATOM      6  C   UNL A   1      31.452  24.239  25.829  1.00  0.00     0.039 A 
ATOM      7  C   UNL A   1      33.462  22.362  25.224  1.00  0.00     0.006 A 
ATOM      8  C   UNL A   1      33.676  23.353  26.195  1.00  0.00     0.010 A 
ATOM      9  C   UNL A   1      32.192  22.266  24.639  1.00  0.00     0.010 A 
ATOM     10  C   UNL A   1      32.678  24.285  26.497  1.00  0.00     0.014 A 
ATOM     11  C   UNL A   1      31.194  23.195  24.941  1.00  0.00     0.014 A 
BRANCH   7  12
ATOM     12  C   UNL A   1      34.585  21.401  24.887  1.00  0.00     0.297 C 
BRANCH  12  13
ATOM     13  N   UNL A   1      35.746  21.999  24.234  1.00  0.00    -0.338 N 
ATOM     14  H   UNL A   1      35.641  21.889  23.226  1.00  0.00     0.346 HD
ATOM     15  H   UNL A   1      35.776  22.979  24.519  1.00  0.00     0.346 HD
BRANCH  13  16
ATOM     16  C   UNL A   1      37.017  21.405  24.631  1.00  0.00     0.316 C 
BRANCH  16  17
ATOM     17  C   UNL A   1      37.763  22.394  25.474  1.00  0.00     0.072 A 
ATOM     18  C   UNL A   1      39.750  20.943  26.126  1.00  0.00     0.149 C 
ATOM     19  N   UNL A   1      38.959  22.154  26.119  1.00  0.00    -0.350 N 
ATOM     20  C   UNL A   1      39.343  23.282  26.807  1.00  0.00     0.085 A 
ATOM     21  C   UNL A   1      38.393  24.254  26.608  1.00  0.00     0.020 A 
ATOM     22  C   UNL A   1      37.403  23.700  25.771  1.00  0.00     0.029 A 
ENDBRANCH  16  17
ENDBRANCH  13  16
ENDBRANCH  12  13
ENDBRANCH   7  12
ENDBRANCH   3   6
ENDBRANCH   1   2
BRANCH   1  23
ATOM     23  C   UNL A   1      32.535  28.176  26.339  1.00  0.00     0.042 C 
BRANCH  23  24
ATOM     24  C   UNL A   1      33.431  29.250  25.730  1.00  0.00     0.118 C 
BRANCH  24  25
ATOM     25  N   UNL A   1      33.079  30.584  26.187  1.00  0.00    -0.352 N 
ATOM     26  C   UNL A   1      33.626  31.355  27.180  1.00  0.00     0.251 C 
ATOM     27  H   UNL A   1      32.328  30.999  25.706  1.00  0.00     0.163 HD
ATOM     28  O   UNL A   1      33.040  32.378  27.529  1.00  0.00    -0.269 OA
BRANCH  26  29
ATOM     29  C   UNL A   1      34.896  30.981  27.846  1.00  0.00     0.039 A 
ATOM     30  C   UNL A   1      34.993  29.705  28.414  1.00  0.00     0.014 A 
ATOM     31  C   UNL A   1      35.954  31.883  27.996  1.00  0.00     0.014 A 
ATOM     32  C   UNL A   1      36.148  29.329  29.104  1.00  0.00     0.010 A 
ATOM     33  C   UNL A   1      37.134  31.485  28.624  1.00  0.00     0.010 A 
ATOM     34  C   UNL A   1      37.235  30.212  29.205  1.00  0.00    -0.014 A 
BRANCH  34  35
ATOM     35  C   UNL A   1      38.457  29.823  29.955  1.00  0.00     0.031 A 
ATOM     36  C   UNL A   1      38.686  30.333  31.352  1.00  0.00     0.074 A 
ATOM     37  C   UNL A   1      39.374  29.027  29.372  1.00  0.00     0.049 A 
ATOM     38  N   UNL A   1      39.688  30.104  32.166  1.00  0.00    -0.248 NA
ATOM     39  C   UNL A   1      37.666  31.240  31.901  1.00  0.00     0.031 C 
ATOM     40  C   UNL A   1      39.294  28.507  28.007  1.00  0.00     0.029 A 
ATOM     41  N   UNL A   1      40.552  28.516  29.855  1.00  0.00    -0.354 N 
ATOM     42  C   UNL A   1      39.425  30.846  33.310  1.00  0.00     0.074 A 
ATOM     43  C   UNL A   1      38.198  31.573  33.069  1.00  0.00     0.031 C 
ATOM     44  C   UNL A   1      40.363  27.730  27.770  1.00  0.00     0.029 A 
ATOM     45  C   UNL A   1      41.213  27.714  28.957  1.00  0.00     0.049 A 
ATOM     46  H   UNL A   1      40.892  28.707  30.759  1.00  0.00     0.167 HD
ATOM     47  C   UNL A   1      40.130  30.901  34.465  1.00  0.00     0.037 A 
ATOM     48  C   UNL A   1      42.368  27.033  29.083  1.00  0.00     0.037 A 
ATOM     49  C   UNL A   1      41.335  30.156  34.717  1.00  0.00     0.049 A 
ATOM     50  C   UNL A   1      43.111  27.080  30.390  1.00  0.00     0.074 A 
ATOM     51  C   UNL A   1      42.098  30.106  35.871  1.00  0.00     0.029 A 
ATOM     52  N   UNL A   1      41.952  29.321  33.796  1.00  0.00    -0.354 N 
ATOM     53  N   UNL A   1      42.818  27.735  31.486  1.00  0.00    -0.248 NA
ATOM     54  C   UNL A   1      44.337  26.274  30.481  1.00  0.00     0.031 C 
ATOM     55  C   UNL A   1      43.193  29.266  35.638  1.00  0.00     0.029 A 
ATOM     56  C   UNL A   1      43.089  28.759  34.353  1.00  0.00     0.049 A 
ATOM     57  H   UNL A   1      41.630  29.154  32.882  1.00  0.00     0.167 HD
ATOM     58  C   UNL A   1      43.803  27.400  32.405  1.00  0.00     0.074 A 
ATOM     59  C   UNL A   1      44.694  26.470  31.743  1.00  0.00     0.031 C 
ATOM     60  C   UNL A   1      43.957  27.826  33.683  1.00  0.00     0.037 A 
BRANCH  47  61
ATOM     61  C   UNL A   1      39.608  31.796  35.552  1.00  0.00     0.064 A 
ATOM     62  C   UNL A   1      40.060  33.117  35.697  1.00  0.00     0.173 A 
ATOM     63  C   UNL A   1      38.626  31.337  36.443  1.00  0.00     0.173 A 
ATOM     64  F   UNL A   1      41.008  33.599  34.879  1.00  0.00    -0.203 F 
ATOM     65  C   UNL A   1      39.570  33.935  36.711  1.00  0.00     0.198 A 
ATOM     66  C   UNL A   1      38.117  32.168  37.438  1.00  0.00     0.198 A 
ATOM     67  F   UNL A   1      38.155  30.085  36.347  1.00  0.00    -0.203 F 
ATOM     68  F   UNL A   1      40.053  35.176  36.861  1.00  0.00    -0.200 F 
ATOM     69  C   UNL A   1      38.595  33.463  37.577  1.00  0.00     0.200 A 
ATOM     70  F   UNL A   1      37.167  31.714  38.268  1.00  0.00    -0.200 F 
ATOM     71  F   UNL A   1      38.122  34.254  38.550  1.00  0.00    -0.200 F 
ENDBRANCH  47  61
BRANCH  48  72
ATOM     72  C   UNL A   1      42.867  26.208  27.954  1.00  0.00     0.064 A 
ATOM     73  C   UNL A   1      43.698  26.763  26.971  1.00  0.00     0.173 A 
ATOM     74  C   UNL A   1      42.523  24.855  27.831  1.00  0.00     0.173 A 
ATOM     75  F   UNL A   1      44.038  28.059  27.036  1.00  0.00    -0.203 F 
ATOM     76  C   UNL A   1      44.150  26.001  25.897  1.00  0.00     0.198 A 
ATOM     77  C   UNL A   1      42.996  24.086  26.770  1.00  0.00     0.198 A 
ATOM     78  F   UNL A   1      41.734  24.276  28.750  1.00  0.00    -0.203 F 
ATOM     79  F   UNL A   1      44.910  26.567  24.949  1.00  0.00    -0.200 F 
ATOM     80  C   UNL A   1      43.804  24.662  25.800  1.00  0.00     0.200 A 
ATOM     81  F   UNL A   1      42.670  22.789  26.687  1.00  0.00    -0.200 F 
ATOM     82  F   UNL A   1      44.241  23.927  24.769  1.00  0.00    -0.200 F 
ENDBRANCH  48  72
BRANCH  60  83
ATOM     83  C   UNL A   1      45.108  27.255  34.459  1.00  0.00     0.064 A 
ATOM     84  C   UNL A   1      46.361  27.885  34.488  1.00  0.00     0.173 A 
ATOM     85  C   UNL A   1      44.949  26.071  35.194  1.00  0.00     0.173 A 
ATOM     86  F   UNL A   1      46.567  29.011  33.789  1.00  0.00    -0.203 F 
ATOM     87  C   UNL A   1      47.423  27.331  35.198  1.00  0.00     0.198 A 
ATOM     88  C   UNL A   1      46.005  25.535  35.926  1.00  0.00     0.198 A 
ATOM     89  F   UNL A   1      43.769  25.435  35.204  1.00  0.00    -0.203 F 
ATOM     90  F   UNL A   1      48.627  27.919  35.167  1.00  0.00    -0.200 F 
ATOM     91  C   UNL A   1      47.243  26.160  35.920  1.00  0.00     0.200 A 
ATOM     92  F   UNL A   1      45.827  24.410  36.631  1.00  0.00    -0.200 F 
ATOM     93  F   UNL A   1      48.267  25.627  36.601  1.00  0.00    -0.200 F 
ENDBRANCH  60  83
ENDBRANCH  34  35
ENDBRANCH  26  29
ENDBRANCH  24  25
ENDBRANCH  23  24
ENDBRANCH   1  23
TORSDOF 14
ENDMDL
