MODEL 1
REMARK VINA RESULT:     -13.5      0.000      0.000
REMARK SMILES CN(C)S(=O)(=O)c1ccc(NC(=O)[C@@H]2CCCC[C@@H]2C(=O)NCCCNC(=O)c2ccc(-c3c4nc(c(-c5c(F)c(F)c(F)c(F)c5F)c5ccc([nH]5)c(-c5c(F)c(F)c(F)c(F)c5F)c5nc(c(-c6c(F)c(F)c(F)c(F)c6F)c6ccc3[nH]6)C=C5)C=C4)cc2)cc1
REMARK SMILES IDX 23 1 22 2 20 3 21 4 19 6 14 7 15 8 16 9 18 10 17 11 12 12
REMARK SMILES IDX 11 13 13 15 10 16 7 17 8 18 93 19 9 20 92 21 4 22 5 23 6 24
REMARK SMILES IDX 2 25 1 26 3 27 24 28 25 29 26 30 27 31 28 33 29 34 30 35
REMARK SMILES IDX 91 36 31 37 90 38 32 39 33 40 34 41 84 42 35 43 89 44 83 45
REMARK SMILES IDX 85 46 36 47 88 48 82 49 81 50 37 52 69 53 49 54 68 55 50 56
REMARK SMILES IDX 53 57 67 58 86 59 51 60 52 61 66 63 87 64 54 65 38 66 39 67
REMARK SMILES IDX 47 68 40 69 41 70 45 71 48 72 42 73 43 74 46 75 44 76 70 77
REMARK SMILES IDX 71 78 79 79 72 80 73 81 77 82 80 83 74 84 75 85 78 86 76 87
REMARK SMILES IDX 55 88 56 89 64 90 57 91 58 92 62 93 65 94 59 95 60 96 63 97
REMARK SMILES IDX 61 98
REMARK H PARENT 22 5 11 14 26 32 85 51 53 62
REMARK Flexibility Score: inf
ROOT
ATOM      1  C   UNL A   1      37.023  20.983  24.896  1.00  0.00     0.117 C 
ENDROOT
BRANCH   1   2
ATOM      2  N   UNL A   1      35.794  20.780  25.634  1.00  0.00    -0.356 N 
ATOM      3  C   UNL A   1      34.878  21.569  26.230  1.00  0.00     0.223 C 
ATOM      4  O   UNL A   1      33.887  20.941  26.624  1.00  0.00    -0.275 OA
ATOM      5  H   UNL A   1      35.571  19.826  25.724  1.00  0.00     0.163 HD
BRANCH   3   6
ATOM      6  C   UNL A   1      34.960  23.094  26.434  1.00  0.00     0.091 C 
ATOM      7  C   UNL A   1      33.589  23.745  26.095  1.00  0.00     0.091 C 
ATOM      8  C   UNL A   1      33.337  23.491  24.595  1.00  0.00     0.014 C 
ATOM      9  C   UNL A   1      34.307  24.363  23.798  1.00  0.00     0.001 C 
ATOM     10  C   UNL A   1      36.015  23.924  25.680  1.00  0.00     0.014 C 
ATOM     11  C   UNL A   1      35.761  24.082  24.168  1.00  0.00     0.001 C 
BRANCH   7  12
ATOM     12  C   UNL A   1      32.435  23.473  27.076  1.00  0.00     0.228 C 
ATOM     13  N   UNL A   1      31.222  24.110  26.935  1.00  0.00    -0.326 N 
ATOM     14  H   UNL A   1      30.500  23.752  27.500  1.00  0.00     0.169 HD
ATOM     15  O   UNL A   1      32.574  22.740  28.057  1.00  0.00    -0.274 OA
BRANCH  13  16
ATOM     16  C   UNL A   1      30.848  25.188  26.116  1.00  0.00     0.041 A 
ATOM     17  C   UNL A   1      30.595  27.145  24.144  1.00  0.00     0.082 A 
ATOM     18  C   UNL A   1      31.136  27.473  25.390  1.00  0.00     0.024 A 
ATOM     19  C   UNL A   1      30.003  25.897  23.954  1.00  0.00     0.024 A 
ATOM     20  C   UNL A   1      31.220  26.504  26.385  1.00  0.00     0.027 A 
ATOM     21  C   UNL A   1      30.134  24.914  24.946  1.00  0.00     0.027 A 
BRANCH  17  22
ATOM     22  S   UNL A   1      30.773  28.373  22.874  1.00  0.00     0.242 S 
ATOM     23  O   UNL A   1      30.742  27.670  21.604  1.00  0.00    -0.207 OA
ATOM     24  O   UNL A   1      31.918  29.169  23.257  1.00  0.00    -0.207 OA
BRANCH  22  25
ATOM     25  N   UNL A   1      29.392  29.384  22.929  1.00  0.00    -0.204 NA
ATOM     26  C   UNL A   1      29.366  30.341  21.789  1.00  0.00     0.124 C 
ATOM     27  C   UNL A   1      28.088  28.676  23.021  1.00  0.00     0.124 C 
ENDBRANCH  22  25
ENDBRANCH  17  22
ENDBRANCH  13  16
ENDBRANCH   7  12
ENDBRANCH   3   6
ENDBRANCH   1   2
BRANCH   1  28
ATOM     28  C   UNL A   1      38.001  19.837  25.074  1.00  0.00     0.042 C 
BRANCH  28  29
ATOM     29  C   UNL A   1      39.296  20.248  25.756  1.00  0.00     0.118 C 
BRANCH  29  30
ATOM     30  N   UNL A   1      40.246  19.148  25.877  1.00  0.00    -0.352 N 
ATOM     31  C   UNL A   1      41.608  19.160  26.065  1.00  0.00     0.251 C 
ATOM     32  H   UNL A   1      39.847  18.249  25.811  1.00  0.00     0.163 HD
ATOM     33  O   UNL A   1      42.257  18.129  25.924  1.00  0.00    -0.269 OA
BRANCH  31  34
ATOM     34  C   UNL A   1      42.296  20.424  26.400  1.00  0.00     0.039 A 
ATOM     35  C   UNL A   1      42.914  21.158  25.384  1.00  0.00     0.014 A 
ATOM     36  C   UNL A   1      42.314  20.898  27.711  1.00  0.00     0.014 A 
ATOM     37  C   UNL A   1      43.452  22.414  25.671  1.00  0.00     0.010 A 
ATOM     38  C   UNL A   1      42.734  22.196  27.969  1.00  0.00     0.010 A 
ATOM     39  C   UNL A   1      43.307  22.970  26.952  1.00  0.00    -0.014 A 
BRANCH  39  40
ATOM     40  C   UNL A   1      43.733  24.360  27.256  1.00  0.00     0.031 A 
ATOM     41  C   UNL A   1      42.727  25.365  27.752  1.00  0.00     0.074 A 
ATOM     42  C   UNL A   1      44.999  24.740  26.990  1.00  0.00     0.049 A 
ATOM     43  N   UNL A   1      42.876  26.648  27.963  1.00  0.00    -0.248 NA
ATOM     44  C   UNL A   1      41.364  24.871  28.009  1.00  0.00     0.031 C 
ATOM     45  C   UNL A   1      46.046  23.875  26.438  1.00  0.00     0.029 A 
ATOM     46  N   UNL A   1      45.619  25.957  27.129  1.00  0.00    -0.354 N 
ATOM     47  C   UNL A   1      41.625  27.114  28.350  1.00  0.00     0.074 A 
ATOM     48  C   UNL A   1      40.716  25.992  28.293  1.00  0.00     0.031 C 
ATOM     49  C   UNL A   1      47.181  24.580  26.311  1.00  0.00     0.029 A 
ATOM     50  C   UNL A   1      46.933  25.957  26.725  1.00  0.00     0.049 A 
ATOM     51  H   UNL A   1      45.165  26.755  27.485  1.00  0.00     0.167 HD
ATOM     52  C   UNL A   1      41.275  28.361  28.743  1.00  0.00     0.037 A 
ATOM     53  C   UNL A   1      47.832  26.959  26.680  1.00  0.00     0.037 A 
ATOM     54  C   UNL A   1      42.196  29.461  28.844  1.00  0.00     0.049 A 
ATOM     55  C   UNL A   1      47.415  28.331  27.139  1.00  0.00     0.074 A 
ATOM     56  C   UNL A   1      41.962  30.738  29.322  1.00  0.00     0.029 A 
ATOM     57  N   UNL A   1      43.528  29.414  28.460  1.00  0.00    -0.354 N 
ATOM     58  N   UNL A   1      46.253  28.735  27.591  1.00  0.00    -0.248 NA
ATOM     59  C   UNL A   1      48.436  29.386  27.084  1.00  0.00     0.031 C 
ATOM     60  C   UNL A   1      43.138  31.479  29.180  1.00  0.00     0.029 A 
ATOM     61  C   UNL A   1      44.120  30.648  28.663  1.00  0.00     0.049 A 
ATOM     62  H   UNL A   1      43.983  28.620  28.098  1.00  0.00     0.167 HD
ATOM     63  C   UNL A   1      46.408  30.080  27.896  1.00  0.00     0.074 A 
ATOM     64  C   UNL A   1      47.785  30.417  27.601  1.00  0.00     0.031 C 
ATOM     65  C   UNL A   1      45.494  30.960  28.370  1.00  0.00     0.037 A 
BRANCH  52  66
ATOM     66  C   UNL A   1      39.842  28.607  29.113  1.00  0.00     0.064 A 
ATOM     67  C   UNL A   1      39.373  28.401  30.419  1.00  0.00     0.173 A 
ATOM     68  C   UNL A   1      38.943  29.125  28.167  1.00  0.00     0.173 A 
ATOM     69  F   UNL A   1      40.187  27.896  31.357  1.00  0.00    -0.203 F 
ATOM     70  C   UNL A   1      38.054  28.689  30.760  1.00  0.00     0.198 A 
ATOM     71  C   UNL A   1      37.634  29.440  28.520  1.00  0.00     0.198 A 
ATOM     72  F   UNL A   1      39.342  29.343  26.905  1.00  0.00    -0.203 F 
ATOM     73  F   UNL A   1      37.619  28.451  32.006  1.00  0.00    -0.200 F 
ATOM     74  C   UNL A   1      37.190  29.219  29.815  1.00  0.00     0.200 A 
ATOM     75  F   UNL A   1      36.803  29.963  27.608  1.00  0.00    -0.200 F 
ATOM     76  F   UNL A   1      35.926  29.513  30.150  1.00  0.00    -0.200 F 
ENDBRANCH  52  66
BRANCH  53  77
ATOM     77  C   UNL A   1      49.214  26.710  26.190  1.00  0.00     0.064 A 
ATOM     78  C   UNL A   1      49.556  26.941  24.849  1.00  0.00     0.173 A 
ATOM     79  C   UNL A   1      50.213  26.208  27.038  1.00  0.00     0.173 A 
ATOM     80  F   UNL A   1      48.632  27.402  23.993  1.00  0.00    -0.203 F 
ATOM     81  C   UNL A   1      50.830  26.646  24.369  1.00  0.00     0.198 A 
ATOM     82  C   UNL A   1      51.497  25.945  26.564  1.00  0.00     0.198 A 
ATOM     83  F   UNL A   1      49.942  25.976  28.331  1.00  0.00    -0.203 F 
ATOM     84  F   UNL A   1      51.110  26.818  23.070  1.00  0.00    -0.200 F 
ATOM     85  C   UNL A   1      51.801  26.153  25.228  1.00  0.00     0.200 A 
ATOM     86  F   UNL A   1      52.435  25.484  27.401  1.00  0.00    -0.200 F 
ATOM     87  F   UNL A   1      53.024  25.865  24.764  1.00  0.00    -0.200 F 
ENDBRANCH  53  77
BRANCH  65  88
ATOM     88  C   UNL A   1      45.960  32.364  28.623  1.00  0.00     0.064 A 
ATOM     89  C   UNL A   1      45.894  33.349  27.627  1.00  0.00     0.173 A 
ATOM     90  C   UNL A   1      46.441  32.736  29.887  1.00  0.00     0.173 A 
ATOM     91  F   UNL A   1      45.456  33.039  26.398  1.00  0.00    -0.203 F 
ATOM     92  C   UNL A   1      46.319  34.650  27.881  1.00  0.00     0.198 A 
ATOM     93  C   UNL A   1      46.835  34.045  30.146  1.00  0.00     0.198 A 
ATOM     94  F   UNL A   1      46.517  31.832  30.876  1.00  0.00    -0.203 F 
ATOM     95  F   UNL A   1      46.295  35.563  26.899  1.00  0.00    -0.200 F 
ATOM     96  C   UNL A   1      46.780  34.999  29.141  1.00  0.00     0.200 A 
ATOM     97  F   UNL A   1      47.265  34.385  31.368  1.00  0.00    -0.200 F 
ATOM     98  F   UNL A   1      47.181  36.254  29.384  1.00  0.00    -0.200 F 
ENDBRANCH  65  88
ENDBRANCH  39  40
ENDBRANCH  31  34
ENDBRANCH  29  30
ENDBRANCH  28  29
ENDBRANCH   1  28
TORSDOF 14
ENDMDL
MODEL 2
REMARK VINA RESULT:     -13.5      0.177      1.567
REMARK SMILES CN(C)S(=O)(=O)c1ccc(NC(=O)[C@@H]2CCCC[C@@H]2C(=O)NCCCNC(=O)c2ccc(-c3c4nc(c(-c5c(F)c(F)c(F)c(F)c5F)c5ccc([nH]5)c(-c5c(F)c(F)c(F)c(F)c5F)c5nc(c(-c6c(F)c(F)c(F)c(F)c6F)c6ccc3[nH]6)C=C5)C=C4)cc2)cc1
REMARK SMILES IDX 23 1 22 2 20 3 21 4 19 6 14 7 15 8 16 9 18 10 17 11 12 12
REMARK SMILES IDX 11 13 13 15 10 16 7 17 8 18 93 19 9 20 92 21 4 22 5 23 6 24
REMARK SMILES IDX 2 25 1 26 3 27 24 28 25 29 26 30 27 31 28 33 29 34 30 35
REMARK SMILES IDX 91 36 31 37 90 38 32 39 33 40 34 41 84 42 35 43 89 44 83 45
REMARK SMILES IDX 85 46 36 47 88 48 82 49 81 50 37 52 69 53 49 54 68 55 50 56
REMARK SMILES IDX 53 57 67 58 86 59 51 60 52 61 66 63 87 64 54 65 38 66 39 67
REMARK SMILES IDX 47 68 40 69 41 70 45 71 48 72 42 73 43 74 46 75 44 76 70 77
REMARK SMILES IDX 71 78 79 79 72 80 73 81 77 82 80 83 74 84 75 85 78 86 76 87
REMARK SMILES IDX 55 88 56 89 64 90 57 91 58 92 62 93 65 94 59 95 60 96 63 97
REMARK SMILES IDX 61 98
REMARK H PARENT 22 5 11 14 26 32 85 51 53 62
REMARK Flexibility Score: inf
ROOT
ATOM      1  C   UNL A   1      37.079  20.899  24.881  1.00  0.00     0.117 C 
ENDROOT
BRANCH   1   2
ATOM      2  N   UNL A   1      35.827  20.677  25.572  1.00  0.00    -0.356 N 
ATOM      3  C   UNL A   1      34.915  21.447  26.201  1.00  0.00     0.223 C 
ATOM      4  O   UNL A   1      33.899  20.819  26.524  1.00  0.00    -0.275 OA
ATOM      5  H   UNL A   1      35.577  19.726  25.588  1.00  0.00     0.163 HD
BRANCH   3   6
ATOM      6  C   UNL A   1      35.030  22.950  26.515  1.00  0.00     0.091 C 
ATOM      7  C   UNL A   1      33.682  23.658  26.201  1.00  0.00     0.091 C 
ATOM      8  C   UNL A   1      33.453  23.520  24.683  1.00  0.00     0.014 C 
ATOM      9  C   UNL A   1      34.459  24.422  23.967  1.00  0.00     0.001 C 
ATOM     10  C   UNL A   1      36.119  23.806  25.842  1.00  0.00     0.014 C 
ATOM     11  C   UNL A   1      35.898  24.078  24.342  1.00  0.00     0.001 C 
BRANCH   7  12
ATOM     12  C   UNL A   1      32.503  23.346  27.139  1.00  0.00     0.228 C 
ATOM     13  N   UNL A   1      31.278  23.950  26.961  1.00  0.00    -0.326 N 
ATOM     14  H   UNL A   1      30.548  23.568  27.499  1.00  0.00     0.169 HD
ATOM     15  O   UNL A   1      32.629  22.610  28.120  1.00  0.00    -0.274 OA
BRANCH  13  16
ATOM     16  C   UNL A   1      30.902  25.024  26.137  1.00  0.00     0.041 A 
ATOM     17  C   UNL A   1      30.655  26.980  24.164  1.00  0.00     0.082 A 
ATOM     18  C   UNL A   1      31.166  27.315  25.421  1.00  0.00     0.024 A 
ATOM     19  C   UNL A   1      30.087  25.724  23.960  1.00  0.00     0.024 A 
ATOM     20  C   UNL A   1      31.247  26.345  26.416  1.00  0.00     0.027 A 
ATOM     21  C   UNL A   1      30.216  24.740  24.953  1.00  0.00     0.027 A 
BRANCH  17  22
ATOM     22  S   UNL A   1      30.837  28.215  22.901  1.00  0.00     0.242 S 
ATOM     23  O   UNL A   1      30.771  27.522  21.627  1.00  0.00    -0.207 OA
ATOM     24  O   UNL A   1      32.004  28.985  23.270  1.00  0.00    -0.207 OA
BRANCH  22  25
ATOM     25  N   UNL A   1      29.477  29.252  22.986  1.00  0.00    -0.204 NA
ATOM     26  C   UNL A   1      29.502  30.280  21.908  1.00  0.00     0.124 C 
ATOM     27  C   UNL A   1      28.156  28.572  23.001  1.00  0.00     0.124 C 
ENDBRANCH  22  25
ENDBRANCH  17  22
ENDBRANCH  13  16
ENDBRANCH   7  12
ENDBRANCH   3   6
ENDBRANCH   1   2
BRANCH   1  28
ATOM     28  C   UNL A   1      38.054  19.752  25.069  1.00  0.00     0.042 C 
BRANCH  28  29
ATOM     29  C   UNL A   1      39.342  20.160  25.765  1.00  0.00     0.118 C 
BRANCH  29  30
ATOM     30  N   UNL A   1      40.291  19.060  25.890  1.00  0.00    -0.352 N 
ATOM     31  C   UNL A   1      41.652  19.072  26.088  1.00  0.00     0.251 C 
ATOM     32  H   UNL A   1      39.893  18.162  25.821  1.00  0.00     0.163 HD
ATOM     33  O   UNL A   1      42.302  18.041  25.950  1.00  0.00    -0.269 OA
BRANCH  31  34
ATOM     34  C   UNL A   1      42.337  20.335  26.429  1.00  0.00     0.039 A 
ATOM     35  C   UNL A   1      43.016  21.038  25.430  1.00  0.00     0.014 A 
ATOM     36  C   UNL A   1      42.295  20.839  27.728  1.00  0.00     0.014 A 
ATOM     37  C   UNL A   1      43.554  22.295  25.716  1.00  0.00     0.010 A 
ATOM     38  C   UNL A   1      42.717  22.138  27.979  1.00  0.00     0.010 A 
ATOM     39  C   UNL A   1      43.351  22.882  26.975  1.00  0.00    -0.014 A 
BRANCH  39  40
ATOM     40  C   UNL A   1      43.779  24.274  27.269  1.00  0.00     0.031 A 
ATOM     41  C   UNL A   1      42.768  25.291  27.728  1.00  0.00     0.074 A 
ATOM     42  C   UNL A   1      45.052  24.643  27.026  1.00  0.00     0.049 A 
ATOM     43  N   UNL A   1      42.919  26.576  27.925  1.00  0.00    -0.248 NA
ATOM     44  C   UNL A   1      41.396  24.809  27.962  1.00  0.00     0.031 C 
ATOM     45  C   UNL A   1      46.106  23.764  26.510  1.00  0.00     0.029 A 
ATOM     46  N   UNL A   1      45.676  25.858  27.162  1.00  0.00    -0.354 N 
ATOM     47  C   UNL A   1      41.663  27.054  28.278  1.00  0.00     0.074 A 
ATOM     48  C   UNL A   1      40.749  25.936  28.216  1.00  0.00     0.031 C 
ATOM     49  C   UNL A   1      47.248  24.461  26.398  1.00  0.00     0.029 A 
ATOM     50  C   UNL A   1      46.999  25.845  26.787  1.00  0.00     0.049 A 
ATOM     51  H   UNL A   1      45.220  26.663  27.496  1.00  0.00     0.167 HD
ATOM     52  C   UNL A   1      41.312  28.309  28.645  1.00  0.00     0.037 A 
ATOM     53  C   UNL A   1      47.904  26.841  26.749  1.00  0.00     0.037 A 
ATOM     54  C   UNL A   1      42.237  29.405  28.752  1.00  0.00     0.049 A 
ATOM     55  C   UNL A   1      47.485  28.221  27.179  1.00  0.00     0.074 A 
ATOM     56  C   UNL A   1      42.000  30.690  29.207  1.00  0.00     0.029 A 
ATOM     57  N   UNL A   1      43.576  29.345  28.398  1.00  0.00    -0.354 N 
ATOM     58  N   UNL A   1      46.316  28.638  27.600  1.00  0.00    -0.248 NA
ATOM     59  C   UNL A   1      48.514  29.270  27.133  1.00  0.00     0.031 C 
ATOM     60  C   UNL A   1      43.183  31.422  29.081  1.00  0.00     0.029 A 
ATOM     61  C   UNL A   1      44.171  30.578  28.597  1.00  0.00     0.049 A 
ATOM     62  H   UNL A   1      44.035  28.543  28.057  1.00  0.00     0.167 HD
ATOM     63  C   UNL A   1      46.473  29.986  27.889  1.00  0.00     0.074 A 
ATOM     64  C   UNL A   1      47.858  30.312  27.621  1.00  0.00     0.031 C 
ATOM     65  C   UNL A   1      45.554  30.878  28.330  1.00  0.00     0.037 A 
BRANCH  52  66
ATOM     66  C   UNL A   1      39.872  28.568  28.979  1.00  0.00     0.064 A 
ATOM     67  C   UNL A   1      39.369  28.366  30.273  1.00  0.00     0.173 A 
ATOM     68  C   UNL A   1      39.002  29.094  28.012  1.00  0.00     0.173 A 
ATOM     69  F   UNL A   1      40.155  27.854  31.232  1.00  0.00    -0.203 F 
ATOM     70  C   UNL A   1      38.045  28.666  30.582  1.00  0.00     0.198 A 
ATOM     71  C   UNL A   1      37.688  29.421  28.332  1.00  0.00     0.198 A 
ATOM     72  F   UNL A   1      39.434  29.309  26.761  1.00  0.00    -0.203 F 
ATOM     73  F   UNL A   1      37.577  28.433  31.817  1.00  0.00    -0.200 F 
ATOM     74  C   UNL A   1      37.209  29.204  29.616  1.00  0.00     0.200 A 
ATOM     75  F   UNL A   1      36.884  29.952  27.400  1.00  0.00    -0.200 F 
ATOM     76  F   UNL A   1      35.941  29.510  29.919  1.00  0.00    -0.200 F 
ENDBRANCH  52  66
BRANCH  53  77
ATOM     77  C   UNL A   1      49.296  26.578  26.293  1.00  0.00     0.064 A 
ATOM     78  C   UNL A   1      50.276  26.130  27.190  1.00  0.00     0.173 A 
ATOM     79  C   UNL A   1      49.685  26.799  24.963  1.00  0.00     0.173 A 
ATOM     80  F   UNL A   1      49.960  25.922  28.478  1.00  0.00    -0.203 F 
ATOM     81  C   UNL A   1      51.596  25.947  26.784  1.00  0.00     0.198 A 
ATOM     82  C   UNL A   1      50.998  26.584  24.550  1.00  0.00     0.198 A 
ATOM     83  F   UNL A   1      48.786  27.221  24.062  1.00  0.00    -0.203 F 
ATOM     84  F   UNL A   1      52.525  25.579  27.678  1.00  0.00    -0.200 F 
ATOM     85  C   UNL A   1      51.955  26.170  25.464  1.00  0.00     0.200 A 
ATOM     86  F   UNL A   1      51.337  26.785  23.270  1.00  0.00    -0.200 F 
ATOM     87  F   UNL A   1      53.226  25.999  25.075  1.00  0.00    -0.200 F 
ENDBRANCH  53  77
BRANCH  65  88
ATOM     88  C   UNL A   1      46.022  32.283  28.574  1.00  0.00     0.064 A 
ATOM     89  C   UNL A   1      46.611  32.660  29.789  1.00  0.00     0.173 A 
ATOM     90  C   UNL A   1      45.915  33.252  27.565  1.00  0.00     0.173 A 
ATOM     91  F   UNL A   1      46.721  31.774  30.789  1.00  0.00    -0.203 F 
ATOM     92  C   UNL A   1      47.051  33.964  29.995  1.00  0.00     0.198 A 
ATOM     93  C   UNL A   1      46.386  34.547  27.763  1.00  0.00     0.198 A 
ATOM     94  F   UNL A   1      45.366  32.940  26.381  1.00  0.00    -0.203 F 
ATOM     95  F   UNL A   1      47.564  34.316  31.183  1.00  0.00    -0.200 F 
ATOM     96  C   UNL A   1      46.947  34.904  28.981  1.00  0.00     0.200 A 
ATOM     97  F   UNL A   1      46.299  35.449  26.776  1.00  0.00    -0.200 F 
ATOM     98  F   UNL A   1      47.378  36.156  29.179  1.00  0.00    -0.200 F 
ENDBRANCH  65  88
ENDBRANCH  39  40
ENDBRANCH  31  34
ENDBRANCH  29  30
ENDBRANCH  28  29
ENDBRANCH   1  28
TORSDOF 14
ENDMDL
MODEL 3
REMARK VINA RESULT:     -13.5      5.514     11.252
REMARK SMILES CN(C)S(=O)(=O)c1ccc(NC(=O)[C@@H]2CCCC[C@@H]2C(=O)NCCCNC(=O)c2ccc(-c3c4nc(c(-c5c(F)c(F)c(F)c(F)c5F)c5ccc([nH]5)c(-c5c(F)c(F)c(F)c(F)c5F)c5nc(c(-c6c(F)c(F)c(F)c(F)c6F)c6ccc3[nH]6)C=C5)C=C4)cc2)cc1
REMARK SMILES IDX 23 1 22 2 20 3 21 4 19 6 14 7 15 8 16 9 18 10 17 11 12 12
REMARK SMILES IDX 11 13 13 15 10 16 7 17 8 18 93 19 9 20 92 21 4 22 5 23 6 24
REMARK SMILES IDX 2 25 1 26 3 27 24 28 25 29 26 30 27 31 28 33 29 34 30 35
REMARK SMILES IDX 91 36 31 37 90 38 32 39 33 40 34 41 84 42 35 43 89 44 83 45
REMARK SMILES IDX 85 46 36 47 88 48 82 49 81 50 37 52 69 53 49 54 68 55 50 56
REMARK SMILES IDX 53 57 67 58 86 59 51 60 52 61 66 63 87 64 54 65 38 66 39 67
REMARK SMILES IDX 47 68 40 69 41 70 45 71 48 72 42 73 43 74 46 75 44 76 70 77
REMARK SMILES IDX 71 78 79 79 72 80 73 81 77 82 80 83 74 84 75 85 78 86 76 87
REMARK SMILES IDX 55 88 56 89 64 90 57 91 58 92 62 93 65 94 59 95 60 96 63 97
REMARK SMILES IDX 61 98
REMARK H PARENT 22 5 11 14 26 32 85 51 53 62
REMARK Flexibility Score: inf
ROOT
ATOM      1  C   UNL A   1      31.892  30.553  26.248  1.00  0.00     0.117 C 
ENDROOT
BRANCH   1   2
ATOM      2  N   UNL A   1      31.145  30.132  25.081  1.00  0.00    -0.356 N 
ATOM      3  C   UNL A   1      31.333  29.260  24.071  1.00  0.00     0.223 C 
ATOM      4  O   UNL A   1      30.329  29.125  23.360  1.00  0.00    -0.275 OA
ATOM      5  H   UNL A   1      30.283  30.600  25.006  1.00  0.00     0.163 HD
BRANCH   3   6
ATOM      6  C   UNL A   1      32.613  28.462  23.761  1.00  0.00     0.091 C 
ATOM      7  C   UNL A   1      32.299  26.939  23.768  1.00  0.00     0.091 C 
ATOM      8  C   UNL A   1      31.868  26.582  25.203  1.00  0.00     0.014 C 
ATOM      9  C   UNL A   1      33.103  26.653  26.102  1.00  0.00     0.001 C 
ATOM     10  C   UNL A   1      33.868  28.633  24.637  1.00  0.00     0.014 C 
ATOM     11  C   UNL A   1      33.764  28.028  26.050  1.00  0.00     0.001 C 
BRANCH   7  12
ATOM     12  C   UNL A   1      31.444  26.406  22.604  1.00  0.00     0.228 C 
ATOM     13  N   UNL A   1      31.383  25.058  22.331  1.00  0.00    -0.326 N 
ATOM     14  H   UNL A   1      30.689  24.799  21.684  1.00  0.00     0.169 HD
ATOM     15  O   UNL A   1      30.849  27.163  21.834  1.00  0.00    -0.274 OA
BRANCH  13  16
ATOM     16  C   UNL A   1      32.151  23.991  22.827  1.00  0.00     0.041 A 
ATOM     17  C   UNL A   1      33.782  22.265  24.290  1.00  0.00     0.082 A 
ATOM     18  C   UNL A   1      34.290  22.923  23.167  1.00  0.00     0.024 A 
ATOM     19  C   UNL A   1      32.416  22.314  24.563  1.00  0.00     0.024 A 
ATOM     20  C   UNL A   1      33.461  23.749  22.415  1.00  0.00     0.027 A 
ATOM     21  C   UNL A   1      31.598  23.186  23.827  1.00  0.00     0.027 A 
BRANCH  17  22
ATOM     22  S   UNL A   1      34.980  21.450  25.318  1.00  0.00     0.242 S 
ATOM     23  O   UNL A   1      35.035  20.067  24.880  1.00  0.00    -0.207 OA
ATOM     24  O   UNL A   1      34.623  21.787  26.678  1.00  0.00    -0.207 OA
BRANCH  22  25
ATOM     25  N   UNL A   1      36.509  22.148  24.990  1.00  0.00    -0.204 NA
ATOM     26  C   UNL A   1      36.767  23.336  25.849  1.00  0.00     0.124 C 
ATOM     27  C   UNL A   1      37.664  21.215  25.063  1.00  0.00     0.124 C 
ENDBRANCH  22  25
ENDBRANCH  17  22
ENDBRANCH  13  16
ENDBRANCH   7  12
ENDBRANCH   3   6
ENDBRANCH   1   2
BRANCH   1  28
ATOM     28  C   UNL A   1      31.557  31.972  26.668  1.00  0.00     0.042 C 
BRANCH  28  29
ATOM     29  C   UNL A   1      32.706  32.684  27.361  1.00  0.00     0.118 C 
BRANCH  29  30
ATOM     30  N   UNL A   1      32.422  34.090  27.629  1.00  0.00    -0.352 N 
ATOM     31  C   UNL A   1      32.955  34.947  28.563  1.00  0.00     0.251 C 
ATOM     32  H   UNL A   1      31.735  34.490  27.047  1.00  0.00     0.163 HD
ATOM     33  O   UNL A   1      32.427  36.035  28.771  1.00  0.00    -0.269 OA
BRANCH  31  34
ATOM     34  C   UNL A   1      34.142  34.543  29.344  1.00  0.00     0.039 A 
ATOM     35  C   UNL A   1      33.975  34.062  30.645  1.00  0.00     0.014 A 
ATOM     36  C   UNL A   1      35.418  34.617  28.789  1.00  0.00     0.014 A 
ATOM     37  C   UNL A   1      35.075  33.557  31.341  1.00  0.00     0.010 A 
ATOM     38  C   UNL A   1      36.486  34.001  29.428  1.00  0.00     0.010 A 
ATOM     39  C   UNL A   1      36.327  33.463  30.712  1.00  0.00    -0.014 A 
BRANCH  39  40
ATOM     40  C   UNL A   1      37.483  32.797  31.365  1.00  0.00     0.031 A 
ATOM     41  C   UNL A   1      38.154  31.625  30.698  1.00  0.00     0.074 A 
ATOM     42  C   UNL A   1      37.863  33.185  32.599  1.00  0.00     0.049 A 
ATOM     43  N   UNL A   1      39.098  30.843  31.154  1.00  0.00    -0.248 NA
ATOM     44  C   UNL A   1      37.674  31.260  29.354  1.00  0.00     0.031 C 
ATOM     45  C   UNL A   1      37.244  34.261  33.378  1.00  0.00     0.029 A 
ATOM     46  N   UNL A   1      38.850  32.708  33.425  1.00  0.00    -0.354 N 
ATOM     47  C   UNL A   1      39.303  29.885  30.169  1.00  0.00     0.074 A 
ATOM     48  C   UNL A   1      38.351  30.147  29.114  1.00  0.00     0.031 C 
ATOM     49  C   UNL A   1      37.879  34.377  34.554  1.00  0.00     0.029 A 
ATOM     50  C   UNL A   1      38.919  33.357  34.635  1.00  0.00     0.049 A 
ATOM     51  H   UNL A   1      39.452  31.971  33.176  1.00  0.00     0.167 HD
ATOM     52  C   UNL A   1      40.222  28.892  30.138  1.00  0.00     0.037 A 
ATOM     53  C   UNL A   1      39.721  33.144  35.695  1.00  0.00     0.037 A 
ATOM     54  C   UNL A   1      41.199  28.666  31.170  1.00  0.00     0.049 A 
ATOM     55  C   UNL A   1      40.743  32.041  35.623  1.00  0.00     0.074 A 
ATOM     56  C   UNL A   1      42.234  27.749  31.190  1.00  0.00     0.029 A 
ATOM     57  N   UNL A   1      41.261  29.368  32.365  1.00  0.00    -0.354 N 
ATOM     58  N   UNL A   1      40.988  31.202  34.646  1.00  0.00    -0.248 NA
ATOM     59  C   UNL A   1      41.604  31.858  36.800  1.00  0.00     0.031 C 
ATOM     60  C   UNL A   1      42.891  27.860  32.418  1.00  0.00     0.029 A 
ATOM     61  C   UNL A   1      42.299  28.883  33.142  1.00  0.00     0.049 A 
ATOM     62  H   UNL A   1      40.657  30.102  32.621  1.00  0.00     0.167 HD
ATOM     63  C   UNL A   1      42.042  30.409  35.079  1.00  0.00     0.074 A 
ATOM     64  C   UNL A   1      42.408  30.885  36.397  1.00  0.00     0.031 C 
ATOM     65  C   UNL A   1      42.649  29.376  34.448  1.00  0.00     0.037 A 
BRANCH  52  66
ATOM     66  C   UNL A   1      40.235  27.979  28.947  1.00  0.00     0.064 A 
ATOM     67  C   UNL A   1      40.966  28.290  27.790  1.00  0.00     0.173 A 
ATOM     68  C   UNL A   1      39.567  26.746  28.990  1.00  0.00     0.173 A 
ATOM     69  F   UNL A   1      41.612  29.461  27.693  1.00  0.00    -0.203 F 
ATOM     70  C   UNL A   1      41.015  27.407  26.715  1.00  0.00     0.198 A 
ATOM     71  C   UNL A   1      39.643  25.852  27.925  1.00  0.00     0.198 A 
ATOM     72  F   UNL A   1      38.857  26.399  30.073  1.00  0.00    -0.203 F 
ATOM     73  F   UNL A   1      41.691  27.740  25.607  1.00  0.00    -0.200 F 
ATOM     74  C   UNL A   1      40.364  26.184  26.788  1.00  0.00     0.200 A 
ATOM     75  F   UNL A   1      39.023  24.666  28.002  1.00  0.00    -0.200 F 
ATOM     76  F   UNL A   1      40.428  25.327  25.760  1.00  0.00    -0.200 F 
ENDBRANCH  52  66
BRANCH  53  77
ATOM     77  C   UNL A   1      39.600  33.987  36.915  1.00  0.00     0.064 A 
ATOM     78  C   UNL A   1      38.825  33.570  38.007  1.00  0.00     0.173 A 
ATOM     79  C   UNL A   1      40.227  35.239  37.004  1.00  0.00     0.173 A 
ATOM     80  F   UNL A   1      38.189  32.389  37.963  1.00  0.00    -0.203 F 
ATOM     81  C   UNL A   1      38.653  34.386  39.123  1.00  0.00     0.198 A 
ATOM     82  C   UNL A   1      40.082  36.040  38.135  1.00  0.00     0.198 A 
ATOM     83  F   UNL A   1      40.985  35.684  35.991  1.00  0.00    -0.203 F 
ATOM     84  F   UNL A   1      37.857  33.987  40.124  1.00  0.00    -0.200 F 
ATOM     85  C   UNL A   1      39.286  35.618  39.189  1.00  0.00     0.200 A 
ATOM     86  F   UNL A   1      40.707  37.222  38.201  1.00  0.00    -0.200 F 
ATOM     87  F   UNL A   1      39.116  36.403  40.260  1.00  0.00    -0.200 F 
ENDBRANCH  53  77
BRANCH  65  88
ATOM     88  C   UNL A   1      43.786  28.707  35.163  1.00  0.00     0.064 A 
ATOM     89  C   UNL A   1      45.108  29.153  35.019  1.00  0.00     0.173 A 
ATOM     90  C   UNL A   1      43.545  27.633  36.033  1.00  0.00     0.173 A 
ATOM     91  F   UNL A   1      45.391  30.167  34.188  1.00  0.00    -0.203 F 
ATOM     92  C   UNL A   1      46.150  28.530  35.699  1.00  0.00     0.198 A 
ATOM     93  C   UNL A   1      44.585  27.034  36.736  1.00  0.00     0.198 A 
ATOM     94  F   UNL A   1      42.297  27.174  36.212  1.00  0.00    -0.203 F 
ATOM     95  F   UNL A   1      47.412  28.940  35.507  1.00  0.00    -0.200 F 
ATOM     96  C   UNL A   1      45.888  27.478  36.563  1.00  0.00     0.200 A 
ATOM     97  F   UNL A   1      44.328  26.027  37.582  1.00  0.00    -0.200 F 
ATOM     98  F   UNL A   1      46.892  26.885  37.222  1.00  0.00    -0.200 F 
ENDBRANCH  65  88
ENDBRANCH  39  40
ENDBRANCH  31  34
ENDBRANCH  29  30
ENDBRANCH  28  29
ENDBRANCH   1  28
TORSDOF 14
ENDMDL
