MODEL 1
REMARK VINA RESULT:     -13.3      0.000      0.000
REMARK SMILES Cc1ccc(-c2cccc(F)c2C(=O)NCCCNC(=O)c2ccc(-c3c4nc(c(-c5c(F)c(F)c(F)c(F)c5F)c5ccc([nH]5)c(-c5c(F)c(F)c(F)c(F)c5F)c5nc(c(-c6c(F)c(F)c(F)c(F)c6F)c6ccc3[nH]6)C=C5)C=C4)cc2)c(C)c1
REMARK SMILES IDX 17 1 16 2 15 3 13 4 14 5 12 7 6 8 7 9 8 10 10 11 9 12 11 13
REMARK SMILES IDX 5 14 1 15 2 16 3 17 87 18 4 19 85 20 86 21 18 22 19 23 20 24
REMARK SMILES IDX 21 26 22 27 23 28 84 29 24 30 83 31 25 32 26 33 27 34 77 35
REMARK SMILES IDX 28 36 82 37 76 38 78 39 29 40 81 41 75 42 74 43 30 45 62 46
REMARK SMILES IDX 42 47 61 48 43 49 46 50 60 51 79 52 44 53 45 54 59 56 80 57
REMARK SMILES IDX 47 58 31 59 32 60 40 61 33 62 34 63 38 64 41 65 35 66 36 67
REMARK SMILES IDX 39 68 37 69 63 70 64 71 72 72 65 73 66 74 70 75 73 76 67 77
REMARK SMILES IDX 68 78 71 79 69 80 48 81 49 82 57 83 50 84 51 85 55 86 58 87
REMARK SMILES IDX 52 88 53 89 56 90 54 91
REMARK H PARENT 15 6 19 25 78 44 46 55
REMARK Flexibility Score: inf
ROOT
ATOM      1  C   UNL A   1      31.438  32.092  26.484  1.00  0.00     0.042 C 
ENDROOT
BRANCH   1   2
ATOM      2  C   UNL A   1      31.451  30.578  26.330  1.00  0.00     0.118 C 
BRANCH   2   3
ATOM      3  N   UNL A   1      32.336  30.074  25.291  1.00  0.00    -0.352 N 
ATOM      4  C   UNL A   1      32.135  29.308  24.162  1.00  0.00     0.254 C 
ATOM      5  O   UNL A   1      33.066  29.296  23.356  1.00  0.00    -0.269 OA
ATOM      6  H   UNL A   1      33.277  30.333  25.423  1.00  0.00     0.163 HD
BRANCH   4   7
ATOM      7  C   UNL A   1      30.922  28.474  23.914  1.00  0.00     0.083 A 
ATOM      8  C   UNL A   1      30.949  27.068  24.123  1.00  0.00    -0.002 A 
ATOM      9  C   UNL A   1      29.752  26.328  23.962  1.00  0.00     0.010 A 
ATOM     10  C   UNL A   1      28.564  26.937  23.569  1.00  0.00     0.004 A 
ATOM     11  C   UNL A   1      29.746  29.031  23.398  1.00  0.00     0.136 A 
ATOM     12  C   UNL A   1      28.569  28.289  23.266  1.00  0.00     0.040 A 
ATOM     13  F   UNL A   1      29.720  30.283  22.920  1.00  0.00    -0.206 F 
BRANCH   8  14
ATOM     14  C   UNL A   1      32.171  26.280  24.388  1.00  0.00    -0.015 A 
ATOM     15  C   UNL A   1      35.734  24.056  25.466  1.00  0.00     0.044 C 
ATOM     16  C   UNL A   1      34.510  24.844  25.105  1.00  0.00    -0.051 A 
ATOM     17  C   UNL A   1      33.656  25.329  26.092  1.00  0.00     0.004 A 
ATOM     18  C   UNL A   1      34.193  25.083  23.761  1.00  0.00     0.007 A 
ATOM     19  C   UNL A   1      32.507  26.035  25.737  1.00  0.00     0.009 A 
ATOM     20  C   UNL A   1      33.040  25.805  23.387  1.00  0.00    -0.043 A 
ATOM     21  C   UNL A   1      32.774  25.987  21.919  1.00  0.00     0.045 C 
ENDBRANCH   8  14
ENDBRANCH   4   7
ENDBRANCH   2   3
ENDBRANCH   1   2
BRANCH   1  22
ATOM     22  C   UNL A   1      32.647  32.705  27.176  1.00  0.00     0.118 C 
BRANCH  22  23
ATOM     23  N   UNL A   1      32.442  34.083  27.602  1.00  0.00    -0.352 N 
ATOM     24  C   UNL A   1      33.036  34.834  28.588  1.00  0.00     0.251 C 
ATOM     25  H   UNL A   1      31.751  34.563  27.092  1.00  0.00     0.163 HD
ATOM     26  O   UNL A   1      32.569  35.933  28.871  1.00  0.00    -0.269 OA
BRANCH  24  27
ATOM     27  C   UNL A   1      34.215  34.336  29.336  1.00  0.00     0.039 A 
ATOM     28  C   UNL A   1      34.014  33.702  30.569  1.00  0.00     0.014 A 
ATOM     29  C   UNL A   1      35.515  34.524  28.866  1.00  0.00     0.014 A 
ATOM     30  C   UNL A   1      35.104  33.189  31.278  1.00  0.00     0.010 A 
ATOM     31  C   UNL A   1      36.589  33.928  29.523  1.00  0.00     0.010 A 
ATOM     32  C   UNL A   1      36.398  33.254  30.738  1.00  0.00    -0.014 A 
BRANCH  32  33
ATOM     33  C   UNL A   1      37.560  32.626  31.422  1.00  0.00     0.031 A 
ATOM     34  C   UNL A   1      38.281  31.469  30.784  1.00  0.00     0.074 A 
ATOM     35  C   UNL A   1      37.917  33.049  32.652  1.00  0.00     0.049 A 
ATOM     36  N   UNL A   1      39.249  30.731  31.267  1.00  0.00    -0.248 NA
ATOM     37  C   UNL A   1      37.841  31.065  29.437  1.00  0.00     0.031 C 
ATOM     38  C   UNL A   1      37.259  34.122  33.399  1.00  0.00     0.029 A 
ATOM     39  N   UNL A   1      38.910  32.619  33.499  1.00  0.00    -0.354 N 
ATOM     40  C   UNL A   1      39.517  29.772  30.298  1.00  0.00     0.074 A 
ATOM     41  C   UNL A   1      38.581  29.987  29.218  1.00  0.00     0.031 C 
ATOM     42  C   UNL A   1      37.877  34.281  34.581  1.00  0.00     0.029 A 
ATOM     43  C   UNL A   1      38.944  33.292  34.697  1.00  0.00     0.049 A 
ATOM     44  H   UNL A   1      39.538  31.896  33.269  1.00  0.00     0.167 HD
ATOM     45  C   UNL A   1      40.473  28.816  30.303  1.00  0.00     0.037 A 
ATOM     46  C   UNL A   1      39.734  33.122  35.776  1.00  0.00     0.037 A 
ATOM     47  C   UNL A   1      41.436  28.640  31.358  1.00  0.00     0.049 A 
ATOM     48  C   UNL A   1      40.802  32.062  35.742  1.00  0.00     0.074 A 
ATOM     49  C   UNL A   1      42.497  27.754  31.409  1.00  0.00     0.029 A 
ATOM     50  N   UNL A   1      41.458  29.365  32.540  1.00  0.00    -0.354 N 
ATOM     51  N   UNL A   1      41.089  31.211  34.788  1.00  0.00    -0.248 NA
ATOM     52  C   UNL A   1      41.660  31.939  36.929  1.00  0.00     0.031 C 
ATOM     53  C   UNL A   1      43.128  27.903  32.646  1.00  0.00     0.029 A 
ATOM     54  C   UNL A   1      42.499  28.924  33.338  1.00  0.00     0.049 A 
ATOM     55  H   UNL A   1      40.827  30.084  32.775  1.00  0.00     0.167 HD
ATOM     56  C   UNL A   1      42.169  30.471  35.247  1.00  0.00     0.074 A 
ATOM     57  C   UNL A   1      42.501  30.984  36.558  1.00  0.00     0.031 C 
ATOM     58  C   UNL A   1      42.824  29.453  34.637  1.00  0.00     0.037 A 
BRANCH  45  59
ATOM     59  C   UNL A   1      40.566  27.888  29.127  1.00  0.00     0.064 A 
ATOM     60  C   UNL A   1      41.386  28.211  28.035  1.00  0.00     0.173 A 
ATOM     61  C   UNL A   1      39.745  26.756  29.021  1.00  0.00     0.173 A 
ATOM     62  F   UNL A   1      42.186  29.287  28.084  1.00  0.00    -0.203 F 
ATOM     63  C   UNL A   1      41.356  27.452  26.868  1.00  0.00     0.198 A 
ATOM     64  C   UNL A   1      39.738  25.984  27.862  1.00  0.00     0.198 A 
ATOM     65  F   UNL A   1      38.951  26.401  30.042  1.00  0.00    -0.203 F 
ATOM     66  F   UNL A   1      42.110  27.810  25.819  1.00  0.00    -0.200 F 
ATOM     67  C   UNL A   1      40.531  26.342  26.782  1.00  0.00     0.200 A 
ATOM     68  F   UNL A   1      38.953  24.901  27.786  1.00  0.00    -0.200 F 
ATOM     69  F   UNL A   1      40.494  25.619  25.654  1.00  0.00    -0.200 F 
ENDBRANCH  45  59
BRANCH  46  70
ATOM     70  C   UNL A   1      39.551  33.987  36.973  1.00  0.00     0.064 A 
ATOM     71  C   UNL A   1      38.779  33.564  38.066  1.00  0.00     0.173 A 
ATOM     72  C   UNL A   1      40.142  35.256  37.049  1.00  0.00     0.173 A 
ATOM     73  F   UNL A   1      38.185  32.361  38.044  1.00  0.00    -0.203 F 
ATOM     74  C   UNL A   1      38.595  34.381  39.179  1.00  0.00     0.198 A 
ATOM     75  C   UNL A   1      39.985  36.059  38.178  1.00  0.00     0.198 A 
ATOM     76  F   UNL A   1      40.907  35.699  36.040  1.00  0.00    -0.203 F 
ATOM     77  F   UNL A   1      37.824  33.964  40.194  1.00  0.00    -0.200 F 
ATOM     78  C   UNL A   1      39.204  35.624  39.238  1.00  0.00     0.200 A 
ATOM     79  F   UNL A   1      40.601  37.246  38.242  1.00  0.00    -0.200 F 
ATOM     80  F   UNL A   1      39.046  36.400  40.319  1.00  0.00    -0.200 F 
ENDBRANCH  46  70
BRANCH  58  81
ATOM     81  C   UNL A   1      43.983  28.832  35.361  1.00  0.00     0.064 A 
ATOM     82  C   UNL A   1      43.768  27.811  36.300  1.00  0.00     0.173 A 
ATOM     83  C   UNL A   1      45.290  29.311  35.197  1.00  0.00     0.173 A 
ATOM     84  F   UNL A   1      42.533  27.326  36.501  1.00  0.00    -0.203 F 
ATOM     85  C   UNL A   1      44.816  27.308  37.063  1.00  0.00     0.198 A 
ATOM     86  C   UNL A   1      46.342  28.783  35.940  1.00  0.00     0.198 A 
ATOM     87  F   UNL A   1      45.548  30.279  34.305  1.00  0.00    -0.203 F 
ATOM     88  F   UNL A   1      44.580  26.365  37.985  1.00  0.00    -0.200 F 
ATOM     89  C   UNL A   1      46.103  27.792  36.880  1.00  0.00     0.200 A 
ATOM     90  F   UNL A   1      47.589  29.235  35.746  1.00  0.00    -0.200 F 
ATOM     91  F   UNL A   1      47.113  27.302  37.611  1.00  0.00    -0.200 F 
ENDBRANCH  58  81
ENDBRANCH  32  33
ENDBRANCH  24  27
ENDBRANCH  22  23
ENDBRANCH   1  22
TORSDOF 11
ENDMDL
MODEL 2
REMARK VINA RESULT:     -13.2      6.149     11.366
REMARK SMILES Cc1ccc(-c2cccc(F)c2C(=O)NCCCNC(=O)c2ccc(-c3c4nc(c(-c5c(F)c(F)c(F)c(F)c5F)c5ccc([nH]5)c(-c5c(F)c(F)c(F)c(F)c5F)c5nc(c(-c6c(F)c(F)c(F)c(F)c6F)c6ccc3[nH]6)C=C5)C=C4)cc2)c(C)c1
REMARK SMILES IDX 17 1 16 2 15 3 13 4 14 5 12 7 6 8 7 9 8 10 10 11 9 12 11 13
REMARK SMILES IDX 5 14 1 15 2 16 3 17 87 18 4 19 85 20 86 21 18 22 19 23 20 24
REMARK SMILES IDX 21 26 22 27 23 28 84 29 24 30 83 31 25 32 26 33 27 34 77 35
REMARK SMILES IDX 28 36 82 37 76 38 78 39 29 40 81 41 75 42 74 43 30 45 62 46
REMARK SMILES IDX 42 47 61 48 43 49 46 50 60 51 79 52 44 53 45 54 59 56 80 57
REMARK SMILES IDX 47 58 31 59 32 60 40 61 33 62 34 63 38 64 41 65 35 66 36 67
REMARK SMILES IDX 39 68 37 69 63 70 64 71 72 72 65 73 66 74 70 75 73 76 67 77
REMARK SMILES IDX 68 78 71 79 69 80 48 81 49 82 57 83 50 84 51 85 55 86 58 87
REMARK SMILES IDX 52 88 53 89 56 90 54 91
REMARK H PARENT 15 6 19 25 78 44 46 55
REMARK Flexibility Score: inf
ROOT
ATOM      1  C   UNL A   1      37.830  19.666  25.001  1.00  0.00     0.042 C 
ENDROOT
BRANCH   1   2
ATOM      2  C   UNL A   1      36.774  20.699  24.633  1.00  0.00     0.118 C 
BRANCH   2   3
ATOM      3  N   UNL A   1      35.843  21.033  25.699  1.00  0.00    -0.352 N 
ATOM      4  C   UNL A   1      34.470  20.974  25.813  1.00  0.00     0.254 C 
ATOM      5  O   UNL A   1      34.027  21.078  26.957  1.00  0.00    -0.269 OA
ATOM      6  H   UNL A   1      36.286  21.374  26.509  1.00  0.00     0.163 HD
BRANCH   4   7
ATOM      7  C   UNL A   1      33.531  20.865  24.657  1.00  0.00     0.083 A 
ATOM      8  C   UNL A   1      32.969  22.028  24.062  1.00  0.00    -0.002 A 
ATOM      9  C   UNL A   1      32.155  21.884  22.913  1.00  0.00     0.010 A 
ATOM     10  C   UNL A   1      31.863  20.633  22.376  1.00  0.00     0.004 A 
ATOM     11  C   UNL A   1      33.115  19.621  24.170  1.00  0.00     0.136 A 
ATOM     12  C   UNL A   1      32.329  19.499  23.022  1.00  0.00     0.040 A 
ATOM     13  F   UNL A   1      33.377  18.488  24.838  1.00  0.00    -0.206 F 
BRANCH   8  14
ATOM     14  C   UNL A   1      33.072  23.392  24.622  1.00  0.00    -0.015 A 
ATOM     15  C   UNL A   1      33.654  27.417  26.127  1.00  0.00     0.044 C 
ATOM     16  C   UNL A   1      33.474  26.019  25.614  1.00  0.00    -0.051 A 
ATOM     17  C   UNL A   1      34.309  25.510  24.623  1.00  0.00     0.004 A 
ATOM     18  C   UNL A   1      32.442  25.210  26.109  1.00  0.00     0.007 A 
ATOM     19  C   UNL A   1      34.109  24.218  24.137  1.00  0.00     0.009 A 
ATOM     20  C   UNL A   1      32.234  23.897  25.635  1.00  0.00    -0.043 A 
ATOM     21  C   UNL A   1      31.086  23.119  26.211  1.00  0.00     0.045 C 
ENDBRANCH   8  14
ENDBRANCH   4   7
ENDBRANCH   2   3
ENDBRANCH   1   2
BRANCH   1  22
ATOM     22  C   UNL A   1      39.040  20.187  25.761  1.00  0.00     0.118 C 
BRANCH  22  23
ATOM     23  N   UNL A   1      40.104  19.203  25.913  1.00  0.00    -0.352 N 
ATOM     24  C   UNL A   1      41.454  19.341  26.126  1.00  0.00     0.251 C 
ATOM     25  H   UNL A   1      39.799  18.269  25.852  1.00  0.00     0.163 HD
ATOM     26  O   UNL A   1      42.179  18.354  26.050  1.00  0.00    -0.269 OA
BRANCH  24  27
ATOM     27  C   UNL A   1      42.060  20.662  26.421  1.00  0.00     0.039 A 
ATOM     28  C   UNL A   1      42.465  21.472  25.353  1.00  0.00     0.014 A 
ATOM     29  C   UNL A   1      42.278  21.093  27.730  1.00  0.00     0.014 A 
ATOM     30  C   UNL A   1      43.005  22.739  25.600  1.00  0.00     0.010 A 
ATOM     31  C   UNL A   1      42.723  22.390  27.974  1.00  0.00     0.010 A 
ATOM     32  C   UNL A   1      43.095  23.229  26.913  1.00  0.00    -0.014 A 
BRANCH  32  33
ATOM     33  C   UNL A   1      43.568  24.610  27.197  1.00  0.00     0.031 A 
ATOM     34  C   UNL A   1      42.608  25.651  27.707  1.00  0.00     0.074 A 
ATOM     35  C   UNL A   1      44.845  24.945  26.924  1.00  0.00     0.049 A 
ATOM     36  N   UNL A   1      42.810  26.928  27.918  1.00  0.00    -0.248 NA
ATOM     37  C   UNL A   1      41.230  25.213  27.988  1.00  0.00     0.031 C 
ATOM     38  C   UNL A   1      45.856  24.041  26.373  1.00  0.00     0.029 A 
ATOM     39  N   UNL A   1      45.511  26.140  27.057  1.00  0.00    -0.354 N 
ATOM     40  C   UNL A   1      41.589  27.442  28.336  1.00  0.00     0.074 A 
ATOM     41  C   UNL A   1      40.636  26.355  28.304  1.00  0.00     0.031 C 
ATOM     42  C   UNL A   1      47.015  24.704  26.235  1.00  0.00     0.029 A 
ATOM     43  C   UNL A   1      46.821  26.092  26.642  1.00  0.00     0.049 A 
ATOM     44  H   UNL A   1      45.089  26.954  27.415  1.00  0.00     0.167 HD
ATOM     45  C   UNL A   1      41.298  28.702  28.732  1.00  0.00     0.037 A 
ATOM     46  C   UNL A   1      47.757  27.060  26.580  1.00  0.00     0.037 A 
ATOM     47  C   UNL A   1      42.261  29.767  28.812  1.00  0.00     0.049 A 
ATOM     48  C   UNL A   1      47.407  28.448  27.048  1.00  0.00     0.074 A 
ATOM     49  C   UNL A   1      42.078  31.055  29.286  1.00  0.00     0.029 A 
ATOM     50  N   UNL A   1      43.587  29.669  28.415  1.00  0.00    -0.354 N 
ATOM     51  N   UNL A   1      46.267  28.900  27.508  1.00  0.00    -0.248 NA
ATOM     52  C   UNL A   1      48.472  29.460  26.992  1.00  0.00     0.031 C 
ATOM     53  C   UNL A   1      43.276  31.752  29.124  1.00  0.00     0.029 A 
ATOM     54  C   UNL A   1      44.223  30.883  28.608  1.00  0.00     0.049 A 
ATOM     55  H   UNL A   1      44.010  28.857  28.051  1.00  0.00     0.167 HD
ATOM     56  C   UNL A   1      46.481  30.235  27.818  1.00  0.00     0.074 A 
ATOM     57  C   UNL A   1      47.867  30.519  27.511  1.00  0.00     0.031 C 
ATOM     58  C   UNL A   1      45.607  31.146  28.309  1.00  0.00     0.037 A 
BRANCH  45  59
ATOM     59  C   UNL A   1      39.890  29.018  29.144  1.00  0.00     0.064 A 
ATOM     60  C   UNL A   1      39.473  28.797  30.466  1.00  0.00     0.173 A 
ATOM     61  C   UNL A   1      38.922  29.406  28.207  1.00  0.00     0.173 A 
ATOM     62  F   UNL A   1      40.359  28.419  31.400  1.00  0.00    -0.203 F 
ATOM     63  C   UNL A   1      38.134  28.922  30.826  1.00  0.00     0.198 A 
ATOM     64  C   UNL A   1      37.589  29.556  28.576  1.00  0.00     0.198 A 
ATOM     65  F   UNL A   1      39.273  29.638  26.932  1.00  0.00    -0.203 F 
ATOM     66  F   UNL A   1      37.752  28.657  32.083  1.00  0.00    -0.200 F 
ATOM     67  C   UNL A   1      37.194  29.300  29.880  1.00  0.00     0.200 A 
ATOM     68  F   UNL A   1      36.683  29.938  27.665  1.00  0.00    -0.200 F 
ATOM     69  F   UNL A   1      35.903  29.409  30.224  1.00  0.00    -0.200 F 
ENDBRANCH  45  59
BRANCH  46  70
ATOM     70  C   UNL A   1      49.118  26.745  26.067  1.00  0.00     0.064 A 
ATOM     71  C   UNL A   1      50.098  26.181  26.899  1.00  0.00     0.173 A 
ATOM     72  C   UNL A   1      49.468  27.003  24.735  1.00  0.00     0.173 A 
ATOM     73  F   UNL A   1      49.818  25.918  28.184  1.00  0.00    -0.203 F 
ATOM     74  C   UNL A   1      51.376  25.901  26.421  1.00  0.00     0.198 A 
ATOM     75  C   UNL A   1      50.737  26.692  24.249  1.00  0.00     0.198 A 
ATOM     76  F   UNL A   1      48.562  27.523  23.893  1.00  0.00    -0.203 F 
ATOM     77  F   UNL A   1      52.302  25.394  27.247  1.00  0.00    -0.200 F 
ATOM     78  C   UNL A   1      51.693  26.149  25.094  1.00  0.00     0.200 A 
ATOM     79  F   UNL A   1      51.029  26.906  22.959  1.00  0.00    -0.200 F 
ATOM     80  F   UNL A   1      52.915  25.858  24.629  1.00  0.00    -0.200 F 
ENDBRANCH  46  70
BRANCH  58  81
ATOM     81  C   UNL A   1      46.113  32.535  28.571  1.00  0.00     0.064 A 
ATOM     82  C   UNL A   1      46.598  32.885  29.841  1.00  0.00     0.173 A 
ATOM     83  C   UNL A   1      46.031  33.540  27.597  1.00  0.00     0.173 A 
ATOM     84  F   UNL A   1      46.686  31.961  30.809  1.00  0.00    -0.203 F 
ATOM     85  C   UNL A   1      46.960  34.196  30.132  1.00  0.00     0.198 A 
ATOM     86  C   UNL A   1      46.424  34.844  27.882  1.00  0.00     0.198 A 
ATOM     87  F   UNL A   1      45.584  33.252  26.366  1.00  0.00    -0.203 F 
ATOM     88  F   UNL A   1      47.377  34.517  31.364  1.00  0.00    -0.200 F 
ATOM     89  C   UNL A   1      46.877  35.174  29.151  1.00  0.00     0.200 A 
ATOM     90  F   UNL A   1      46.365  35.783  26.928  1.00  0.00    -0.200 F 
ATOM     91  F   UNL A   1      47.232  36.435  29.431  1.00  0.00    -0.200 F 
ENDBRANCH  58  81
ENDBRANCH  32  33
ENDBRANCH  24  27
ENDBRANCH  22  23
ENDBRANCH   1  22
TORSDOF 11
ENDMDL
MODEL 3
REMARK VINA RESULT:     -13.2      6.161     11.397
REMARK SMILES Cc1ccc(-c2cccc(F)c2C(=O)NCCCNC(=O)c2ccc(-c3c4nc(c(-c5c(F)c(F)c(F)c(F)c5F)c5ccc([nH]5)c(-c5c(F)c(F)c(F)c(F)c5F)c5nc(c(-c6c(F)c(F)c(F)c(F)c6F)c6ccc3[nH]6)C=C5)C=C4)cc2)c(C)c1
REMARK SMILES IDX 17 1 16 2 15 3 13 4 14 5 12 7 6 8 7 9 8 10 10 11 9 12 11 13
REMARK SMILES IDX 5 14 1 15 2 16 3 17 87 18 4 19 85 20 86 21 18 22 19 23 20 24
REMARK SMILES IDX 21 26 22 27 23 28 84 29 24 30 83 31 25 32 26 33 27 34 77 35
REMARK SMILES IDX 28 36 82 37 76 38 78 39 29 40 81 41 75 42 74 43 30 45 62 46
REMARK SMILES IDX 42 47 61 48 43 49 46 50 60 51 79 52 44 53 45 54 59 56 80 57
REMARK SMILES IDX 47 58 31 59 32 60 40 61 33 62 34 63 38 64 41 65 35 66 36 67
REMARK SMILES IDX 39 68 37 69 63 70 64 71 72 72 65 73 66 74 70 75 73 76 67 77
REMARK SMILES IDX 68 78 71 79 69 80 48 81 49 82 57 83 50 84 51 85 55 86 58 87
REMARK SMILES IDX 52 88 53 89 56 90 54 91
REMARK H PARENT 15 6 19 25 78 44 46 55
REMARK Flexibility Score: inf
ROOT
ATOM      1  C   UNL A   1      37.877  19.700  25.001  1.00  0.00     0.042 C 
ENDROOT
BRANCH   1   2
ATOM      2  C   UNL A   1      36.827  20.744  24.648  1.00  0.00     0.118 C 
BRANCH   2   3
ATOM      3  N   UNL A   1      35.893  21.063  25.717  1.00  0.00    -0.352 N 
ATOM      4  C   UNL A   1      34.522  20.984  25.833  1.00  0.00     0.254 C 
ATOM      5  O   UNL A   1      34.080  21.079  26.979  1.00  0.00    -0.269 OA
ATOM      6  H   UNL A   1      36.333  21.409  26.527  1.00  0.00     0.163 HD
BRANCH   4   7
ATOM      7  C   UNL A   1      33.582  20.863  24.679  1.00  0.00     0.083 A 
ATOM      8  C   UNL A   1      33.010  22.019  24.081  1.00  0.00    -0.002 A 
ATOM      9  C   UNL A   1      32.196  21.865  22.933  1.00  0.00     0.010 A 
ATOM     10  C   UNL A   1      31.913  20.611  22.401  1.00  0.00     0.004 A 
ATOM     11  C   UNL A   1      33.176  19.614  24.197  1.00  0.00     0.136 A 
ATOM     12  C   UNL A   1      32.389  19.482  23.050  1.00  0.00     0.040 A 
ATOM     13  F   UNL A   1      33.448  18.486  24.867  1.00  0.00    -0.206 F 
BRANCH   8  14
ATOM     14  C   UNL A   1      33.102  23.386  24.636  1.00  0.00    -0.015 A 
ATOM     15  C   UNL A   1      33.653  27.421  26.126  1.00  0.00     0.044 C 
ATOM     16  C   UNL A   1      33.484  26.020  25.618  1.00  0.00    -0.051 A 
ATOM     17  C   UNL A   1      34.319  25.516  24.624  1.00  0.00     0.004 A 
ATOM     18  C   UNL A   1      32.462  25.203  26.121  1.00  0.00     0.007 A 
ATOM     19  C   UNL A   1      34.129  24.221  24.143  1.00  0.00     0.009 A 
ATOM     20  C   UNL A   1      32.265  23.887  25.652  1.00  0.00    -0.043 A 
ATOM     21  C   UNL A   1      31.127  23.099  26.235  1.00  0.00     0.045 C 
ENDBRANCH   8  14
ENDBRANCH   4   7
ENDBRANCH   2   3
ENDBRANCH   1   2
BRANCH   1  22
ATOM     22  C   UNL A   1      39.061  20.192  25.820  1.00  0.00     0.118 C 
BRANCH  22  23
ATOM     23  N   UNL A   1      40.136  19.216  25.939  1.00  0.00    -0.352 N 
ATOM     24  C   UNL A   1      41.490  19.364  26.125  1.00  0.00     0.251 C 
ATOM     25  H   UNL A   1      39.839  18.280  25.873  1.00  0.00     0.163 HD
ATOM     26  O   UNL A   1      42.222  18.384  26.023  1.00  0.00    -0.269 OA
BRANCH  24  27
ATOM     27  C   UNL A   1      42.090  20.686  26.424  1.00  0.00     0.039 A 
ATOM     28  C   UNL A   1      42.521  21.487  25.359  1.00  0.00     0.014 A 
ATOM     29  C   UNL A   1      42.277  21.128  27.734  1.00  0.00     0.014 A 
ATOM     30  C   UNL A   1      43.057  22.755  25.608  1.00  0.00     0.010 A 
ATOM     31  C   UNL A   1      42.718  22.427  27.977  1.00  0.00     0.010 A 
ATOM     32  C   UNL A   1      43.115  23.256  26.918  1.00  0.00    -0.014 A 
BRANCH  32  33
ATOM     33  C   UNL A   1      43.583  24.639  27.202  1.00  0.00     0.031 A 
ATOM     34  C   UNL A   1      42.620  25.677  27.712  1.00  0.00     0.074 A 
ATOM     35  C   UNL A   1      44.859  24.979  26.927  1.00  0.00     0.049 A 
ATOM     36  N   UNL A   1      42.816  26.954  27.923  1.00  0.00    -0.248 NA
ATOM     37  C   UNL A   1      41.244  25.233  27.994  1.00  0.00     0.031 C 
ATOM     38  C   UNL A   1      45.873  24.079  26.376  1.00  0.00     0.029 A 
ATOM     39  N   UNL A   1      45.520  26.177  27.059  1.00  0.00    -0.354 N 
ATOM     40  C   UNL A   1      41.594  27.463  28.342  1.00  0.00     0.074 A 
ATOM     41  C   UNL A   1      40.646  26.373  28.311  1.00  0.00     0.031 C 
ATOM     42  C   UNL A   1      47.029  24.747  26.236  1.00  0.00     0.029 A 
ATOM     43  C   UNL A   1      46.830  26.135  26.643  1.00  0.00     0.049 A 
ATOM     44  H   UNL A   1      45.095  26.989  27.418  1.00  0.00     0.167 HD
ATOM     45  C   UNL A   1      41.299  28.722  28.739  1.00  0.00     0.037 A 
ATOM     46  C   UNL A   1      47.762  27.106  26.581  1.00  0.00     0.037 A 
ATOM     47  C   UNL A   1      42.258  29.791  28.818  1.00  0.00     0.049 A 
ATOM     48  C   UNL A   1      47.407  28.493  27.048  1.00  0.00     0.074 A 
ATOM     49  C   UNL A   1      42.070  31.078  29.292  1.00  0.00     0.029 A 
ATOM     50  N   UNL A   1      43.583  29.698  28.420  1.00  0.00    -0.354 N 
ATOM     51  N   UNL A   1      46.266  28.940  27.510  1.00  0.00    -0.248 NA
ATOM     52  C   UNL A   1      48.468  29.509  26.991  1.00  0.00     0.031 C 
ATOM     53  C   UNL A   1      43.265  31.781  29.129  1.00  0.00     0.029 A 
ATOM     54  C   UNL A   1      44.215  30.915  28.611  1.00  0.00     0.049 A 
ATOM     55  H   UNL A   1      44.009  28.889  28.055  1.00  0.00     0.167 HD
ATOM     56  C   UNL A   1      46.475  30.276  27.820  1.00  0.00     0.074 A 
ATOM     57  C   UNL A   1      47.859  30.565  27.511  1.00  0.00     0.031 C 
ATOM     58  C   UNL A   1      45.597  31.184  28.311  1.00  0.00     0.037 A 
BRANCH  45  59
ATOM     59  C   UNL A   1      39.890  29.032  29.152  1.00  0.00     0.064 A 
ATOM     60  C   UNL A   1      39.479  28.822  30.477  1.00  0.00     0.173 A 
ATOM     61  C   UNL A   1      38.916  29.404  28.213  1.00  0.00     0.173 A 
ATOM     62  F   UNL A   1      40.370  28.460  31.412  1.00  0.00    -0.203 F 
ATOM     63  C   UNL A   1      38.140  28.942  30.840  1.00  0.00     0.198 A 
ATOM     64  C   UNL A   1      37.583  29.549  28.585  1.00  0.00     0.198 A 
ATOM     65  F   UNL A   1      39.261  29.625  26.936  1.00  0.00    -0.203 F 
ATOM     66  F   UNL A   1      37.763  28.687  32.101  1.00  0.00    -0.200 F 
ATOM     67  C   UNL A   1      37.194  29.303  29.894  1.00  0.00     0.200 A 
ATOM     68  F   UNL A   1      36.671  29.915  27.674  1.00  0.00    -0.200 F 
ATOM     69  F   UNL A   1      35.903  29.407  30.240  1.00  0.00    -0.200 F 
ENDBRANCH  45  59
BRANCH  46  70
ATOM     70  C   UNL A   1      49.123  26.796  26.066  1.00  0.00     0.064 A 
ATOM     71  C   UNL A   1      50.124  26.293  26.911  1.00  0.00     0.173 A 
ATOM     72  C   UNL A   1      49.453  27.000  24.719  1.00  0.00     0.173 A 
ATOM     73  F   UNL A   1      49.865  26.084  28.211  1.00  0.00    -0.203 F 
ATOM     74  C   UNL A   1      51.403  26.018  26.431  1.00  0.00     0.198 A 
ATOM     75  C   UNL A   1      50.724  26.694  24.233  1.00  0.00     0.198 A 
ATOM     76  F   UNL A   1      48.527  27.461  23.866  1.00  0.00    -0.203 F 
ATOM     77  F   UNL A   1      52.349  25.569  27.269  1.00  0.00    -0.200 F 
ATOM     78  C   UNL A   1      51.700  26.211  25.091  1.00  0.00     0.200 A 
ATOM     79  F   UNL A   1      50.996  26.854  22.931  1.00  0.00    -0.200 F 
ATOM     80  F   UNL A   1      52.923  25.925  24.625  1.00  0.00    -0.200 F 
ENDBRANCH  46  70
BRANCH  58  81
ATOM     81  C   UNL A   1      46.098  32.574  28.572  1.00  0.00     0.064 A 
ATOM     82  C   UNL A   1      46.063  33.543  27.557  1.00  0.00     0.173 A 
ATOM     83  C   UNL A   1      46.699  32.918  29.791  1.00  0.00     0.173 A 
ATOM     84  F   UNL A   1      45.509  33.259  26.369  1.00  0.00    -0.203 F 
ATOM     85  C   UNL A   1      46.631  34.799  27.747  1.00  0.00     0.198 A 
ATOM     86  C   UNL A   1      47.238  34.186  29.988  1.00  0.00     0.198 A 
ATOM     87  F   UNL A   1      46.748  32.030  30.795  1.00  0.00    -0.203 F 
ATOM     88  F   UNL A   1      46.626  35.693  26.749  1.00  0.00    -0.200 F 
ATOM     89  C   UNL A   1      47.215  35.121  28.963  1.00  0.00     0.200 A 
ATOM     90  F   UNL A   1      47.781  34.504  31.171  1.00  0.00    -0.200 F 
ATOM     91  F   UNL A   1      47.756  36.333  29.147  1.00  0.00    -0.200 F 
ENDBRANCH  58  81
ENDBRANCH  32  33
ENDBRANCH  24  27
ENDBRANCH  22  23
ENDBRANCH   1  22
TORSDOF 11
ENDMDL
