MODEL 1
REMARK VINA RESULT:     -12.6      0.000      0.000
REMARK SMILES COCC[C@@]1(C(=O)NCCCNC(=O)c2ccc(-c3c4nc(c(-c5c(F)c(F)c(F)c(F)c5F)c5ccc([nH]5)c(-c5c(F)c(F)c(F)c(F)c5F)c5nc(c(-c6c(F)c(F)c(F)c(F)c6F)c6ccc3[nH]6)C=C5)C=C4)cc2)CCCN(C(=O)NCc2ccc(OC)cc2)C1
REMARK SMILES IDX 9 1 8 2 6 3 7 4 5 6 78 7 94 8 79 9 81 10 80 11 4 12 3 13
REMARK SMILES IDX 2 14 1 15 82 16 83 17 84 18 85 20 86 21 87 22 93 23 88 24
REMARK SMILES IDX 92 25 89 26 90 27 91 28 10 29 11 30 12 31 13 32 14 34 15 35
REMARK SMILES IDX 16 36 77 37 17 38 76 39 18 40 19 41 20 42 70 43 21 44 75 45
REMARK SMILES IDX 69 46 71 47 22 48 74 49 68 50 67 51 23 53 55 54 35 55 54 56
REMARK SMILES IDX 36 57 39 58 53 59 72 60 37 61 38 62 52 64 73 65 40 66 24 67
REMARK SMILES IDX 25 68 33 69 26 70 27 71 31 72 34 73 28 74 29 75 32 76 30 77
REMARK SMILES IDX 56 78 57 79 65 80 58 81 59 82 63 83 66 84 60 85 61 86 64 87
REMARK SMILES IDX 62 88 41 89 42 90 50 91 43 92 44 93 48 94 51 95 45 96 46 97
REMARK SMILES IDX 49 98 47 99
REMARK H PARENT 8 5 84 19 12 33 71 52 39 63
REMARK Flexibility Score: inf
ROOT
ATOM      1  C   UNL A   1      32.418  26.694  26.327  1.00  0.00     0.117 C 
ENDROOT
BRANCH   1   2
ATOM      2  N   UNL A   1      31.401  25.690  26.558  1.00  0.00    -0.355 N 
ATOM      3  C   UNL A   1      31.415  24.342  26.421  1.00  0.00     0.228 C 
ATOM      4  O   UNL A   1      30.683  23.752  27.230  1.00  0.00    -0.274 OA
ATOM      5  H   UNL A   1      30.543  26.054  26.874  1.00  0.00     0.163 HD
BRANCH   3   6
ATOM      6  C   UNL A   1      32.229  23.513  25.396  1.00  0.00     0.069 C 
ATOM      7  C   UNL A   1      33.685  23.405  25.939  1.00  0.00     0.021 C 
ATOM      8  C   UNL A   1      32.271  23.986  23.927  1.00  0.00     0.138 C 
ATOM      9  C   UNL A   1      34.532  24.641  25.654  1.00  0.00     0.023 C 
ATOM     10  N   UNL A   1      33.224  25.062  23.625  1.00  0.00    -0.324 N 
ATOM     11  C   UNL A   1      34.572  24.900  24.157  1.00  0.00     0.121 C 
BRANCH   6  12
ATOM     12  C   UNL A   1      31.649  22.033  25.407  1.00  0.00     0.047 C 
BRANCH  12  13
ATOM     13  C   UNL A   1      32.582  20.826  25.576  1.00  0.00     0.161 C 
BRANCH  13  14
ATOM     14  O   UNL A   1      32.091  19.647  24.953  1.00  0.00    -0.385 OA
ATOM     15  C   UNL A   1      32.429  19.531  23.581  1.00  0.00     0.194 C 
ENDBRANCH  13  14
ENDBRANCH  12  13
ENDBRANCH   6  12
BRANCH  10  16
ATOM     16  C   UNL A   1      32.939  25.826  22.528  1.00  0.00     0.317 C 
ATOM     17  O   UNL A   1      33.650  25.831  21.524  1.00  0.00    -0.249 OA
ATOM     18  N   UNL A   1      31.792  26.516  22.440  1.00  0.00    -0.334 N 
ATOM     19  H   UNL A   1      31.809  27.169  21.704  1.00  0.00     0.165 HD
BRANCH  18  20
ATOM     20  C   UNL A   1      30.528  26.540  23.162  1.00  0.00     0.153 C 
BRANCH  20  21
ATOM     21  C   UNL A   1      29.849  27.863  22.913  1.00  0.00    -0.028 A 
ATOM     22  C   UNL A   1      28.476  28.002  23.176  1.00  0.00     0.009 A 
ATOM     23  C   UNL A   1      30.539  28.947  22.360  1.00  0.00     0.009 A 
ATOM     24  C   UNL A   1      27.794  29.153  22.794  1.00  0.00     0.047 A 
ATOM     25  C   UNL A   1      29.853  30.117  22.004  1.00  0.00     0.047 A 
ATOM     26  C   UNL A   1      28.472  30.209  22.192  1.00  0.00     0.118 A 
BRANCH  26  27
ATOM     27  O   UNL A   1      27.669  31.253  21.830  1.00  0.00    -0.497 OA
ATOM     28  C   UNL A   1      27.972  31.903  20.605  1.00  0.00     0.278 C 
ENDBRANCH  26  27
ENDBRANCH  20  21
ENDBRANCH  18  20
ENDBRANCH  10  16
ENDBRANCH   3   6
ENDBRANCH   1   2
BRANCH   1  29
ATOM     29  C   UNL A   1      31.880  28.104  26.102  1.00  0.00     0.042 C 
BRANCH  29  30
ATOM     30  C   UNL A   1      32.880  29.056  25.458  1.00  0.00     0.118 C 
BRANCH  30  31
ATOM     31  N   UNL A   1      32.634  30.447  25.835  1.00  0.00    -0.352 N 
ATOM     32  C   UNL A   1      33.129  31.245  26.830  1.00  0.00     0.251 C 
ATOM     33  H   UNL A   1      31.978  30.901  25.257  1.00  0.00     0.163 HD
ATOM     34  O   UNL A   1      32.514  32.285  27.092  1.00  0.00    -0.269 OA
BRANCH  32  35
ATOM     35  C   UNL A   1      34.359  30.926  27.590  1.00  0.00     0.039 A 
ATOM     36  C   UNL A   1      35.292  31.948  27.813  1.00  0.00     0.014 A 
ATOM     37  C   UNL A   1      34.667  29.630  28.005  1.00  0.00     0.014 A 
ATOM     38  C   UNL A   1      36.489  31.681  28.486  1.00  0.00     0.010 A 
ATOM     39  C   UNL A   1      35.806  29.386  28.771  1.00  0.00     0.010 A 
ATOM     40  C   UNL A   1      36.740  30.402  29.005  1.00  0.00    -0.014 A 
BRANCH  40  41
ATOM     41  C   UNL A   1      37.973  30.104  29.781  1.00  0.00     0.031 A 
ATOM     42  C   UNL A   1      39.019  29.174  29.226  1.00  0.00     0.074 A 
ATOM     43  C   UNL A   1      38.117  30.614  31.020  1.00  0.00     0.049 A 
ATOM     44  N   UNL A   1      40.112  28.720  29.788  1.00  0.00    -0.248 NA
ATOM     45  C   UNL A   1      38.791  28.654  27.867  1.00  0.00     0.031 C 
ATOM     46  C   UNL A   1      37.146  31.478  31.696  1.00  0.00     0.029 A 
ATOM     47  N   UNL A   1      39.126  30.471  31.938  1.00  0.00    -0.354 N 
ATOM     48  C   UNL A   1      40.678  27.844  28.871  1.00  0.00     0.074 A 
ATOM     49  C   UNL A   1      39.784  27.788  27.735  1.00  0.00     0.031 C 
ATOM     50  C   UNL A   1      37.621  31.811  32.906  1.00  0.00     0.029 A 
ATOM     51  C   UNL A   1      38.906  31.153  33.109  1.00  0.00     0.049 A 
ATOM     52  H   UNL A   1      39.932  29.930  31.772  1.00  0.00     0.167 HD
ATOM     53  C   UNL A   1      41.850  27.168  28.955  1.00  0.00     0.037 A 
ATOM     54  C   UNL A   1      39.655  31.234  34.226  1.00  0.00     0.037 A 
ATOM     55  C   UNL A   1      42.757  27.262  30.070  1.00  0.00     0.049 A 
ATOM     56  C   UNL A   1      40.965  30.498  34.282  1.00  0.00     0.074 A 
ATOM     57  C   UNL A   1      44.000  26.674  30.224  1.00  0.00     0.029 A 
ATOM     58  N   UNL A   1      42.516  27.996  31.222  1.00  0.00    -0.354 N 
ATOM     59  N   UNL A   1      41.520  29.727  33.380  1.00  0.00    -0.248 NA
ATOM     60  C   UNL A   1      41.756  30.654  35.509  1.00  0.00     0.031 C 
ATOM     61  C   UNL A   1      44.494  27.021  31.486  1.00  0.00     0.029 A 
ATOM     62  C   UNL A   1      43.581  27.864  32.099  1.00  0.00     0.049 A 
ATOM     63  H   UNL A   1      41.707  28.532  31.393  1.00  0.00     0.167 HD
ATOM     64  C   UNL A   1      42.734  29.324  33.918  1.00  0.00     0.074 A 
ATOM     65  C   UNL A   1      42.844  29.954  35.217  1.00  0.00     0.031 C 
ATOM     66  C   UNL A   1      43.674  28.503  33.386  1.00  0.00     0.037 A 
BRANCH  53  67
ATOM     67  C   UNL A   1      42.224  26.276  27.806  1.00  0.00     0.064 A 
ATOM     68  C   UNL A   1      41.693  24.984  27.671  1.00  0.00     0.173 A 
ATOM     69  C   UNL A   1      43.101  26.729  26.808  1.00  0.00     0.173 A 
ATOM     70  F   UNL A   1      40.859  24.496  28.602  1.00  0.00    -0.203 F 
ATOM     71  C   UNL A   1      42.049  24.169  26.599  1.00  0.00     0.198 A 
ATOM     72  C   UNL A   1      43.430  25.923  25.721  1.00  0.00     0.198 A 
ATOM     73  F   UNL A   1      43.635  27.957  26.882  1.00  0.00    -0.203 F 
ATOM     74  F   UNL A   1      41.570  22.919  26.522  1.00  0.00    -0.200 F 
ATOM     75  C   UNL A   1      42.911  24.641  25.621  1.00  0.00     0.200 A 
ATOM     76  F   UNL A   1      44.252  26.385  24.769  1.00  0.00    -0.200 F 
ATOM     77  F   UNL A   1      43.248  23.858  24.587  1.00  0.00    -0.200 F 
ENDBRANCH  53  67
BRANCH  54  78
ATOM     78  C   UNL A   1      39.198  32.072  35.364  1.00  0.00     0.064 A 
ATOM     79  C   UNL A   1      38.429  31.519  36.398  1.00  0.00     0.173 A 
ATOM     80  C   UNL A   1      39.521  33.433  35.448  1.00  0.00     0.173 A 
ATOM     81  F   UNL A   1      38.078  30.225  36.352  1.00  0.00    -0.203 F 
ATOM     82  C   UNL A   1      37.983  32.300  37.462  1.00  0.00     0.198 A 
ATOM     83  C   UNL A   1      39.099  34.208  36.528  1.00  0.00     0.198 A 
ATOM     84  F   UNL A   1      40.260  34.009  34.489  1.00  0.00    -0.203 F 
ATOM     85  F   UNL A   1      37.211  31.757  38.412  1.00  0.00    -0.200 F 
ATOM     86  C   UNL A   1      38.323  33.643  37.529  1.00  0.00     0.200 A 
ATOM     87  F   UNL A   1      39.443  35.501  36.597  1.00  0.00    -0.200 F 
ATOM     88  F   UNL A   1      37.899  34.393  38.554  1.00  0.00    -0.200 F 
ENDBRANCH  54  78
BRANCH  66  89
ATOM     89  C   UNL A   1      44.915  28.270  34.197  1.00  0.00     0.064 A 
ATOM     90  C   UNL A   1      45.014  27.201  35.100  1.00  0.00     0.173 A 
ATOM     91  C   UNL A   1      46.025  29.115  34.053  1.00  0.00     0.173 A 
ATOM     92  F   UNL A   1      43.974  26.374  35.286  1.00  0.00    -0.203 F 
ATOM     93  C   UNL A   1      46.170  27.006  35.852  1.00  0.00     0.198 A 
ATOM     94  C   UNL A   1      47.190  28.898  34.783  1.00  0.00     0.198 A 
ATOM     95  F   UNL A   1      45.984  30.148  33.197  1.00  0.00    -0.203 F 
ATOM     96  F   UNL A   1      46.223  26.011  36.749  1.00  0.00    -0.200 F 
ATOM     97  C   UNL A   1      47.258  27.850  35.688  1.00  0.00     0.200 A 
ATOM     98  F   UNL A   1      48.245  29.706  34.614  1.00  0.00    -0.200 F 
ATOM     99  F   UNL A   1      48.370  27.659  36.411  1.00  0.00    -0.200 F 
ENDBRANCH  66  89
ENDBRANCH  40  41
ENDBRANCH  32  35
ENDBRANCH  30  31
ENDBRANCH  29  30
ENDBRANCH   1  29
TORSDOF 17
ENDMDL
MODEL 2
REMARK VINA RESULT:     -12.5      0.462      7.296
REMARK SMILES COCC[C@@]1(C(=O)NCCCNC(=O)c2ccc(-c3c4nc(c(-c5c(F)c(F)c(F)c(F)c5F)c5ccc([nH]5)c(-c5c(F)c(F)c(F)c(F)c5F)c5nc(c(-c6c(F)c(F)c(F)c(F)c6F)c6ccc3[nH]6)C=C5)C=C4)cc2)CCCN(C(=O)NCc2ccc(OC)cc2)C1
REMARK SMILES IDX 9 1 8 2 6 3 7 4 5 6 78 7 94 8 79 9 81 10 80 11 4 12 3 13
REMARK SMILES IDX 2 14 1 15 82 16 83 17 84 18 85 20 86 21 87 22 93 23 88 24
REMARK SMILES IDX 92 25 89 26 90 27 91 28 10 29 11 30 12 31 13 32 14 34 15 35
REMARK SMILES IDX 16 36 77 37 17 38 76 39 18 40 19 41 20 42 70 43 21 44 75 45
REMARK SMILES IDX 69 46 71 47 22 48 74 49 68 50 67 51 23 53 55 54 35 55 54 56
REMARK SMILES IDX 36 57 39 58 53 59 72 60 37 61 38 62 52 64 73 65 40 66 24 67
REMARK SMILES IDX 25 68 33 69 26 70 27 71 31 72 34 73 28 74 29 75 32 76 30 77
REMARK SMILES IDX 56 78 57 79 65 80 58 81 59 82 63 83 66 84 60 85 61 86 64 87
REMARK SMILES IDX 62 88 41 89 42 90 50 91 43 92 44 93 48 94 51 95 45 96 46 97
REMARK SMILES IDX 49 98 47 99
REMARK H PARENT 8 5 84 19 12 33 71 52 39 63
REMARK Flexibility Score: inf
ROOT
ATOM      1  C   UNL A   1      32.391  26.724  26.329  1.00  0.00     0.117 C 
ENDROOT
BRANCH   1   2
ATOM      2  N   UNL A   1      31.377  25.717  26.560  1.00  0.00    -0.355 N 
ATOM      3  C   UNL A   1      31.399  24.367  26.434  1.00  0.00     0.228 C 
ATOM      4  O   UNL A   1      30.664  23.781  27.242  1.00  0.00    -0.274 OA
ATOM      5  H   UNL A   1      30.514  26.079  26.865  1.00  0.00     0.163 HD
BRANCH   3   6
ATOM      6  C   UNL A   1      32.227  23.534  25.423  1.00  0.00     0.069 C 
ATOM      7  C   UNL A   1      33.680  23.441  25.980  1.00  0.00     0.021 C 
ATOM      8  C   UNL A   1      32.278  23.994  23.950  1.00  0.00     0.138 C 
ATOM      9  C   UNL A   1      34.521  24.680  25.689  1.00  0.00     0.023 C 
ATOM     10  N   UNL A   1      33.226  25.074  23.646  1.00  0.00    -0.324 N 
ATOM     11  C   UNL A   1      34.571  24.926  24.190  1.00  0.00     0.121 C 
BRANCH   6  12
ATOM     12  C   UNL A   1      31.658  22.051  25.444  1.00  0.00     0.047 C 
BRANCH  12  13
ATOM     13  C   UNL A   1      32.590  20.855  25.683  1.00  0.00     0.161 C 
BRANCH  13  14
ATOM     14  O   UNL A   1      32.153  19.666  25.039  1.00  0.00    -0.385 OA
ATOM     15  C   UNL A   1      33.100  18.612  25.060  1.00  0.00     0.194 C 
ENDBRANCH  13  14
ENDBRANCH  12  13
ENDBRANCH   6  12
BRANCH  10  16
ATOM     16  C   UNL A   1      32.945  25.825  22.540  1.00  0.00     0.317 C 
ATOM     17  O   UNL A   1      33.660  25.820  21.539  1.00  0.00    -0.249 OA
ATOM     18  N   UNL A   1      31.797  26.513  22.439  1.00  0.00    -0.334 N 
ATOM     19  H   UNL A   1      31.816  27.158  21.696  1.00  0.00     0.165 HD
BRANCH  18  20
ATOM     20  C   UNL A   1      30.530  26.543  23.156  1.00  0.00     0.153 C 
BRANCH  20  21
ATOM     21  C   UNL A   1      29.863  27.872  22.912  1.00  0.00    -0.028 A 
ATOM     22  C   UNL A   1      28.488  28.017  23.156  1.00  0.00     0.009 A 
ATOM     23  C   UNL A   1      30.568  28.958  22.380  1.00  0.00     0.009 A 
ATOM     24  C   UNL A   1      27.817  29.176  22.775  1.00  0.00     0.047 A 
ATOM     25  C   UNL A   1      29.894  30.136  22.027  1.00  0.00     0.047 A 
ATOM     26  C   UNL A   1      28.511  30.235  22.196  1.00  0.00     0.118 A 
BRANCH  26  27
ATOM     27  O   UNL A   1      27.720  31.287  21.833  1.00  0.00    -0.497 OA
ATOM     28  C   UNL A   1      28.013  31.916  20.595  1.00  0.00     0.278 C 
ENDBRANCH  26  27
ENDBRANCH  20  21
ENDBRANCH  18  20
ENDBRANCH  10  16
ENDBRANCH   3   6
ENDBRANCH   1   2
BRANCH   1  29
ATOM     29  C   UNL A   1      31.849  28.132  26.107  1.00  0.00     0.042 C 
BRANCH  29  30
ATOM     30  C   UNL A   1      32.832  29.079  25.430  1.00  0.00     0.118 C 
BRANCH  30  31
ATOM     31  N   UNL A   1      32.653  30.462  25.868  1.00  0.00    -0.352 N 
ATOM     32  C   UNL A   1      33.189  31.191  26.895  1.00  0.00     0.251 C 
ATOM     33  H   UNL A   1      32.018  30.971  25.314  1.00  0.00     0.163 HD
ATOM     34  O   UNL A   1      32.625  32.246  27.206  1.00  0.00    -0.269 OA
BRANCH  32  35
ATOM     35  C   UNL A   1      34.405  30.780  27.634  1.00  0.00     0.039 A 
ATOM     36  C   UNL A   1      35.382  31.749  27.905  1.00  0.00     0.014 A 
ATOM     37  C   UNL A   1      34.656  29.454  27.983  1.00  0.00     0.014 A 
ATOM     38  C   UNL A   1      36.566  31.396  28.559  1.00  0.00     0.010 A 
ATOM     39  C   UNL A   1      35.784  29.122  28.732  1.00  0.00     0.010 A 
ATOM     40  C   UNL A   1      36.762  30.083  29.014  1.00  0.00    -0.014 A 
BRANCH  40  41
ATOM     41  C   UNL A   1      37.981  29.693  29.770  1.00  0.00     0.031 A 
ATOM     42  C   UNL A   1      38.232  30.241  31.150  1.00  0.00     0.074 A 
ATOM     43  C   UNL A   1      38.900  28.901  29.184  1.00  0.00     0.049 A 
ATOM     44  N   UNL A   1      39.277  30.093  31.926  1.00  0.00    -0.248 NA
ATOM     45  C   UNL A   1      37.185  31.102  31.724  1.00  0.00     0.031 C 
ATOM     46  C   UNL A   1      38.804  28.356  27.829  1.00  0.00     0.029 A 
ATOM     47  N   UNL A   1      40.102  28.427  29.646  1.00  0.00    -0.354 N 
ATOM     48  C   UNL A   1      39.026  30.861  33.056  1.00  0.00     0.074 A 
ATOM     49  C   UNL A   1      37.755  31.517  32.844  1.00  0.00     0.031 C 
ATOM     50  C   UNL A   1      39.884  27.599  27.580  1.00  0.00     0.029 A 
ATOM     51  C   UNL A   1      40.768  27.639  28.739  1.00  0.00     0.049 A 
ATOM     52  H   UNL A   1      40.454  28.634  30.542  1.00  0.00     0.167 HD
ATOM     53  C   UNL A   1      39.774  30.989  34.179  1.00  0.00     0.037 A 
ATOM     54  C   UNL A   1      41.961  27.022  28.831  1.00  0.00     0.037 A 
ATOM     55  C   UNL A   1      41.018  30.299  34.402  1.00  0.00     0.049 A 
ATOM     56  C   UNL A   1      42.757  27.154  30.099  1.00  0.00     0.074 A 
ATOM     57  C   UNL A   1      41.818  30.304  35.531  1.00  0.00     0.029 A 
ATOM     58  N   UNL A   1      41.640  29.477  33.474  1.00  0.00    -0.354 N 
ATOM     59  N   UNL A   1      42.476  27.831  31.186  1.00  0.00    -0.248 NA
ATOM     60  C   UNL A   1      44.033  26.429  30.156  1.00  0.00     0.031 C 
ATOM     61  C   UNL A   1      42.945  29.515  35.272  1.00  0.00     0.029 A 
ATOM     62  C   UNL A   1      42.823  28.980  34.000  1.00  0.00     0.049 A 
ATOM     63  H   UNL A   1      41.294  29.276  32.574  1.00  0.00     0.167 HD
ATOM     64  C   UNL A   1      43.524  27.596  32.063  1.00  0.00     0.074 A 
ATOM     65  C   UNL A   1      44.438  26.696  31.390  1.00  0.00     0.031 C 
ATOM     66  C   UNL A   1      43.717  28.082  33.315  1.00  0.00     0.037 A 
BRANCH  53  67
ATOM     67  C   UNL A   1      39.262  31.900  35.258  1.00  0.00     0.064 A 
ATOM     68  C   UNL A   1      39.534  33.277  35.253  1.00  0.00     0.173 A 
ATOM     69  C   UNL A   1      38.460  31.396  36.295  1.00  0.00     0.173 A 
ATOM     70  F   UNL A   1      40.304  33.809  34.293  1.00  0.00    -0.203 F 
ATOM     71  C   UNL A   1      39.051  34.108  36.260  1.00  0.00     0.198 A 
ATOM     72  C   UNL A   1      37.952  32.237  37.283  1.00  0.00     0.198 A 
ATOM     73  F   UNL A   1      38.162  30.089  36.347  1.00  0.00    -0.203 F 
ATOM     74  F   UNL A   1      39.370  35.410  36.263  1.00  0.00    -0.200 F 
ATOM     75  C   UNL A   1      38.255  33.590  37.271  1.00  0.00     0.200 A 
ATOM     76  F   UNL A   1      37.171  31.736  38.251  1.00  0.00    -0.200 F 
ATOM     77  F   UNL A   1      37.786  34.392  38.236  1.00  0.00    -0.200 F 
ENDBRANCH  53  67
BRANCH  54  78
ATOM     78  C   UNL A   1      42.455  26.194  27.700  1.00  0.00     0.064 A 
ATOM     79  C   UNL A   1      43.382  26.711  26.784  1.00  0.00     0.173 A 
ATOM     80  C   UNL A   1      42.020  24.875  27.513  1.00  0.00     0.173 A 
ATOM     81  F   UNL A   1      43.813  27.975  26.911  1.00  0.00    -0.203 F 
ATOM     82  C   UNL A   1      43.839  25.948  25.712  1.00  0.00     0.198 A 
ATOM     83  C   UNL A   1      42.500  24.102  26.456  1.00  0.00     0.198 A 
ATOM     84  F   UNL A   1      41.139  24.330  28.365  1.00  0.00    -0.203 F 
ATOM     85  F   UNL A   1      44.689  26.483  24.826  1.00  0.00    -0.200 F 
ATOM     86  C   UNL A   1      43.401  24.642  25.552  1.00  0.00     0.200 A 
ATOM     87  F   UNL A   1      42.087  22.835  26.314  1.00  0.00    -0.200 F 
ATOM     88  F   UNL A   1      43.845  23.906  24.525  1.00  0.00    -0.200 F 
ENDBRANCH  54  78
BRANCH  66  89
ATOM     89  C   UNL A   1      44.945  27.622  34.045  1.00  0.00     0.064 A 
ATOM     90  C   UNL A   1      46.152  28.332  33.975  1.00  0.00     0.173 A 
ATOM     91  C   UNL A   1      44.905  26.469  34.842  1.00  0.00     0.173 A 
ATOM     92  F   UNL A   1      46.245  29.434  33.214  1.00  0.00    -0.203 F 
ATOM     93  C   UNL A   1      47.284  27.886  34.650  1.00  0.00     0.198 A 
ATOM     94  C   UNL A   1      46.030  26.042  35.541  1.00  0.00     0.198 A 
ATOM     95  F   UNL A   1      43.772  25.757  34.948  1.00  0.00    -0.203 F 
ATOM     96  F   UNL A   1      48.442  28.549  34.525  1.00  0.00    -0.200 F 
ATOM     97  C   UNL A   1      47.220  26.746  35.438  1.00  0.00     0.200 A 
ATOM     98  F   UNL A   1      45.964  24.948  36.312  1.00  0.00    -0.200 F 
ATOM     99  F   UNL A   1      48.312  26.319  36.090  1.00  0.00    -0.200 F 
ENDBRANCH  66  89
ENDBRANCH  40  41
ENDBRANCH  32  35
ENDBRANCH  30  31
ENDBRANCH  29  30
ENDBRANCH   1  29
TORSDOF 17
ENDMDL
MODEL 3
REMARK VINA RESULT:     -12.3      4.457      9.385
REMARK SMILES COCC[C@@]1(C(=O)NCCCNC(=O)c2ccc(-c3c4nc(c(-c5c(F)c(F)c(F)c(F)c5F)c5ccc([nH]5)c(-c5c(F)c(F)c(F)c(F)c5F)c5nc(c(-c6c(F)c(F)c(F)c(F)c6F)c6ccc3[nH]6)C=C5)C=C4)cc2)CCCN(C(=O)NCc2ccc(OC)cc2)C1
REMARK SMILES IDX 9 1 8 2 6 3 7 4 5 6 78 7 94 8 79 9 81 10 80 11 4 12 3 13
REMARK SMILES IDX 2 14 1 15 82 16 83 17 84 18 85 20 86 21 87 22 93 23 88 24
REMARK SMILES IDX 92 25 89 26 90 27 91 28 10 29 11 30 12 31 13 32 14 34 15 35
REMARK SMILES IDX 16 36 77 37 17 38 76 39 18 40 19 41 20 42 70 43 21 44 75 45
REMARK SMILES IDX 69 46 71 47 22 48 74 49 68 50 67 51 23 53 55 54 35 55 54 56
REMARK SMILES IDX 36 57 39 58 53 59 72 60 37 61 38 62 52 64 73 65 40 66 24 67
REMARK SMILES IDX 25 68 33 69 26 70 27 71 31 72 34 73 28 74 29 75 32 76 30 77
REMARK SMILES IDX 56 78 57 79 65 80 58 81 59 82 63 83 66 84 60 85 61 86 64 87
REMARK SMILES IDX 62 88 41 89 42 90 50 91 43 92 44 93 48 94 51 95 45 96 46 97
REMARK SMILES IDX 49 98 47 99
REMARK H PARENT 8 5 84 19 12 33 71 52 39 63
REMARK Flexibility Score: inf
ROOT
ATOM      1  C   UNL A   1      36.458  20.119  24.648  1.00  0.00     0.117 C 
ENDROOT
BRANCH   1   2
ATOM      2  N   UNL A   1      35.913  20.961  25.692  1.00  0.00    -0.355 N 
ATOM      3  C   UNL A   1      34.638  21.276  26.025  1.00  0.00     0.228 C 
ATOM      4  O   UNL A   1      34.475  21.475  27.238  1.00  0.00    -0.274 OA
ATOM      5  H   UNL A   1      36.594  21.380  26.265  1.00  0.00     0.163 HD
BRANCH   3   6
ATOM      6  C   UNL A   1      33.423  21.396  25.070  1.00  0.00     0.069 C 
ATOM      7  C   UNL A   1      33.899  22.183  23.812  1.00  0.00     0.021 C 
ATOM      8  C   UNL A   1      32.122  22.034  25.604  1.00  0.00     0.138 C 
ATOM      9  C   UNL A   1      33.924  23.694  24.016  1.00  0.00     0.023 C 
ATOM     10  N   UNL A   1      32.089  23.503  25.629  1.00  0.00    -0.324 N 
ATOM     11  C   UNL A   1      32.541  24.180  24.420  1.00  0.00     0.121 C 
BRANCH   6  12
ATOM     12  C   UNL A   1      33.067  19.934  24.560  1.00  0.00     0.047 C 
BRANCH  12  13
ATOM     13  C   UNL A   1      32.876  18.780  25.554  1.00  0.00     0.161 C 
BRANCH  13  14
ATOM     14  O   UNL A   1      32.199  17.664  24.994  1.00  0.00    -0.385 OA
ATOM     15  C   UNL A   1      32.508  16.426  25.612  1.00  0.00     0.194 C 
ENDBRANCH  13  14
ENDBRANCH  12  13
ENDBRANCH   6  12
BRANCH  10  16
ATOM     16  C   UNL A   1      31.227  24.068  26.526  1.00  0.00     0.317 C 
ATOM     17  O   UNL A   1      30.593  23.401  27.343  1.00  0.00    -0.249 OA
ATOM     18  N   UNL A   1      31.125  25.401  26.648  1.00  0.00    -0.334 N 
ATOM     19  H   UNL A   1      30.337  25.664  27.176  1.00  0.00     0.165 HD
BRANCH  18  20
ATOM     20  C   UNL A   1      31.890  26.553  26.196  1.00  0.00     0.153 C 
BRANCH  20  21
ATOM     21  C   UNL A   1      31.064  27.325  25.199  1.00  0.00    -0.028 A 
ATOM     22  C   UNL A   1      29.975  26.702  24.565  1.00  0.00     0.009 A 
ATOM     23  C   UNL A   1      31.393  28.634  24.832  1.00  0.00     0.009 A 
ATOM     24  C   UNL A   1      29.307  27.331  23.519  1.00  0.00     0.047 A 
ATOM     25  C   UNL A   1      30.697  29.277  23.798  1.00  0.00     0.047 A 
ATOM     26  C   UNL A   1      29.672  28.614  23.119  1.00  0.00     0.118 A 
BRANCH  26  27
ATOM     27  O   UNL A   1      28.961  29.088  22.053  1.00  0.00    -0.497 OA
ATOM     28  C   UNL A   1      29.223  30.423  21.648  1.00  0.00     0.278 C 
ENDBRANCH  26  27
ENDBRANCH  20  21
ENDBRANCH  18  20
ENDBRANCH  10  16
ENDBRANCH   3   6
ENDBRANCH   1   2
BRANCH   1  29
ATOM     29  C   UNL A   1      37.639  19.255  25.079  1.00  0.00     0.042 C 
BRANCH  29  30
ATOM     30  C   UNL A   1      38.828  20.045  25.610  1.00  0.00     0.118 C 
BRANCH  30  31
ATOM     31  N   UNL A   1      39.975  19.184  25.895  1.00  0.00    -0.352 N 
ATOM     32  C   UNL A   1      41.299  19.441  26.127  1.00  0.00     0.251 C 
ATOM     33  H   UNL A   1      39.749  18.226  25.925  1.00  0.00     0.163 HD
ATOM     34  O   UNL A   1      42.092  18.497  26.038  1.00  0.00    -0.269 OA
BRANCH  32  35
ATOM     35  C   UNL A   1      41.814  20.783  26.484  1.00  0.00     0.039 A 
ATOM     36  C   UNL A   1      41.981  21.730  25.463  1.00  0.00     0.014 A 
ATOM     37  C   UNL A   1      42.227  21.106  27.777  1.00  0.00     0.014 A 
ATOM     38  C   UNL A   1      42.508  22.993  25.748  1.00  0.00     0.010 A 
ATOM     39  C   UNL A   1      42.648  22.400  28.081  1.00  0.00     0.010 A 
ATOM     40  C   UNL A   1      42.812  23.354  27.069  1.00  0.00    -0.014 A 
BRANCH  40  41
ATOM     41  C   UNL A   1      43.311  24.712  27.412  1.00  0.00     0.031 A 
ATOM     42  C   UNL A   1      42.386  25.737  28.013  1.00  0.00     0.074 A 
ATOM     43  C   UNL A   1      44.582  25.046  27.114  1.00  0.00     0.049 A 
ATOM     44  N   UNL A   1      42.611  26.997  28.292  1.00  0.00    -0.248 NA
ATOM     45  C   UNL A   1      41.012  25.300  28.308  1.00  0.00     0.031 C 
ATOM     46  C   UNL A   1      45.559  24.163  26.475  1.00  0.00     0.029 A 
ATOM     47  N   UNL A   1      45.267  26.220  27.296  1.00  0.00    -0.354 N 
ATOM     48  C   UNL A   1      41.406  27.505  28.762  1.00  0.00     0.074 A 
ATOM     49  C   UNL A   1      40.438  26.433  28.681  1.00  0.00     0.031 C 
ATOM     50  C   UNL A   1      46.725  24.816  26.346  1.00  0.00     0.029 A 
ATOM     51  C   UNL A   1      46.567  26.173  26.853  1.00  0.00     0.049 A 
ATOM     52  H   UNL A   1      44.866  27.021  27.706  1.00  0.00     0.167 HD
ATOM     53  C   UNL A   1      41.136  28.744  29.240  1.00  0.00     0.037 A 
ATOM     54  C   UNL A   1      47.522  27.122  26.851  1.00  0.00     0.037 A 
ATOM     55  C   UNL A   1      42.114  29.794  29.358  1.00  0.00     0.049 A 
ATOM     56  C   UNL A   1      47.206  28.479  27.416  1.00  0.00     0.074 A 
ATOM     57  C   UNL A   1      41.962  31.060  29.895  1.00  0.00     0.029 A 
ATOM     58  N   UNL A   1      43.432  29.694  28.935  1.00  0.00    -0.354 N 
ATOM     59  N   UNL A   1      46.080  28.925  27.918  1.00  0.00    -0.248 NA
ATOM     60  C   UNL A   1      48.297  29.462  27.422  1.00  0.00     0.031 C 
ATOM     61  C   UNL A   1      43.177  31.741  29.759  1.00  0.00     0.029 A 
ATOM     62  C   UNL A   1      44.100  30.883  29.183  1.00  0.00     0.049 A 
ATOM     63  H   UNL A   1      43.833  28.897  28.518  1.00  0.00     0.167 HD
ATOM     64  C   UNL A   1      46.332  30.228  28.321  1.00  0.00     0.074 A 
ATOM     65  C   UNL A   1      47.725  30.495  28.024  1.00  0.00     0.031 C 
ATOM     66  C   UNL A   1      45.487  31.127  28.884  1.00  0.00     0.037 A 
BRANCH  53  67
ATOM     67  C   UNL A   1      39.729  29.029  29.684  1.00  0.00     0.064 A 
ATOM     68  C   UNL A   1      39.321  28.836  31.013  1.00  0.00     0.173 A 
ATOM     69  C   UNL A   1      38.784  29.532  28.777  1.00  0.00     0.173 A 
ATOM     70  F   UNL A   1      40.180  28.346  31.919  1.00  0.00    -0.203 F 
ATOM     71  C   UNL A   1      38.013  29.106  31.409  1.00  0.00     0.198 A 
ATOM     72  C   UNL A   1      37.486  29.832  29.184  1.00  0.00     0.198 A 
ATOM     73  F   UNL A   1      39.120  29.742  27.495  1.00  0.00    -0.203 F 
ATOM     74  F   UNL A   1      37.633  28.862  32.672  1.00  0.00    -0.200 F 
ATOM     75  C   UNL A   1      37.098  29.610  30.497  1.00  0.00     0.200 A 
ATOM     76  F   UNL A   1      36.607  30.332  28.305  1.00  0.00    -0.200 F 
ATOM     77  F   UNL A   1      35.842  29.875  30.881  1.00  0.00    -0.200 F 
ENDBRANCH  53  67
BRANCH  54  78
ATOM     78  C   UNL A   1      48.877  26.808  26.328  1.00  0.00     0.064 A 
ATOM     79  C   UNL A   1      49.192  27.021  24.978  1.00  0.00     0.173 A 
ATOM     80  C   UNL A   1      49.883  26.295  27.160  1.00  0.00     0.173 A 
ATOM     81  F   UNL A   1      48.257  27.492  24.141  1.00  0.00    -0.203 F 
ATOM     82  C   UNL A   1      50.455  26.715  24.476  1.00  0.00     0.198 A 
ATOM     83  C   UNL A   1      51.155  26.016  26.662  1.00  0.00     0.198 A 
ATOM     84  F   UNL A   1      49.635  26.079  28.459  1.00  0.00    -0.203 F 
ATOM     85  F   UNL A   1      50.714  26.886  23.173  1.00  0.00    -0.200 F 
ATOM     86  C   UNL A   1      51.437  26.217  25.320  1.00  0.00     0.200 A 
ATOM     87  F   UNL A   1      52.105  25.550  27.483  1.00  0.00    -0.200 F 
ATOM     88  F   UNL A   1      52.652  25.927  24.837  1.00  0.00    -0.200 F 
ENDBRANCH  54  78
BRANCH  66  89
ATOM     89  C   UNL A   1      46.057  32.467  29.246  1.00  0.00     0.064 A 
ATOM     90  C   UNL A   1      46.016  33.549  28.354  1.00  0.00     0.173 A 
ATOM     91  C   UNL A   1      46.632  32.677  30.508  1.00  0.00     0.173 A 
ATOM     92  F   UNL A   1      45.491  33.395  27.128  1.00  0.00    -0.203 F 
ATOM     93  C   UNL A   1      46.559  34.783  28.701  1.00  0.00     0.198 A 
ATOM     94  C   UNL A   1      47.145  33.921  30.864  1.00  0.00     0.198 A 
ATOM     95  F   UNL A   1      46.689  31.676  31.400  1.00  0.00    -0.203 F 
ATOM     96  F   UNL A   1      46.559  35.787  27.814  1.00  0.00    -0.200 F 
ATOM     97  C   UNL A   1      47.116  34.969  29.958  1.00  0.00     0.200 A 
ATOM     98  F   UNL A   1      47.671  34.103  32.083  1.00  0.00    -0.200 F 
ATOM     99  F   UNL A   1      47.636  36.159  30.291  1.00  0.00    -0.200 F 
ENDBRANCH  66  89
ENDBRANCH  40  41
ENDBRANCH  32  35
ENDBRANCH  30  31
ENDBRANCH  29  30
ENDBRANCH   1  29
TORSDOF 17
ENDMDL
