MODEL 1
REMARK VINA RESULT:     -10.8      0.000      0.000
REMARK SMILES C[NH2+][C@@]1(C(=O)NCCCNC(=O)c2ccc(-c3c4nc(c(-c5c(F)c(F)c(F)c(F)c5F)c5ccc([nH]5)c(-c5c(F)c(F)c(F)c(F)c5F)c5nc(c(-c6c(F)c(F)c(F)c(F)c6F)c6ccc3[nH]6)C=C5)C=C4)cc2)CCC[C@H]1CCOC
REMARK SMILES IDX 7 1 6 2 4 3 5 4 3 6 76 7 79 8 77 9 78 10 2 11 1 12 80 15
REMARK SMILES IDX 81 16 82 17 83 18 8 19 9 20 10 21 11 22 12 24 13 25 14 26
REMARK SMILES IDX 75 27 15 28 74 29 16 30 17 31 18 32 68 33 19 34 73 35 67 36
REMARK SMILES IDX 69 37 20 38 72 39 66 40 65 41 21 43 53 44 33 45 52 46 34 47
REMARK SMILES IDX 37 48 51 49 70 50 35 51 36 52 50 54 71 55 38 56 22 57 23 58
REMARK SMILES IDX 31 59 24 60 25 61 29 62 32 63 26 64 27 65 30 66 28 67 54 68
REMARK SMILES IDX 55 69 63 70 56 71 57 72 61 73 64 74 58 75 59 76 62 77 60 78
REMARK SMILES IDX 39 79 40 80 48 81 41 82 42 83 46 84 49 85 43 86 44 87 47 88
REMARK SMILES IDX 45 89
REMARK H PARENT 6 5 2 13 2 14 10 23 69 42 37 53
REMARK Flexibility Score: inf
ROOT
ATOM      1  C   UNL A   1      31.415  30.911  26.264  1.00  0.00     0.118 C 
ENDROOT
BRANCH   1   2
ATOM      2  N   UNL A   1      32.736  30.366  26.456  1.00  0.00    -0.351 N 
ATOM      3  C   UNL A   1      33.324  29.200  26.080  1.00  0.00     0.281 C 
ATOM      4  O   UNL A   1      34.474  29.068  26.528  1.00  0.00    -0.268 OA
ATOM      5  H   UNL A   1      33.335  30.960  26.963  1.00  0.00     0.163 HD
BRANCH   3   6
ATOM      6  C   UNL A   1      32.624  28.067  25.199  1.00  0.00     0.178 C 
ATOM      7  C   UNL A   1      31.371  27.432  25.836  1.00  0.00     0.079 C 
ATOM      8  C   UNL A   1      33.640  26.892  24.985  1.00  0.00     0.063 C 
ATOM      9  C   UNL A   1      31.678  25.988  26.202  1.00  0.00     0.008 C 
ATOM     10  C   UNL A   1      33.121  25.712  25.831  1.00  0.00     0.011 C 
BRANCH   6  11
ATOM     11  N   UNL A   1      32.223  28.693  23.904  1.00  0.00    -0.336 N 
ATOM     12  C   UNL A   1      30.840  28.463  23.491  1.00  0.00     0.331 C 
ATOM     13  H   UNL A   1      32.363  29.700  23.986  1.00  0.00     0.346 HD
ATOM     14  H   UNL A   1      32.804  28.252  23.191  1.00  0.00     0.346 HD
ENDBRANCH   6  11
BRANCH   8  15
ATOM     15  C   UNL A   1      33.896  26.380  23.547  1.00  0.00     0.039 C 
BRANCH  15  16
ATOM     16  C   UNL A   1      33.690  24.889  23.267  1.00  0.00     0.160 C 
BRANCH  16  17
ATOM     17  O   UNL A   1      33.428  24.624  21.892  1.00  0.00    -0.385 OA
ATOM     18  C   UNL A   1      32.676  25.642  21.244  1.00  0.00     0.194 C 
ENDBRANCH  16  17
ENDBRANCH  15  16
ENDBRANCH   8  15
ENDBRANCH   3   6
ENDBRANCH   1   2
BRANCH   1  19
ATOM     19  C   UNL A   1      31.368  32.410  26.529  1.00  0.00     0.042 C 
BRANCH  19  20
ATOM     20  C   UNL A   1      32.597  32.922  27.270  1.00  0.00     0.118 C 
BRANCH  20  21
ATOM     21  N   UNL A   1      32.447  34.314  27.687  1.00  0.00    -0.352 N 
ATOM     22  C   UNL A   1      33.027  35.010  28.718  1.00  0.00     0.251 C 
ATOM     23  H   UNL A   1      31.824  34.841  27.137  1.00  0.00     0.163 HD
ATOM     24  O   UNL A   1      32.571  36.102  29.042  1.00  0.00    -0.269 OA
BRANCH  22  25
ATOM     25  C   UNL A   1      34.189  34.453  29.440  1.00  0.00     0.039 A 
ATOM     26  C   UNL A   1      33.983  33.815  30.668  1.00  0.00     0.014 A 
ATOM     27  C   UNL A   1      35.482  34.591  28.934  1.00  0.00     0.014 A 
ATOM     28  C   UNL A   1      35.069  33.259  31.348  1.00  0.00     0.010 A 
ATOM     29  C   UNL A   1      36.544  33.949  29.558  1.00  0.00     0.010 A 
ATOM     30  C   UNL A   1      36.351  33.288  30.778  1.00  0.00    -0.014 A 
BRANCH  30  31
ATOM     31  C   UNL A   1      37.512  32.647  31.446  1.00  0.00     0.031 A 
ATOM     32  C   UNL A   1      38.218  31.495  30.787  1.00  0.00     0.074 A 
ATOM     33  C   UNL A   1      37.879  33.055  32.676  1.00  0.00     0.049 A 
ATOM     34  N   UNL A   1      39.193  30.749  31.241  1.00  0.00    -0.248 NA
ATOM     35  C   UNL A   1      37.741  31.104  29.449  1.00  0.00     0.031 C 
ATOM     36  C   UNL A   1      37.235  34.125  33.440  1.00  0.00     0.029 A 
ATOM     37  N   UNL A   1      38.876  32.609  33.508  1.00  0.00    -0.354 N 
ATOM     38  C   UNL A   1      39.430  29.798  30.259  1.00  0.00     0.074 A 
ATOM     39  C   UNL A   1      38.456  30.016  29.213  1.00  0.00     0.031 C 
ATOM     40  C   UNL A   1      37.871  34.273  34.613  1.00  0.00     0.029 A 
ATOM     41  C   UNL A   1      38.935  33.279  34.705  1.00  0.00     0.049 A 
ATOM     42  H   UNL A   1      39.490  31.877  33.268  1.00  0.00     0.167 HD
ATOM     43  C   UNL A   1      40.392  28.845  30.220  1.00  0.00     0.037 A 
ATOM     44  C   UNL A   1      39.752  33.105  35.760  1.00  0.00     0.037 A 
ATOM     45  C   UNL A   1      41.373  28.651  31.255  1.00  0.00     0.049 A 
ATOM     46  C   UNL A   1      40.806  32.033  35.697  1.00  0.00     0.074 A 
ATOM     47  C   UNL A   1      42.430  27.759  31.286  1.00  0.00     0.029 A 
ATOM     48  N   UNL A   1      41.413  29.361  32.446  1.00  0.00    -0.354 N 
ATOM     49  N   UNL A   1      41.071  31.188  34.730  1.00  0.00    -0.248 NA
ATOM     50  C   UNL A   1      41.679  31.895  36.869  1.00  0.00     0.031 C 
ATOM     51  C   UNL A   1      43.075  27.890  32.520  1.00  0.00     0.029 A 
ATOM     52  C   UNL A   1      42.460  28.908  33.232  1.00  0.00     0.049 A 
ATOM     53  H   UNL A   1      40.790  30.081  32.697  1.00  0.00     0.167 HD
ATOM     54  C   UNL A   1      42.157  30.439  35.162  1.00  0.00     0.074 A 
ATOM     55  C   UNL A   1      42.513  30.943  36.473  1.00  0.00     0.031 C 
ATOM     56  C   UNL A   1      42.802  29.426  34.534  1.00  0.00     0.037 A 
BRANCH  43  57
ATOM     57  C   UNL A   1      40.429  27.941  29.020  1.00  0.00     0.064 A 
ATOM     58  C   UNL A   1      41.209  28.242  27.891  1.00  0.00     0.173 A 
ATOM     59  C   UNL A   1      39.695  26.745  29.005  1.00  0.00     0.173 A 
ATOM     60  F   UNL A   1      41.922  29.379  27.846  1.00  0.00    -0.203 F 
ATOM     61  C   UNL A   1      41.226  27.400  26.783  1.00  0.00     0.198 A 
ATOM     62  C   UNL A   1      39.742  25.887  27.910  1.00  0.00     0.198 A 
ATOM     63  F   UNL A   1      38.936  26.404  30.057  1.00  0.00    -0.203 F 
ATOM     64  F   UNL A   1      41.932  27.739  25.696  1.00  0.00    -0.200 F 
ATOM     65  C   UNL A   1      40.498  26.219  26.796  1.00  0.00     0.200 A 
ATOM     66  F   UNL A   1      39.051  24.739  27.929  1.00  0.00    -0.200 F 
ATOM     67  F   UNL A   1      40.520  25.406  25.730  1.00  0.00    -0.200 F 
ENDBRANCH  43  57
BRANCH  44  68
ATOM     68  C   UNL A   1      39.621  33.979  36.955  1.00  0.00     0.064 A 
ATOM     69  C   UNL A   1      38.855  33.581  38.059  1.00  0.00     0.173 A 
ATOM     70  C   UNL A   1      40.257  35.229  37.022  1.00  0.00     0.173 A 
ATOM     71  F   UNL A   1      38.214  32.403  38.037  1.00  0.00    -0.203 F 
ATOM     72  C   UNL A   1      38.708  34.405  39.172  1.00  0.00     0.198 A 
ATOM     73  C   UNL A   1      40.137  36.039  38.149  1.00  0.00     0.198 A 
ATOM     74  F   UNL A   1      41.010  35.655  35.996  1.00  0.00    -0.203 F 
ATOM     75  F   UNL A   1      37.930  34.020  40.192  1.00  0.00    -0.200 F 
ATOM     76  C   UNL A   1      39.355  35.632  39.219  1.00  0.00     0.200 A 
ATOM     77  F   UNL A   1      40.776  37.215  38.196  1.00  0.00    -0.200 F 
ATOM     78  F   UNL A   1      39.218  36.424  40.291  1.00  0.00    -0.200 F 
ENDBRANCH  44  68
BRANCH  56  79
ATOM     79  C   UNL A   1      43.981  28.818  35.237  1.00  0.00     0.064 A 
ATOM     80  C   UNL A   1      43.836  27.742  36.127  1.00  0.00     0.173 A 
ATOM     81  C   UNL A   1      45.277  29.293  34.987  1.00  0.00     0.173 A 
ATOM     82  F   UNL A   1      42.617  27.261  36.411  1.00  0.00    -0.203 F 
ATOM     83  C   UNL A   1      44.944  27.185  36.760  1.00  0.00     0.198 A 
ATOM     84  C   UNL A   1      46.385  28.710  35.595  1.00  0.00     0.198 A 
ATOM     85  F   UNL A   1      45.472  30.315  34.139  1.00  0.00    -0.203 F 
ATOM     86  F   UNL A   1      44.777  26.193  37.647  1.00  0.00    -0.200 F 
ATOM     87  C   UNL A   1      46.217  27.662  36.487  1.00  0.00     0.200 A 
ATOM     88  F   UNL A   1      47.616  29.162  35.317  1.00  0.00    -0.200 F 
ATOM     89  F   UNL A   1      47.282  27.118  37.091  1.00  0.00    -0.200 F 
ENDBRANCH  56  79
ENDBRANCH  30  31
ENDBRANCH  22  25
ENDBRANCH  20  21
ENDBRANCH  19  20
ENDBRANCH   1  19
TORSDOF 14
ENDMDL
MODEL 2
REMARK VINA RESULT:     -10.8      6.025     11.463
REMARK SMILES C[NH2+][C@@]1(C(=O)NCCCNC(=O)c2ccc(-c3c4nc(c(-c5c(F)c(F)c(F)c(F)c5F)c5ccc([nH]5)c(-c5c(F)c(F)c(F)c(F)c5F)c5nc(c(-c6c(F)c(F)c(F)c(F)c6F)c6ccc3[nH]6)C=C5)C=C4)cc2)CCC[C@H]1CCOC
REMARK SMILES IDX 7 1 6 2 4 3 5 4 3 6 76 7 79 8 77 9 78 10 2 11 1 12 80 15
REMARK SMILES IDX 81 16 82 17 83 18 8 19 9 20 10 21 11 22 12 24 13 25 14 26
REMARK SMILES IDX 75 27 15 28 74 29 16 30 17 31 18 32 68 33 19 34 73 35 67 36
REMARK SMILES IDX 69 37 20 38 72 39 66 40 65 41 21 43 53 44 33 45 52 46 34 47
REMARK SMILES IDX 37 48 51 49 70 50 35 51 36 52 50 54 71 55 38 56 22 57 23 58
REMARK SMILES IDX 31 59 24 60 25 61 29 62 32 63 26 64 27 65 30 66 28 67 54 68
REMARK SMILES IDX 55 69 63 70 56 71 57 72 61 73 64 74 58 75 59 76 62 77 60 78
REMARK SMILES IDX 39 79 40 80 48 81 41 82 42 83 46 84 49 85 43 86 44 87 47 88
REMARK SMILES IDX 45 89
REMARK H PARENT 6 5 2 13 2 14 10 23 69 42 37 53
REMARK Flexibility Score: inf
ROOT
ATOM      1  C   UNL A   1      36.635  20.519  24.984  1.00  0.00     0.118 C 
ENDROOT
BRANCH   1   2
ATOM      2  N   UNL A   1      35.388  19.794  25.004  1.00  0.00    -0.351 N 
ATOM      3  C   UNL A   1      34.086  20.184  25.021  1.00  0.00     0.281 C 
ATOM      4  O   UNL A   1      33.296  19.234  25.131  1.00  0.00    -0.268 OA
ATOM      5  H   UNL A   1      35.504  18.817  25.008  1.00  0.00     0.163 HD
BRANCH   3   6
ATOM      6  C   UNL A   1      33.587  21.699  24.962  1.00  0.00     0.178 C 
ATOM      7  C   UNL A   1      32.057  21.881  25.038  1.00  0.00     0.079 C 
ATOM      8  C   UNL A   1      34.026  22.325  23.593  1.00  0.00     0.063 C 
ATOM      9  C   UNL A   1      31.549  22.386  23.696  1.00  0.00     0.008 C 
ATOM     10  C   UNL A   1      32.739  22.498  22.763  1.00  0.00     0.011 C 
BRANCH   6  11
ATOM     11  N   UNL A   1      34.200  22.416  26.119  1.00  0.00    -0.336 N 
ATOM     12  C   UNL A   1      33.801  21.940  27.442  1.00  0.00     0.331 C 
ATOM     13  H   UNL A   1      35.213  22.324  26.043  1.00  0.00     0.346 HD
ATOM     14  H   UNL A   1      33.867  23.378  26.058  1.00  0.00     0.346 HD
ENDBRANCH   6  11
BRANCH   8  15
ATOM     15  C   UNL A   1      34.783  23.674  23.598  1.00  0.00     0.039 C 
BRANCH  15  16
ATOM     16  C   UNL A   1      33.963  24.959  23.458  1.00  0.00     0.160 C 
BRANCH  16  17
ATOM     17  O   UNL A   1      34.027  25.507  22.144  1.00  0.00    -0.385 OA
ATOM     18  C   UNL A   1      33.304  26.721  21.993  1.00  0.00     0.194 C 
ENDBRANCH  16  17
ENDBRANCH  15  16
ENDBRANCH   8  15
ENDBRANCH   3   6
ENDBRANCH   1   2
BRANCH   1  19
ATOM     19  C   UNL A   1      37.840  19.589  25.008  1.00  0.00     0.042 C 
BRANCH  19  20
ATOM     20  C   UNL A   1      39.029  20.174  25.760  1.00  0.00     0.118 C 
BRANCH  20  21
ATOM     21  N   UNL A   1      40.088  19.189  25.965  1.00  0.00    -0.352 N 
ATOM     22  C   UNL A   1      41.442  19.347  26.127  1.00  0.00     0.251 C 
ATOM     23  H   UNL A   1      39.779  18.255  25.989  1.00  0.00     0.163 HD
ATOM     24  O   UNL A   1      42.180  18.372  26.034  1.00  0.00    -0.269 OA
BRANCH  22  25
ATOM     25  C   UNL A   1      42.014  20.680  26.408  1.00  0.00     0.039 A 
ATOM     26  C   UNL A   1      42.330  21.522  25.337  1.00  0.00     0.014 A 
ATOM     27  C   UNL A   1      42.277  21.087  27.717  1.00  0.00     0.014 A 
ATOM     28  C   UNL A   1      42.845  22.796  25.587  1.00  0.00     0.010 A 
ATOM     29  C   UNL A   1      42.691  22.388  27.968  1.00  0.00     0.010 A 
ATOM     30  C   UNL A   1      42.992  23.253  26.907  1.00  0.00    -0.014 A 
BRANCH  30  31
ATOM     31  C   UNL A   1      43.474  24.625  27.204  1.00  0.00     0.031 A 
ATOM     32  C   UNL A   1      42.527  25.652  27.759  1.00  0.00     0.074 A 
ATOM     33  C   UNL A   1      44.743  24.963  26.903  1.00  0.00     0.049 A 
ATOM     34  N   UNL A   1      42.730  26.921  28.005  1.00  0.00    -0.248 NA
ATOM     35  C   UNL A   1      41.154  25.200  28.044  1.00  0.00     0.031 C 
ATOM     36  C   UNL A   1      45.739  24.069  26.310  1.00  0.00     0.029 A 
ATOM     37  N   UNL A   1      45.410  26.154  27.043  1.00  0.00    -0.354 N 
ATOM     38  C   UNL A   1      41.514  27.418  28.452  1.00  0.00     0.074 A 
ATOM     39  C   UNL A   1      40.560  26.333  28.383  1.00  0.00     0.031 C 
ATOM     40  C   UNL A   1      46.896  24.733  26.165  1.00  0.00     0.029 A 
ATOM     41  C   UNL A   1      46.712  26.110  26.609  1.00  0.00     0.049 A 
ATOM     42  H   UNL A   1      44.993  26.964  27.418  1.00  0.00     0.167 HD
ATOM     43  C   UNL A   1      41.224  28.661  28.908  1.00  0.00     0.037 A 
ATOM     44  C   UNL A   1      47.648  27.076  26.568  1.00  0.00     0.037 A 
ATOM     45  C   UNL A   1      42.186  29.728  28.997  1.00  0.00     0.049 A 
ATOM     46  C   UNL A   1      47.300  28.452  27.070  1.00  0.00     0.074 A 
ATOM     47  C   UNL A   1      42.015  31.004  29.502  1.00  0.00     0.029 A 
ATOM     48  N   UNL A   1      43.502  29.641  28.564  1.00  0.00    -0.354 N 
ATOM     49  N   UNL A   1      46.167  28.891  27.563  1.00  0.00    -0.248 NA
ATOM     50  C   UNL A   1      48.362  29.464  27.017  1.00  0.00     0.031 C 
ATOM     51  C   UNL A   1      43.210  31.707  29.324  1.00  0.00     0.029 A 
ATOM     52  C   UNL A   1      44.146  30.851  28.766  1.00  0.00     0.049 A 
ATOM     53  H   UNL A   1      43.917  28.839  28.172  1.00  0.00     0.167 HD
ATOM     54  C   UNL A   1      46.387  30.218  27.905  1.00  0.00     0.074 A 
ATOM     55  C   UNL A   1      47.769  30.507  27.579  1.00  0.00     0.031 C 
ATOM     56  C   UNL A   1      45.525  31.118  28.439  1.00  0.00     0.037 A 
BRANCH  43  57
ATOM     57  C   UNL A   1      39.812  28.932  29.343  1.00  0.00     0.064 A 
ATOM     58  C   UNL A   1      39.387  28.700  30.662  1.00  0.00     0.173 A 
ATOM     59  C   UNL A   1      38.874  29.454  28.438  1.00  0.00     0.173 A 
ATOM     60  F   UNL A   1      40.238  28.190  31.566  1.00  0.00    -0.203 F 
ATOM     61  C   UNL A   1      38.072  28.947  31.048  1.00  0.00     0.198 A 
ATOM     62  C   UNL A   1      37.570  29.734  28.837  1.00  0.00     0.198 A 
ATOM     63  F   UNL A   1      39.225  29.700  27.167  1.00  0.00    -0.203 F 
ATOM     64  F   UNL A   1      37.678  28.662  32.296  1.00  0.00    -0.200 F 
ATOM     65  C   UNL A   1      37.167  29.471  30.137  1.00  0.00     0.200 A 
ATOM     66  F   UNL A   1      36.700  30.254  27.961  1.00  0.00    -0.200 F 
ATOM     67  F   UNL A   1      35.903  29.713  30.512  1.00  0.00    -0.200 F 
ENDBRANCH  43  57
BRANCH  44  68
ATOM     68  C   UNL A   1      49.010  26.772  26.056  1.00  0.00     0.064 A 
ATOM     69  C   UNL A   1      49.346  27.013  24.717  1.00  0.00     0.173 A 
ATOM     70  C   UNL A   1      50.004  26.235  26.889  1.00  0.00     0.173 A 
ATOM     71  F   UNL A   1      48.426  27.509  23.876  1.00  0.00    -0.203 F 
ATOM     72  C   UNL A   1      50.613  26.707  24.224  1.00  0.00     0.198 A 
ATOM     73  C   UNL A   1      51.280  25.960  26.404  1.00  0.00     0.198 A 
ATOM     74  F   UNL A   1      49.738  25.993  28.182  1.00  0.00    -0.203 F 
ATOM     75  F   UNL A   1      50.891  26.903  22.928  1.00  0.00    -0.200 F 
ATOM     76  C   UNL A   1      51.581  26.187  25.069  1.00  0.00     0.200 A 
ATOM     77  F   UNL A   1      52.217  25.473  27.228  1.00  0.00    -0.200 F 
ATOM     78  F   UNL A   1      52.801  25.897  24.597  1.00  0.00    -0.200 F 
ENDBRANCH  44  68
BRANCH  56  79
ATOM     79  C   UNL A   1      46.059  32.489  28.740  1.00  0.00     0.064 A 
ATOM     80  C   UNL A   1      46.663  32.793  29.970  1.00  0.00     0.173 A 
ATOM     81  C   UNL A   1      46.001  33.500  27.769  1.00  0.00     0.173 A 
ATOM     82  F   UNL A   1      46.729  31.866  30.937  1.00  0.00    -0.203 F 
ATOM     83  C   UNL A   1      47.163  34.067  30.225  1.00  0.00     0.198 A 
ATOM     84  C   UNL A   1      46.534  34.762  28.015  1.00  0.00     0.198 A 
ATOM     85  F   UNL A   1      45.442  33.260  26.573  1.00  0.00    -0.203 F 
ATOM     86  F   UNL A   1      47.687  34.350  31.425  1.00  0.00    -0.200 F 
ATOM     87  C   UNL A   1      47.106  35.047  29.245  1.00  0.00     0.200 A 
ATOM     88  F   UNL A   1      46.495  35.702  27.061  1.00  0.00    -0.200 F 
ATOM     89  F   UNL A   1      47.598  36.270  29.489  1.00  0.00    -0.200 F 
ENDBRANCH  56  79
ENDBRANCH  30  31
ENDBRANCH  22  25
ENDBRANCH  20  21
ENDBRANCH  19  20
ENDBRANCH   1  19
TORSDOF 14
ENDMDL
MODEL 3
REMARK VINA RESULT:     -10.7      1.147      1.972
REMARK SMILES C[NH2+][C@@]1(C(=O)NCCCNC(=O)c2ccc(-c3c4nc(c(-c5c(F)c(F)c(F)c(F)c5F)c5ccc([nH]5)c(-c5c(F)c(F)c(F)c(F)c5F)c5nc(c(-c6c(F)c(F)c(F)c(F)c6F)c6ccc3[nH]6)C=C5)C=C4)cc2)CCC[C@H]1CCOC
REMARK SMILES IDX 7 1 6 2 4 3 5 4 3 6 76 7 79 8 77 9 78 10 2 11 1 12 80 15
REMARK SMILES IDX 81 16 82 17 83 18 8 19 9 20 10 21 11 22 12 24 13 25 14 26
REMARK SMILES IDX 75 27 15 28 74 29 16 30 17 31 18 32 68 33 19 34 73 35 67 36
REMARK SMILES IDX 69 37 20 38 72 39 66 40 65 41 21 43 53 44 33 45 52 46 34 47
REMARK SMILES IDX 37 48 51 49 70 50 35 51 36 52 50 54 71 55 38 56 22 57 23 58
REMARK SMILES IDX 31 59 24 60 25 61 29 62 32 63 26 64 27 65 30 66 28 67 54 68
REMARK SMILES IDX 55 69 63 70 56 71 57 72 61 73 64 74 58 75 59 76 62 77 60 78
REMARK SMILES IDX 39 79 40 80 48 81 41 82 42 83 46 84 49 85 43 86 44 87 47 88
REMARK SMILES IDX 45 89
REMARK H PARENT 6 5 2 13 2 14 10 23 69 42 37 53
REMARK Flexibility Score: inf
ROOT
ATOM      1  C   UNL A   1      31.607  30.628  25.860  1.00  0.00     0.118 C 
ENDROOT
BRANCH   1   2
ATOM      2  N   UNL A   1      30.796  30.442  24.682  1.00  0.00    -0.351 N 
ATOM      3  C   UNL A   1      30.636  29.407  23.817  1.00  0.00     0.281 C 
ATOM      4  O   UNL A   1      29.897  29.682  22.859  1.00  0.00    -0.268 OA
ATOM      5  H   UNL A   1      30.245  31.227  24.458  1.00  0.00     0.163 HD
BRANCH   3   6
ATOM      6  C   UNL A   1      31.350  27.985  23.954  1.00  0.00     0.178 C 
ATOM      7  C   UNL A   1      31.124  27.028  22.766  1.00  0.00     0.079 C 
ATOM      8  C   UNL A   1      30.774  27.248  25.213  1.00  0.00     0.063 C 
ATOM      9  C   UNL A   1      30.257  25.865  23.222  1.00  0.00     0.008 C 
ATOM     10  C   UNL A   1      29.908  26.090  24.680  1.00  0.00     0.011 C 
BRANCH   6  11
ATOM     11  N   UNL A   1      32.816  28.233  24.082  1.00  0.00    -0.336 N 
ATOM     12  C   UNL A   1      33.654  27.623  23.051  1.00  0.00     0.331 C 
ATOM     13  H   UNL A   1      32.967  29.241  24.054  1.00  0.00     0.346 HD
ATOM     14  H   UNL A   1      33.096  27.797  24.961  1.00  0.00     0.346 HD
ENDBRANCH   6  11
BRANCH   8  15
ATOM     15  C   UNL A   1      31.761  26.673  26.257  1.00  0.00     0.039 C 
BRANCH  15  16
ATOM     16  C   UNL A   1      32.061  25.172  26.211  1.00  0.00     0.160 C 
BRANCH  16  17
ATOM     17  O   UNL A   1      31.403  24.453  27.251  1.00  0.00    -0.385 OA
ATOM     18  C   UNL A   1      30.958  23.160  26.862  1.00  0.00     0.194 C 
ENDBRANCH  16  17
ENDBRANCH  15  16
ENDBRANCH   8  15
ENDBRANCH   3   6
ENDBRANCH   1   2
BRANCH   1  19
ATOM     19  C   UNL A   1      31.384  31.991  26.501  1.00  0.00     0.042 C 
BRANCH  19  20
ATOM     20  C   UNL A   1      32.607  32.503  27.251  1.00  0.00     0.118 C 
BRANCH  20  21
ATOM     21  N   UNL A   1      32.508  33.928  27.557  1.00  0.00    -0.352 N 
ATOM     22  C   UNL A   1      33.120  34.684  28.526  1.00  0.00     0.251 C 
ATOM     23  H   UNL A   1      31.898  34.430  26.970  1.00  0.00     0.163 HD
ATOM     24  O   UNL A   1      32.704  35.813  28.765  1.00  0.00    -0.269 OA
BRANCH  22  25
ATOM     25  C   UNL A   1      34.269  34.147  29.283  1.00  0.00     0.039 A 
ATOM     26  C   UNL A   1      34.028  33.365  30.418  1.00  0.00     0.014 A 
ATOM     27  C   UNL A   1      35.579  34.441  28.904  1.00  0.00     0.014 A 
ATOM     28  C   UNL A   1      35.104  32.826  31.127  1.00  0.00     0.010 A 
ATOM     29  C   UNL A   1      36.643  33.822  29.547  1.00  0.00     0.010 A 
ATOM     30  C   UNL A   1      36.418  33.019  30.673  1.00  0.00    -0.014 A 
BRANCH  30  31
ATOM     31  C   UNL A   1      37.577  32.404  31.368  1.00  0.00     0.031 A 
ATOM     32  C   UNL A   1      38.319  31.264  30.729  1.00  0.00     0.074 A 
ATOM     33  C   UNL A   1      37.911  32.826  32.603  1.00  0.00     0.049 A 
ATOM     34  N   UNL A   1      39.299  30.540  31.207  1.00  0.00    -0.248 NA
ATOM     35  C   UNL A   1      37.878  30.858  29.384  1.00  0.00     0.031 C 
ATOM     36  C   UNL A   1      37.230  33.887  33.349  1.00  0.00     0.029 A 
ATOM     37  N   UNL A   1      38.899  32.403  33.458  1.00  0.00    -0.354 N 
ATOM     38  C   UNL A   1      39.575  29.589  30.235  1.00  0.00     0.074 A 
ATOM     39  C   UNL A   1      38.619  29.783  29.168  1.00  0.00     0.031 C 
ATOM     40  C   UNL A   1      37.839  34.052  34.533  1.00  0.00     0.029 A 
ATOM     41  C   UNL A   1      38.920  33.080  34.652  1.00  0.00     0.049 A 
ATOM     42  H   UNL A   1      39.532  31.683  33.234  1.00  0.00     0.167 HD
ATOM     43  C   UNL A   1      40.556  28.655  30.220  1.00  0.00     0.037 A 
ATOM     44  C   UNL A   1      39.718  32.927  35.725  1.00  0.00     0.037 A 
ATOM     45  C   UNL A   1      41.520  28.485  31.276  1.00  0.00     0.049 A 
ATOM     46  C   UNL A   1      40.794  31.875  35.688  1.00  0.00     0.074 A 
ATOM     47  C   UNL A   1      42.593  27.614  31.334  1.00  0.00     0.029 A 
ATOM     48  N   UNL A   1      41.520  29.202  32.465  1.00  0.00    -0.354 N 
ATOM     49  N   UNL A   1      41.096  31.032  34.732  1.00  0.00    -0.248 NA
ATOM     50  C   UNL A   1      41.646  31.760  36.879  1.00  0.00     0.031 C 
ATOM     51  C   UNL A   1      43.209  27.764  32.580  1.00  0.00     0.029 A 
ATOM     52  C   UNL A   1      42.560  28.772  33.274  1.00  0.00     0.049 A 
ATOM     53  H   UNL A   1      40.878  29.910  32.699  1.00  0.00     0.167 HD
ATOM     54  C   UNL A   1      42.187  30.306  35.190  1.00  0.00     0.074 A 
ATOM     55  C   UNL A   1      42.506  30.824  36.505  1.00  0.00     0.031 C 
ATOM     56  C   UNL A   1      42.864  29.303  34.580  1.00  0.00     0.037 A 
BRANCH  43  57
ATOM     57  C   UNL A   1      40.636  27.746  29.026  1.00  0.00     0.064 A 
ATOM     58  C   UNL A   1      41.536  27.985  27.975  1.00  0.00     0.173 A 
ATOM     59  C   UNL A   1      39.820  26.608  28.940  1.00  0.00     0.173 A 
ATOM     60  F   UNL A   1      42.332  29.065  27.998  1.00  0.00    -0.203 F 
ATOM     61  C   UNL A   1      41.591  27.139  26.870  1.00  0.00     0.198 A 
ATOM     62  C   UNL A   1      39.903  25.745  27.851  1.00  0.00     0.198 A 
ATOM     63  F   UNL A   1      38.944  26.328  29.917  1.00  0.00    -0.203 F 
ATOM     64  F   UNL A   1      42.417  27.421  25.853  1.00  0.00    -0.200 F 
ATOM     65  C   UNL A   1      40.780  26.016  26.813  1.00  0.00     0.200 A 
ATOM     66  F   UNL A   1      39.129  24.651  27.803  1.00  0.00    -0.200 F 
ATOM     67  F   UNL A   1      40.839  25.200  25.751  1.00  0.00    -0.200 F 
ENDBRANCH  43  57
BRANCH  44  68
ATOM     68  C   UNL A   1      39.546  33.804  36.912  1.00  0.00     0.064 A 
ATOM     69  C   UNL A   1      38.762  33.397  38.001  1.00  0.00     0.173 A 
ATOM     70  C   UNL A   1      40.159  35.064  36.987  1.00  0.00     0.173 A 
ATOM     71  F   UNL A   1      38.141  32.209  37.970  1.00  0.00    -0.203 F 
ATOM     72  C   UNL A   1      38.576  34.224  39.106  1.00  0.00     0.198 A 
ATOM     73  C   UNL A   1      39.999  35.878  38.107  1.00  0.00     0.198 A 
ATOM     74  F   UNL A   1      40.927  35.499  35.977  1.00  0.00    -0.203 F 
ATOM     75  F   UNL A   1      37.782  33.830  40.110  1.00  0.00    -0.200 F 
ATOM     76  C   UNL A   1      39.200  35.461  39.161  1.00  0.00     0.200 A 
ATOM     77  F   UNL A   1      40.617  37.064  38.164  1.00  0.00    -0.200 F 
ATOM     78  F   UNL A   1      39.026  36.255  40.227  1.00  0.00    -0.200 F 
ENDBRANCH  44  68
BRANCH  56  79
ATOM     79  C   UNL A   1      44.041  28.722  35.311  1.00  0.00     0.064 A 
ATOM     80  C   UNL A   1      45.336  29.240  35.156  1.00  0.00     0.173 A 
ATOM     81  C   UNL A   1      43.862  27.659  36.208  1.00  0.00     0.173 A 
ATOM     82  F   UNL A   1      45.562  30.246  34.298  1.00  0.00    -0.203 F 
ATOM     83  C   UNL A   1      46.411  28.695  35.852  1.00  0.00     0.198 A 
ATOM     84  C   UNL A   1      44.933  27.140  36.929  1.00  0.00     0.198 A 
ATOM     85  F   UNL A   1      42.642  27.131  36.399  1.00  0.00    -0.203 F 
ATOM     86  F   UNL A   1      47.648  29.170  35.648  1.00  0.00    -0.200 F 
ATOM     87  C   UNL A   1      46.208  27.652  36.744  1.00  0.00     0.200 A 
ATOM     88  F   UNL A   1      44.732  26.144  37.803  1.00  0.00    -0.200 F 
ATOM     89  F   UNL A   1      47.244  27.136  37.420  1.00  0.00    -0.200 F 
ENDBRANCH  56  79
ENDBRANCH  30  31
ENDBRANCH  22  25
ENDBRANCH  20  21
ENDBRANCH  19  20
ENDBRANCH   1  19
TORSDOF 14
ENDMDL
