MODEL 1
REMARK VINA RESULT:     -12.6      0.000      0.000
REMARK SMILES C[C@H]1CN(S(=O)(=O)N2CCO[C@H](CC(=O)NCCCNC(=O)c3ccc(-c4c5nc(c(-c6c(F)c(F)c(F)c(F)c6F)c6ccc([nH]6)c(-c6c(F)c(F)c(F)c(F)c6F)c6nc(c(-c7c(F)c(F)c(F)c(F)c7F)c7ccc4[nH]7)C=C6)C=C5)cc3)C2)C[C@H](C)O1
REMARK SMILES IDX 17 1 16 2 14 3 15 4 13 6 12 7 8 8 9 9 86 10 10 11 11 12 5 13
REMARK SMILES IDX 6 14 7 15 4 16 1 17 2 18 3 19 90 20 88 21 87 22 89 23 18 24
REMARK SMILES IDX 19 25 20 26 21 27 22 29 23 30 24 31 85 32 25 33 84 34 26 35
REMARK SMILES IDX 27 36 28 37 78 38 29 39 83 40 77 41 79 42 30 43 82 44 76 45
REMARK SMILES IDX 75 46 31 48 63 49 43 50 62 51 44 52 47 53 61 54 80 55 45 56
REMARK SMILES IDX 46 57 60 59 81 60 48 61 32 62 33 63 41 64 34 65 35 66 39 67
REMARK SMILES IDX 42 68 36 69 37 70 40 71 38 72 64 73 65 74 73 75 66 76 67 77
REMARK SMILES IDX 71 78 74 79 68 80 69 81 72 82 70 83 49 84 50 85 58 86 51 87
REMARK SMILES IDX 52 88 56 89 59 90 53 91 54 92 57 93 55 94
REMARK H PARENT 16 5 20 28 79 47 47 58
REMARK Flexibility Score: inf
ROOT
ATOM      1  C   UNL A   1      31.368  30.703  26.512  1.00  0.00     0.117 C 
ENDROOT
BRANCH   1   2
ATOM      2  N   UNL A   1      32.053  30.228  25.325  1.00  0.00    -0.356 N 
ATOM      3  C   UNL A   1      32.836  29.137  25.122  1.00  0.00     0.222 C 
ATOM      4  O   UNL A   1      33.396  29.028  24.031  1.00  0.00    -0.275 OA
ATOM      5  H   UNL A   1      31.930  30.796  24.529  1.00  0.00     0.163 HD
BRANCH   3   6
ATOM      6  C   UNL A   1      32.995  28.075  26.182  1.00  0.00     0.133 C 
BRANCH   6   7
ATOM      7  C   UNL A   1      32.072  26.865  26.079  1.00  0.00     0.142 C 
ATOM      8  N   UNL A   1      31.729  24.526  25.316  1.00  0.00    -0.184 NA
ATOM      9  C   UNL A   1      30.583  24.965  24.498  1.00  0.00     0.132 C 
ATOM     10  C   UNL A   1      32.737  25.591  25.520  1.00  0.00     0.136 C 
ATOM     11  C   UNL A   1      29.975  26.221  25.124  1.00  0.00     0.177 C 
ATOM     12  O   UNL A   1      30.951  27.267  25.253  1.00  0.00    -0.375 OA
BRANCH   8  13
ATOM     13  S   UNL A   1      31.583  23.175  26.277  1.00  0.00     0.282 S 
ATOM     14  O   UNL A   1      30.257  22.618  26.132  1.00  0.00    -0.195 OA
ATOM     15  O   UNL A   1      32.124  23.521  27.568  1.00  0.00    -0.195 OA
BRANCH  13  16
ATOM     16  N   UNL A   1      32.686  22.122  25.532  1.00  0.00    -0.184 NA
ATOM     17  C   UNL A   1      32.614  18.774  23.666  1.00  0.00     0.040 C 
ATOM     18  C   UNL A   1      33.160  20.095  24.204  1.00  0.00     0.130 C 
ATOM     19  C   UNL A   1      32.131  20.813  25.088  1.00  0.00     0.135 C 
ATOM     20  O   UNL A   1      34.348  19.829  24.966  1.00  0.00    -0.373 OA
ATOM     21  C   UNL A   1      34.936  21.026  25.513  1.00  0.00     0.130 C 
ATOM     22  C   UNL A   1      33.926  21.855  26.338  1.00  0.00     0.135 C 
ATOM     23  C   UNL A   1      35.621  21.848  24.422  1.00  0.00     0.040 C 
ENDBRANCH  13  16
ENDBRANCH   8  13
ENDBRANCH   6   7
ENDBRANCH   3   6
ENDBRANCH   1   2
BRANCH   1  24
ATOM     24  C   UNL A   1      31.376  32.227  26.580  1.00  0.00     0.042 C 
BRANCH  24  25
ATOM     25  C   UNL A   1      32.654  32.848  27.128  1.00  0.00     0.118 C 
BRANCH  25  26
ATOM     26  N   UNL A   1      32.443  34.211  27.586  1.00  0.00    -0.352 N 
ATOM     27  C   UNL A   1      33.022  34.890  28.630  1.00  0.00     0.251 C 
ATOM     28  H   UNL A   1      31.783  34.727  27.068  1.00  0.00     0.163 HD
ATOM     29  O   UNL A   1      32.532  35.956  28.995  1.00  0.00    -0.269 OA
BRANCH  27  30
ATOM     30  C   UNL A   1      34.209  34.349  29.330  1.00  0.00     0.039 A 
ATOM     31  C   UNL A   1      34.017  33.622  30.509  1.00  0.00     0.014 A 
ATOM     32  C   UNL A   1      35.507  34.588  28.869  1.00  0.00     0.014 A 
ATOM     33  C   UNL A   1      35.115  33.086  31.187  1.00  0.00     0.010 A 
ATOM     34  C   UNL A   1      36.595  33.984  29.501  1.00  0.00     0.010 A 
ATOM     35  C   UNL A   1      36.412  33.229  30.669  1.00  0.00    -0.014 A 
BRANCH  35  36
ATOM     36  C   UNL A   1      37.578  32.585  31.329  1.00  0.00     0.031 A 
ATOM     37  C   UNL A   1      38.297  31.441  30.668  1.00  0.00     0.074 A 
ATOM     38  C   UNL A   1      37.958  32.999  32.554  1.00  0.00     0.049 A 
ATOM     39  N   UNL A   1      39.297  30.720  31.116  1.00  0.00    -0.248 NA
ATOM     40  C   UNL A   1      37.820  31.036  29.337  1.00  0.00     0.031 C 
ATOM     41  C   UNL A   1      37.317  34.070  33.319  1.00  0.00     0.029 A 
ATOM     42  N   UNL A   1      38.967  32.563  33.378  1.00  0.00    -0.354 N 
ATOM     43  C   UNL A   1      39.557  29.776  30.130  1.00  0.00     0.074 A 
ATOM     44  C   UNL A   1      38.579  29.981  29.082  1.00  0.00     0.031 C 
ATOM     45  C   UNL A   1      37.960  34.222  34.488  1.00  0.00     0.029 A 
ATOM     46  C   UNL A   1      39.026  33.230  34.578  1.00  0.00     0.049 A 
ATOM     47  H   UNL A   1      39.591  31.842  33.131  1.00  0.00     0.167 HD
ATOM     48  C   UNL A   1      40.533  28.839  30.093  1.00  0.00     0.037 A 
ATOM     49  C   UNL A   1      39.835  33.049  35.640  1.00  0.00     0.037 A 
ATOM     50  C   UNL A   1      41.513  28.647  31.132  1.00  0.00     0.049 A 
ATOM     51  C   UNL A   1      40.893  31.979  35.583  1.00  0.00     0.074 A 
ATOM     52  C   UNL A   1      42.578  27.763  31.161  1.00  0.00     0.029 A 
ATOM     53  N   UNL A   1      41.542  29.344  32.331  1.00  0.00    -0.354 N 
ATOM     54  N   UNL A   1      41.178  31.145  34.612  1.00  0.00    -0.248 NA
ATOM     55  C   UNL A   1      41.746  31.828  36.770  1.00  0.00     0.031 C 
ATOM     56  C   UNL A   1      43.211  27.879  32.401  1.00  0.00     0.029 A 
ATOM     57  C   UNL A   1      42.586  28.886  33.119  1.00  0.00     0.049 A 
ATOM     58  H   UNL A   1      40.914  30.058  32.585  1.00  0.00     0.167 HD
ATOM     59  C   UNL A   1      42.260  30.397  35.056  1.00  0.00     0.074 A 
ATOM     60  C   UNL A   1      42.594  30.888  36.376  1.00  0.00     0.031 C 
ATOM     61  C   UNL A   1      42.917  29.391  34.428  1.00  0.00     0.037 A 
BRANCH  48  62
ATOM     62  C   UNL A   1      40.600  27.939  28.891  1.00  0.00     0.064 A 
ATOM     63  C   UNL A   1      39.845  26.759  28.811  1.00  0.00     0.173 A 
ATOM     64  C   UNL A   1      41.381  28.292  27.780  1.00  0.00     0.173 A 
ATOM     65  F   UNL A   1      39.086  26.369  29.847  1.00  0.00    -0.203 F 
ATOM     66  C   UNL A   1      39.886  25.956  27.673  1.00  0.00     0.198 A 
ATOM     67  C   UNL A   1      41.394  27.504  26.632  1.00  0.00     0.198 A 
ATOM     68  F   UNL A   1      42.117  29.414  27.799  1.00  0.00    -0.203 F 
ATOM     69  F   UNL A   1      39.188  24.812  27.637  1.00  0.00    -0.200 F 
ATOM     70  C   UNL A   1      40.653  26.334  26.581  1.00  0.00     0.200 A 
ATOM     71  F   UNL A   1      42.122  27.881  25.571  1.00  0.00    -0.200 F 
ATOM     72  F   UNL A   1      40.679  25.569  25.481  1.00  0.00    -0.200 F 
ENDBRANCH  48  62
BRANCH  49  73
ATOM     73  C   UNL A   1      39.683  33.900  36.852  1.00  0.00     0.064 A 
ATOM     74  C   UNL A   1      38.879  33.491  37.926  1.00  0.00     0.173 A 
ATOM     75  C   UNL A   1      40.314  35.149  36.951  1.00  0.00     0.173 A 
ATOM     76  F   UNL A   1      38.239  32.313  37.873  1.00  0.00    -0.203 F 
ATOM     77  C   UNL A   1      38.685  34.313  39.035  1.00  0.00     0.198 A 
ATOM     78  C   UNL A   1      40.149  35.953  38.077  1.00  0.00     0.198 A 
ATOM     79  F   UNL A   1      41.101  35.587  35.957  1.00  0.00    -0.203 F 
ATOM     80  F   UNL A   1      37.861  33.924  40.017  1.00  0.00    -0.200 F 
ATOM     81  C   UNL A   1      39.324  35.541  39.111  1.00  0.00     0.200 A 
ATOM     82  F   UNL A   1      40.786  37.130  38.156  1.00  0.00    -0.200 F 
ATOM     83  F   UNL A   1      39.137  36.330  40.178  1.00  0.00    -0.200 F 
ENDBRANCH  49  73
BRANCH  61  84
ATOM     84  C   UNL A   1      44.093  28.782  35.138  1.00  0.00     0.064 A 
ATOM     85  C   UNL A   1      43.957  27.662  35.972  1.00  0.00     0.173 A 
ATOM     86  C   UNL A   1      45.382  29.308  34.953  1.00  0.00     0.173 A 
ATOM     87  F   UNL A   1      42.746  27.129  36.195  1.00  0.00    -0.203 F 
ATOM     88  C   UNL A   1      45.061  27.110  36.618  1.00  0.00     0.198 A 
ATOM     89  C   UNL A   1      46.488  28.731  35.571  1.00  0.00     0.198 A 
ATOM     90  F   UNL A   1      45.570  30.374  34.161  1.00  0.00    -0.203 F 
ATOM     91  F   UNL A   1      44.898  26.076  37.455  1.00  0.00    -0.200 F 
ATOM     92  C   UNL A   1      46.326  27.639  36.410  1.00  0.00     0.200 A 
ATOM     93  F   UNL A   1      47.711  29.233  35.353  1.00  0.00    -0.200 F 
ATOM     94  F   UNL A   1      47.388  27.102  37.025  1.00  0.00    -0.200 F 
ENDBRANCH  61  84
ENDBRANCH  35  36
ENDBRANCH  27  30
ENDBRANCH  25  26
ENDBRANCH  24  25
ENDBRANCH   1  24
TORSDOF 13
ENDMDL
MODEL 2
REMARK VINA RESULT:     -12.5      1.116      1.870
REMARK SMILES C[C@H]1CN(S(=O)(=O)N2CCO[C@H](CC(=O)NCCCNC(=O)c3ccc(-c4c5nc(c(-c6c(F)c(F)c(F)c(F)c6F)c6ccc([nH]6)c(-c6c(F)c(F)c(F)c(F)c6F)c6nc(c(-c7c(F)c(F)c(F)c(F)c7F)c7ccc4[nH]7)C=C6)C=C5)cc3)C2)C[C@H](C)O1
REMARK SMILES IDX 17 1 16 2 14 3 15 4 13 6 12 7 8 8 9 9 86 10 10 11 11 12 5 13
REMARK SMILES IDX 6 14 7 15 4 16 1 17 2 18 3 19 90 20 88 21 87 22 89 23 18 24
REMARK SMILES IDX 19 25 20 26 21 27 22 29 23 30 24 31 85 32 25 33 84 34 26 35
REMARK SMILES IDX 27 36 28 37 78 38 29 39 83 40 77 41 79 42 30 43 82 44 76 45
REMARK SMILES IDX 75 46 31 48 63 49 43 50 62 51 44 52 47 53 61 54 80 55 45 56
REMARK SMILES IDX 46 57 60 59 81 60 48 61 32 62 33 63 41 64 34 65 35 66 39 67
REMARK SMILES IDX 42 68 36 69 37 70 40 71 38 72 64 73 65 74 73 75 66 76 67 77
REMARK SMILES IDX 71 78 74 79 68 80 69 81 72 82 70 83 49 84 50 85 58 86 51 87
REMARK SMILES IDX 52 88 56 89 59 90 53 91 54 92 57 93 55 94
REMARK H PARENT 16 5 20 28 79 47 47 58
REMARK Flexibility Score: inf
ROOT
ATOM      1  C   UNL A   1      31.410  30.839  26.036  1.00  0.00     0.117 C 
ENDROOT
BRANCH   1   2
ATOM      2  N   UNL A   1      32.719  30.280  26.318  1.00  0.00    -0.356 N 
ATOM      3  C   UNL A   1      33.113  29.002  26.551  1.00  0.00     0.222 C 
ATOM      4  O   UNL A   1      34.284  28.814  26.882  1.00  0.00    -0.275 OA
ATOM      5  H   UNL A   1      33.447  30.943  26.344  1.00  0.00     0.163 HD
BRANCH   3   6
ATOM      6  C   UNL A   1      32.161  27.843  26.387  1.00  0.00     0.133 C 
BRANCH   6   7
ATOM      7  C   UNL A   1      32.220  27.096  25.057  1.00  0.00     0.142 C 
ATOM      8  N   UNL A   1      33.485  25.607  23.524  1.00  0.00    -0.184 NA
ATOM      9  C   UNL A   1      33.432  26.646  22.478  1.00  0.00     0.132 C 
ATOM     10  C   UNL A   1      33.437  26.163  24.895  1.00  0.00     0.136 C 
ATOM     11  C   UNL A   1      32.195  27.517  22.703  1.00  0.00     0.177 C 
ATOM     12  O   UNL A   1      32.198  28.102  24.015  1.00  0.00    -0.375 OA
BRANCH   8  13
ATOM     13  S   UNL A   1      33.118  24.031  23.136  1.00  0.00     0.282 S 
ATOM     14  O   UNL A   1      33.688  23.703  21.849  1.00  0.00    -0.195 OA
ATOM     15  O   UNL A   1      31.714  23.849  23.412  1.00  0.00    -0.195 OA
BRANCH  13  16
ATOM     16  N   UNL A   1      33.982  23.190  24.331  1.00  0.00    -0.184 NA
ATOM     17  C   UNL A   1      37.443  21.597  24.755  1.00  0.00     0.040 C 
ATOM     18  C   UNL A   1      36.064  22.134  25.134  1.00  0.00     0.130 C 
ATOM     19  C   UNL A   1      35.288  22.617  23.902  1.00  0.00     0.135 C 
ATOM     20  O   UNL A   1      35.326  21.090  25.790  1.00  0.00    -0.373 OA
ATOM     21  C   UNL A   1      34.005  21.510  26.187  1.00  0.00     0.130 C 
ATOM     22  C   UNL A   1      33.196  22.104  25.011  1.00  0.00     0.135 C 
ATOM     23  C   UNL A   1      34.068  22.450  27.391  1.00  0.00     0.040 C 
ENDBRANCH  13  16
ENDBRANCH   8  13
ENDBRANCH   6   7
ENDBRANCH   3   6
ENDBRANCH   1   2
BRANCH   1  24
ATOM     24  C   UNL A   1      31.318  32.288  26.503  1.00  0.00     0.042 C 
BRANCH  24  25
ATOM     25  C   UNL A   1      32.539  32.813  27.246  1.00  0.00     0.118 C 
BRANCH  25  26
ATOM     26  N   UNL A   1      32.385  34.205  27.630  1.00  0.00    -0.352 N 
ATOM     27  C   UNL A   1      33.007  34.920  28.624  1.00  0.00     0.251 C 
ATOM     28  H   UNL A   1      31.735  34.716  27.095  1.00  0.00     0.163 HD
ATOM     29  O   UNL A   1      32.562  36.021  28.938  1.00  0.00    -0.269 OA
BRANCH  27  30
ATOM     30  C   UNL A   1      34.187  34.375  29.335  1.00  0.00     0.039 A 
ATOM     31  C   UNL A   1      33.989  33.717  30.553  1.00  0.00     0.014 A 
ATOM     32  C   UNL A   1      35.484  34.544  28.843  1.00  0.00     0.014 A 
ATOM     33  C   UNL A   1      35.080  33.180  31.242  1.00  0.00     0.010 A 
ATOM     34  C   UNL A   1      36.562  33.937  29.490  1.00  0.00     0.010 A 
ATOM     35  C   UNL A   1      36.373  33.251  30.698  1.00  0.00    -0.014 A 
BRANCH  35  36
ATOM     36  C   UNL A   1      37.527  32.602  31.374  1.00  0.00     0.031 A 
ATOM     37  C   UNL A   1      38.246  31.451  30.726  1.00  0.00     0.074 A 
ATOM     38  C   UNL A   1      37.896  33.019  32.602  1.00  0.00     0.049 A 
ATOM     39  N   UNL A   1      39.236  30.726  31.188  1.00  0.00    -0.248 NA
ATOM     40  C   UNL A   1      37.781  31.045  29.391  1.00  0.00     0.031 C 
ATOM     41  C   UNL A   1      37.252  34.096  33.356  1.00  0.00     0.029 A 
ATOM     42  N   UNL A   1      38.892  32.580  33.439  1.00  0.00    -0.354 N 
ATOM     43  C   UNL A   1      39.501  29.777  30.208  1.00  0.00     0.074 A 
ATOM     44  C   UNL A   1      38.537  29.983  29.149  1.00  0.00     0.031 C 
ATOM     45  C   UNL A   1      37.883  34.249  34.531  1.00  0.00     0.029 A 
ATOM     46  C   UNL A   1      38.942  33.250  34.637  1.00  0.00     0.049 A 
ATOM     47  H   UNL A   1      39.514  31.854  33.202  1.00  0.00     0.167 HD
ATOM     48  C   UNL A   1      40.473  28.833  30.186  1.00  0.00     0.037 A 
ATOM     49  C   UNL A   1      39.737  33.069  35.709  1.00  0.00     0.037 A 
ATOM     50  C   UNL A   1      41.439  28.640  31.237  1.00  0.00     0.049 A 
ATOM     51  C   UNL A   1      40.789  31.992  35.668  1.00  0.00     0.074 A 
ATOM     52  C   UNL A   1      42.498  27.748  31.281  1.00  0.00     0.029 A 
ATOM     53  N   UNL A   1      41.459  29.341  32.433  1.00  0.00    -0.354 N 
ATOM     54  N   UNL A   1      41.080  31.153  34.703  1.00  0.00    -0.248 NA
ATOM     55  C   UNL A   1      41.628  31.840  36.865  1.00  0.00     0.031 C 
ATOM     56  C   UNL A   1      43.118  27.866  32.528  1.00  0.00     0.029 A 
ATOM     57  C   UNL A   1      42.491  28.879  33.235  1.00  0.00     0.049 A 
ATOM     58  H   UNL A   1      40.832  30.060  32.678  1.00  0.00     0.167 HD
ATOM     59  C   UNL A   1      42.152  30.400  35.163  1.00  0.00     0.074 A 
ATOM     60  C   UNL A   1      42.474  30.894  36.484  1.00  0.00     0.031 C 
ATOM     61  C   UNL A   1      42.810  29.387  34.546  1.00  0.00     0.037 A 
BRANCH  48  62
ATOM     62  C   UNL A   1      40.547  27.928  28.989  1.00  0.00     0.064 A 
ATOM     63  C   UNL A   1      39.779  26.757  28.900  1.00  0.00     0.173 A 
ATOM     64  C   UNL A   1      41.350  28.268  27.889  1.00  0.00     0.173 A 
ATOM     65  F   UNL A   1      39.000  26.380  29.925  1.00  0.00    -0.203 F 
ATOM     66  C   UNL A   1      39.829  25.950  27.766  1.00  0.00     0.198 A 
ATOM     67  C   UNL A   1      41.371  27.476  26.743  1.00  0.00     0.198 A 
ATOM     68  F   UNL A   1      42.099  29.381  27.915  1.00  0.00    -0.203 F 
ATOM     69  F   UNL A   1      39.118  24.814  27.722  1.00  0.00    -0.200 F 
ATOM     70  C   UNL A   1      40.617  26.315  26.685  1.00  0.00     0.200 A 
ATOM     71  F   UNL A   1      42.120  27.841  25.693  1.00  0.00    -0.200 F 
ATOM     72  F   UNL A   1      40.651  25.545  25.588  1.00  0.00    -0.200 F 
ENDBRANCH  48  62
BRANCH  49  73
ATOM     73  C   UNL A   1      39.577  33.926  36.915  1.00  0.00     0.064 A 
ATOM     74  C   UNL A   1      38.825  33.490  38.017  1.00  0.00     0.173 A 
ATOM     75  C   UNL A   1      40.147  35.205  36.984  1.00  0.00     0.173 A 
ATOM     76  F   UNL A   1      38.243  32.281  37.994  1.00  0.00    -0.203 F 
ATOM     77  C   UNL A   1      38.621  34.314  39.122  1.00  0.00     0.198 A 
ATOM     78  C   UNL A   1      39.973  36.014  38.106  1.00  0.00     0.198 A 
ATOM     79  F   UNL A   1      40.883  35.670  35.963  1.00  0.00    -0.203 F 
ATOM     80  F   UNL A   1      37.845  33.897  40.131  1.00  0.00    -0.200 F 
ATOM     81  C   UNL A   1      39.199  35.573  39.167  1.00  0.00     0.200 A 
ATOM     82  F   UNL A   1      40.552  37.222  38.155  1.00  0.00    -0.200 F 
ATOM     83  F   UNL A   1      39.003  36.365  40.230  1.00  0.00    -0.200 F 
ENDBRANCH  49  73
BRANCH  61  84
ATOM     84  C   UNL A   1      43.974  28.774  35.272  1.00  0.00     0.064 A 
ATOM     85  C   UNL A   1      45.283  29.250  35.110  1.00  0.00     0.173 A 
ATOM     86  C   UNL A   1      43.769  27.714  36.171  1.00  0.00     0.173 A 
ATOM     87  F   UNL A   1      45.536  30.251  34.253  1.00  0.00    -0.203 F 
ATOM     88  C   UNL A   1      46.348  28.670  35.796  1.00  0.00     0.198 A 
ATOM     89  C   UNL A   1      44.830  27.161  36.882  1.00  0.00     0.198 A 
ATOM     90  F   UNL A   1      42.536  27.224  36.369  1.00  0.00    -0.203 F 
ATOM     91  F   UNL A   1      47.597  29.104  35.581  1.00  0.00    -0.200 F 
ATOM     92  C   UNL A   1      46.119  27.632  36.688  1.00  0.00     0.200 A 
ATOM     93  F   UNL A   1      44.604  26.172  37.757  1.00  0.00    -0.200 F 
ATOM     94  F   UNL A   1      47.143  27.081  37.353  1.00  0.00    -0.200 F 
ENDBRANCH  61  84
ENDBRANCH  35  36
ENDBRANCH  27  30
ENDBRANCH  25  26
ENDBRANCH  24  25
ENDBRANCH   1  24
TORSDOF 13
ENDMDL
MODEL 3
REMARK VINA RESULT:     -12.4      5.454     11.056
REMARK SMILES C[C@H]1CN(S(=O)(=O)N2CCO[C@H](CC(=O)NCCCNC(=O)c3ccc(-c4c5nc(c(-c6c(F)c(F)c(F)c(F)c6F)c6ccc([nH]6)c(-c6c(F)c(F)c(F)c(F)c6F)c6nc(c(-c7c(F)c(F)c(F)c(F)c7F)c7ccc4[nH]7)C=C6)C=C5)cc3)C2)C[C@H](C)O1
REMARK SMILES IDX 17 1 16 2 14 3 15 4 13 6 12 7 8 8 9 9 86 10 10 11 11 12 5 13
REMARK SMILES IDX 6 14 7 15 4 16 1 17 2 18 3 19 90 20 88 21 87 22 89 23 18 24
REMARK SMILES IDX 19 25 20 26 21 27 22 29 23 30 24 31 85 32 25 33 84 34 26 35
REMARK SMILES IDX 27 36 28 37 78 38 29 39 83 40 77 41 79 42 30 43 82 44 76 45
REMARK SMILES IDX 75 46 31 48 63 49 43 50 62 51 44 52 47 53 61 54 80 55 45 56
REMARK SMILES IDX 46 57 60 59 81 60 48 61 32 62 33 63 41 64 34 65 35 66 39 67
REMARK SMILES IDX 42 68 36 69 37 70 40 71 38 72 64 73 65 74 73 75 66 76 67 77
REMARK SMILES IDX 71 78 74 79 68 80 69 81 72 82 70 83 49 84 50 85 58 86 51 87
REMARK SMILES IDX 52 88 56 89 59 90 53 91 54 92 57 93 55 94
REMARK H PARENT 16 5 20 28 79 47 47 58
REMARK Flexibility Score: inf
ROOT
ATOM      1  C   UNL A   1      37.399  20.601  24.788  1.00  0.00     0.117 C 
ENDROOT
BRANCH   1   2
ATOM      2  N   UNL A   1      37.703  21.805  25.537  1.00  0.00    -0.356 N 
ATOM      3  C   UNL A   1      37.155  23.047  25.491  1.00  0.00     0.222 C 
ATOM      4  O   UNL A   1      37.684  23.932  26.164  1.00  0.00    -0.275 OA
ATOM      5  H   UNL A   1      38.432  21.705  26.191  1.00  0.00     0.163 HD
BRANCH   3   6
ATOM      6  C   UNL A   1      35.922  23.334  24.669  1.00  0.00     0.133 C 
BRANCH   6   7
ATOM      7  C   UNL A   1      34.581  22.983  25.307  1.00  0.00     0.142 C 
ATOM      8  N   UNL A   1      32.609  23.721  26.624  1.00  0.00    -0.184 NA
ATOM      9  C   UNL A   1      32.904  22.689  27.636  1.00  0.00     0.132 C 
ATOM     10  C   UNL A   1      33.814  24.182  25.899  1.00  0.00     0.136 C 
ATOM     11  C   UNL A   1      33.651  21.535  26.968  1.00  0.00     0.177 C 
ATOM     12  O   UNL A   1      34.853  21.989  26.326  1.00  0.00    -0.375 OA
BRANCH   8  13
ATOM     13  S   UNL A   1      31.051  23.905  26.068  1.00  0.00     0.282 S 
ATOM     14  O   UNL A   1      30.153  24.065  27.189  1.00  0.00    -0.195 OA
ATOM     15  O   UNL A   1      30.842  22.889  25.067  1.00  0.00    -0.195 OA
BRANCH  13  16
ATOM     16  N   UNL A   1      31.165  25.395  25.261  1.00  0.00    -0.184 NA
ATOM     17  C   UNL A   1      31.715  29.083  26.152  1.00  0.00     0.040 C 
ATOM     18  C   UNL A   1      31.587  27.827  25.291  1.00  0.00     0.130 C 
ATOM     19  C   UNL A   1      31.214  26.601  26.134  1.00  0.00     0.135 C 
ATOM     20  O   UNL A   1      30.577  28.052  24.295  1.00  0.00    -0.373 OA
ATOM     21  C   UNL A   1      30.388  26.913  23.430  1.00  0.00     0.130 C 
ATOM     22  C   UNL A   1      30.106  25.615  24.219  1.00  0.00     0.135 C 
ATOM     23  C   UNL A   1      31.555  26.767  22.453  1.00  0.00     0.040 C 
ENDBRANCH  13  16
ENDBRANCH   8  13
ENDBRANCH   6   7
ENDBRANCH   3   6
ENDBRANCH   1   2
BRANCH   1  24
ATOM     24  C   UNL A   1      38.535  19.587  24.890  1.00  0.00     0.042 C 
BRANCH  24  25
ATOM     25  C   UNL A   1      39.470  19.774  26.077  1.00  0.00     0.118 C 
BRANCH  25  26
ATOM     26  N   UNL A   1      40.605  18.869  26.023  1.00  0.00    -0.352 N 
ATOM     27  C   UNL A   1      41.951  19.140  26.045  1.00  0.00     0.251 C 
ATOM     28  H   UNL A   1      40.373  17.914  25.961  1.00  0.00     0.163 HD
ATOM     29  O   UNL A   1      42.745  18.251  25.750  1.00  0.00    -0.269 OA
BRANCH  27  30
ATOM     30  C   UNL A   1      42.454  20.487  26.398  1.00  0.00     0.039 A 
ATOM     31  C   UNL A   1      42.964  21.299  25.379  1.00  0.00     0.014 A 
ATOM     32  C   UNL A   1      42.476  20.942  27.719  1.00  0.00     0.014 A 
ATOM     33  C   UNL A   1      43.434  22.581  25.676  1.00  0.00     0.010 A 
ATOM     34  C   UNL A   1      42.869  22.251  28.002  1.00  0.00     0.010 A 
ATOM     35  C   UNL A   1      43.356  23.084  26.985  1.00  0.00    -0.014 A 
BRANCH  35  36
ATOM     36  C   UNL A   1      43.767  24.478  27.297  1.00  0.00     0.031 A 
ATOM     37  C   UNL A   1      42.749  25.496  27.734  1.00  0.00     0.074 A 
ATOM     38  C   UNL A   1      45.054  24.843  27.135  1.00  0.00     0.049 A 
ATOM     39  N   UNL A   1      42.910  26.771  27.996  1.00  0.00    -0.248 NA
ATOM     40  C   UNL A   1      41.362  25.029  27.878  1.00  0.00     0.031 C 
ATOM     41  C   UNL A   1      46.129  23.961  26.676  1.00  0.00     0.029 A 
ATOM     42  N   UNL A   1      45.677  26.052  27.325  1.00  0.00    -0.354 N 
ATOM     43  C   UNL A   1      41.649  27.255  28.322  1.00  0.00     0.074 A 
ATOM     44  C   UNL A   1      40.724  26.151  28.178  1.00  0.00     0.031 C 
ATOM     45  C   UNL A   1      47.280  24.651  26.641  1.00  0.00     0.029 A 
ATOM     46  C   UNL A   1      47.018  26.034  27.027  1.00  0.00     0.049 A 
ATOM     47  H   UNL A   1      45.207  26.856  27.647  1.00  0.00     0.167 HD
ATOM     48  C   UNL A   1      41.300  28.499  28.725  1.00  0.00     0.037 A 
ATOM     49  C   UNL A   1      47.932  27.024  27.044  1.00  0.00     0.037 A 
ATOM     50  C   UNL A   1      42.226  29.592  28.880  1.00  0.00     0.049 A 
ATOM     51  C   UNL A   1      47.507  28.406  27.467  1.00  0.00     0.074 A 
ATOM     52  C   UNL A   1      41.977  30.874  29.338  1.00  0.00     0.029 A 
ATOM     53  N   UNL A   1      43.577  29.533  28.572  1.00  0.00    -0.354 N 
ATOM     54  N   UNL A   1      46.327  28.831  27.849  1.00  0.00    -0.248 NA
ATOM     55  C   UNL A   1      48.545  29.446  27.467  1.00  0.00     0.031 C 
ATOM     56  C   UNL A   1      43.162  31.609  29.247  1.00  0.00     0.029 A 
ATOM     57  C   UNL A   1      44.167  30.767  28.799  1.00  0.00     0.049 A 
ATOM     58  H   UNL A   1      44.047  28.735  28.241  1.00  0.00     0.167 HD
ATOM     59  C   UNL A   1      46.488  30.174  28.165  1.00  0.00     0.074 A 
ATOM     60  C   UNL A   1      47.884  30.489  27.949  1.00  0.00     0.031 C 
ATOM     61  C   UNL A   1      45.562  31.067  28.592  1.00  0.00     0.037 A 
BRANCH  48  62
ATOM     62  C   UNL A   1      39.850  28.760  29.028  1.00  0.00     0.064 A 
ATOM     63  C   UNL A   1      39.319  28.566  30.312  1.00  0.00     0.173 A 
ATOM     64  C   UNL A   1      38.997  29.269  28.037  1.00  0.00     0.173 A 
ATOM     65  F   UNL A   1      40.089  28.075  31.295  1.00  0.00    -0.203 F 
ATOM     66  C   UNL A   1      37.983  28.851  30.587  1.00  0.00     0.198 A 
ATOM     67  C   UNL A   1      37.670  29.583  28.324  1.00  0.00     0.198 A 
ATOM     68  F   UNL A   1      39.453  29.481  26.793  1.00  0.00    -0.203 F 
ATOM     69  F   UNL A   1      37.489  28.617  31.811  1.00  0.00    -0.200 F 
ATOM     70  C   UNL A   1      37.163  29.368  29.596  1.00  0.00     0.200 A 
ATOM     71  F   UNL A   1      36.885  30.100  27.369  1.00  0.00    -0.200 F 
ATOM     72  F   UNL A   1      35.882  29.656  29.866  1.00  0.00    -0.200 F 
ENDBRANCH  48  62
BRANCH  49  73
ATOM     73  C   UNL A   1      49.341  26.752  26.651  1.00  0.00     0.064 A 
ATOM     74  C   UNL A   1      49.758  26.887  25.318  1.00  0.00     0.173 A 
ATOM     75  C   UNL A   1      50.292  26.326  27.589  1.00  0.00     0.173 A 
ATOM     76  F   UNL A   1      48.882  27.273  24.378  1.00  0.00    -0.203 F 
ATOM     77  C   UNL A   1      51.061  26.572  24.935  1.00  0.00     0.198 A 
ATOM     78  C   UNL A   1      51.604  26.048  27.212  1.00  0.00     0.198 A 
ATOM     79  F   UNL A   1      49.950  26.188  28.879  1.00  0.00    -0.203 F 
ATOM     80  F   UNL A   1      51.414  26.648  23.645  1.00  0.00    -0.200 F 
ATOM     81  C   UNL A   1      51.984  26.158  25.884  1.00  0.00     0.200 A 
ATOM     82  F   UNL A   1      52.499  25.669  28.135  1.00  0.00    -0.200 F 
ATOM     83  F   UNL A   1      53.236  25.857  25.515  1.00  0.00    -0.200 F 
ENDBRANCH  49  73
BRANCH  61  84
ATOM     84  C   UNL A   1      46.033  32.460  28.901  1.00  0.00     0.064 A 
ATOM     85  C   UNL A   1      46.011  33.480  27.938  1.00  0.00     0.173 A 
ATOM     86  C   UNL A   1      46.482  32.786  30.191  1.00  0.00     0.173 A 
ATOM     87  F   UNL A   1      45.605  33.219  26.687  1.00  0.00    -0.203 F 
ATOM     88  C   UNL A   1      46.449  34.766  28.247  1.00  0.00     0.198 A 
ATOM     89  C   UNL A   1      46.884  34.080  30.505  1.00  0.00     0.198 A 
ATOM     90  F   UNL A   1      46.518  31.850  31.152  1.00  0.00    -0.203 F 
ATOM     91  F   UNL A   1      46.472  35.710  27.296  1.00  0.00    -0.200 F 
ATOM     92  C   UNL A   1      46.876  35.067  29.532  1.00  0.00     0.200 A 
ATOM     93  F   UNL A   1      47.279  34.374  31.752  1.00  0.00    -0.200 F 
ATOM     94  F   UNL A   1      47.289  36.307  29.829  1.00  0.00    -0.200 F 
ENDBRANCH  61  84
ENDBRANCH  35  36
ENDBRANCH  27  30
ENDBRANCH  25  26
ENDBRANCH  24  25
ENDBRANCH   1  24
TORSDOF 13
ENDMDL
