MODEL 1
REMARK VINA RESULT:     -12.1      0.000      0.000
REMARK SMILES COc1cc(Cl)ccc1-c1ccc(CC(=O)NCCCNC(=O)c2ccc(-c3c4nc(c(-c5c(F)c(F)c(F)c(F)c5F)c5ccc([nH]5)c(-c5c(F)c(F)c(F)c(F)c5F)c5nc(c(-c6c(F)c(F)c(F)c(F)c6F)c6ccc3[nH]6)C=C5)C=C4)cc2)cc1
REMARK SMILES IDX 18 1 17 2 15 3 16 4 14 6 13 7 10 8 11 9 88 10 12 11 87 12
REMARK SMILES IDX 9 13 3 14 4 15 5 16 8 17 6 18 7 19 2 20 1 21 19 22 20 23
REMARK SMILES IDX 21 24 22 25 23 27 24 28 25 29 86 30 26 31 85 32 27 33 28 34
REMARK SMILES IDX 29 35 79 36 30 37 84 38 78 39 80 40 31 41 83 42 77 43 76 44
REMARK SMILES IDX 32 46 64 47 44 48 63 49 45 50 48 51 62 52 81 53 46 54 47 55
REMARK SMILES IDX 61 57 82 58 49 59 33 60 34 61 42 62 35 63 36 64 40 65 43 66
REMARK SMILES IDX 37 67 38 68 41 69 39 70 65 71 66 72 74 73 67 74 68 75 72 76
REMARK SMILES IDX 75 77 69 78 70 79 73 80 71 81 50 82 51 83 59 84 52 85 53 86
REMARK SMILES IDX 57 87 60 88 54 89 55 90 58 91 56 92
REMARK H PARENT 17 5 21 26 80 45 48 56
REMARK Flexibility Score: inf
ROOT
ATOM      1  C   UNL A   1      36.849  21.011  24.864  1.00  0.00     0.117 C 
ENDROOT
BRANCH   1   2
ATOM      2  N   UNL A   1      36.111  21.066  26.112  1.00  0.00    -0.356 N 
ATOM      3  C   UNL A   1      34.872  21.588  26.357  1.00  0.00     0.224 C 
ATOM      4  O   UNL A   1      34.466  21.601  27.521  1.00  0.00    -0.275 OA
ATOM      5  H   UNL A   1      36.565  20.672  26.890  1.00  0.00     0.163 HD
BRANCH   3   6
ATOM      6  C   UNL A   1      34.019  22.102  25.212  1.00  0.00     0.135 C 
BRANCH   6   7
ATOM      7  C   UNL A   1      33.586  23.539  25.366  1.00  0.00    -0.039 A 
ATOM      8  C   UNL A   1      32.810  26.243  25.695  1.00  0.00    -0.015 A 
ATOM      9  C   UNL A   1      31.993  25.197  26.153  1.00  0.00     0.009 A 
ATOM     10  C   UNL A   1      34.013  25.908  25.057  1.00  0.00     0.009 A 
ATOM     11  C   UNL A   1      32.375  23.861  25.990  1.00  0.00     0.005 A 
ATOM     12  C   UNL A   1      34.390  24.575  24.879  1.00  0.00     0.005 A 
BRANCH   8  13
ATOM     13  C   UNL A   1      32.433  27.656  25.896  1.00  0.00     0.024 A 
ATOM     14  C   UNL A   1      31.703  28.389  24.935  1.00  0.00     0.128 A 
ATOM     15  C   UNL A   1      31.387  29.735  25.149  1.00  0.00     0.067 A 
ATOM     16  C   UNL A   1      31.818  30.372  26.311  1.00  0.00     0.044 A 
ATOM     17  C   UNL A   1      32.848  28.326  27.064  1.00  0.00     0.014 A 
ATOM     18  Cl  UNL A   1      31.444  32.032  26.565  1.00  0.00    -0.084 Cl
ATOM     19  C   UNL A   1      32.547  29.675  27.270  1.00  0.00     0.021 A 
BRANCH  14  20
ATOM     20  O   UNL A   1      31.236  27.716  23.831  1.00  0.00    -0.496 OA
ATOM     21  C   UNL A   1      30.013  28.231  23.313  1.00  0.00     0.278 C 
ENDBRANCH  14  20
ENDBRANCH   8  13
ENDBRANCH   6   7
ENDBRANCH   3   6
ENDBRANCH   1   2
BRANCH   1  22
ATOM     22  C   UNL A   1      37.943  19.947  24.886  1.00  0.00     0.042 C 
BRANCH  22  23
ATOM     23  C   UNL A   1      38.976  20.140  25.993  1.00  0.00     0.118 C 
BRANCH  23  24
ATOM     24  N   UNL A   1      40.107  19.228  25.872  1.00  0.00    -0.352 N 
ATOM     25  C   UNL A   1      41.452  19.469  25.974  1.00  0.00     0.251 C 
ATOM     26  H   UNL A   1      39.865  18.292  25.689  1.00  0.00     0.163 HD
ATOM     27  O   UNL A   1      42.250  18.582  25.662  1.00  0.00    -0.269 OA
BRANCH  25  28
ATOM     28  C   UNL A   1      41.963  20.776  26.437  1.00  0.00     0.039 A 
ATOM     29  C   UNL A   1      42.284  21.748  25.483  1.00  0.00     0.014 A 
ATOM     30  C   UNL A   1      42.172  21.037  27.793  1.00  0.00     0.014 A 
ATOM     31  C   UNL A   1      42.760  22.997  25.890  1.00  0.00     0.010 A 
ATOM     32  C   UNL A   1      42.584  22.303  28.203  1.00  0.00     0.010 A 
ATOM     33  C   UNL A   1      42.886  23.295  27.256  1.00  0.00    -0.014 A 
BRANCH  33  34
ATOM     34  C   UNL A   1      43.342  24.630  27.720  1.00  0.00     0.031 A 
ATOM     35  C   UNL A   1      42.334  25.686  28.078  1.00  0.00     0.074 A 
ATOM     36  C   UNL A   1      44.658  24.914  27.751  1.00  0.00     0.049 A 
ATOM     37  N   UNL A   1      42.524  26.944  28.388  1.00  0.00    -0.248 NA
ATOM     38  C   UNL A   1      40.920  25.280  28.063  1.00  0.00     0.031 C 
ATOM     39  C   UNL A   1      45.734  23.984  27.405  1.00  0.00     0.029 A 
ATOM     40  N   UNL A   1      45.316  26.075  28.078  1.00  0.00    -0.354 N 
ATOM     41  C   UNL A   1      41.258  27.480  28.586  1.00  0.00     0.074 A 
ATOM     42  C   UNL A   1      40.305  26.425  28.318  1.00  0.00     0.031 C 
ATOM     43  C   UNL A   1      46.915  24.606  27.549  1.00  0.00     0.029 A 
ATOM     44  C   UNL A   1      46.680  25.987  27.957  1.00  0.00     0.049 A 
ATOM     45  H   UNL A   1      44.852  26.893  28.371  1.00  0.00     0.167 HD
ATOM     46  C   UNL A   1      40.923  28.732  28.977  1.00  0.00     0.037 A 
ATOM     47  C   UNL A   1      47.634  26.921  28.141  1.00  0.00     0.037 A 
ATOM     48  C   UNL A   1      41.874  29.773  29.268  1.00  0.00     0.049 A 
ATOM     49  C   UNL A   1      47.232  28.311  28.557  1.00  0.00     0.074 A 
ATOM     50  C   UNL A   1      41.634  31.065  29.704  1.00  0.00     0.029 A 
ATOM     51  N   UNL A   1      43.250  29.637  29.158  1.00  0.00    -0.354 N 
ATOM     52  N   UNL A   1      46.034  28.794  28.782  1.00  0.00    -0.248 NA
ATOM     53  C   UNL A   1      48.316  29.285  28.750  1.00  0.00     0.031 C 
ATOM     54  C   UNL A   1      42.862  31.722  29.823  1.00  0.00     0.029 A 
ATOM     55  C   UNL A   1      43.871  30.827  29.506  1.00  0.00     0.049 A 
ATOM     56  H   UNL A   1      43.716  28.818  28.873  1.00  0.00     0.167 HD
ATOM     57  C   UNL A   1      46.222  30.111  29.178  1.00  0.00     0.074 A 
ATOM     58  C   UNL A   1      47.650  30.352  29.169  1.00  0.00     0.031 C 
ATOM     59  C   UNL A   1      45.295  31.039  29.519  1.00  0.00     0.037 A 
BRANCH  46  60
ATOM     60  C   UNL A   1      39.462  29.049  29.119  1.00  0.00     0.064 A 
ATOM     61  C   UNL A   1      38.812  28.970  30.360  1.00  0.00     0.173 A 
ATOM     62  C   UNL A   1      38.713  29.477  28.012  1.00  0.00     0.173 A 
ATOM     63  F   UNL A   1      39.482  28.555  31.446  1.00  0.00    -0.203 F 
ATOM     64  C   UNL A   1      37.462  29.284  30.483  1.00  0.00     0.198 A 
ATOM     65  C   UNL A   1      37.370  29.818  28.146  1.00  0.00     0.198 A 
ATOM     66  F   UNL A   1      39.287  29.576  26.804  1.00  0.00    -0.203 F 
ATOM     67  F   UNL A   1      36.853  29.159  31.670  1.00  0.00    -0.200 F 
ATOM     68  C   UNL A   1      36.743  29.715  29.379  1.00  0.00     0.200 A 
ATOM     69  F   UNL A   1      36.680  30.246  27.079  1.00  0.00    -0.200 F 
ATOM     70  F   UNL A   1      35.446  30.025  29.501  1.00  0.00    -0.200 F 
ENDBRANCH  46  60
BRANCH  47  71
ATOM     71  C   UNL A   1      49.066  26.571  27.953  1.00  0.00     0.064 A 
ATOM     72  C   UNL A   1      49.891  26.313  29.057  1.00  0.00     0.173 A 
ATOM     73  C   UNL A   1      49.644  26.507  26.677  1.00  0.00     0.173 A 
ATOM     74  F   UNL A   1      49.388  26.383  30.298  1.00  0.00    -0.203 F 
ATOM     75  C   UNL A   1      51.245  26.028  28.894  1.00  0.00     0.198 A 
ATOM     76  C   UNL A   1      50.992  26.194  26.514  1.00  0.00     0.198 A 
ATOM     77  F   UNL A   1      48.897  26.741  25.587  1.00  0.00    -0.203 F 
ATOM     78  F   UNL A   1      52.020  25.834  29.968  1.00  0.00    -0.200 F 
ATOM     79  C   UNL A   1      51.794  25.963  27.621  1.00  0.00     0.200 A 
ATOM     80  F   UNL A   1      51.515  26.120  25.282  1.00  0.00    -0.200 F 
ATOM     81  F   UNL A   1      53.096  25.690  27.465  1.00  0.00    -0.200 F 
ENDBRANCH  47  71
BRANCH  59  82
ATOM     82  C   UNL A   1      45.792  32.381  29.969  1.00  0.00     0.064 A 
ATOM     83  C   UNL A   1      45.952  33.448  29.074  1.00  0.00     0.173 A 
ATOM     84  C   UNL A   1      46.064  32.612  31.326  1.00  0.00     0.173 A 
ATOM     85  F   UNL A   1      45.719  33.270  27.765  1.00  0.00    -0.203 F 
ATOM     86  C   UNL A   1      46.386  34.694  29.519  1.00  0.00     0.198 A 
ATOM     87  C   UNL A   1      46.470  33.867  31.771  1.00  0.00     0.198 A 
ATOM     88  F   UNL A   1      45.920  31.626  32.224  1.00  0.00    -0.203 F 
ATOM     89  F   UNL A   1      46.571  35.688  28.639  1.00  0.00    -0.200 F 
ATOM     90  C   UNL A   1      46.636  34.906  30.866  1.00  0.00     0.200 A 
ATOM     91  F   UNL A   1      46.699  34.073  33.075  1.00  0.00    -0.200 F 
ATOM     92  F   UNL A   1      47.043  36.109  31.293  1.00  0.00    -0.200 F 
ENDBRANCH  59  82
ENDBRANCH  33  34
ENDBRANCH  25  28
ENDBRANCH  23  24
ENDBRANCH  22  23
ENDBRANCH   1  22
TORSDOF 13
ENDMDL
MODEL 2
REMARK VINA RESULT:     -12.0      5.299     10.579
REMARK SMILES COc1cc(Cl)ccc1-c1ccc(CC(=O)NCCCNC(=O)c2ccc(-c3c4nc(c(-c5c(F)c(F)c(F)c(F)c5F)c5ccc([nH]5)c(-c5c(F)c(F)c(F)c(F)c5F)c5nc(c(-c6c(F)c(F)c(F)c(F)c6F)c6ccc3[nH]6)C=C5)C=C4)cc2)cc1
REMARK SMILES IDX 18 1 17 2 15 3 16 4 14 6 13 7 10 8 11 9 88 10 12 11 87 12
REMARK SMILES IDX 9 13 3 14 4 15 5 16 8 17 6 18 7 19 2 20 1 21 19 22 20 23
REMARK SMILES IDX 21 24 22 25 23 27 24 28 25 29 86 30 26 31 85 32 27 33 28 34
REMARK SMILES IDX 29 35 79 36 30 37 84 38 78 39 80 40 31 41 83 42 77 43 76 44
REMARK SMILES IDX 32 46 64 47 44 48 63 49 45 50 48 51 62 52 81 53 46 54 47 55
REMARK SMILES IDX 61 57 82 58 49 59 33 60 34 61 42 62 35 63 36 64 40 65 43 66
REMARK SMILES IDX 37 67 38 68 41 69 39 70 65 71 66 72 74 73 67 74 68 75 72 76
REMARK SMILES IDX 75 77 69 78 70 79 73 80 71 81 50 82 51 83 59 84 52 85 53 86
REMARK SMILES IDX 57 87 60 88 54 89 55 90 58 91 56 92
REMARK H PARENT 17 5 21 26 80 45 48 56
REMARK Flexibility Score: inf
ROOT
ATOM      1  C   UNL A   1      31.561  30.288  26.188  1.00  0.00     0.117 C 
ENDROOT
BRANCH   1   2
ATOM      2  N   UNL A   1      31.729  30.092  24.760  1.00  0.00    -0.356 N 
ATOM      3  C   UNL A   1      31.593  28.948  24.027  1.00  0.00     0.224 C 
ATOM      4  O   UNL A   1      31.865  28.990  22.825  1.00  0.00    -0.275 OA
ATOM      5  H   UNL A   1      31.976  30.896  24.249  1.00  0.00     0.163 HD
BRANCH   3   6
ATOM      6  C   UNL A   1      31.086  27.676  24.683  1.00  0.00     0.135 C 
BRANCH   6   7
ATOM      7  C   UNL A   1      32.086  26.546  24.684  1.00  0.00    -0.039 A 
ATOM      8  C   UNL A   1      33.923  24.389  24.701  1.00  0.00    -0.015 A 
ATOM      9  C   UNL A   1      33.936  25.358  25.718  1.00  0.00     0.009 A 
ATOM     10  C   UNL A   1      32.982  24.532  23.670  1.00  0.00     0.009 A 
ATOM     11  C   UNL A   1      33.030  26.424  25.710  1.00  0.00     0.005 A 
ATOM     12  C   UNL A   1      32.086  25.602  23.651  1.00  0.00     0.005 A 
BRANCH   8  13
ATOM     13  C   UNL A   1      34.850  23.241  24.721  1.00  0.00     0.024 A 
ATOM     14  C   UNL A   1      34.624  22.100  25.522  1.00  0.00     0.128 A 
ATOM     15  C   UNL A   1      35.540  21.042  25.533  1.00  0.00     0.067 A 
ATOM     16  C   UNL A   1      36.701  21.122  24.768  1.00  0.00     0.044 A 
ATOM     17  C   UNL A   1      36.029  23.288  23.951  1.00  0.00     0.014 A 
ATOM     18  Cl  UNL A   1      37.834  19.827  24.797  1.00  0.00    -0.084 Cl
ATOM     19  C   UNL A   1      36.951  22.238  23.977  1.00  0.00     0.021 A 
BRANCH  14  20
ATOM     20  O   UNL A   1      33.440  22.023  26.214  1.00  0.00    -0.496 OA
ATOM     21  C   UNL A   1      33.595  22.022  27.630  1.00  0.00     0.278 C 
ENDBRANCH  14  20
ENDBRANCH   8  13
ENDBRANCH   6   7
ENDBRANCH   3   6
ENDBRANCH   1   2
BRANCH   1  22
ATOM     22  C   UNL A   1      31.353  31.758  26.548  1.00  0.00     0.042 C 
BRANCH  22  23
ATOM     23  C   UNL A   1      32.636  32.495  26.920  1.00  0.00     0.118 C 
BRANCH  23  24
ATOM     24  N   UNL A   1      32.388  33.848  27.400  1.00  0.00    -0.352 N 
ATOM     25  C   UNL A   1      32.984  34.551  28.416  1.00  0.00     0.251 C 
ATOM     26  H   UNL A   1      31.680  34.334  26.919  1.00  0.00     0.163 HD
ATOM     27  O   UNL A   1      32.500  35.626  28.772  1.00  0.00    -0.269 OA
BRANCH  25  28
ATOM     28  C   UNL A   1      34.188  34.033  29.099  1.00  0.00     0.039 A 
ATOM     29  C   UNL A   1      34.028  33.095  30.124  1.00  0.00     0.014 A 
ATOM     30  C   UNL A   1      35.465  34.496  28.774  1.00  0.00     0.014 A 
ATOM     31  C   UNL A   1      35.147  32.580  30.782  1.00  0.00     0.010 A 
ATOM     32  C   UNL A   1      36.585  33.935  29.383  1.00  0.00     0.010 A 
ATOM     33  C   UNL A   1      36.438  32.975  30.397  1.00  0.00    -0.014 A 
BRANCH  33  34
ATOM     34  C   UNL A   1      37.648  32.408  31.045  1.00  0.00     0.031 A 
ATOM     35  C   UNL A   1      38.425  31.317  30.362  1.00  0.00     0.074 A 
ATOM     36  C   UNL A   1      38.007  32.825  32.275  1.00  0.00     0.049 A 
ATOM     37  N   UNL A   1      39.434  30.612  30.809  1.00  0.00    -0.248 NA
ATOM     38  C   UNL A   1      37.997  30.955  29.002  1.00  0.00     0.031 C 
ATOM     39  C   UNL A   1      37.321  33.858  33.052  1.00  0.00     0.029 A 
ATOM     40  N   UNL A   1      39.031  32.417  33.095  1.00  0.00    -0.354 N 
ATOM     41  C   UNL A   1      39.746  29.715  29.797  1.00  0.00     0.074 A 
ATOM     42  C   UNL A   1      38.793  29.931  28.730  1.00  0.00     0.031 C 
ATOM     43  C   UNL A   1      37.950  34.012  34.228  1.00  0.00     0.029 A 
ATOM     44  C   UNL A   1      39.055  33.062  34.307  1.00  0.00     0.049 A 
ATOM     45  H   UNL A   1      39.685  31.728  32.838  1.00  0.00     0.167 HD
ATOM     46  C   UNL A   1      40.749  28.806  29.752  1.00  0.00     0.037 A 
ATOM     47  C   UNL A   1      39.869  32.895  35.367  1.00  0.00     0.037 A 
ATOM     48  C   UNL A   1      41.712  28.609  30.804  1.00  0.00     0.049 A 
ATOM     49  C   UNL A   1      40.965  31.865  35.298  1.00  0.00     0.074 A 
ATOM     50  C   UNL A   1      42.786  27.737  30.840  1.00  0.00     0.029 A 
ATOM     51  N   UNL A   1      41.718  29.300  32.007  1.00  0.00    -0.354 N 
ATOM     52  N   UNL A   1      41.276  31.051  34.318  1.00  0.00    -0.248 NA
ATOM     53  C   UNL A   1      41.826  31.733  36.482  1.00  0.00     0.031 C 
ATOM     54  C   UNL A   1      43.422  27.874  32.078  1.00  0.00     0.029 A 
ATOM     55  C   UNL A   1      42.772  28.865  32.796  1.00  0.00     0.049 A 
ATOM     56  H   UNL A   1      41.070  29.995  32.263  1.00  0.00     0.167 HD
ATOM     57  C   UNL A   1      42.387  30.342  34.751  1.00  0.00     0.074 A 
ATOM     58  C   UNL A   1      42.702  30.823  36.079  1.00  0.00     0.031 C 
ATOM     59  C   UNL A   1      43.086  29.376  34.105  1.00  0.00     0.037 A 
BRANCH  46  60
ATOM     60  C   UNL A   1      40.863  27.955  28.521  1.00  0.00     0.064 A 
ATOM     61  C   UNL A   1      41.658  28.344  27.432  1.00  0.00     0.173 A 
ATOM     62  C   UNL A   1      40.206  26.718  28.444  1.00  0.00     0.173 A 
ATOM     63  F   UNL A   1      42.298  29.524  27.452  1.00  0.00    -0.203 F 
ATOM     64  C   UNL A   1      41.771  27.539  26.303  1.00  0.00     0.198 A 
ATOM     65  C   UNL A   1      40.345  25.901  27.325  1.00  0.00     0.198 A 
ATOM     66  F   UNL A   1      39.438  26.294  29.460  1.00  0.00    -0.203 F 
ATOM     67  F   UNL A   1      42.501  27.951  25.258  1.00  0.00    -0.200 F 
ATOM     68  C   UNL A   1      41.121  26.314  26.253  1.00  0.00     0.200 A 
ATOM     69  F   UNL A   1      39.726  24.713  27.284  1.00  0.00    -0.200 F 
ATOM     70  F   UNL A   1      41.239  25.536  25.168  1.00  0.00    -0.200 F 
ENDBRANCH  46  60
BRANCH  47  71
ATOM     71  C   UNL A   1      39.696  33.736  36.580  1.00  0.00     0.064 A 
ATOM     72  C   UNL A   1      38.892  33.301  37.644  1.00  0.00     0.173 A 
ATOM     73  C   UNL A   1      40.307  34.993  36.694  1.00  0.00     0.173 A 
ATOM     74  F   UNL A   1      38.271  32.116  37.571  1.00  0.00    -0.203 F 
ATOM     75  C   UNL A   1      38.688  34.102  38.766  1.00  0.00     0.198 A 
ATOM     76  C   UNL A   1      40.124  35.780  37.829  1.00  0.00     0.198 A 
ATOM     77  F   UNL A   1      41.089  35.453  35.706  1.00  0.00    -0.203 F 
ATOM     78  F   UNL A   1      37.877  33.683  39.745  1.00  0.00    -0.200 F 
ATOM     79  C   UNL A   1      39.308  35.339  38.860  1.00  0.00     0.200 A 
ATOM     80  F   UNL A   1      40.736  36.969  37.922  1.00  0.00    -0.200 F 
ATOM     81  F   UNL A   1      39.110  36.109  39.939  1.00  0.00    -0.200 F 
ENDBRANCH  47  71
BRANCH  59  82
ATOM     82  C   UNL A   1      44.294  28.817  34.796  1.00  0.00     0.064 A 
ATOM     83  C   UNL A   1      45.557  29.414  34.674  1.00  0.00     0.173 A 
ATOM     84  C   UNL A   1      44.173  27.697  35.632  1.00  0.00     0.173 A 
ATOM     85  F   UNL A   1      45.726  30.477  33.874  1.00  0.00    -0.203 F 
ATOM     86  C   UNL A   1      46.660  28.896  35.349  1.00  0.00     0.198 A 
ATOM     87  C   UNL A   1      45.271  27.200  36.328  1.00  0.00     0.198 A 
ATOM     88  F   UNL A   1      42.984  27.094  35.788  1.00  0.00    -0.203 F 
ATOM     89  F   UNL A   1      47.865  29.457  35.186  1.00  0.00    -0.200 F 
ATOM     90  C   UNL A   1      46.515  27.796  36.181  1.00  0.00     0.200 A 
ATOM     91  F   UNL A   1      45.126  26.144  37.141  1.00  0.00    -0.200 F 
ATOM     92  F   UNL A   1      47.575  27.307  36.838  1.00  0.00    -0.200 F 
ENDBRANCH  59  82
ENDBRANCH  33  34
ENDBRANCH  25  28
ENDBRANCH  23  24
ENDBRANCH  22  23
ENDBRANCH   1  22
TORSDOF 13
ENDMDL
MODEL 3
REMARK VINA RESULT:     -12.0      5.502     10.759
REMARK SMILES COc1cc(Cl)ccc1-c1ccc(CC(=O)NCCCNC(=O)c2ccc(-c3c4nc(c(-c5c(F)c(F)c(F)c(F)c5F)c5ccc([nH]5)c(-c5c(F)c(F)c(F)c(F)c5F)c5nc(c(-c6c(F)c(F)c(F)c(F)c6F)c6ccc3[nH]6)C=C5)C=C4)cc2)cc1
REMARK SMILES IDX 18 1 17 2 15 3 16 4 14 6 13 7 10 8 11 9 88 10 12 11 87 12
REMARK SMILES IDX 9 13 3 14 4 15 5 16 8 17 6 18 7 19 2 20 1 21 19 22 20 23
REMARK SMILES IDX 21 24 22 25 23 27 24 28 25 29 86 30 26 31 85 32 27 33 28 34
REMARK SMILES IDX 29 35 79 36 30 37 84 38 78 39 80 40 31 41 83 42 77 43 76 44
REMARK SMILES IDX 32 46 64 47 44 48 63 49 45 50 48 51 62 52 81 53 46 54 47 55
REMARK SMILES IDX 61 57 82 58 49 59 33 60 34 61 42 62 35 63 36 64 40 65 43 66
REMARK SMILES IDX 37 67 38 68 41 69 39 70 65 71 66 72 74 73 67 74 68 75 72 76
REMARK SMILES IDX 75 77 69 78 70 79 73 80 71 81 50 82 51 83 59 84 52 85 53 86
REMARK SMILES IDX 57 87 60 88 54 89 55 90 58 91 56 92
REMARK H PARENT 17 5 21 26 80 45 48 56
REMARK Flexibility Score: inf
ROOT
ATOM      1  C   UNL A   1      31.562  30.782  26.470  1.00  0.00     0.117 C 
ENDROOT
BRANCH   1   2
ATOM      2  N   UNL A   1      32.852  30.297  26.924  1.00  0.00    -0.356 N 
ATOM      3  C   UNL A   1      33.673  29.367  26.350  1.00  0.00     0.224 C 
ATOM      4  O   UNL A   1      34.697  29.042  26.953  1.00  0.00    -0.275 OA
ATOM      5  H   UNL A   1      33.183  30.692  27.761  1.00  0.00     0.163 HD
BRANCH   3   6
ATOM      6  C   UNL A   1      33.334  28.786  24.989  1.00  0.00     0.135 C 
BRANCH   6   7
ATOM      7  C   UNL A   1      33.431  27.282  24.922  1.00  0.00    -0.039 A 
ATOM      8  C   UNL A   1      33.657  24.459  24.830  1.00  0.00    -0.015 A 
ATOM      9  C   UNL A   1      33.980  25.247  23.713  1.00  0.00     0.009 A 
ATOM     10  C   UNL A   1      33.205  25.112  25.986  1.00  0.00     0.009 A 
ATOM     11  C   UNL A   1      33.868  26.641  23.758  1.00  0.00     0.005 A 
ATOM     12  C   UNL A   1      33.077  26.502  26.029  1.00  0.00     0.005 A 
BRANCH   8  13
ATOM     13  C   UNL A   1      33.808  22.992  24.805  1.00  0.00     0.024 A 
ATOM     14  C   UNL A   1      34.960  22.341  25.299  1.00  0.00     0.128 A 
ATOM     15  C   UNL A   1      35.077  20.947  25.234  1.00  0.00     0.067 A 
ATOM     16  C   UNL A   1      34.061  20.192  24.654  1.00  0.00     0.044 A 
ATOM     17  C   UNL A   1      32.794  22.199  24.232  1.00  0.00     0.014 A 
ATOM     18  Cl  UNL A   1      34.215  18.481  24.560  1.00  0.00    -0.084 Cl
ATOM     19  C   UNL A   1      32.919  20.810  24.153  1.00  0.00     0.021 A 
BRANCH  14  20
ATOM     20  O   UNL A   1      35.914  23.107  25.924  1.00  0.00    -0.496 OA
ATOM     21  C   UNL A   1      37.094  23.306  25.151  1.00  0.00     0.278 C 
ENDBRANCH  14  20
ENDBRANCH   8  13
ENDBRANCH   6   7
ENDBRANCH   3   6
ENDBRANCH   1   2
BRANCH   1  22
ATOM     22  C   UNL A   1      31.395  32.282  26.702  1.00  0.00     0.042 C 
BRANCH  22  23
ATOM     23  C   UNL A   1      32.681  32.995  27.113  1.00  0.00     0.118 C 
BRANCH  23  24
ATOM     24  N   UNL A   1      32.437  34.325  27.655  1.00  0.00    -0.352 N 
ATOM     25  C   UNL A   1      33.020  34.970  28.715  1.00  0.00     0.251 C 
ATOM     26  H   UNL A   1      31.745  34.842  27.184  1.00  0.00     0.163 HD
ATOM     27  O   UNL A   1      32.540  36.033  29.114  1.00  0.00    -0.269 OA
BRANCH  25  28
ATOM     28  C   UNL A   1      34.204  34.406  29.395  1.00  0.00     0.039 A 
ATOM     29  C   UNL A   1      34.016  33.661  30.564  1.00  0.00     0.014 A 
ATOM     30  C   UNL A   1      35.497  34.643  28.922  1.00  0.00     0.014 A 
ATOM     31  C   UNL A   1      35.116  33.107  31.225  1.00  0.00     0.010 A 
ATOM     32  C   UNL A   1      36.588  34.036  29.542  1.00  0.00     0.010 A 
ATOM     33  C   UNL A   1      36.409  33.266  30.702  1.00  0.00    -0.014 A 
BRANCH  33  34
ATOM     34  C   UNL A   1      37.591  32.647  31.355  1.00  0.00     0.031 A 
ATOM     35  C   UNL A   1      38.311  31.511  30.685  1.00  0.00     0.074 A 
ATOM     36  C   UNL A   1      37.972  33.060  32.579  1.00  0.00     0.049 A 
ATOM     37  N   UNL A   1      39.284  30.762  31.139  1.00  0.00    -0.248 NA
ATOM     38  C   UNL A   1      37.862  31.154  29.330  1.00  0.00     0.031 C 
ATOM     39  C   UNL A   1      37.341  34.136  33.345  1.00  0.00     0.029 A 
ATOM     40  N   UNL A   1      38.976  32.612  33.402  1.00  0.00    -0.354 N 
ATOM     41  C   UNL A   1      39.549  29.838  30.137  1.00  0.00     0.074 A 
ATOM     42  C   UNL A   1      38.606  30.089  29.069  1.00  0.00     0.031 C 
ATOM     43  C   UNL A   1      37.978  34.273  34.518  1.00  0.00     0.029 A 
ATOM     44  C   UNL A   1      39.035  33.270  34.606  1.00  0.00     0.049 A 
ATOM     45  H   UNL A   1      39.595  31.888  33.153  1.00  0.00     0.167 HD
ATOM     46  C   UNL A   1      40.505  28.880  30.102  1.00  0.00     0.037 A 
ATOM     47  C   UNL A   1      39.842  33.076  35.667  1.00  0.00     0.037 A 
ATOM     48  C   UNL A   1      41.459  28.647  31.155  1.00  0.00     0.049 A 
ATOM     49  C   UNL A   1      40.885  31.991  35.609  1.00  0.00     0.074 A 
ATOM     50  C   UNL A   1      42.489  27.724  31.200  1.00  0.00     0.029 A 
ATOM     51  N   UNL A   1      41.503  29.352  32.349  1.00  0.00    -0.354 N 
ATOM     52  N   UNL A   1      41.153  31.151  34.639  1.00  0.00    -0.248 NA
ATOM     53  C   UNL A   1      41.742  31.831  36.794  1.00  0.00     0.031 C 
ATOM     54  C   UNL A   1      43.133  27.844  32.435  1.00  0.00     0.029 A 
ATOM     55  C   UNL A   1      42.535  28.875  33.141  1.00  0.00     0.049 A 
ATOM     56  H   UNL A   1      40.891  30.082  32.597  1.00  0.00     0.167 HD
ATOM     57  C   UNL A   1      42.229  30.392  35.079  1.00  0.00     0.074 A 
ATOM     58  C   UNL A   1      42.570  30.874  36.401  1.00  0.00     0.031 C 
ATOM     59  C   UNL A   1      42.877  29.386  34.443  1.00  0.00     0.037 A 
BRANCH  46  60
ATOM     60  C   UNL A   1      40.574  28.009  28.881  1.00  0.00     0.064 A 
ATOM     61  C   UNL A   1      39.828  26.825  28.782  1.00  0.00     0.173 A 
ATOM     62  C   UNL A   1      41.359  28.384  27.780  1.00  0.00     0.173 A 
ATOM     63  F   UNL A   1      39.070  26.417  29.811  1.00  0.00    -0.203 F 
ATOM     64  C   UNL A   1      39.885  26.035  27.637  1.00  0.00     0.198 A 
ATOM     65  C   UNL A   1      41.391  27.607  26.625  1.00  0.00     0.198 A 
ATOM     66  F   UNL A   1      42.087  29.510  27.820  1.00  0.00    -0.203 F 
ATOM     67  F   UNL A   1      39.198  24.886  27.583  1.00  0.00    -0.200 F 
ATOM     68  C   UNL A   1      40.660  26.430  26.557  1.00  0.00     0.200 A 
ATOM     69  F   UNL A   1      42.131  27.996  25.578  1.00  0.00    -0.200 F 
ATOM     70  F   UNL A   1      40.706  25.673  25.452  1.00  0.00    -0.200 F 
ENDBRANCH  46  60
BRANCH  47  71
ATOM     71  C   UNL A   1      39.713  33.939  36.870  1.00  0.00     0.064 A 
ATOM     72  C   UNL A   1      38.899  33.553  37.945  1.00  0.00     0.173 A 
ATOM     73  C   UNL A   1      40.379  35.170  36.965  1.00  0.00     0.173 A 
ATOM     74  F   UNL A   1      38.226  32.395  37.891  1.00  0.00    -0.203 F 
ATOM     75  C   UNL A   1      38.737  34.376  39.057  1.00  0.00     0.198 A 
ATOM     76  C   UNL A   1      40.238  35.978  38.090  1.00  0.00     0.198 A 
ATOM     77  F   UNL A   1      41.175  35.582  35.966  1.00  0.00    -0.203 F 
ATOM     78  F   UNL A   1      37.914  34.005  40.047  1.00  0.00    -0.200 F 
ATOM     79  C   UNL A   1      39.411  35.586  39.132  1.00  0.00     0.200 A 
ATOM     80  F   UNL A   1      40.902  37.140  38.164  1.00  0.00    -0.200 F 
ATOM     81  F   UNL A   1      39.254  36.378  40.201  1.00  0.00    -0.200 F 
ENDBRANCH  47  71
BRANCH  59  82
ATOM     82  C   UNL A   1      44.058  28.776  35.140  1.00  0.00     0.064 A 
ATOM     83  C   UNL A   1      43.927  27.657  35.975  1.00  0.00     0.173 A 
ATOM     84  C   UNL A   1      45.346  29.291  34.925  1.00  0.00     0.173 A 
ATOM     85  F   UNL A   1      42.714  27.139  36.222  1.00  0.00    -0.203 F 
ATOM     86  C   UNL A   1      45.041  27.089  36.587  1.00  0.00     0.198 A 
ATOM     87  C   UNL A   1      46.460  28.702  35.515  1.00  0.00     0.198 A 
ATOM     88  F   UNL A   1      45.525  30.355  34.129  1.00  0.00    -0.203 F 
ATOM     89  F   UNL A   1      44.887  26.045  37.413  1.00  0.00    -0.200 F 
ATOM     90  C   UNL A   1      46.306  27.605  36.350  1.00  0.00     0.200 A 
ATOM     91  F   UNL A   1      47.683  29.194  35.276  1.00  0.00    -0.200 F 
ATOM     92  F   UNL A   1      47.377  27.048  36.932  1.00  0.00    -0.200 F 
ENDBRANCH  59  82
ENDBRANCH  33  34
ENDBRANCH  25  28
ENDBRANCH  23  24
ENDBRANCH  22  23
ENDBRANCH   1  22
TORSDOF 13
ENDMDL
