MODEL 1
REMARK VINA RESULT:     -13.1      0.000      0.000
REMARK SMILES CC(C)Nc1ncc(C(=O)N2CCC[C@H](c3cccc(C(=O)NCCCNC(=O)c4ccc(-c5c6nc(c(-c7c(F)c(F)c(F)c(F)c7F)c7ccc([nH]7)c(-c7c(F)c(F)c(F)c(F)c7F)c7nc(c(-c8c(F)c(F)c(F)c(F)c8F)c8ccc5[nH]8)C=C7)C=C6)cc4)c3)C2)cn1
REMARK SMILES IDX 21 1 22 2 23 3 20 5 16 6 17 7 93 8 18 9 19 10 15 11 11 12
REMARK SMILES IDX 12 13 94 14 13 15 14 16 9 17 10 18 8 19 5 20 6 21 96 22 7 23
REMARK SMILES IDX 95 24 4 25 2 27 1 28 3 29 24 30 25 31 26 32 27 33 28 34
REMARK SMILES IDX 29 36 30 37 31 38 92 39 32 40 91 41 33 42 34 43 35 44 85 45
REMARK SMILES IDX 36 46 90 47 84 48 86 49 37 50 89 51 83 52 82 53 38 55 70 56
REMARK SMILES IDX 50 57 69 58 51 59 54 60 68 61 87 62 52 63 53 64 67 66 88 67
REMARK SMILES IDX 55 68 39 69 40 70 48 71 41 72 42 73 46 74 49 75 43 76 44 77
REMARK SMILES IDX 47 78 45 79 71 80 72 81 80 82 73 83 74 84 78 85 81 86 75 87
REMARK SMILES IDX 76 88 79 89 77 90 56 91 57 92 65 93 58 94 59 95 63 96 66 97
REMARK SMILES IDX 60 98 61 99 64 100 62 101
REMARK H PARENT 23 4 4 26 27 35 86 54 54 65
REMARK Flexibility Score: inf
ROOT
ATOM      1  C   UNL A   1      37.113  23.168  25.721  1.00  0.00     0.251 C 
ATOM      2  O   UNL A   1      37.669  23.954  26.491  1.00  0.00    -0.269 OA
ATOM      3  N   UNL A   1      37.635  21.896  25.641  1.00  0.00    -0.352 N 
ATOM      4  H   UNL A   1      38.394  21.761  26.253  1.00  0.00     0.163 HD
ENDROOT
BRANCH   1   5
ATOM      5  C   UNL A   1      35.972  23.658  24.896  1.00  0.00     0.040 A 
ATOM      6  C   UNL A   1      34.065  25.168  24.545  1.00  0.00    -0.042 A 
ATOM      7  C   UNL A   1      33.675  24.374  23.458  1.00  0.00     0.004 A 
ATOM      8  C   UNL A   1      35.279  24.836  25.168  1.00  0.00     0.018 A 
ATOM      9  C   UNL A   1      34.450  23.282  23.054  1.00  0.00     0.001 A 
ATOM     10  C   UNL A   1      35.573  22.902  23.792  1.00  0.00     0.014 A 
BRANCH   6  11
ATOM     11  C   UNL A   1      33.164  26.246  25.166  1.00  0.00     0.039 C 
ATOM     12  N   UNL A   1      31.206  24.947  25.978  1.00  0.00    -0.338 N 
ATOM     13  C   UNL A   1      30.333  25.451  24.920  1.00  0.00     0.120 C 
ATOM     14  C   UNL A   1      32.319  25.811  26.385  1.00  0.00     0.128 C 
ATOM     15  C   UNL A   1      31.104  25.992  23.723  1.00  0.00     0.022 C 
ATOM     16  C   UNL A   1      32.202  26.950  24.179  1.00  0.00     0.012 C 
BRANCH  12  17
ATOM     17  C   UNL A   1      30.941  23.698  26.524  1.00  0.00     0.257 C 
ATOM     18  O   UNL A   1      30.108  23.505  27.403  1.00  0.00    -0.269 OA
BRANCH  17  19
ATOM     19  C   UNL A   1      31.778  22.562  26.119  1.00  0.00     0.076 A 
ATOM     20  C   UNL A   1      33.201  20.309  25.576  1.00  0.00     0.222 A 
ATOM     21  N   UNL A   1      33.663  21.134  26.526  1.00  0.00    -0.221 NA
ATOM     22  N   UNL A   1      32.079  20.535  24.873  1.00  0.00    -0.221 NA
ATOM     23  C   UNL A   1      32.939  22.241  26.782  1.00  0.00     0.130 A 
ATOM     24  C   UNL A   1      31.370  21.647  25.180  1.00  0.00     0.130 A 
BRANCH  20  25
ATOM     25  N   UNL A   1      33.956  19.194  25.365  1.00  0.00    -0.352 N 
ATOM     26  H   UNL A   1      34.889  19.202  25.680  1.00  0.00     0.163 HD
BRANCH  25  27
ATOM     27  C   UNL A   1      33.471  18.003  24.713  1.00  0.00     0.076 C 
ATOM     28  C   UNL A   1      34.664  17.317  24.046  1.00  0.00     0.030 C 
ATOM     29  C   UNL A   1      32.819  17.072  25.730  1.00  0.00     0.030 C 
ENDBRANCH  25  27
ENDBRANCH  20  25
ENDBRANCH  17  19
ENDBRANCH  12  17
ENDBRANCH   6  11
ENDBRANCH   1   5
BRANCH   3  30
ATOM     30  C   UNL A   1      37.328  20.705  24.861  1.00  0.00     0.118 C 
BRANCH  30  31
ATOM     31  C   UNL A   1      38.390  19.619  24.942  1.00  0.00     0.042 C 
BRANCH  31  32
ATOM     32  C   UNL A   1      39.286  19.726  26.167  1.00  0.00     0.118 C 
BRANCH  32  33
ATOM     33  N   UNL A   1      40.495  18.919  26.046  1.00  0.00    -0.352 N 
ATOM     34  C   UNL A   1      41.821  19.261  25.963  1.00  0.00     0.251 C 
ATOM     35  H   UNL A   1      40.329  17.949  26.020  1.00  0.00     0.163 HD
ATOM     36  O   UNL A   1      42.635  18.405  25.624  1.00  0.00    -0.269 OA
BRANCH  34  37
ATOM     37  C   UNL A   1      42.293  20.630  26.270  1.00  0.00     0.039 A 
ATOM     38  C   UNL A   1      42.550  20.971  27.602  1.00  0.00     0.014 A 
ATOM     39  C   UNL A   1      42.406  21.605  25.278  1.00  0.00     0.014 A 
ATOM     40  C   UNL A   1      42.965  22.265  27.927  1.00  0.00     0.010 A 
ATOM     41  C   UNL A   1      42.917  22.862  25.586  1.00  0.00     0.010 A 
ATOM     42  C   UNL A   1      43.178  23.215  26.916  1.00  0.00    -0.014 A 
BRANCH  42  43
ATOM     43  C   UNL A   1      43.629  24.594  27.230  1.00  0.00     0.031 A 
ATOM     44  C   UNL A   1      42.650  25.598  27.782  1.00  0.00     0.074 A 
ATOM     45  C   UNL A   1      44.895  24.962  26.956  1.00  0.00     0.049 A 
ATOM     46  N   UNL A   1      42.827  26.868  28.048  1.00  0.00    -0.248 NA
ATOM     47  C   UNL A   1      41.281  25.121  28.034  1.00  0.00     0.031 C 
ATOM     48  C   UNL A   1      45.919  24.097  26.367  1.00  0.00     0.029 A 
ATOM     49  N   UNL A   1      45.534  26.162  27.130  1.00  0.00    -0.354 N 
ATOM     50  C   UNL A   1      41.589  27.342  28.465  1.00  0.00     0.074 A 
ATOM     51  C   UNL A   1      40.658  26.240  28.370  1.00  0.00     0.031 C 
ATOM     52  C   UNL A   1      47.065  24.786  26.257  1.00  0.00     0.029 A 
ATOM     53  C   UNL A   1      46.849  26.148  26.734  1.00  0.00     0.049 A 
ATOM     54  H   UNL A   1      45.094  26.959  27.503  1.00  0.00     0.167 HD
ATOM     55  C   UNL A   1      41.264  28.578  28.910  1.00  0.00     0.037 A 
ATOM     56  C   UNL A   1      47.774  27.126  26.755  1.00  0.00     0.037 A 
ATOM     57  C   UNL A   1      42.207  29.654  29.061  1.00  0.00     0.049 A 
ATOM     58  C   UNL A   1      47.395  28.480  27.290  1.00  0.00     0.074 A 
ATOM     59  C   UNL A   1      42.002  30.914  29.594  1.00  0.00     0.029 A 
ATOM     60  N   UNL A   1      43.540  29.590  28.682  1.00  0.00    -0.354 N 
ATOM     61  N   UNL A   1      46.242  28.892  27.758  1.00  0.00    -0.248 NA
ATOM     62  C   UNL A   1      48.450  29.503  27.307  1.00  0.00     0.031 C 
ATOM     63  C   UNL A   1      43.202  31.627  29.501  1.00  0.00     0.029 A 
ATOM     64  C   UNL A   1      44.165  30.797  28.950  1.00  0.00     0.049 A 
ATOM     65  H   UNL A   1      43.976  28.804  28.281  1.00  0.00     0.167 HD
ATOM     66  C   UNL A   1      46.439  30.209  28.151  1.00  0.00     0.074 A 
ATOM     67  C   UNL A   1      47.827  30.522  27.880  1.00  0.00     0.031 C 
ATOM     68  C   UNL A   1      45.551  31.082  28.684  1.00  0.00     0.037 A 
BRANCH  55  69
ATOM     69  C   UNL A   1      39.832  28.834  29.281  1.00  0.00     0.064 A 
ATOM     70  C   UNL A   1      38.896  29.290  28.341  1.00  0.00     0.173 A 
ATOM     71  C   UNL A   1      39.381  28.584  30.586  1.00  0.00     0.173 A 
ATOM     72  F   UNL A   1      39.278  29.556  27.082  1.00  0.00    -0.203 F 
ATOM     73  C   UNL A   1      37.569  29.513  28.698  1.00  0.00     0.198 A 
ATOM     74  C   UNL A   1      38.046  28.780  30.933  1.00  0.00     0.198 A 
ATOM     75  F   UNL A   1      40.233  28.142  31.523  1.00  0.00    -0.203 F 
ATOM     76  F   UNL A   1      36.705  29.995  27.794  1.00  0.00    -0.200 F 
ATOM     77  C   UNL A   1      37.144  29.250  29.992  1.00  0.00     0.200 A 
ATOM     78  F   UNL A   1      37.634  28.514  32.181  1.00  0.00    -0.200 F 
ATOM     79  F   UNL A   1      35.865  29.458  30.334  1.00  0.00    -0.200 F 
ENDBRANCH  55  69
BRANCH  56  80
ATOM     80  C   UNL A   1      49.160  26.853  26.293  1.00  0.00     0.064 A 
ATOM     81  C   UNL A   1      49.532  27.095  24.963  1.00  0.00     0.173 A 
ATOM     82  C   UNL A   1      50.134  26.339  27.161  1.00  0.00     0.173 A 
ATOM     83  F   UNL A   1      48.629  27.568  24.092  1.00  0.00    -0.203 F 
ATOM     84  C   UNL A   1      50.818  26.809  24.512  1.00  0.00     0.198 A 
ATOM     85  C   UNL A   1      51.429  26.079  26.714  1.00  0.00     0.198 A 
ATOM     86  F   UNL A   1      49.831  26.098  28.444  1.00  0.00    -0.203 F 
ATOM     87  F   UNL A   1      51.133  27.005  23.224  1.00  0.00    -0.200 F 
ATOM     88  C   UNL A   1      51.767  26.306  25.389  1.00  0.00     0.200 A 
ATOM     89  F   UNL A   1      52.348  25.608  27.567  1.00  0.00    -0.200 F 
ATOM     90  F   UNL A   1      53.005  26.033  24.955  1.00  0.00    -0.200 F 
ENDBRANCH  56  80
BRANCH  68  91
ATOM     91  C   UNL A   1      46.062  32.446  29.041  1.00  0.00     0.064 A 
ATOM     92  C   UNL A   1      46.630  32.712  30.296  1.00  0.00     0.173 A 
ATOM     93  C   UNL A   1      46.013  33.489  28.104  1.00  0.00     0.173 A 
ATOM     94  F   UNL A   1      46.683  31.751  31.230  1.00  0.00    -0.203 F 
ATOM     95  C   UNL A   1      47.107  33.981  30.608  1.00  0.00     0.198 A 
ATOM     96  C   UNL A   1      46.518  34.750  28.410  1.00  0.00     0.198 A 
ATOM     97  F   UNL A   1      45.486  33.283  26.888  1.00  0.00    -0.203 F 
ATOM     98  F   UNL A   1      47.601  34.226  31.830  1.00  0.00    -0.200 F 
ATOM     99  C   UNL A   1      47.057  34.997  29.664  1.00  0.00     0.200 A 
ATOM    100  F   UNL A   1      46.480  35.725  27.493  1.00  0.00    -0.200 F 
ATOM    101  F   UNL A   1      47.521  36.217  29.966  1.00  0.00    -0.200 F 
ENDBRANCH  68  91
ENDBRANCH  42  43
ENDBRANCH  34  37
ENDBRANCH  32  33
ENDBRANCH  31  32
ENDBRANCH  30  31
ENDBRANCH   3  30
TORSDOF 15
ENDMDL
MODEL 2
REMARK VINA RESULT:     -13.0      0.145      1.541
REMARK SMILES CC(C)Nc1ncc(C(=O)N2CCC[C@H](c3cccc(C(=O)NCCCNC(=O)c4ccc(-c5c6nc(c(-c7c(F)c(F)c(F)c(F)c7F)c7ccc([nH]7)c(-c7c(F)c(F)c(F)c(F)c7F)c7nc(c(-c8c(F)c(F)c(F)c(F)c8F)c8ccc5[nH]8)C=C7)C=C6)cc4)c3)C2)cn1
REMARK SMILES IDX 21 1 22 2 23 3 20 5 16 6 17 7 93 8 18 9 19 10 15 11 11 12
REMARK SMILES IDX 12 13 94 14 13 15 14 16 9 17 10 18 8 19 5 20 6 21 96 22 7 23
REMARK SMILES IDX 95 24 4 25 2 27 1 28 3 29 24 30 25 31 26 32 27 33 28 34
REMARK SMILES IDX 29 36 30 37 31 38 92 39 32 40 91 41 33 42 34 43 35 44 85 45
REMARK SMILES IDX 36 46 90 47 84 48 86 49 37 50 89 51 83 52 82 53 38 55 70 56
REMARK SMILES IDX 50 57 69 58 51 59 54 60 68 61 87 62 52 63 53 64 67 66 88 67
REMARK SMILES IDX 55 68 39 69 40 70 48 71 41 72 42 73 46 74 49 75 43 76 44 77
REMARK SMILES IDX 47 78 45 79 71 80 72 81 80 82 73 83 74 84 78 85 81 86 75 87
REMARK SMILES IDX 76 88 79 89 77 90 56 91 57 92 65 93 58 94 59 95 63 96 66 97
REMARK SMILES IDX 60 98 61 99 64 100 62 101
REMARK H PARENT 23 4 4 26 27 35 86 54 54 65
REMARK Flexibility Score: inf
ROOT
ATOM      1  C   UNL A   1      36.941  23.140  25.670  1.00  0.00     0.251 C 
ATOM      2  O   UNL A   1      37.438  23.899  26.505  1.00  0.00    -0.269 OA
ATOM      3  N   UNL A   1      37.496  21.885  25.557  1.00  0.00    -0.352 N 
ATOM      4  H   UNL A   1      38.225  21.736  26.202  1.00  0.00     0.163 HD
ENDROOT
BRANCH   1   5
ATOM      5  C   UNL A   1      35.835  23.646  24.808  1.00  0.00     0.040 A 
ATOM      6  C   UNL A   1      33.946  25.168  24.406  1.00  0.00    -0.042 A 
ATOM      7  C   UNL A   1      33.598  24.392  23.292  1.00  0.00     0.004 A 
ATOM      8  C   UNL A   1      35.135  24.822  25.071  1.00  0.00     0.018 A 
ATOM      9  C   UNL A   1      34.386  23.303  22.902  1.00  0.00     0.001 A 
ATOM     10  C   UNL A   1      35.477  22.909  23.678  1.00  0.00     0.014 A 
BRANCH   6  11
ATOM     11  C   UNL A   1      33.025  26.239  25.008  1.00  0.00     0.039 C 
ATOM     12  N   UNL A   1      31.136  24.907  25.925  1.00  0.00    -0.338 N 
ATOM     13  C   UNL A   1      30.219  25.338  24.873  1.00  0.00     0.120 C 
ATOM     14  C   UNL A   1      32.228  25.825  26.266  1.00  0.00     0.128 C 
ATOM     15  C   UNL A   1      30.938  25.855  23.633  1.00  0.00     0.022 C 
ATOM     16  C   UNL A   1      32.013  26.868  24.021  1.00  0.00     0.012 C 
BRANCH  12  17
ATOM     17  C   UNL A   1      30.930  23.673  26.528  1.00  0.00     0.257 C 
ATOM     18  O   UNL A   1      30.141  23.492  27.450  1.00  0.00    -0.269 OA
BRANCH  17  19
ATOM     19  C   UNL A   1      31.780  22.545  26.128  1.00  0.00     0.076 A 
ATOM     20  C   UNL A   1      33.215  20.301  25.582  1.00  0.00     0.222 A 
ATOM     21  N   UNL A   1      33.634  21.090  26.582  1.00  0.00    -0.221 NA
ATOM     22  N   UNL A   1      32.132  20.558  24.832  1.00  0.00    -0.221 NA
ATOM     23  C   UNL A   1      32.904  22.193  26.837  1.00  0.00     0.130 A 
ATOM     24  C   UNL A   1      31.415  21.665  25.140  1.00  0.00     0.130 A 
BRANCH  20  25
ATOM     25  N   UNL A   1      33.973  19.188  25.373  1.00  0.00    -0.352 N 
ATOM     26  H   UNL A   1      34.907  19.199  25.686  1.00  0.00     0.163 HD
BRANCH  25  27
ATOM     27  C   UNL A   1      33.492  17.994  24.723  1.00  0.00     0.076 C 
ATOM     28  C   UNL A   1      34.703  17.243  24.167  1.00  0.00     0.030 C 
ATOM     29  C   UNL A   1      32.733  17.122  25.718  1.00  0.00     0.030 C 
ENDBRANCH  25  27
ENDBRANCH  20  25
ENDBRANCH  17  19
ENDBRANCH  12  17
ENDBRANCH   6  11
ENDBRANCH   1   5
BRANCH   3  30
ATOM     30  C   UNL A   1      37.259  20.727  24.705  1.00  0.00     0.118 C 
BRANCH  30  31
ATOM     31  C   UNL A   1      38.282  19.615  24.872  1.00  0.00     0.042 C 
BRANCH  31  32
ATOM     32  C   UNL A   1      39.168  19.772  26.097  1.00  0.00     0.118 C 
BRANCH  32  33
ATOM     33  N   UNL A   1      40.370  18.947  26.028  1.00  0.00    -0.352 N 
ATOM     34  C   UNL A   1      41.703  19.270  25.991  1.00  0.00     0.251 C 
ATOM     35  H   UNL A   1      40.191  17.980  26.003  1.00  0.00     0.163 HD
ATOM     36  O   UNL A   1      42.516  18.401  25.690  1.00  0.00    -0.269 OA
BRANCH  34  37
ATOM     37  C   UNL A   1      42.182  20.636  26.305  1.00  0.00     0.039 A 
ATOM     38  C   UNL A   1      42.348  20.999  27.646  1.00  0.00     0.014 A 
ATOM     39  C   UNL A   1      42.391  21.586  25.304  1.00  0.00     0.014 A 
ATOM     40  C   UNL A   1      42.767  22.291  27.974  1.00  0.00     0.010 A 
ATOM     41  C   UNL A   1      42.906  22.838  25.624  1.00  0.00     0.010 A 
ATOM     42  C   UNL A   1      43.076  23.214  26.963  1.00  0.00    -0.014 A 
BRANCH  42  43
ATOM     43  C   UNL A   1      43.534  24.590  27.282  1.00  0.00     0.031 A 
ATOM     44  C   UNL A   1      42.566  25.591  27.857  1.00  0.00     0.074 A 
ATOM     45  C   UNL A   1      44.797  24.957  26.992  1.00  0.00     0.049 A 
ATOM     46  N   UNL A   1      42.749  26.858  28.131  1.00  0.00    -0.248 NA
ATOM     47  C   UNL A   1      41.200  25.114  28.126  1.00  0.00     0.031 C 
ATOM     48  C   UNL A   1      45.810  24.095  26.380  1.00  0.00     0.029 A 
ATOM     49  N   UNL A   1      45.441  26.155  27.167  1.00  0.00    -0.354 N 
ATOM     50  C   UNL A   1      41.519  27.330  28.570  1.00  0.00     0.074 A 
ATOM     51  C   UNL A   1      40.584  26.231  28.480  1.00  0.00     0.031 C 
ATOM     52  C   UNL A   1      46.956  24.784  26.259  1.00  0.00     0.029 A 
ATOM     53  C   UNL A   1      46.750  26.142  26.751  1.00  0.00     0.049 A 
ATOM     54  H   UNL A   1      45.008  26.950  27.553  1.00  0.00     0.167 HD
ATOM     55  C   UNL A   1      41.203  28.564  29.031  1.00  0.00     0.037 A 
ATOM     56  C   UNL A   1      47.677  27.118  26.766  1.00  0.00     0.037 A 
ATOM     57  C   UNL A   1      42.150  29.637  29.176  1.00  0.00     0.049 A 
ATOM     58  C   UNL A   1      47.308  28.468  27.318  1.00  0.00     0.074 A 
ATOM     59  C   UNL A   1      41.956  30.892  29.723  1.00  0.00     0.029 A 
ATOM     60  N   UNL A   1      43.477  29.573  28.777  1.00  0.00    -0.354 N 
ATOM     61  N   UNL A   1      46.164  28.878  27.807  1.00  0.00    -0.248 NA
ATOM     62  C   UNL A   1      48.366  29.489  27.327  1.00  0.00     0.031 C 
ATOM     63  C   UNL A   1      43.155  31.604  29.618  1.00  0.00     0.029 A 
ATOM     64  C   UNL A   1      44.108  30.777  29.046  1.00  0.00     0.049 A 
ATOM     65  H   UNL A   1      43.906  28.790  28.363  1.00  0.00     0.167 HD
ATOM     66  C   UNL A   1      46.369  30.191  28.208  1.00  0.00     0.074 A 
ATOM     67  C   UNL A   1      47.753  30.505  27.919  1.00  0.00     0.031 C 
ATOM     68  C   UNL A   1      45.491  31.062  28.762  1.00  0.00     0.037 A 
BRANCH  55  69
ATOM     69  C   UNL A   1      39.777  28.819  29.425  1.00  0.00     0.064 A 
ATOM     70  C   UNL A   1      39.319  28.586  30.731  1.00  0.00     0.173 A 
ATOM     71  C   UNL A   1      38.865  29.339  28.495  1.00  0.00     0.173 A 
ATOM     72  F   UNL A   1      40.147  28.077  31.656  1.00  0.00    -0.203 F 
ATOM     73  C   UNL A   1      37.996  28.836  31.083  1.00  0.00     0.198 A 
ATOM     74  C   UNL A   1      37.549  29.617  28.858  1.00  0.00     0.198 A 
ATOM     75  F   UNL A   1      39.251  29.585  27.233  1.00  0.00    -0.203 F 
ATOM     76  F   UNL A   1      37.570  28.560  32.323  1.00  0.00    -0.200 F 
ATOM     77  C   UNL A   1      37.114  29.359  30.148  1.00  0.00     0.200 A 
ATOM     78  F   UNL A   1      36.702  30.133  27.957  1.00  0.00    -0.200 F 
ATOM     79  F   UNL A   1      35.842  29.608  30.490  1.00  0.00    -0.200 F 
ENDBRANCH  55  69
BRANCH  56  80
ATOM     80  C   UNL A   1      49.055  26.846  26.281  1.00  0.00     0.064 A 
ATOM     81  C   UNL A   1      49.420  27.138  24.959  1.00  0.00     0.173 A 
ATOM     82  C   UNL A   1      50.030  26.285  27.118  1.00  0.00     0.173 A 
ATOM     83  F   UNL A   1      48.515  27.658  24.116  1.00  0.00    -0.203 F 
ATOM     84  C   UNL A   1      50.698  26.854  24.485  1.00  0.00     0.198 A 
ATOM     85  C   UNL A   1      51.317  26.027  26.650  1.00  0.00     0.198 A 
ATOM     86  F   UNL A   1      49.734  25.995  28.394  1.00  0.00    -0.203 F 
ATOM     87  F   UNL A   1      51.004  27.099  23.203  1.00  0.00    -0.200 F 
ATOM     88  C   UNL A   1      51.647  26.303  25.332  1.00  0.00     0.200 A 
ATOM     89  F   UNL A   1      52.237  25.509  27.475  1.00  0.00    -0.200 F 
ATOM     90  F   UNL A   1      52.878  26.033  24.876  1.00  0.00    -0.200 F 
ENDBRANCH  56  80
BRANCH  68  91
ATOM     91  C   UNL A   1      46.010  32.422  29.122  1.00  0.00     0.064 A 
ATOM     92  C   UNL A   1      45.941  33.496  28.223  1.00  0.00     0.173 A 
ATOM     93  C   UNL A   1      46.552  32.660  30.394  1.00  0.00     0.173 A 
ATOM     94  F   UNL A   1      45.447  33.312  26.990  1.00  0.00    -0.203 F 
ATOM     95  C   UNL A   1      46.420  34.754  28.576  1.00  0.00     0.198 A 
ATOM     96  C   UNL A   1      47.003  33.926  30.754  1.00  0.00     0.198 A 
ATOM     97  F   UNL A   1      46.634  31.666  31.292  1.00  0.00    -0.203 F 
ATOM     98  F   UNL A   1      46.389  35.754  27.685  1.00  0.00    -0.200 F 
ATOM     99  C   UNL A   1      46.944  34.970  29.843  1.00  0.00     0.200 A 
ATOM    100  F   UNL A   1      47.497  34.136  31.982  1.00  0.00    -0.200 F 
ATOM    101  F   UNL A   1      47.400  36.183  30.182  1.00  0.00    -0.200 F 
ENDBRANCH  68  91
ENDBRANCH  42  43
ENDBRANCH  34  37
ENDBRANCH  32  33
ENDBRANCH  31  32
ENDBRANCH  30  31
ENDBRANCH   3  30
TORSDOF 15
ENDMDL
MODEL 3
REMARK VINA RESULT:     -13.0      5.609     10.988
REMARK SMILES CC(C)Nc1ncc(C(=O)N2CCC[C@H](c3cccc(C(=O)NCCCNC(=O)c4ccc(-c5c6nc(c(-c7c(F)c(F)c(F)c(F)c7F)c7ccc([nH]7)c(-c7c(F)c(F)c(F)c(F)c7F)c7nc(c(-c8c(F)c(F)c(F)c(F)c8F)c8ccc5[nH]8)C=C7)C=C6)cc4)c3)C2)cn1
REMARK SMILES IDX 21 1 22 2 23 3 20 5 16 6 17 7 93 8 18 9 19 10 15 11 11 12
REMARK SMILES IDX 12 13 94 14 13 15 14 16 9 17 10 18 8 19 5 20 6 21 96 22 7 23
REMARK SMILES IDX 95 24 4 25 2 27 1 28 3 29 24 30 25 31 26 32 27 33 28 34
REMARK SMILES IDX 29 36 30 37 31 38 92 39 32 40 91 41 33 42 34 43 35 44 85 45
REMARK SMILES IDX 36 46 90 47 84 48 86 49 37 50 89 51 83 52 82 53 38 55 70 56
REMARK SMILES IDX 50 57 69 58 51 59 54 60 68 61 87 62 52 63 53 64 67 66 88 67
REMARK SMILES IDX 55 68 39 69 40 70 48 71 41 72 42 73 46 74 49 75 43 76 44 77
REMARK SMILES IDX 47 78 45 79 71 80 72 81 80 82 73 83 74 84 78 85 81 86 75 87
REMARK SMILES IDX 76 88 79 89 77 90 56 91 57 92 65 93 58 94 59 95 63 96 66 97
REMARK SMILES IDX 60 98 61 99 64 100 62 101
REMARK H PARENT 23 4 4 26 27 35 86 54 54 65
REMARK Flexibility Score: inf
ROOT
ATOM      1  C   UNL A   1      33.736  29.160  26.677  1.00  0.00     0.251 C 
ATOM      2  O   UNL A   1      34.951  29.178  26.885  1.00  0.00    -0.269 OA
ATOM      3  N   UNL A   1      33.084  30.373  26.677  1.00  0.00    -0.352 N 
ATOM      4  H   UNL A   1      33.696  31.130  26.816  1.00  0.00     0.163 HD
ENDROOT
BRANCH   1   5
ATOM      5  C   UNL A   1      33.056  27.844  26.507  1.00  0.00     0.040 A 
ATOM      6  C   UNL A   1      33.078  25.487  25.810  1.00  0.00    -0.042 A 
ATOM      7  C   UNL A   1      31.683  25.466  25.943  1.00  0.00     0.004 A 
ATOM      8  C   UNL A   1      33.734  26.664  26.206  1.00  0.00     0.018 A 
ATOM      9  C   UNL A   1      30.991  26.589  26.410  1.00  0.00     0.001 A 
ATOM     10  C   UNL A   1      31.669  27.784  26.655  1.00  0.00     0.014 A 
BRANCH   6  11
ATOM     11  C   UNL A   1      33.875  24.373  25.114  1.00  0.00     0.039 C 
ATOM     12  N   UNL A   1      33.204  24.606  22.731  1.00  0.00    -0.338 N 
ATOM     13  C   UNL A   1      32.385  23.397  22.761  1.00  0.00     0.120 C 
ATOM     14  C   UNL A   1      34.332  24.664  23.666  1.00  0.00     0.128 C 
ATOM     15  C   UNL A   1      31.978  22.991  24.172  1.00  0.00     0.022 C 
ATOM     16  C   UNL A   1      33.191  22.985  25.100  1.00  0.00     0.012 C 
BRANCH  12  17
ATOM     17  C   UNL A   1      32.872  25.617  21.837  1.00  0.00     0.257 C 
ATOM     18  O   UNL A   1      33.278  25.660  20.681  1.00  0.00    -0.269 OA
BRANCH  17  19
ATOM     19  C   UNL A   1      32.090  26.758  22.328  1.00  0.00     0.076 A 
ATOM     20  C   UNL A   1      30.604  28.945  22.962  1.00  0.00     0.222 A 
ATOM     21  N   UNL A   1      31.923  29.109  22.779  1.00  0.00    -0.221 NA
ATOM     22  N   UNL A   1      29.978  27.763  22.858  1.00  0.00    -0.221 NA
ATOM     23  C   UNL A   1      32.637  28.012  22.459  1.00  0.00     0.130 A 
ATOM     24  C   UNL A   1      30.731  26.692  22.512  1.00  0.00     0.130 A 
BRANCH  20  25
ATOM     25  N   UNL A   1      29.921  30.085  23.265  1.00  0.00    -0.352 N 
ATOM     26  H   UNL A   1      30.333  30.717  23.898  1.00  0.00     0.163 HD
BRANCH  25  27
ATOM     27  C   UNL A   1      28.632  30.423  22.713  1.00  0.00     0.076 C 
ATOM     28  C   UNL A   1      28.059  31.578  23.536  1.00  0.00     0.030 C 
ATOM     29  C   UNL A   1      28.775  30.829  21.249  1.00  0.00     0.030 C 
ENDBRANCH  25  27
ENDBRANCH  20  25
ENDBRANCH  17  19
ENDBRANCH  12  17
ENDBRANCH   6  11
ENDBRANCH   1   5
BRANCH   3  30
ATOM     30  C   UNL A   1      31.698  30.797  26.519  1.00  0.00     0.118 C 
BRANCH  30  31
ATOM     31  C   UNL A   1      31.457  32.261  26.850  1.00  0.00     0.042 C 
BRANCH  31  32
ATOM     32  C   UNL A   1      32.728  33.092  26.927  1.00  0.00     0.118 C 
BRANCH  32  33
ATOM     33  N   UNL A   1      32.526  34.358  27.625  1.00  0.00    -0.352 N 
ATOM     34  C   UNL A   1      33.042  34.850  28.798  1.00  0.00     0.251 C 
ATOM     35  H   UNL A   1      31.906  34.972  27.171  1.00  0.00     0.163 HD
ATOM     36  O   UNL A   1      32.530  35.849  29.297  1.00  0.00    -0.269 OA
BRANCH  34  37
ATOM     37  C   UNL A   1      34.194  34.210  29.471  1.00  0.00     0.039 A 
ATOM     38  C   UNL A   1      35.487  34.521  29.035  1.00  0.00     0.014 A 
ATOM     39  C   UNL A   1      34.018  33.249  30.468  1.00  0.00     0.014 A 
ATOM     40  C   UNL A   1      36.593  33.908  29.629  1.00  0.00     0.010 A 
ATOM     41  C   UNL A   1      35.120  32.716  31.129  1.00  0.00     0.010 A 
ATOM     42  C   UNL A   1      36.419  33.019  30.701  1.00  0.00    -0.014 A 
BRANCH  42  43
ATOM     43  C   UNL A   1      37.575  32.361  31.359  1.00  0.00     0.031 A 
ATOM     44  C   UNL A   1      38.282  31.221  30.674  1.00  0.00     0.074 A 
ATOM     45  C   UNL A   1      37.946  32.742  32.596  1.00  0.00     0.049 A 
ATOM     46  N   UNL A   1      39.259  30.468  31.113  1.00  0.00    -0.248 NA
ATOM     47  C   UNL A   1      37.802  30.853  29.332  1.00  0.00     0.031 C 
ATOM     48  C   UNL A   1      37.303  33.795  33.386  1.00  0.00     0.029 A 
ATOM     49  N   UNL A   1      38.949  32.283  33.411  1.00  0.00    -0.354 N 
ATOM     50  C   UNL A   1      39.484  29.524  30.118  1.00  0.00     0.074 A 
ATOM     51  C   UNL A   1      38.512  29.765  29.075  1.00  0.00     0.031 C 
ATOM     52  C   UNL A   1      37.947  33.920  34.557  1.00  0.00     0.029 A 
ATOM     53  C   UNL A   1      39.023  32.936  34.616  1.00  0.00     0.049 A 
ATOM     54  H   UNL A   1      39.559  31.553  33.156  1.00  0.00     0.167 HD
ATOM     55  C   UNL A   1      40.433  28.560  30.067  1.00  0.00     0.037 A 
ATOM     56  C   UNL A   1      39.866  32.759  35.651  1.00  0.00     0.037 A 
ATOM     57  C   UNL A   1      41.437  28.363  31.078  1.00  0.00     0.049 A 
ATOM     58  C   UNL A   1      40.935  31.705  35.551  1.00  0.00     0.074 A 
ATOM     59  C   UNL A   1      42.502  27.480  31.078  1.00  0.00     0.029 A 
ATOM     60  N   UNL A   1      41.501  29.070  32.270  1.00  0.00    -0.354 N 
ATOM     61  N   UNL A   1      41.190  30.874  34.570  1.00  0.00    -0.248 NA
ATOM     62  C   UNL A   1      41.839  31.570  36.703  1.00  0.00     0.031 C 
ATOM     63  C   UNL A   1      43.189  27.624  32.289  1.00  0.00     0.029 A 
ATOM     64  C   UNL A   1      42.576  28.627  33.024  1.00  0.00     0.049 A 
ATOM     65  H   UNL A   1      40.875  29.780  32.541  1.00  0.00     0.167 HD
ATOM     66  C   UNL A   1      42.297  30.139  34.971  1.00  0.00     0.074 A 
ATOM     67  C   UNL A   1      42.675  30.633  36.279  1.00  0.00     0.031 C 
ATOM     68  C   UNL A   1      42.942  29.143  34.318  1.00  0.00     0.037 A 
BRANCH  55  69
ATOM     69  C   UNL A   1      40.442  27.650  28.873  1.00  0.00     0.064 A 
ATOM     70  C   UNL A   1      39.656  26.489  28.823  1.00  0.00     0.173 A 
ATOM     71  C   UNL A   1      41.220  27.962  27.748  1.00  0.00     0.173 A 
ATOM     72  F   UNL A   1      38.904  26.137  29.878  1.00  0.00    -0.203 F 
ATOM     73  C   UNL A   1      39.669  25.661  27.705  1.00  0.00     0.198 A 
ATOM     74  C   UNL A   1      41.207  27.148  26.618  1.00  0.00     0.198 A 
ATOM     75  F   UNL A   1      41.987  29.063  27.740  1.00  0.00    -0.203 F 
ATOM     76  F   UNL A   1      38.946  24.532  27.700  1.00  0.00    -0.200 F 
ATOM     77  C   UNL A   1      40.438  25.995  26.600  1.00  0.00     0.200 A 
ATOM     78  F   UNL A   1      41.943  27.478  25.547  1.00  0.00    -0.200 F 
ATOM     79  F   UNL A   1      40.444  25.201  25.520  1.00  0.00    -0.200 F 
ENDBRANCH  55  69
BRANCH  56  80
ATOM     80  C   UNL A   1      39.764  33.626  36.853  1.00  0.00     0.064 A 
ATOM     81  C   UNL A   1      38.931  33.269  37.924  1.00  0.00     0.173 A 
ATOM     82  C   UNL A   1      40.482  34.825  36.957  1.00  0.00     0.173 A 
ATOM     83  F   UNL A   1      38.210  32.139  37.862  1.00  0.00    -0.203 F 
ATOM     84  C   UNL A   1      38.801  34.091  39.041  1.00  0.00     0.198 A 
ATOM     85  C   UNL A   1      40.372  35.634  38.087  1.00  0.00     0.198 A 
ATOM     86  F   UNL A   1      41.298  35.208  35.964  1.00  0.00    -0.203 F 
ATOM     87  F   UNL A   1      37.962  33.749  40.028  1.00  0.00    -0.200 F 
ATOM     88  C   UNL A   1      39.525  35.271  39.123  1.00  0.00     0.200 A 
ATOM     89  F   UNL A   1      41.084  36.765  38.171  1.00  0.00    -0.200 F 
ATOM     90  F   UNL A   1      39.401  36.061  40.198  1.00  0.00    -0.200 F 
ENDBRANCH  56  80
BRANCH  68  91
ATOM     91  C   UNL A   1      44.141  28.545  34.992  1.00  0.00     0.064 A 
ATOM     92  C   UNL A   1      44.030  27.426  35.829  1.00  0.00     0.173 A 
ATOM     93  C   UNL A   1      45.419  29.080  34.771  1.00  0.00     0.173 A 
ATOM     94  F   UNL A   1      42.827  26.891  36.084  1.00  0.00    -0.203 F 
ATOM     95  C   UNL A   1      45.153  26.879  36.441  1.00  0.00     0.198 A 
ATOM     96  C   UNL A   1      46.544  28.512  35.361  1.00  0.00     0.198 A 
ATOM     97  F   UNL A   1      45.578  30.147  33.973  1.00  0.00    -0.203 F 
ATOM     98  F   UNL A   1      45.019  25.838  37.276  1.00  0.00    -0.200 F 
ATOM     99  C   UNL A   1      46.410  27.418  36.202  1.00  0.00     0.200 A 
ATOM    100  F   UNL A   1      47.757  29.026  35.119  1.00  0.00    -0.200 F 
ATOM    101  F   UNL A   1      47.491  26.886  36.788  1.00  0.00    -0.200 F 
ENDBRANCH  68  91
ENDBRANCH  42  43
ENDBRANCH  34  37
ENDBRANCH  32  33
ENDBRANCH  31  32
ENDBRANCH  30  31
ENDBRANCH   3  30
TORSDOF 15
ENDMDL
