MODEL 1
REMARK VINA RESULT:     -11.0      0.000      0.000
REMARK SMILES CCCc1noc(C)c1C(=O)NCCCNC(=O)c1ccc(-c2c3nc(c(-c4c(F)c(F)c(F)c(F)c4F)c4ccc([nH]4)c(-c4c(F)c(F)c(F)c(F)c4F)c4nc(c(-c5c(F)c(F)c(F)c(F)c5F)c5ccc2[nH]5)C=C4)C=C3)cc1
REMARK SMILES IDX 14 1 13 2 12 3 10 4 11 5 9 7 4 8 5 9 6 10 7 11 8 12 3 13
REMARK SMILES IDX 2 14 1 15 15 16 16 17 17 18 18 20 19 21 20 22 81 23 21 24
REMARK SMILES IDX 80 25 22 26 23 27 24 28 74 29 25 30 79 31 73 32 75 33 26 34
REMARK SMILES IDX 78 35 72 36 71 37 27 39 59 40 39 41 58 42 40 43 43 44 57 45
REMARK SMILES IDX 76 46 41 47 42 48 56 50 77 51 44 52 28 53 29 54 37 55 30 56
REMARK SMILES IDX 31 57 35 58 38 59 32 60 33 61 36 62 34 63 60 64 61 65 69 66
REMARK SMILES IDX 62 67 63 68 67 69 70 70 64 71 65 72 68 73 66 74 45 75 46 76
REMARK SMILES IDX 54 77 47 78 48 79 52 80 55 81 49 82 50 83 53 84 51 85
REMARK H PARENT 12 6 16 19 75 38 43 49
REMARK Flexibility Score: inf
ROOT
ATOM      1  C   UNL A   1      31.315  32.460  26.508  1.00  0.00     0.042 C 
ENDROOT
BRANCH   1   2
ATOM      2  C   UNL A   1      31.233  30.940  26.441  1.00  0.00     0.118 C 
BRANCH   2   3
ATOM      3  N   UNL A   1      31.418  30.423  25.108  1.00  0.00    -0.352 N 
ATOM      4  C   UNL A   1      31.198  29.163  24.623  1.00  0.00     0.256 C 
ATOM      5  O   UNL A   1      30.659  29.132  23.508  1.00  0.00    -0.269 OA
ATOM      6  H   UNL A   1      31.754  31.073  24.448  1.00  0.00     0.163 HD
BRANCH   4   7
ATOM      7  C   UNL A   1      31.668  27.939  25.254  1.00  0.00     0.105 A 
ATOM      8  C   UNL A   1      33.011  27.764  25.772  1.00  0.00     0.097 A 
ATOM      9  N   UNL A   1      33.191  26.524  26.239  1.00  0.00    -0.084 NA
ATOM     10  O   UNL A   1      32.006  25.879  26.080  1.00  0.00    -0.361 OA
ATOM     11  C   UNL A   1      31.082  26.705  25.519  1.00  0.00     0.146 A 
ATOM     12  C   UNL A   1      29.796  26.006  25.333  1.00  0.00     0.092 C 
BRANCH   8  13
ATOM     13  C   UNL A   1      34.206  28.671  25.848  1.00  0.00     0.060 C 
BRANCH  13  14
ATOM     14  C   UNL A   1      34.853  28.962  27.203  1.00  0.00     0.003 C 
ATOM     15  C   UNL A   1      34.702  30.384  27.715  1.00  0.00     0.004 C 
ENDBRANCH  13  14
ENDBRANCH   8  13
ENDBRANCH   4   7
ENDBRANCH   2   3
ENDBRANCH   1   2
BRANCH   1  16
ATOM     16  C   UNL A   1      32.600  32.975  27.157  1.00  0.00     0.118 C 
BRANCH  16  17
ATOM     17  N   UNL A   1      32.462  34.347  27.639  1.00  0.00    -0.352 N 
ATOM     18  C   UNL A   1      33.026  34.977  28.716  1.00  0.00     0.251 C 
ATOM     19  H   UNL A   1      31.862  34.912  27.101  1.00  0.00     0.163 HD
ATOM     20  O   UNL A   1      32.564  36.051  29.101  1.00  0.00    -0.269 OA
BRANCH  18  21
ATOM     21  C   UNL A   1      34.187  34.390  29.412  1.00  0.00     0.039 A 
ATOM     22  C   UNL A   1      33.981  33.667  30.590  1.00  0.00     0.014 A 
ATOM     23  C   UNL A   1      35.484  34.601  28.937  1.00  0.00     0.014 A 
ATOM     24  C   UNL A   1      35.071  33.108  31.259  1.00  0.00     0.010 A 
ATOM     25  C   UNL A   1      36.559  33.973  29.555  1.00  0.00     0.010 A 
ATOM     26  C   UNL A   1      36.365  33.230  30.727  1.00  0.00    -0.014 A 
BRANCH  26  27
ATOM     27  C   UNL A   1      37.533  32.595  31.386  1.00  0.00     0.031 A 
ATOM     28  C   UNL A   1      38.267  31.477  30.701  1.00  0.00     0.074 A 
ATOM     29  C   UNL A   1      37.883  32.981  32.627  1.00  0.00     0.049 A 
ATOM     30  N   UNL A   1      39.259  30.744  31.141  1.00  0.00    -0.248 NA
ATOM     31  C   UNL A   1      37.805  31.112  29.352  1.00  0.00     0.031 C 
ATOM     32  C   UNL A   1      37.216  34.025  33.407  1.00  0.00     0.029 A 
ATOM     33  N   UNL A   1      38.881  32.534  33.455  1.00  0.00    -0.354 N 
ATOM     34  C   UNL A   1      39.527  29.829  30.132  1.00  0.00     0.074 A 
ATOM     35  C   UNL A   1      38.552  30.052  29.087  1.00  0.00     0.031 C 
ATOM     36  C   UNL A   1      37.843  34.163  34.585  1.00  0.00     0.029 A 
ATOM     37  C   UNL A   1      38.927  33.187  34.662  1.00  0.00     0.049 A 
ATOM     38  H   UNL A   1      39.505  31.815  33.207  1.00  0.00     0.167 HD
ATOM     39  C   UNL A   1      40.515  28.903  30.071  1.00  0.00     0.037 A 
ATOM     40  C   UNL A   1      39.749  33.013  35.714  1.00  0.00     0.037 A 
ATOM     41  C   UNL A   1      41.489  28.698  31.111  1.00  0.00     0.049 A 
ATOM     42  C   UNL A   1      40.820  31.959  35.633  1.00  0.00     0.074 A 
ATOM     43  C   UNL A   1      42.561  27.823  31.132  1.00  0.00     0.029 A 
ATOM     44  N   UNL A   1      41.505  29.381  32.320  1.00  0.00    -0.354 N 
ATOM     45  N   UNL A   1      41.107  31.143  34.648  1.00  0.00    -0.248 NA
ATOM     46  C   UNL A   1      41.684  31.806  36.810  1.00  0.00     0.031 C 
ATOM     47  C   UNL A   1      43.193  27.938  32.375  1.00  0.00     0.029 A 
ATOM     48  C   UNL A   1      42.554  28.928  33.105  1.00  0.00     0.049 A 
ATOM     49  H   UNL A   1      40.867  30.082  32.581  1.00  0.00     0.167 HD
ATOM     50  C   UNL A   1      42.204  30.404  35.071  1.00  0.00     0.074 A 
ATOM     51  C   UNL A   1      42.538  30.880  36.399  1.00  0.00     0.031 C 
ATOM     52  C   UNL A   1      42.876  29.422  34.421  1.00  0.00     0.037 A 
BRANCH  39  53
ATOM     53  C   UNL A   1      40.585  28.046  28.838  1.00  0.00     0.064 A 
ATOM     54  C   UNL A   1      41.375  28.408  27.733  1.00  0.00     0.173 A 
ATOM     55  C   UNL A   1      39.866  26.845  28.759  1.00  0.00     0.173 A 
ATOM     56  F   UNL A   1      42.074  29.552  27.750  1.00  0.00    -0.203 F 
ATOM     57  C   UNL A   1      41.406  27.622  26.585  1.00  0.00     0.198 A 
ATOM     58  C   UNL A   1      39.928  26.042  27.623  1.00  0.00     0.198 A 
ATOM     59  F   UNL A   1      39.100  26.446  29.786  1.00  0.00    -0.203 F 
ATOM     60  F   UNL A   1      42.115  28.023  25.520  1.00  0.00    -0.200 F 
ATOM     61  C   UNL A   1      40.689  26.438  26.532  1.00  0.00     0.200 A 
ATOM     62  F   UNL A   1      39.246  24.890  27.579  1.00  0.00    -0.200 F 
ATOM     63  F   UNL A   1      40.720  25.681  25.426  1.00  0.00    -0.200 F 
ENDBRANCH  39  53
BRANCH  40  64
ATOM     64  C   UNL A   1      39.616  33.879  36.914  1.00  0.00     0.064 A 
ATOM     65  C   UNL A   1      38.854  33.461  38.014  1.00  0.00     0.173 A 
ATOM     66  C   UNL A   1      40.238  35.133  36.990  1.00  0.00     0.173 A 
ATOM     67  F   UNL A   1      38.225  32.278  37.982  1.00  0.00    -0.203 F 
ATOM     68  C   UNL A   1      38.703  34.274  39.137  1.00  0.00     0.198 A 
ATOM     69  C   UNL A   1      40.112  35.931  38.125  1.00  0.00     0.198 A 
ATOM     70  F   UNL A   1      40.985  35.576  35.968  1.00  0.00    -0.203 F 
ATOM     71  F   UNL A   1      37.931  33.869  40.155  1.00  0.00    -0.200 F 
ATOM     72  C   UNL A   1      39.336  35.506  39.194  1.00  0.00     0.200 A 
ATOM     73  F   UNL A   1      40.739  37.114  38.184  1.00  0.00    -0.200 F 
ATOM     74  F   UNL A   1      39.194  36.284  40.275  1.00  0.00    -0.200 F 
ENDBRANCH  40  64
BRANCH  52  75
ATOM     75  C   UNL A   1      44.065  28.827  35.118  1.00  0.00     0.064 A 
ATOM     76  C   UNL A   1      45.357  29.346  34.949  1.00  0.00     0.173 A 
ATOM     77  C   UNL A   1      43.901  27.745  35.996  1.00  0.00     0.173 A 
ATOM     78  F   UNL A   1      45.569  30.370  34.108  1.00  0.00    -0.203 F 
ATOM     79  C   UNL A   1      46.446  28.785  35.612  1.00  0.00     0.198 A 
ATOM     80  C   UNL A   1      44.986  27.208  36.682  1.00  0.00     0.198 A 
ATOM     81  F   UNL A   1      42.685  27.215  36.198  1.00  0.00    -0.203 F 
ATOM     82  F   UNL A   1      47.679  29.262  35.394  1.00  0.00    -0.200 F 
ATOM     83  C   UNL A   1      46.258  27.722  36.483  1.00  0.00     0.200 A 
ATOM     84  F   UNL A   1      44.800  26.192  37.537  1.00  0.00    -0.200 F 
ATOM     85  F   UNL A   1      47.306  27.188  37.126  1.00  0.00    -0.200 F 
ENDBRANCH  52  75
ENDBRANCH  26  27
ENDBRANCH  18  21
ENDBRANCH  16  17
ENDBRANCH   1  16
TORSDOF 12
ENDMDL
MODEL 2
REMARK VINA RESULT:     -10.9      6.306     11.783
REMARK SMILES CCCc1noc(C)c1C(=O)NCCCNC(=O)c1ccc(-c2c3nc(c(-c4c(F)c(F)c(F)c(F)c4F)c4ccc([nH]4)c(-c4c(F)c(F)c(F)c(F)c4F)c4nc(c(-c5c(F)c(F)c(F)c(F)c5F)c5ccc2[nH]5)C=C4)C=C3)cc1
REMARK SMILES IDX 14 1 13 2 12 3 10 4 11 5 9 7 4 8 5 9 6 10 7 11 8 12 3 13
REMARK SMILES IDX 2 14 1 15 15 16 16 17 17 18 18 20 19 21 20 22 81 23 21 24
REMARK SMILES IDX 80 25 22 26 23 27 24 28 74 29 25 30 79 31 73 32 75 33 26 34
REMARK SMILES IDX 78 35 72 36 71 37 27 39 59 40 39 41 58 42 40 43 43 44 57 45
REMARK SMILES IDX 76 46 41 47 42 48 56 50 77 51 44 52 28 53 29 54 37 55 30 56
REMARK SMILES IDX 31 57 35 58 38 59 32 60 33 61 36 62 34 63 60 64 61 65 69 66
REMARK SMILES IDX 62 67 63 68 67 69 70 70 64 71 65 72 68 73 66 74 45 75 46 76
REMARK SMILES IDX 54 77 47 78 48 79 52 80 55 81 49 82 50 83 53 84 51 85
REMARK H PARENT 12 6 16 19 75 38 43 49
REMARK Flexibility Score: inf
ROOT
ATOM      1  C   UNL A   1      37.991  19.713  24.992  1.00  0.00     0.042 C 
ENDROOT
BRANCH   1   2
ATOM      2  C   UNL A   1      37.259  20.908  24.393  1.00  0.00     0.118 C 
BRANCH   2   3
ATOM      3  N   UNL A   1      36.425  21.595  25.347  1.00  0.00    -0.352 N 
ATOM      4  C   UNL A   1      35.100  21.414  25.637  1.00  0.00     0.256 C 
ATOM      5  O   UNL A   1      34.832  21.451  26.845  1.00  0.00    -0.269 OA
ATOM      6  H   UNL A   1      36.875  22.300  25.867  1.00  0.00     0.163 HD
BRANCH   4   7
ATOM      7  C   UNL A   1      34.039  21.329  24.644  1.00  0.00     0.105 A 
ATOM      8  C   UNL A   1      33.322  20.108  24.333  1.00  0.00     0.097 A 
ATOM      9  N   UNL A   1      32.448  20.300  23.340  1.00  0.00    -0.084 NA
ATOM     10  O   UNL A   1      32.535  21.614  23.002  1.00  0.00    -0.361 OA
ATOM     11  C   UNL A   1      33.456  22.248  23.777  1.00  0.00     0.146 A 
ATOM     12  C   UNL A   1      33.563  23.672  23.406  1.00  0.00     0.092 C 
BRANCH   8  13
ATOM     13  C   UNL A   1      33.399  18.708  24.874  1.00  0.00     0.060 C 
BRANCH  13  14
ATOM     14  C   UNL A   1      34.449  17.741  24.328  1.00  0.00     0.003 C 
ATOM     15  C   UNL A   1      34.029  16.925  23.118  1.00  0.00     0.004 C 
ENDBRANCH  13  14
ENDBRANCH   8  13
ENDBRANCH   4   7
ENDBRANCH   2   3
ENDBRANCH   1   2
BRANCH   1  16
ATOM     16  C   UNL A   1      39.010  20.095  26.065  1.00  0.00     0.118 C 
BRANCH  16  17
ATOM     17  N   UNL A   1      40.141  19.172  26.104  1.00  0.00    -0.352 N 
ATOM     18  C   UNL A   1      41.489  19.410  26.090  1.00  0.00     0.251 C 
ATOM     19  H   UNL A   1      39.893  18.221  26.145  1.00  0.00     0.163 HD
ATOM     20  O   UNL A   1      42.266  18.485  25.851  1.00  0.00    -0.269 OA
BRANCH  18  21
ATOM     21  C   UNL A   1      42.022  20.757  26.370  1.00  0.00     0.039 A 
ATOM     22  C   UNL A   1      42.301  21.614  25.302  1.00  0.00     0.014 A 
ATOM     23  C   UNL A   1      42.302  21.155  27.679  1.00  0.00     0.014 A 
ATOM     24  C   UNL A   1      42.807  22.891  25.552  1.00  0.00     0.010 A 
ATOM     25  C   UNL A   1      42.724  22.455  27.933  1.00  0.00     0.010 A 
ATOM     26  C   UNL A   1      42.991  23.332  26.872  1.00  0.00    -0.014 A 
BRANCH  26  27
ATOM     27  C   UNL A   1      43.470  24.704  27.168  1.00  0.00     0.031 A 
ATOM     28  C   UNL A   1      42.525  25.726  27.734  1.00  0.00     0.074 A 
ATOM     29  C   UNL A   1      44.736  25.043  26.860  1.00  0.00     0.049 A 
ATOM     30  N   UNL A   1      42.729  26.994  27.988  1.00  0.00    -0.248 NA
ATOM     31  C   UNL A   1      41.156  25.270  28.025  1.00  0.00     0.031 C 
ATOM     32  C   UNL A   1      45.731  24.147  26.267  1.00  0.00     0.029 A 
ATOM     33  N   UNL A   1      45.401  26.235  26.995  1.00  0.00    -0.354 N 
ATOM     34  C   UNL A   1      41.516  27.485  28.452  1.00  0.00     0.074 A 
ATOM     35  C   UNL A   1      40.564  26.398  28.382  1.00  0.00     0.031 C 
ATOM     36  C   UNL A   1      46.888  24.810  26.121  1.00  0.00     0.029 A 
ATOM     37  C   UNL A   1      46.705  26.188  26.567  1.00  0.00     0.049 A 
ATOM     38  H   UNL A   1      44.984  27.046  27.365  1.00  0.00     0.167 HD
ATOM     39  C   UNL A   1      41.230  28.724  28.921  1.00  0.00     0.037 A 
ATOM     40  C   UNL A   1      47.645  27.152  26.535  1.00  0.00     0.037 A 
ATOM     41  C   UNL A   1      42.189  29.795  29.000  1.00  0.00     0.049 A 
ATOM     42  C   UNL A   1      47.293  28.527  27.034  1.00  0.00     0.074 A 
ATOM     43  C   UNL A   1      42.019  31.073  29.502  1.00  0.00     0.029 A 
ATOM     44  N   UNL A   1      43.502  29.709  28.558  1.00  0.00    -0.354 N 
ATOM     45  N   UNL A   1      46.163  28.963  27.534  1.00  0.00    -0.248 NA
ATOM     46  C   UNL A   1      48.352  29.542  26.969  1.00  0.00     0.031 C 
ATOM     47  C   UNL A   1      43.213  31.777  29.316  1.00  0.00     0.029 A 
ATOM     48  C   UNL A   1      44.147  30.920  28.753  1.00  0.00     0.049 A 
ATOM     49  H   UNL A   1      43.914  28.908  28.164  1.00  0.00     0.167 HD
ATOM     50  C   UNL A   1      46.382  30.291  27.874  1.00  0.00     0.074 A 
ATOM     51  C   UNL A   1      47.761  30.584  27.536  1.00  0.00     0.031 C 
ATOM     52  C   UNL A   1      45.523  31.188  28.419  1.00  0.00     0.037 A 
BRANCH  39  53
ATOM     53  C   UNL A   1      39.823  28.980  29.384  1.00  0.00     0.064 A 
ATOM     54  C   UNL A   1      39.432  28.758  30.715  1.00  0.00     0.173 A 
ATOM     55  C   UNL A   1      38.853  29.464  28.492  1.00  0.00     0.173 A 
ATOM     56  F   UNL A   1      40.315  28.285  31.607  1.00  0.00    -0.203 F 
ATOM     57  C   UNL A   1      38.118  28.969  31.123  1.00  0.00     0.198 A 
ATOM     58  C   UNL A   1      37.548  29.708  28.913  1.00  0.00     0.198 A 
ATOM     59  F   UNL A   1      39.171  29.700  27.210  1.00  0.00    -0.203 F 
ATOM     60  F   UNL A   1      37.756  28.686  32.382  1.00  0.00    -0.200 F 
ATOM     61  C   UNL A   1      37.179  29.449  30.224  1.00  0.00     0.200 A 
ATOM     62  F   UNL A   1      36.645  30.186  28.046  1.00  0.00    -0.200 F 
ATOM     63  F   UNL A   1      35.914  29.653  30.618  1.00  0.00    -0.200 F 
ENDBRANCH  39  53
BRANCH  40  64
ATOM     64  C   UNL A   1      49.013  26.841  26.046  1.00  0.00     0.064 A 
ATOM     65  C   UNL A   1      49.355  27.046  24.702  1.00  0.00     0.173 A 
ATOM     66  C   UNL A   1      50.003  26.334  26.901  1.00  0.00     0.173 A 
ATOM     67  F   UNL A   1      48.439  27.512  23.842  1.00  0.00    -0.203 F 
ATOM     68  C   UNL A   1      50.629  26.737  24.228  1.00  0.00     0.198 A 
ATOM     69  C   UNL A   1      51.285  26.055  26.432  1.00  0.00     0.198 A 
ATOM     70  F   UNL A   1      49.730  26.127  28.198  1.00  0.00    -0.203 F 
ATOM     71  F   UNL A   1      50.914  26.900  22.928  1.00  0.00    -0.200 F 
ATOM     72  C   UNL A   1      51.594  26.247  25.093  1.00  0.00     0.200 A 
ATOM     73  F   UNL A   1      52.220  25.597  27.275  1.00  0.00    -0.200 F 
ATOM     74  F   UNL A   1      52.819  25.954  24.637  1.00  0.00    -0.200 F 
ENDBRANCH  40  64
BRANCH  52  75
ATOM     75  C   UNL A   1      46.062  32.557  28.722  1.00  0.00     0.064 A 
ATOM     76  C   UNL A   1      46.682  32.853  29.944  1.00  0.00     0.173 A 
ATOM     77  C   UNL A   1      45.987  33.575  27.759  1.00  0.00     0.173 A 
ATOM     78  F   UNL A   1      46.765  31.918  30.904  1.00  0.00    -0.203 F 
ATOM     79  C   UNL A   1      47.183  34.126  30.203  1.00  0.00     0.198 A 
ATOM     80  C   UNL A   1      46.518  34.837  28.008  1.00  0.00     0.198 A 
ATOM     81  F   UNL A   1      45.408  33.342  26.571  1.00  0.00    -0.203 F 
ATOM     82  F   UNL A   1      47.724  34.402  31.397  1.00  0.00    -0.200 F 
ATOM     83  C   UNL A   1      47.107  35.115  29.232  1.00  0.00     0.200 A 
ATOM     84  F   UNL A   1      46.458  35.786  27.062  1.00  0.00    -0.200 F 
ATOM     85  F   UNL A   1      47.596  36.338  29.479  1.00  0.00    -0.200 F 
ENDBRANCH  52  75
ENDBRANCH  26  27
ENDBRANCH  18  21
ENDBRANCH  16  17
ENDBRANCH   1  16
TORSDOF 12
ENDMDL
MODEL 3
REMARK VINA RESULT:     -10.9      3.296      9.836
REMARK SMILES CCCc1noc(C)c1C(=O)NCCCNC(=O)c1ccc(-c2c3nc(c(-c4c(F)c(F)c(F)c(F)c4F)c4ccc([nH]4)c(-c4c(F)c(F)c(F)c(F)c4F)c4nc(c(-c5c(F)c(F)c(F)c(F)c5F)c5ccc2[nH]5)C=C4)C=C3)cc1
REMARK SMILES IDX 14 1 13 2 12 3 10 4 11 5 9 7 4 8 5 9 6 10 7 11 8 12 3 13
REMARK SMILES IDX 2 14 1 15 15 16 16 17 17 18 18 20 19 21 20 22 81 23 21 24
REMARK SMILES IDX 80 25 22 26 23 27 24 28 74 29 25 30 79 31 73 32 75 33 26 34
REMARK SMILES IDX 78 35 72 36 71 37 27 39 59 40 39 41 58 42 40 43 43 44 57 45
REMARK SMILES IDX 76 46 41 47 42 48 56 50 77 51 44 52 28 53 29 54 37 55 30 56
REMARK SMILES IDX 31 57 35 58 38 59 32 60 33 61 36 62 34 63 60 64 61 65 69 66
REMARK SMILES IDX 62 67 63 68 67 69 70 70 64 71 65 72 68 73 66 74 45 75 46 76
REMARK SMILES IDX 54 77 47 78 48 79 52 80 55 81 49 82 50 83 53 84 51 85
REMARK H PARENT 12 6 16 19 75 38 43 49
REMARK Flexibility Score: inf
ROOT
ATOM      1  C   UNL A   1      34.429  33.415  29.985  1.00  0.00     0.042 C 
ENDROOT
BRANCH   1   2
ATOM      2  C   UNL A   1      35.298  32.734  31.036  1.00  0.00     0.118 C 
BRANCH   2   3
ATOM      3  N   UNL A   1      35.441  33.512  32.240  1.00  0.00    -0.352 N 
ATOM      4  C   UNL A   1      36.298  34.543  32.515  1.00  0.00     0.256 C 
ATOM      5  O   UNL A   1      35.782  35.485  33.131  1.00  0.00    -0.269 OA
ATOM      6  H   UNL A   1      34.834  33.265  32.975  1.00  0.00     0.163 HD
BRANCH   4   7
ATOM      7  C   UNL A   1      37.730  34.521  32.257  1.00  0.00     0.105 A 
ATOM      8  C   UNL A   1      38.737  34.524  33.301  1.00  0.00     0.097 A 
ATOM      9  N   UNL A   1      39.969  34.565  32.783  1.00  0.00    -0.084 NA
ATOM     10  O   UNL A   1      39.818  34.556  31.433  1.00  0.00    -0.361 OA
ATOM     11  C   UNL A   1      38.500  34.507  31.099  1.00  0.00     0.146 A 
ATOM     12  C   UNL A   1      38.329  34.509  29.633  1.00  0.00     0.092 C 
BRANCH   8  13
ATOM     13  C   UNL A   1      38.658  34.525  34.801  1.00  0.00     0.060 C 
BRANCH  13  14
ATOM     14  C   UNL A   1      38.417  33.214  35.549  1.00  0.00     0.003 C 
ATOM     15  C   UNL A   1      38.185  31.991  34.678  1.00  0.00     0.004 C 
ENDBRANCH  13  14
ENDBRANCH   8  13
ENDBRANCH   4   7
ENDBRANCH   2   3
ENDBRANCH   1   2
BRANCH   1  16
ATOM     16  C   UNL A   1      34.833  33.083  28.548  1.00  0.00     0.118 C 
BRANCH  16  17
ATOM     17  N   UNL A   1      34.104  31.932  28.024  1.00  0.00    -0.352 N 
ATOM     18  C   UNL A   1      34.535  30.671  27.705  1.00  0.00     0.251 C 
ATOM     19  H   UNL A   1      33.144  32.087  27.873  1.00  0.00     0.163 HD
ATOM     20  O   UNL A   1      33.817  29.941  27.021  1.00  0.00    -0.269 OA
BRANCH  18  21
ATOM     21  C   UNL A   1      35.841  30.175  28.180  1.00  0.00     0.039 A 
ATOM     22  C   UNL A   1      36.953  30.273  27.339  1.00  0.00     0.014 A 
ATOM     23  C   UNL A   1      35.958  29.561  29.429  1.00  0.00     0.014 A 
ATOM     24  C   UNL A   1      38.193  29.806  27.776  1.00  0.00     0.010 A 
ATOM     25  C   UNL A   1      37.208  29.175  29.896  1.00  0.00     0.010 A 
ATOM     26  C   UNL A   1      38.336  29.284  29.071  1.00  0.00    -0.014 A 
BRANCH  26  27
ATOM     27  C   UNL A   1      39.655  28.836  29.582  1.00  0.00     0.031 A 
ATOM     28  C   UNL A   1      40.384  29.658  30.606  1.00  0.00     0.074 A 
ATOM     29  C   UNL A   1      40.221  27.727  29.068  1.00  0.00     0.049 A 
ATOM     30  N   UNL A   1      41.576  29.479  31.119  1.00  0.00    -0.248 NA
ATOM     31  C   UNL A   1      39.696  30.862  31.099  1.00  0.00     0.031 C 
ATOM     32  C   UNL A   1      39.626  26.874  28.038  1.00  0.00     0.029 A 
ATOM     33  N   UNL A   1      41.428  27.133  29.336  1.00  0.00    -0.354 N 
ATOM     34  C   UNL A   1      41.781  30.550  31.979  1.00  0.00     0.074 A 
ATOM     35  C   UNL A   1      40.622  31.409  31.869  1.00  0.00     0.031 C 
ATOM     36  C   UNL A   1      40.453  25.848  27.787  1.00  0.00     0.029 A 
ATOM     37  C   UNL A   1      41.654  25.995  28.603  1.00  0.00     0.049 A 
ATOM     38  H   UNL A   1      42.069  27.488  29.994  1.00  0.00     0.167 HD
ATOM     39  C   UNL A   1      42.829  30.781  32.806  1.00  0.00     0.037 A 
ATOM     40  C   UNL A   1      42.716  25.167  28.588  1.00  0.00     0.037 A 
ATOM     41  C   UNL A   1      43.971  29.912  32.918  1.00  0.00     0.049 A 
ATOM     42  C   UNL A   1      43.881  25.462  29.495  1.00  0.00     0.074 A 
ATOM     43  C   UNL A   1      45.065  30.024  33.757  1.00  0.00     0.029 A 
ATOM     44  N   UNL A   1      44.165  28.765  32.158  1.00  0.00    -0.354 N 
ATOM     45  N   UNL A   1      44.036  26.440  30.353  1.00  0.00    -0.248 NA
ATOM     46  C   UNL A   1      45.015  24.531  29.433  1.00  0.00     0.031 C 
ATOM     47  C   UNL A   1      45.946  28.976  33.469  1.00  0.00     0.029 A 
ATOM     48  C   UNL A   1      45.373  28.175  32.493  1.00  0.00     0.049 A 
ATOM     49  H   UNL A   1      43.538  28.423  31.483  1.00  0.00     0.167 HD
ATOM     50  C   UNL A   1      45.267  26.226  30.958  1.00  0.00     0.074 A 
ATOM     51  C   UNL A   1      45.811  25.015  30.376  1.00  0.00     0.031 C 
ATOM     52  C   UNL A   1      45.892  26.963  31.909  1.00  0.00     0.037 A 
BRANCH  39  53
ATOM     53  C   UNL A   1      42.782  32.023  33.651  1.00  0.00     0.064 A 
ATOM     54  C   UNL A   1      43.379  33.224  33.231  1.00  0.00     0.173 A 
ATOM     55  C   UNL A   1      42.125  32.021  34.891  1.00  0.00     0.173 A 
ATOM     56  F   UNL A   1      44.030  33.280  32.060  1.00  0.00    -0.203 F 
ATOM     57  C   UNL A   1      43.356  34.358  34.038  1.00  0.00     0.198 A 
ATOM     58  C   UNL A   1      42.073  33.167  35.679  1.00  0.00     0.198 A 
ATOM     59  F   UNL A   1      41.532  30.904  35.340  1.00  0.00    -0.203 F 
ATOM     60  F   UNL A   1      43.990  35.471  33.644  1.00  0.00    -0.200 F 
ATOM     61  C   UNL A   1      42.699  34.331  35.257  1.00  0.00     0.200 A 
ATOM     62  F   UNL A   1      41.424  33.144  36.851  1.00  0.00    -0.200 F 
ATOM     63  F   UNL A   1      42.676  35.424  36.033  1.00  0.00    -0.200 F 
ENDBRANCH  39  53
BRANCH  40  64
ATOM     64  C   UNL A   1      42.711  23.965  27.714  1.00  0.00     0.064 A 
ATOM     65  C   UNL A   1      43.077  24.063  26.364  1.00  0.00     0.173 A 
ATOM     66  C   UNL A   1      42.342  22.703  28.200  1.00  0.00     0.173 A 
ATOM     67  F   UNL A   1      43.421  25.252  25.848  1.00  0.00    -0.203 F 
ATOM     68  C   UNL A   1      43.055  22.947  25.529  1.00  0.00     0.198 A 
ATOM     69  C   UNL A   1      42.349  21.583  27.371  1.00  0.00     0.198 A 
ATOM     70  F   UNL A   1      41.990  22.554  29.485  1.00  0.00    -0.203 F 
ATOM     71  F   UNL A   1      43.365  23.079  24.232  1.00  0.00    -0.200 F 
ATOM     72  C   UNL A   1      42.696  21.707  26.034  1.00  0.00     0.200 A 
ATOM     73  F   UNL A   1      42.018  20.383  27.867  1.00  0.00    -0.200 F 
ATOM     74  F   UNL A   1      42.679  20.635  25.232  1.00  0.00    -0.200 F 
ENDBRANCH  40  64
BRANCH  52  75
ATOM     75  C   UNL A   1      47.213  26.457  32.411  1.00  0.00     0.064 A 
ATOM     76  C   UNL A   1      47.299  25.523  33.454  1.00  0.00     0.173 A 
ATOM     77  C   UNL A   1      48.408  26.886  31.814  1.00  0.00     0.173 A 
ATOM     78  F   UNL A   1      46.186  25.092  34.069  1.00  0.00    -0.203 F 
ATOM     79  C   UNL A   1      48.534  25.059  33.899  1.00  0.00     0.198 A 
ATOM     80  C   UNL A   1      49.639  26.395  32.239  1.00  0.00     0.198 A 
ATOM     81  F   UNL A   1      48.381  27.774  30.808  1.00  0.00    -0.203 F 
ATOM     82  F   UNL A   1      48.595  24.208  34.932  1.00  0.00    -0.200 F 
ATOM     83  C   UNL A   1      49.702  25.489  33.286  1.00  0.00     0.200 A 
ATOM     84  F   UNL A   1      50.765  26.800  31.634  1.00  0.00    -0.200 F 
ATOM     85  F   UNL A   1      50.890  25.036  33.711  1.00  0.00    -0.200 F 
ENDBRANCH  52  75
ENDBRANCH  26  27
ENDBRANCH  18  21
ENDBRANCH  16  17
ENDBRANCH   1  16
TORSDOF 12
ENDMDL
