MODEL 1
REMARK VINA RESULT:     -12.9      0.000      0.000
REMARK SMILES Cc1ccc(F)c(NC(=O)NC(=O)CCCCC(=O)NCCCNC(=O)c2ccc(-c3c4nc(c(-c5c(F)c(F)c(F)c(F)c5F)c5ccc([nH]5)c(-c5c(F)c(F)c(F)c(F)c5F)c5nc(c(-c6c(F)c(F)c(F)c(F)c6F)c6ccc3[nH]6)C=C5)C=C4)cc2)c1
REMARK SMILES IDX 18 1 19 2 20 3 17 5 16 6 15 7 14 8 12 9 8 10 9 11 10 13
REMARK SMILES IDX 11 14 13 16 7 17 1 18 2 19 3 20 90 21 4 22 5 23 6 24 21 25
REMARK SMILES IDX 22 26 23 27 24 28 25 29 26 31 27 32 28 33 89 34 29 35 88 36
REMARK SMILES IDX 30 37 31 38 32 39 82 40 33 41 87 42 81 43 83 44 34 45 86 46
REMARK SMILES IDX 80 47 79 48 35 50 67 51 47 52 66 53 48 54 51 55 65 56 84 57
REMARK SMILES IDX 49 58 50 59 64 61 85 62 52 63 36 64 37 65 45 66 38 67 39 68
REMARK SMILES IDX 43 69 46 70 40 71 41 72 44 73 42 74 68 75 69 76 77 77 70 78
REMARK SMILES IDX 71 79 75 80 78 81 72 82 73 83 76 84 74 85 53 86 54 87 62 88
REMARK SMILES IDX 55 89 56 90 60 91 63 92 57 93 58 94 61 95 59 96
REMARK H PARENT 20 4 8 12 11 15 24 30 83 49 51 60
REMARK Flexibility Score: inf
ROOT
ATOM      1  C   UNL A   1      30.947  28.536  23.692  1.00  0.00     0.219 C 
ATOM      2  O   UNL A   1      30.049  28.857  22.914  1.00  0.00    -0.275 OA
ATOM      3  N   UNL A   1      32.028  29.358  23.797  1.00  0.00    -0.356 N 
ATOM      4  H   UNL A   1      32.097  30.068  23.120  1.00  0.00     0.163 HD
ENDROOT
BRANCH   1   5
ATOM      5  C   UNL A   1      30.824  27.316  24.588  1.00  0.00     0.100 C 
BRANCH   5   6
ATOM      6  C   UNL A   1      30.148  26.063  24.042  1.00  0.00     0.010 C 
BRANCH   6   7
ATOM      7  C   UNL A   1      30.298  24.713  24.755  1.00  0.00     0.010 C 
BRANCH   7   8
ATOM      8  C   UNL A   1      30.620  24.628  26.252  1.00  0.00     0.100 C 
BRANCH   8   9
ATOM      9  C   UNL A   1      30.545  23.280  26.928  1.00  0.00     0.227 C 
ATOM     10  N   UNL A   1      33.720  22.869  25.918  1.00  0.00    -0.305 N 
ATOM     11  C   UNL A   1      32.892  22.558  26.943  1.00  0.00     0.325 C 
ATOM     12  H   UNL A   1      34.658  22.938  26.209  1.00  0.00     0.171 HD
ATOM     13  O   UNL A   1      33.403  22.386  28.052  1.00  0.00    -0.248 OA
ATOM     14  N   UNL A   1      31.564  22.364  26.780  1.00  0.00    -0.278 N 
ATOM     15  H   UNL A   1      31.290  21.453  26.523  1.00  0.00     0.174 HD
ATOM     16  O   UNL A   1      29.546  22.959  27.575  1.00  0.00    -0.275 OA
BRANCH  10  17
ATOM     17  C   UNL A   1      33.573  23.120  24.539  1.00  0.00     0.079 A 
ATOM     18  C   UNL A   1      33.654  26.332  22.454  1.00  0.00     0.044 C 
ATOM     19  C   UNL A   1      33.577  24.877  22.822  1.00  0.00    -0.049 A 
ATOM     20  C   UNL A   1      33.119  23.947  21.885  1.00  0.00     0.006 A 
ATOM     21  C   UNL A   1      33.835  24.446  24.134  1.00  0.00     0.032 A 
ATOM     22  C   UNL A   1      32.902  22.623  22.263  1.00  0.00     0.042 A 
ATOM     23  C   UNL A   1      33.126  22.216  23.577  1.00  0.00     0.146 A 
ATOM     24  F   UNL A   1      32.872  20.937  23.877  1.00  0.00    -0.205 F 
ENDBRANCH  10  17
ENDBRANCH   8   9
ENDBRANCH   7   8
ENDBRANCH   6   7
ENDBRANCH   5   6
ENDBRANCH   1   5
BRANCH   3  25
ATOM     25  C   UNL A   1      33.083  29.315  24.776  1.00  0.00     0.117 C 
BRANCH  25  26
ATOM     26  C   UNL A   1      32.687  29.895  26.131  1.00  0.00     0.042 C 
BRANCH  26  27
ATOM     27  C   UNL A   1      33.810  29.687  27.118  1.00  0.00     0.118 C 
BRANCH  27  28
ATOM     28  N   UNL A   1      33.977  30.854  27.999  1.00  0.00    -0.352 N 
ATOM     29  C   UNL A   1      35.015  31.114  28.870  1.00  0.00     0.251 C 
ATOM     30  H   UNL A   1      33.264  31.531  27.963  1.00  0.00     0.163 HD
ATOM     31  O   UNL A   1      34.987  32.023  29.689  1.00  0.00    -0.269 OA
BRANCH  29  32
ATOM     32  C   UNL A   1      36.199  30.277  28.713  1.00  0.00     0.039 A 
ATOM     33  C   UNL A   1      37.000  30.322  27.565  1.00  0.00     0.014 A 
ATOM     34  C   UNL A   1      36.588  29.637  29.880  1.00  0.00     0.014 A 
ATOM     35  C   UNL A   1      38.275  29.773  27.627  1.00  0.00     0.010 A 
ATOM     36  C   UNL A   1      37.901  29.333  30.007  1.00  0.00     0.010 A 
ATOM     37  C   UNL A   1      38.713  29.309  28.864  1.00  0.00    -0.014 A 
BRANCH  37  38
ATOM     38  C   UNL A   1      39.994  28.698  29.138  1.00  0.00     0.031 A 
ATOM     39  C   UNL A   1      40.209  27.284  28.820  1.00  0.00     0.074 A 
ATOM     40  C   UNL A   1      40.947  29.634  29.355  1.00  0.00     0.049 A 
ATOM     41  N   UNL A   1      41.216  26.604  29.227  1.00  0.00    -0.248 NA
ATOM     42  C   UNL A   1      39.280  26.489  28.015  1.00  0.00     0.031 C 
ATOM     43  C   UNL A   1      42.386  29.619  29.183  1.00  0.00     0.029 A 
ATOM     44  N   UNL A   1      40.694  30.928  29.853  1.00  0.00    -0.354 N 
ATOM     45  C   UNL A   1      41.279  25.467  28.446  1.00  0.00     0.074 A 
ATOM     46  C   UNL A   1      39.975  25.356  27.843  1.00  0.00     0.031 C 
ATOM     47  C   UNL A   1      42.906  30.661  29.868  1.00  0.00     0.029 A 
ATOM     48  C   UNL A   1      41.813  31.273  30.614  1.00  0.00     0.049 A 
ATOM     49  H   UNL A   1      39.892  31.477  29.695  1.00  0.00     0.167 HD
ATOM     50  C   UNL A   1      42.505  24.895  28.254  1.00  0.00     0.037 A 
ATOM     51  C   UNL A   1      41.657  31.264  31.974  1.00  0.00     0.037 A 
ATOM     52  C   UNL A   1      43.510  25.672  28.983  1.00  0.00     0.049 A 
ATOM     53  C   UNL A   1      42.476  30.146  32.568  1.00  0.00     0.074 A 
ATOM     54  C   UNL A   1      44.370  26.680  28.578  1.00  0.00     0.029 A 
ATOM     55  N   UNL A   1      43.426  25.757  30.368  1.00  0.00    -0.354 N 
ATOM     56  N   UNL A   1      42.691  28.997  31.982  1.00  0.00    -0.248 NA
ATOM     57  C   UNL A   1      43.227  30.308  33.804  1.00  0.00     0.031 C 
ATOM     58  C   UNL A   1      44.756  27.413  29.733  1.00  0.00     0.029 A 
ATOM     59  C   UNL A   1      44.122  26.855  30.833  1.00  0.00     0.049 A 
ATOM     60  H   UNL A   1      42.937  25.121  30.939  1.00  0.00     0.167 HD
ATOM     61  C   UNL A   1      43.656  28.317  32.679  1.00  0.00     0.074 A 
ATOM     62  C   UNL A   1      43.939  29.169  33.822  1.00  0.00     0.031 C 
ATOM     63  C   UNL A   1      44.191  27.131  32.259  1.00  0.00     0.037 A 
BRANCH  50  64
ATOM     64  C   UNL A   1      42.874  23.861  27.206  1.00  0.00     0.064 A 
ATOM     65  C   UNL A   1      42.590  22.491  27.427  1.00  0.00     0.173 A 
ATOM     66  C   UNL A   1      43.501  24.133  25.976  1.00  0.00     0.173 A 
ATOM     67  F   UNL A   1      41.937  22.075  28.519  1.00  0.00    -0.203 F 
ATOM     68  C   UNL A   1      42.959  21.484  26.530  1.00  0.00     0.198 A 
ATOM     69  C   UNL A   1      43.896  23.121  25.090  1.00  0.00     0.198 A 
ATOM     70  F   UNL A   1      43.708  25.386  25.556  1.00  0.00    -0.203 F 
ATOM     71  F   UNL A   1      42.660  20.207  26.806  1.00  0.00    -0.200 F 
ATOM     72  C   UNL A   1      43.628  21.796  25.368  1.00  0.00     0.200 A 
ATOM     73  F   UNL A   1      44.532  23.444  23.953  1.00  0.00    -0.200 F 
ATOM     74  F   UNL A   1      43.990  20.832  24.511  1.00  0.00    -0.200 F 
ENDBRANCH  50  64
BRANCH  51  75
ATOM     75  C   UNL A   1      40.258  31.671  32.368  1.00  0.00     0.064 A 
ATOM     76  C   UNL A   1      39.460  30.692  33.008  1.00  0.00     0.173 A 
ATOM     77  C   UNL A   1      39.896  33.011  32.572  1.00  0.00     0.173 A 
ATOM     78  F   UNL A   1      39.748  29.389  32.849  1.00  0.00    -0.203 F 
ATOM     79  C   UNL A   1      38.482  31.038  33.941  1.00  0.00     0.198 A 
ATOM     80  C   UNL A   1      38.886  33.352  33.482  1.00  0.00     0.198 A 
ATOM     81  F   UNL A   1      40.589  33.998  31.987  1.00  0.00    -0.203 F 
ATOM     82  F   UNL A   1      37.870  30.081  34.656  1.00  0.00    -0.200 F 
ATOM     83  C   UNL A   1      38.218  32.370  34.202  1.00  0.00     0.200 A 
ATOM     84  F   UNL A   1      38.623  34.643  33.737  1.00  0.00    -0.200 F 
ATOM     85  F   UNL A   1      37.355  32.707  35.170  1.00  0.00    -0.200 F 
ENDBRANCH  51  75
BRANCH  63  86
ATOM     86  C   UNL A   1      44.906  26.129  33.139  1.00  0.00     0.064 A 
ATOM     87  C   UNL A   1      44.245  25.253  34.014  1.00  0.00     0.173 A 
ATOM     88  C   UNL A   1      46.293  25.882  32.973  1.00  0.00     0.173 A 
ATOM     89  F   UNL A   1      42.915  25.280  34.168  1.00  0.00    -0.203 F 
ATOM     90  C   UNL A   1      44.923  24.256  34.716  1.00  0.00     0.198 A 
ATOM     91  C   UNL A   1      46.948  24.828  33.603  1.00  0.00     0.198 A 
ATOM     92  F   UNL A   1      47.059  26.626  32.161  1.00  0.00    -0.203 F 
ATOM     93  F   UNL A   1      44.250  23.487  35.581  1.00  0.00    -0.200 F 
ATOM     94  C   UNL A   1      46.267  24.028  34.493  1.00  0.00     0.200 A 
ATOM     95  F   UNL A   1      48.233  24.577  33.317  1.00  0.00    -0.200 F 
ATOM     96  F   UNL A   1      46.897  23.026  35.117  1.00  0.00    -0.200 F 
ENDBRANCH  63  86
ENDBRANCH  37  38
ENDBRANCH  29  32
ENDBRANCH  27  28
ENDBRANCH  26  27
ENDBRANCH  25  26
ENDBRANCH   3  25
TORSDOF 15
ENDMDL
MODEL 2
REMARK VINA RESULT:     -12.7      1.283      2.338
REMARK SMILES Cc1ccc(F)c(NC(=O)NC(=O)CCCCC(=O)NCCCNC(=O)c2ccc(-c3c4nc(c(-c5c(F)c(F)c(F)c(F)c5F)c5ccc([nH]5)c(-c5c(F)c(F)c(F)c(F)c5F)c5nc(c(-c6c(F)c(F)c(F)c(F)c6F)c6ccc3[nH]6)C=C5)C=C4)cc2)c1
REMARK SMILES IDX 18 1 19 2 20 3 17 5 16 6 15 7 14 8 12 9 8 10 9 11 10 13
REMARK SMILES IDX 11 14 13 16 7 17 1 18 2 19 3 20 90 21 4 22 5 23 6 24 21 25
REMARK SMILES IDX 22 26 23 27 24 28 25 29 26 31 27 32 28 33 89 34 29 35 88 36
REMARK SMILES IDX 30 37 31 38 32 39 82 40 33 41 87 42 81 43 83 44 34 45 86 46
REMARK SMILES IDX 80 47 79 48 35 50 67 51 47 52 66 53 48 54 51 55 65 56 84 57
REMARK SMILES IDX 49 58 50 59 64 61 85 62 52 63 36 64 37 65 45 66 38 67 39 68
REMARK SMILES IDX 43 69 46 70 40 71 41 72 44 73 42 74 68 75 69 76 77 77 70 78
REMARK SMILES IDX 71 79 75 80 78 81 72 82 73 83 76 84 74 85 53 86 54 87 62 88
REMARK SMILES IDX 55 89 56 90 60 91 63 92 57 93 58 94 61 95 59 96
REMARK H PARENT 20 4 8 12 11 15 24 30 83 49 51 60
REMARK Flexibility Score: inf
ROOT
ATOM      1  C   UNL A   1      31.817  27.320  24.164  1.00  0.00     0.219 C 
ATOM      2  O   UNL A   1      30.838  26.895  23.550  1.00  0.00    -0.275 OA
ATOM      3  N   UNL A   1      32.090  28.652  24.091  1.00  0.00    -0.356 N 
ATOM      4  H   UNL A   1      31.585  29.159  23.415  1.00  0.00     0.163 HD
ENDROOT
BRANCH   1   5
ATOM      5  C   UNL A   1      32.645  26.419  25.062  1.00  0.00     0.100 C 
BRANCH   5   6
ATOM      6  C   UNL A   1      33.927  25.803  24.512  1.00  0.00     0.010 C 
BRANCH   6   7
ATOM      7  C   UNL A   1      34.756  24.826  25.355  1.00  0.00     0.010 C 
BRANCH   7   8
ATOM      8  C   UNL A   1      35.953  24.071  24.764  1.00  0.00     0.100 C 
BRANCH   8   9
ATOM      9  C   UNL A   1      36.783  23.207  25.682  1.00  0.00     0.227 C 
ATOM     10  N   UNL A   1      34.389  20.890  25.266  1.00  0.00    -0.305 N 
ATOM     11  C   UNL A   1      35.727  21.003  25.442  1.00  0.00     0.325 C 
ATOM     12  H   UNL A   1      34.150  20.082  24.758  1.00  0.00     0.171 HD
ATOM     13  O   UNL A   1      36.436  20.105  24.982  1.00  0.00    -0.248 OA
ATOM     14  N   UNL A   1      36.292  22.007  26.149  1.00  0.00    -0.278 N 
ATOM     15  H   UNL A   1      36.361  21.863  27.121  1.00  0.00     0.174 HD
ATOM     16  O   UNL A   1      37.889  23.588  26.071  1.00  0.00    -0.275 OA
BRANCH  10  17
ATOM     17  C   UNL A   1      33.254  21.643  25.629  1.00  0.00     0.079 A 
ATOM     18  C   UNL A   1      30.652  23.578  23.591  1.00  0.00     0.044 C 
ATOM     19  C   UNL A   1      31.373  22.959  24.756  1.00  0.00    -0.049 A 
ATOM     20  C   UNL A   1      31.066  23.364  26.057  1.00  0.00     0.006 A 
ATOM     21  C   UNL A   1      32.444  22.072  24.557  1.00  0.00     0.032 A 
ATOM     22  C   UNL A   1      31.831  22.909  27.130  1.00  0.00     0.042 A 
ATOM     23  C   UNL A   1      32.914  22.058  26.916  1.00  0.00     0.146 A 
ATOM     24  F   UNL A   1      33.621  21.680  27.987  1.00  0.00    -0.205 F 
ENDBRANCH  10  17
ENDBRANCH   8   9
ENDBRANCH   7   8
ENDBRANCH   6   7
ENDBRANCH   5   6
ENDBRANCH   1   5
BRANCH   3  25
ATOM     25  C   UNL A   1      33.027  29.411  24.878  1.00  0.00     0.117 C 
BRANCH  25  26
ATOM     26  C   UNL A   1      32.623  29.554  26.342  1.00  0.00     0.042 C 
BRANCH  26  27
ATOM     27  C   UNL A   1      33.849  29.449  27.218  1.00  0.00     0.118 C 
BRANCH  27  28
ATOM     28  N   UNL A   1      34.050  30.670  28.014  1.00  0.00    -0.352 N 
ATOM     29  C   UNL A   1      35.129  30.992  28.811  1.00  0.00     0.251 C 
ATOM     30  H   UNL A   1      33.328  31.338  27.974  1.00  0.00     0.163 HD
ATOM     31  O   UNL A   1      35.134  31.951  29.572  1.00  0.00    -0.269 OA
BRANCH  29  32
ATOM     32  C   UNL A   1      36.312  30.155  28.644  1.00  0.00     0.039 A 
ATOM     33  C   UNL A   1      37.155  30.266  27.531  1.00  0.00     0.014 A 
ATOM     34  C   UNL A   1      36.654  29.440  29.781  1.00  0.00     0.014 A 
ATOM     35  C   UNL A   1      38.422  29.702  27.604  1.00  0.00     0.010 A 
ATOM     36  C   UNL A   1      37.958  29.116  29.936  1.00  0.00     0.010 A 
ATOM     37  C   UNL A   1      38.812  29.157  28.824  1.00  0.00    -0.014 A 
BRANCH  37  38
ATOM     38  C   UNL A   1      40.077  28.517  29.105  1.00  0.00     0.031 A 
ATOM     39  C   UNL A   1      40.273  27.106  28.761  1.00  0.00     0.074 A 
ATOM     40  C   UNL A   1      41.043  29.432  29.356  1.00  0.00     0.049 A 
ATOM     41  N   UNL A   1      41.262  26.400  29.169  1.00  0.00    -0.248 NA
ATOM     42  C   UNL A   1      39.343  26.345  27.925  1.00  0.00     0.031 C 
ATOM     43  C   UNL A   1      42.484  29.395  29.206  1.00  0.00     0.029 A 
ATOM     44  N   UNL A   1      40.805  30.719  29.877  1.00  0.00    -0.354 N 
ATOM     45  C   UNL A   1      41.317  25.279  28.365  1.00  0.00     0.074 A 
ATOM     46  C   UNL A   1      40.021  25.204  27.740  1.00  0.00     0.031 C 
ATOM     47  C   UNL A   1      43.011  30.413  29.920  1.00  0.00     0.029 A 
ATOM     48  C   UNL A   1      41.917  31.029  30.662  1.00  0.00     0.049 A 
ATOM     49  H   UNL A   1      40.014  31.286  29.718  1.00  0.00     0.167 HD
ATOM     50  C   UNL A   1      42.536  24.689  28.180  1.00  0.00     0.037 A 
ATOM     51  C   UNL A   1      41.740  30.995  32.019  1.00  0.00     0.037 A 
ATOM     52  C   UNL A   1      43.542  25.433  28.940  1.00  0.00     0.049 A 
ATOM     53  C   UNL A   1      42.530  29.850  32.602  1.00  0.00     0.074 A 
ATOM     54  C   UNL A   1      44.426  26.434  28.570  1.00  0.00     0.029 A 
ATOM     55  N   UNL A   1      43.439  25.492  30.325  1.00  0.00    -0.354 N 
ATOM     56  N   UNL A   1      42.734  28.710  31.996  1.00  0.00    -0.248 NA
ATOM     57  C   UNL A   1      43.264  29.974  33.852  1.00  0.00     0.031 C 
ATOM     58  C   UNL A   1      44.806  27.136  29.746  1.00  0.00     0.029 A 
ATOM     59  C   UNL A   1      44.146  26.568  30.824  1.00  0.00     0.049 A 
ATOM     60  H   UNL A   1      42.929  24.853  30.876  1.00  0.00     0.167 HD
ATOM     61  C   UNL A   1      43.676  27.999  32.693  1.00  0.00     0.074 A 
ATOM     62  C   UNL A   1      43.956  28.822  33.858  1.00  0.00     0.031 C 
ATOM     63  C   UNL A   1      44.197  26.813  32.257  1.00  0.00     0.037 A 
BRANCH  50  64
ATOM     64  C   UNL A   1      42.903  23.672  27.117  1.00  0.00     0.064 A 
ATOM     65  C   UNL A   1      42.604  22.300  27.310  1.00  0.00     0.173 A 
ATOM     66  C   UNL A   1      43.543  23.959  25.898  1.00  0.00     0.173 A 
ATOM     67  F   UNL A   1      41.937  21.872  28.389  1.00  0.00    -0.203 F 
ATOM     68  C   UNL A   1      42.970  21.306  26.398  1.00  0.00     0.198 A 
ATOM     69  C   UNL A   1      43.936  22.959  24.996  1.00  0.00     0.198 A 
ATOM     70  F   UNL A   1      43.766  25.217  25.502  1.00  0.00    -0.203 F 
ATOM     71  F   UNL A   1      42.655  20.027  26.649  1.00  0.00    -0.200 F 
ATOM     72  C   UNL A   1      43.652  21.633  25.248  1.00  0.00     0.200 A 
ATOM     73  F   UNL A   1      44.584  23.296  23.871  1.00  0.00    -0.200 F 
ATOM     74  F   UNL A   1      44.011  20.681  24.377  1.00  0.00    -0.200 F 
ENDBRANCH  50  64
BRANCH  51  75
ATOM     75  C   UNL A   1      40.342  31.418  32.400  1.00  0.00     0.064 A 
ATOM     76  C   UNL A   1      39.481  30.413  32.903  1.00  0.00     0.173 A 
ATOM     77  C   UNL A   1      40.024  32.744  32.729  1.00  0.00     0.173 A 
ATOM     78  F   UNL A   1      39.725  29.123  32.619  1.00  0.00    -0.203 F 
ATOM     79  C   UNL A   1      38.478  30.702  33.829  1.00  0.00     0.198 A 
ATOM     80  C   UNL A   1      38.990  33.032  33.631  1.00  0.00     0.198 A 
ATOM     81  F   UNL A   1      40.778  33.756  32.278  1.00  0.00    -0.203 F 
ATOM     82  F   UNL A   1      37.801  29.704  34.416  1.00  0.00    -0.200 F 
ATOM     83  C   UNL A   1      38.255  32.011  34.218  1.00  0.00     0.200 A 
ATOM     84  F   UNL A   1      38.766  34.300  34.010  1.00  0.00    -0.200 F 
ATOM     85  F   UNL A   1      37.365  32.282  35.183  1.00  0.00    -0.200 F 
ENDBRANCH  51  75
BRANCH  63  86
ATOM     86  C   UNL A   1      44.881  25.780  33.126  1.00  0.00     0.064 A 
ATOM     87  C   UNL A   1      46.258  25.515  33.080  1.00  0.00     0.173 A 
ATOM     88  C   UNL A   1      44.182  25.157  34.193  1.00  0.00     0.173 A 
ATOM     89  F   UNL A   1      47.068  26.135  32.212  1.00  0.00    -0.203 F 
ATOM     90  C   UNL A   1      46.876  24.649  33.983  1.00  0.00     0.198 A 
ATOM     91  C   UNL A   1      44.819  24.369  35.147  1.00  0.00     0.198 A 
ATOM     92  F   UNL A   1      42.865  25.324  34.378  1.00  0.00    -0.203 F 
ATOM     93  F   UNL A   1      48.183  24.388  33.854  1.00  0.00    -0.200 F 
ATOM     94  C   UNL A   1      46.163  24.095  35.028  1.00  0.00     0.200 A 
ATOM     95  F   UNL A   1      44.126  23.903  36.194  1.00  0.00    -0.200 F 
ATOM     96  F   UNL A   1      46.776  23.320  35.931  1.00  0.00    -0.200 F 
ENDBRANCH  63  86
ENDBRANCH  37  38
ENDBRANCH  29  32
ENDBRANCH  27  28
ENDBRANCH  26  27
ENDBRANCH  25  26
ENDBRANCH   3  25
TORSDOF 15
ENDMDL
MODEL 3
REMARK VINA RESULT:     -12.6      3.185      5.317
REMARK SMILES Cc1ccc(F)c(NC(=O)NC(=O)CCCCC(=O)NCCCNC(=O)c2ccc(-c3c4nc(c(-c5c(F)c(F)c(F)c(F)c5F)c5ccc([nH]5)c(-c5c(F)c(F)c(F)c(F)c5F)c5nc(c(-c6c(F)c(F)c(F)c(F)c6F)c6ccc3[nH]6)C=C5)C=C4)cc2)c1
REMARK SMILES IDX 18 1 19 2 20 3 17 5 16 6 15 7 14 8 12 9 8 10 9 11 10 13
REMARK SMILES IDX 11 14 13 16 7 17 1 18 2 19 3 20 90 21 4 22 5 23 6 24 21 25
REMARK SMILES IDX 22 26 23 27 24 28 25 29 26 31 27 32 28 33 89 34 29 35 88 36
REMARK SMILES IDX 30 37 31 38 32 39 82 40 33 41 87 42 81 43 83 44 34 45 86 46
REMARK SMILES IDX 80 47 79 48 35 50 67 51 47 52 66 53 48 54 51 55 65 56 84 57
REMARK SMILES IDX 49 58 50 59 64 61 85 62 52 63 36 64 37 65 45 66 38 67 39 68
REMARK SMILES IDX 43 69 46 70 40 71 41 72 44 73 42 74 68 75 69 76 77 77 70 78
REMARK SMILES IDX 71 79 75 80 78 81 72 82 73 83 76 84 74 85 53 86 54 87 62 88
REMARK SMILES IDX 55 89 56 90 60 91 63 92 57 93 58 94 61 95 59 96
REMARK H PARENT 20 4 8 12 11 15 24 30 83 49 51 60
REMARK Flexibility Score: inf
ROOT
ATOM      1  C   UNL A   1      35.147  31.852  27.966  1.00  0.00     0.219 C 
ATOM      2  O   UNL A   1      36.129  31.109  27.959  1.00  0.00    -0.275 OA
ATOM      3  N   UNL A   1      35.347  33.175  28.220  1.00  0.00    -0.356 N 
ATOM      4  H   UNL A   1      36.242  33.421  28.548  1.00  0.00     0.163 HD
ENDROOT
BRANCH   1   5
ATOM      5  C   UNL A   1      33.764  31.344  27.602  1.00  0.00     0.100 C 
BRANCH   5   6
ATOM      6  C   UNL A   1      33.619  29.938  27.030  1.00  0.00     0.010 C 
BRANCH   6   7
ATOM      7  C   UNL A   1      32.960  29.707  25.665  1.00  0.00     0.010 C 
BRANCH   7   8
ATOM      8  C   UNL A   1      31.650  28.921  25.528  1.00  0.00     0.100 C 
BRANCH   8   9
ATOM      9  C   UNL A   1      31.727  27.436  25.268  1.00  0.00     0.227 C 
ATOM     10  N   UNL A   1      30.745  28.180  22.145  1.00  0.00    -0.305 N 
ATOM     11  C   UNL A   1      31.531  27.311  22.823  1.00  0.00     0.325 C 
ATOM     12  H   UNL A   1      31.071  28.335  21.229  1.00  0.00     0.171 HD
ATOM     13  O   UNL A   1      32.495  26.831  22.222  1.00  0.00    -0.248 OA
ATOM     14  N   UNL A   1      31.259  26.907  24.084  1.00  0.00    -0.278 N 
ATOM     15  H   UNL A   1      30.649  26.137  24.168  1.00  0.00     0.174 HD
ATOM     16  O   UNL A   1      32.157  26.670  26.132  1.00  0.00    -0.275 OA
BRANCH  10  17
ATOM     17  C   UNL A   1      29.578  28.919  22.424  1.00  0.00     0.079 A 
ATOM     18  C   UNL A   1      28.821  32.673  22.463  1.00  0.00     0.044 C 
ATOM     19  C   UNL A   1      28.635  31.184  22.544  1.00  0.00    -0.049 A 
ATOM     20  C   UNL A   1      27.477  30.659  23.122  1.00  0.00     0.006 A 
ATOM     21  C   UNL A   1      29.662  30.304  22.166  1.00  0.00     0.032 A 
ATOM     22  C   UNL A   1      27.362  29.286  23.338  1.00  0.00     0.042 A 
ATOM     23  C   UNL A   1      28.404  28.427  22.993  1.00  0.00     0.146 A 
ATOM     24  F   UNL A   1      28.240  27.125  23.252  1.00  0.00    -0.205 F 
ENDBRANCH  10  17
ENDBRANCH   8   9
ENDBRANCH   7   8
ENDBRANCH   6   7
ENDBRANCH   5   6
ENDBRANCH   1   5
BRANCH   3  25
ATOM     25  C   UNL A   1      34.411  34.259  28.068  1.00  0.00     0.117 C 
BRANCH  25  26
ATOM     26  C   UNL A   1      33.566  34.517  29.312  1.00  0.00     0.042 C 
BRANCH  26  27
ATOM     27  C   UNL A   1      34.422  34.368  30.546  1.00  0.00     0.118 C 
BRANCH  27  28
ATOM     28  N   UNL A   1      34.223  35.487  31.481  1.00  0.00    -0.352 N 
ATOM     29  C   UNL A   1      34.758  35.641  32.743  1.00  0.00     0.251 C 
ATOM     30  H   UNL A   1      33.638  36.214  31.168  1.00  0.00     0.163 HD
ATOM     31  O   UNL A   1      34.400  36.520  33.516  1.00  0.00    -0.269 OA
BRANCH  29  32
ATOM     32  C   UNL A   1      35.840  34.727  33.088  1.00  0.00     0.039 A 
ATOM     33  C   UNL A   1      35.628  33.570  33.848  1.00  0.00     0.014 A 
ATOM     34  C   UNL A   1      37.017  34.971  32.397  1.00  0.00     0.014 A 
ATOM     35  C   UNL A   1      36.609  32.586  33.840  1.00  0.00     0.010 A 
ATOM     36  C   UNL A   1      37.844  33.918  32.198  1.00  0.00     0.010 A 
ATOM     37  C   UNL A   1      37.694  32.769  32.988  1.00  0.00    -0.014 A 
BRANCH  37  38
ATOM     38  C   UNL A   1      38.820  31.874  32.840  1.00  0.00     0.031 A 
ATOM     39  C   UNL A   1      38.688  30.668  32.018  1.00  0.00     0.074 A 
ATOM     40  C   UNL A   1      39.972  32.469  33.229  1.00  0.00     0.049 A 
ATOM     41  N   UNL A   1      39.541  29.712  32.008  1.00  0.00    -0.248 NA
ATOM     42  C   UNL A   1      37.552  30.419  31.130  1.00  0.00     0.031 C 
ATOM     43  C   UNL A   1      41.355  32.253  32.855  1.00  0.00     0.029 A 
ATOM     44  N   UNL A   1      40.052  33.505  34.181  1.00  0.00    -0.354 N 
ATOM     45  C   UNL A   1      39.293  28.960  30.878  1.00  0.00     0.074 A 
ATOM     46  C   UNL A   1      37.959  29.326  30.472  1.00  0.00     0.031 C 
ATOM     47  C   UNL A   1      42.142  32.848  33.777  1.00  0.00     0.029 A 
ATOM     48  C   UNL A   1      41.269  33.327  34.842  1.00  0.00     0.049 A 
ATOM     49  H   UNL A   1      39.385  34.211  34.345  1.00  0.00     0.167 HD
ATOM     50  C   UNL A   1      40.342  28.285  30.320  1.00  0.00     0.037 A 
ATOM     51  C   UNL A   1      41.208  32.839  36.120  1.00  0.00     0.037 A 
ATOM     52  C   UNL A   1      41.544  28.533  31.119  1.00  0.00     0.049 A 
ATOM     53  C   UNL A   1      41.793  31.449  36.157  1.00  0.00     0.074 A 
ATOM     54  C   UNL A   1      42.579  29.442  30.973  1.00  0.00     0.029 A 
ATOM     55  N   UNL A   1      41.576  28.108  32.443  1.00  0.00    -0.354 N 
ATOM     56  N   UNL A   1      41.702  30.585  35.180  1.00  0.00    -0.248 NA
ATOM     57  C   UNL A   1      42.643  30.996  37.247  1.00  0.00     0.031 C 
ATOM     58  C   UNL A   1      43.198  29.605  32.242  1.00  0.00     0.029 A 
ATOM     59  C   UNL A   1      42.532  28.804  33.157  1.00  0.00     0.049 A 
ATOM     60  H   UNL A   1      40.996  27.407  32.820  1.00  0.00     0.167 HD
ATOM     61  C   UNL A   1      42.534  29.528  35.445  1.00  0.00     0.074 A 
ATOM     62  C   UNL A   1      43.080  29.823  36.760  1.00  0.00     0.031 C 
ATOM     63  C   UNL A   1      42.758  28.509  34.562  1.00  0.00     0.037 A 
BRANCH  50  64
ATOM     64  C   UNL A   1      40.396  27.670  28.934  1.00  0.00     0.064 A 
ATOM     65  C   UNL A   1      39.746  26.438  28.676  1.00  0.00     0.173 A 
ATOM     66  C   UNL A   1      41.058  28.220  27.821  1.00  0.00     0.173 A 
ATOM     67  F   UNL A   1      39.018  25.818  29.613  1.00  0.00    -0.203 F 
ATOM     68  C   UNL A   1      39.810  25.788  27.440  1.00  0.00     0.198 A 
ATOM     69  C   UNL A   1      41.146  27.556  26.589  1.00  0.00     0.198 A 
ATOM     70  F   UNL A   1      41.599  29.442  27.861  1.00  0.00    -0.203 F 
ATOM     71  F   UNL A   1      39.171  24.622  27.269  1.00  0.00    -0.200 F 
ATOM     72  C   UNL A   1      40.524  26.339  26.400  1.00  0.00     0.200 A 
ATOM     73  F   UNL A   1      41.831  28.114  25.580  1.00  0.00    -0.200 F 
ATOM     74  F   UNL A   1      40.593  25.714  25.217  1.00  0.00    -0.200 F 
ENDBRANCH  50  64
BRANCH  51  75
ATOM     75  C   UNL A   1      39.967  33.320  36.831  1.00  0.00     0.064 A 
ATOM     76  C   UNL A   1      38.926  32.378  37.016  1.00  0.00     0.173 A 
ATOM     77  C   UNL A   1      39.979  34.424  37.697  1.00  0.00     0.173 A 
ATOM     78  F   UNL A   1      38.853  31.300  36.218  1.00  0.00    -0.203 F 
ATOM     79  C   UNL A   1      38.068  32.439  38.115  1.00  0.00     0.198 A 
ATOM     80  C   UNL A   1      39.089  34.501  38.777  1.00  0.00     0.198 A 
ATOM     81  F   UNL A   1      40.920  35.371  37.577  1.00  0.00    -0.203 F 
ATOM     82  F   UNL A   1      37.212  31.433  38.353  1.00  0.00    -0.200 F 
ATOM     83  C   UNL A   1      38.172  33.485  39.014  1.00  0.00     0.200 A 
ATOM     84  F   UNL A   1      39.182  35.514  39.651  1.00  0.00    -0.200 F 
ATOM     85  F   UNL A   1      37.421  33.493  40.124  1.00  0.00    -0.200 F 
ENDBRANCH  51  75
BRANCH  63  86
ATOM     86  C   UNL A   1      43.287  27.137  34.920  1.00  0.00     0.064 A 
ATOM     87  C   UNL A   1      42.468  26.010  35.095  1.00  0.00     0.173 A 
ATOM     88  C   UNL A   1      44.681  26.872  34.899  1.00  0.00     0.173 A 
ATOM     89  F   UNL A   1      41.134  26.086  35.005  1.00  0.00    -0.203 F 
ATOM     90  C   UNL A   1      42.997  24.735  35.299  1.00  0.00     0.198 A 
ATOM     91  C   UNL A   1      45.201  25.585  35.008  1.00  0.00     0.198 A 
ATOM     92  F   UNL A   1      45.590  27.842  34.728  1.00  0.00    -0.203 F 
ATOM     93  F   UNL A   1      42.168  23.707  35.519  1.00  0.00    -0.200 F 
ATOM     94  C   UNL A   1      44.360  24.519  35.232  1.00  0.00     0.200 A 
ATOM     95  F   UNL A   1      46.518  25.387  34.866  1.00  0.00    -0.200 F 
ATOM     96  F   UNL A   1      44.857  23.283  35.359  1.00  0.00    -0.200 F 
ENDBRANCH  63  86
ENDBRANCH  37  38
ENDBRANCH  29  32
ENDBRANCH  27  28
ENDBRANCH  26  27
ENDBRANCH  25  26
ENDBRANCH   3  25
TORSDOF 15
ENDMDL
