MODEL 1
REMARK VINA RESULT:     -11.9      0.000      0.000
REMARK SMILES CC(C)n1cncc1[C@@H](O)[C@H](C)C(=O)NCCCNC(=O)c1ccc(-c2c3nc(c(-c4c(F)c(F)c(F)c(F)c4F)c4ccc([nH]4)c(-c4c(F)c(F)c(F)c(F)c4F)c4nc(c(-c5c(F)c(F)c(F)c(F)c5F)c5ccc2[nH]5)C=C4)C=C3)cc1
REMARK SMILES IDX 16 1 15 2 13 3 14 4 11 6 12 7 9 8 8 9 4 10 5 11 6 12 7 13
REMARK SMILES IDX 2 14 1 15 3 16 10 17 17 19 18 20 19 21 20 22 21 24 22 25
REMARK SMILES IDX 23 26 84 27 24 28 83 29 25 30 26 31 27 32 77 33 28 34 82 35
REMARK SMILES IDX 76 36 78 37 29 38 81 39 75 40 74 41 30 43 62 44 42 45 61 46
REMARK SMILES IDX 43 47 46 48 60 49 79 50 44 51 45 52 59 54 80 55 47 56 31 57
REMARK SMILES IDX 32 58 40 59 33 60 34 61 38 62 41 63 35 64 36 65 39 66 37 67
REMARK SMILES IDX 63 68 64 69 72 70 65 71 66 72 70 73 73 74 67 75 68 76 71 77
REMARK SMILES IDX 69 78 48 79 49 80 57 81 50 82 51 83 55 84 58 85 52 86 53 87
REMARK SMILES IDX 56 88 54 89
REMARK H PARENT 15 5 10 18 19 23 78 42 46 53
REMARK Flexibility Score: inf
ROOT
ATOM      1  C   UNL A   1      37.949  22.597  25.701  1.00  0.00     0.117 C 
ENDROOT
BRANCH   1   2
ATOM      2  N   UNL A   1      37.343  22.828  24.401  1.00  0.00    -0.356 N 
ATOM      3  C   UNL A   1      36.019  22.800  24.067  1.00  0.00     0.225 C 
ATOM      4  O   UNL A   1      35.695  23.239  22.959  1.00  0.00    -0.275 OA
ATOM      5  H   UNL A   1      37.966  23.027  23.666  1.00  0.00     0.163 HD
BRANCH   3   6
ATOM      6  C   UNL A   1      34.974  22.170  24.982  1.00  0.00     0.110 C 
ATOM      7  C   UNL A   1      35.115  20.645  24.961  1.00  0.00     0.021 C 
BRANCH   6   8
ATOM      8  C   UNL A   1      34.754  22.905  26.333  1.00  0.00     0.175 C 
BRANCH   8   9
ATOM      9  C   UNL A   1      33.419  23.550  26.552  1.00  0.00     0.067 A 
ATOM     10  N   UNL A   1      33.033  24.842  26.232  1.00  0.00    -0.330 N 
ATOM     11  C   UNL A   1      31.676  24.913  26.481  1.00  0.00     0.199 A 
ATOM     12  N   UNL A   1      31.219  23.849  27.087  1.00  0.00    -0.245 NA
ATOM     13  C   UNL A   1      32.289  23.015  27.160  1.00  0.00     0.137 A 
BRANCH  10  14
ATOM     14  C   UNL A   1      33.760  26.019  25.747  1.00  0.00     0.082 C 
ATOM     15  C   UNL A   1      33.851  26.006  24.210  1.00  0.00     0.031 C 
ATOM     16  C   UNL A   1      33.260  27.404  26.161  1.00  0.00     0.031 C 
ENDBRANCH  10  14
ENDBRANCH   8   9
BRANCH   8  17
ATOM     17  O   UNL A   1      34.997  22.104  27.486  1.00  0.00    -0.386 OA
ATOM     18  H   UNL A   1      34.379  22.356  28.189  1.00  0.00     0.211 HD
ENDBRANCH   8  17
ENDBRANCH   6   8
ENDBRANCH   3   6
ENDBRANCH   1   2
BRANCH   1  19
ATOM     19  C   UNL A   1      38.927  21.433  25.750  1.00  0.00     0.042 C 
BRANCH  19  20
ATOM     20  C   UNL A   1      40.028  21.648  26.763  1.00  0.00     0.118 C 
BRANCH  20  21
ATOM     21  N   UNL A   1      41.347  21.792  26.145  1.00  0.00    -0.352 N 
ATOM     22  C   UNL A   1      42.084  22.950  25.981  1.00  0.00     0.251 C 
ATOM     23  H   UNL A   1      41.759  20.964  25.805  1.00  0.00     0.163 HD
ATOM     24  O   UNL A   1      42.998  23.022  25.186  1.00  0.00    -0.269 OA
BRANCH  22  25
ATOM     25  C   UNL A   1      41.700  24.115  26.799  1.00  0.00     0.039 A 
ATOM     26  C   UNL A   1      42.312  24.349  28.028  1.00  0.00     0.014 A 
ATOM     27  C   UNL A   1      40.806  25.031  26.248  1.00  0.00     0.014 A 
ATOM     28  C   UNL A   1      42.098  25.575  28.648  1.00  0.00     0.010 A 
ATOM     29  C   UNL A   1      40.727  26.295  26.778  1.00  0.00     0.010 A 
ATOM     30  C   UNL A   1      41.340  26.566  27.996  1.00  0.00    -0.014 A 
BRANCH  30  31
ATOM     31  C   UNL A   1      41.283  27.916  28.546  1.00  0.00     0.031 A 
ATOM     32  C   UNL A   1      42.404  28.804  28.136  1.00  0.00     0.074 A 
ATOM     33  C   UNL A   1      40.249  28.408  29.260  1.00  0.00     0.049 A 
ATOM     34  N   UNL A   1      43.389  29.194  28.874  1.00  0.00    -0.248 NA
ATOM     35  C   UNL A   1      42.522  29.202  26.726  1.00  0.00     0.031 C 
ATOM     36  C   UNL A   1      38.933  27.813  29.507  1.00  0.00     0.029 A 
ATOM     37  N   UNL A   1      40.147  29.623  29.869  1.00  0.00    -0.354 N 
ATOM     38  C   UNL A   1      44.159  30.042  28.083  1.00  0.00     0.074 A 
ATOM     39  C   UNL A   1      43.675  29.878  26.737  1.00  0.00     0.031 C 
ATOM     40  C   UNL A   1      38.099  28.746  30.016  1.00  0.00     0.029 A 
ATOM     41  C   UNL A   1      38.869  29.940  30.307  1.00  0.00     0.049 A 
ATOM     42  H   UNL A   1      40.917  30.225  29.989  1.00  0.00     0.167 HD
ATOM     43  C   UNL A   1      44.968  30.975  28.659  1.00  0.00     0.037 A 
ATOM     44  C   UNL A   1      38.469  31.105  30.873  1.00  0.00     0.037 A 
ATOM     45  C   UNL A   1      45.173  30.682  30.058  1.00  0.00     0.049 A 
ATOM     46  C   UNL A   1      39.677  31.773  31.410  1.00  0.00     0.074 A 
ATOM     47  C   UNL A   1      45.695  29.615  30.766  1.00  0.00     0.029 A 
ATOM     48  N   UNL A   1      44.453  31.412  30.971  1.00  0.00    -0.354 N 
ATOM     49  N   UNL A   1      40.356  31.335  32.433  1.00  0.00    -0.248 NA
ATOM     50  C   UNL A   1      40.382  32.703  30.544  1.00  0.00     0.031 C 
ATOM     51  C   UNL A   1      44.868  29.498  31.923  1.00  0.00     0.029 A 
ATOM     52  C   UNL A   1      43.940  30.540  31.895  1.00  0.00     0.049 A 
ATOM     53  H   UNL A   1      44.327  32.388  30.964  1.00  0.00     0.167 HD
ATOM     54  C   UNL A   1      41.679  31.556  32.089  1.00  0.00     0.074 A 
ATOM     55  C   UNL A   1      41.630  32.505  30.980  1.00  0.00     0.031 C 
ATOM     56  C   UNL A   1      42.666  30.731  32.547  1.00  0.00     0.037 A 
BRANCH  43  57
ATOM     57  C   UNL A   1      45.241  32.352  28.094  1.00  0.00     0.064 A 
ATOM     58  C   UNL A   1      44.154  33.231  27.892  1.00  0.00     0.173 A 
ATOM     59  C   UNL A   1      46.442  32.720  27.450  1.00  0.00     0.173 A 
ATOM     60  F   UNL A   1      42.961  32.984  28.453  1.00  0.00    -0.203 F 
ATOM     61  C   UNL A   1      44.235  34.321  27.021  1.00  0.00     0.198 A 
ATOM     62  C   UNL A   1      46.531  33.840  26.624  1.00  0.00     0.198 A 
ATOM     63  F   UNL A   1      47.540  31.960  27.494  1.00  0.00    -0.203 F 
ATOM     64  F   UNL A   1      43.134  35.035  26.748  1.00  0.00    -0.200 F 
ATOM     65  C   UNL A   1      45.421  34.617  26.379  1.00  0.00     0.200 A 
ATOM     66  F   UNL A   1      47.688  34.102  25.998  1.00  0.00    -0.200 F 
ATOM     67  F   UNL A   1      45.482  35.615  25.488  1.00  0.00    -0.200 F 
ENDBRANCH  43  57
BRANCH  44  68
ATOM     68  C   UNL A   1      37.165  31.796  30.771  1.00  0.00     0.064 A 
ATOM     69  C   UNL A   1      36.265  31.795  31.849  1.00  0.00     0.173 A 
ATOM     70  C   UNL A   1      36.913  32.719  29.740  1.00  0.00     0.173 A 
ATOM     71  F   UNL A   1      36.456  30.969  32.887  1.00  0.00    -0.203 F 
ATOM     72  C   UNL A   1      35.203  32.702  31.915  1.00  0.00     0.198 A 
ATOM     73  C   UNL A   1      35.849  33.619  29.805  1.00  0.00     0.198 A 
ATOM     74  F   UNL A   1      37.754  32.837  28.702  1.00  0.00    -0.203 F 
ATOM     75  F   UNL A   1      34.412  32.724  32.997  1.00  0.00    -0.200 F 
ATOM     76  C   UNL A   1      35.005  33.623  30.901  1.00  0.00     0.200 A 
ATOM     77  F   UNL A   1      35.687  34.531  28.834  1.00  0.00    -0.200 F 
ATOM     78  F   UNL A   1      34.033  34.540  31.000  1.00  0.00    -0.200 F 
ENDBRANCH  44  68
BRANCH  56  79
ATOM     79  C   UNL A   1      42.332  29.806  33.686  1.00  0.00     0.064 A 
ATOM     80  C   UNL A   1      41.800  28.513  33.539  1.00  0.00     0.173 A 
ATOM     81  C   UNL A   1      42.666  30.221  34.983  1.00  0.00     0.173 A 
ATOM     82  F   UNL A   1      41.549  27.998  32.329  1.00  0.00    -0.203 F 
ATOM     83  C   UNL A   1      41.561  27.702  34.648  1.00  0.00     0.198 A 
ATOM     84  C   UNL A   1      42.466  29.393  36.083  1.00  0.00     0.198 A 
ATOM     85  F   UNL A   1      43.225  31.426  35.181  1.00  0.00    -0.203 F 
ATOM     86  F   UNL A   1      41.026  26.482  34.486  1.00  0.00    -0.200 F 
ATOM     87  C   UNL A   1      41.899  28.140  35.917  1.00  0.00     0.200 A 
ATOM     88  F   UNL A   1      42.840  29.804  37.302  1.00  0.00    -0.200 F 
ATOM     89  F   UNL A   1      41.698  27.349  36.981  1.00  0.00    -0.200 F 
ENDBRANCH  56  79
ENDBRANCH  30  31
ENDBRANCH  22  25
ENDBRANCH  20  21
ENDBRANCH  19  20
ENDBRANCH   1  19
TORSDOF 14
ENDMDL
MODEL 2
REMARK VINA RESULT:     -11.8      1.098      1.844
REMARK SMILES CC(C)n1cncc1[C@@H](O)[C@H](C)C(=O)NCCCNC(=O)c1ccc(-c2c3nc(c(-c4c(F)c(F)c(F)c(F)c4F)c4ccc([nH]4)c(-c4c(F)c(F)c(F)c(F)c4F)c4nc(c(-c5c(F)c(F)c(F)c(F)c5F)c5ccc2[nH]5)C=C4)C=C3)cc1
REMARK SMILES IDX 16 1 15 2 13 3 14 4 11 6 12 7 9 8 8 9 4 10 5 11 6 12 7 13
REMARK SMILES IDX 2 14 1 15 3 16 10 17 17 19 18 20 19 21 20 22 21 24 22 25
REMARK SMILES IDX 23 26 84 27 24 28 83 29 25 30 26 31 27 32 77 33 28 34 82 35
REMARK SMILES IDX 76 36 78 37 29 38 81 39 75 40 74 41 30 43 62 44 42 45 61 46
REMARK SMILES IDX 43 47 46 48 60 49 79 50 44 51 45 52 59 54 80 55 47 56 31 57
REMARK SMILES IDX 32 58 40 59 33 60 34 61 38 62 41 63 35 64 36 65 39 66 37 67
REMARK SMILES IDX 63 68 64 69 72 70 65 71 66 72 70 73 73 74 67 75 68 76 71 77
REMARK SMILES IDX 69 78 48 79 49 80 57 81 50 82 51 83 55 84 58 85 52 86 53 87
REMARK SMILES IDX 56 88 54 89
REMARK H PARENT 15 5 10 18 19 23 78 42 46 53
REMARK Flexibility Score: inf
ROOT
ATOM      1  C   UNL A   1      38.292  22.581  25.832  1.00  0.00     0.117 C 
ENDROOT
BRANCH   1   2
ATOM      2  N   UNL A   1      37.512  22.630  24.608  1.00  0.00    -0.356 N 
ATOM      3  C   UNL A   1      36.291  23.207  24.404  1.00  0.00     0.225 C 
ATOM      4  O   UNL A   1      35.899  23.329  23.239  1.00  0.00    -0.275 OA
ATOM      5  H   UNL A   1      37.913  22.188  23.825  1.00  0.00     0.163 HD
BRANCH   3   6
ATOM      6  C   UNL A   1      35.390  23.609  25.567  1.00  0.00     0.110 C 
ATOM      7  C   UNL A   1      34.778  24.987  25.299  1.00  0.00     0.021 C 
BRANCH   6   8
ATOM      8  C   UNL A   1      34.500  22.469  26.134  1.00  0.00     0.175 C 
BRANCH   8   9
ATOM      9  C   UNL A   1      33.624  21.736  25.163  1.00  0.00     0.067 A 
ATOM     10  N   UNL A   1      32.506  22.211  24.497  1.00  0.00    -0.330 N 
ATOM     11  C   UNL A   1      32.139  21.224  23.602  1.00  0.00     0.199 A 
ATOM     12  N   UNL A   1      32.814  20.117  23.771  1.00  0.00    -0.245 NA
ATOM     13  C   UNL A   1      33.712  20.413  24.747  1.00  0.00     0.137 A 
BRANCH  10  14
ATOM     14  C   UNL A   1      31.724  23.448  24.596  1.00  0.00     0.082 C 
ATOM     15  C   UNL A   1      30.771  23.586  23.395  1.00  0.00     0.031 C 
ATOM     16  C   UNL A   1      30.898  23.687  25.861  1.00  0.00     0.031 C 
ENDBRANCH  10  14
ENDBRANCH   8   9
BRANCH   8  17
ATOM     17  O   UNL A   1      35.212  21.467  26.853  1.00  0.00    -0.386 OA
ATOM     18  H   UNL A   1      35.816  21.006  26.250  1.00  0.00     0.211 HD
ENDBRANCH   8  17
ENDBRANCH   6   8
ENDBRANCH   3   6
ENDBRANCH   1   2
BRANCH   1  19
ATOM     19  C   UNL A   1      39.255  21.407  25.927  1.00  0.00     0.042 C 
BRANCH  19  20
ATOM     20  C   UNL A   1      40.399  21.675  26.878  1.00  0.00     0.118 C 
BRANCH  20  21
ATOM     21  N   UNL A   1      41.666  21.919  26.187  1.00  0.00    -0.352 N 
ATOM     22  C   UNL A   1      42.279  23.135  25.944  1.00  0.00     0.251 C 
ATOM     23  H   UNL A   1      42.139  21.121  25.856  1.00  0.00     0.163 HD
ATOM     24  O   UNL A   1      43.141  23.261  25.100  1.00  0.00    -0.269 OA
BRANCH  22  25
ATOM     25  C   UNL A   1      41.824  24.290  26.739  1.00  0.00     0.039 A 
ATOM     26  C   UNL A   1      42.374  24.546  27.993  1.00  0.00     0.014 A 
ATOM     27  C   UNL A   1      40.927  25.176  26.146  1.00  0.00     0.014 A 
ATOM     28  C   UNL A   1      42.096  25.767  28.597  1.00  0.00     0.010 A 
ATOM     29  C   UNL A   1      40.786  26.439  26.666  1.00  0.00     0.010 A 
ATOM     30  C   UNL A   1      41.336  26.733  27.908  1.00  0.00    -0.014 A 
BRANCH  30  31
ATOM     31  C   UNL A   1      41.215  28.082  28.448  1.00  0.00     0.031 A 
ATOM     32  C   UNL A   1      42.295  29.019  28.038  1.00  0.00     0.074 A 
ATOM     33  C   UNL A   1      40.156  28.530  29.155  1.00  0.00     0.049 A 
ATOM     34  N   UNL A   1      43.258  29.459  28.777  1.00  0.00    -0.248 NA
ATOM     35  C   UNL A   1      42.401  29.412  26.626  1.00  0.00     0.031 C 
ATOM     36  C   UNL A   1      38.868  27.875  29.400  1.00  0.00     0.029 A 
ATOM     37  N   UNL A   1      39.994  29.743  29.756  1.00  0.00    -0.354 N 
ATOM     38  C   UNL A   1      43.991  30.336  27.984  1.00  0.00     0.074 A 
ATOM     39  C   UNL A   1      43.521  30.141  26.637  1.00  0.00     0.031 C 
ATOM     40  C   UNL A   1      37.989  28.773  29.900  1.00  0.00     0.029 A 
ATOM     41  C   UNL A   1      38.701  30.003  30.186  1.00  0.00     0.049 A 
ATOM     42  H   UNL A   1      40.735  30.381  29.875  1.00  0.00     0.167 HD
ATOM     43  C   UNL A   1      44.753  31.309  28.557  1.00  0.00     0.037 A 
ATOM     44  C   UNL A   1      38.245  31.151  30.742  1.00  0.00     0.037 A 
ATOM     45  C   UNL A   1      44.965  31.035  29.959  1.00  0.00     0.049 A 
ATOM     46  C   UNL A   1      39.418  31.878  31.280  1.00  0.00     0.074 A 
ATOM     47  C   UNL A   1      45.533  29.999  30.676  1.00  0.00     0.029 A 
ATOM     48  N   UNL A   1      44.208  31.737  30.864  1.00  0.00    -0.354 N 
ATOM     49  N   UNL A   1      40.112  31.479  32.309  1.00  0.00    -0.248 NA
ATOM     50  C   UNL A   1      40.083  32.835  30.411  1.00  0.00     0.031 C 
ATOM     51  C   UNL A   1      44.707  29.851  31.831  1.00  0.00     0.029 A 
ATOM     52  C   UNL A   1      43.731  30.848  31.791  1.00  0.00     0.049 A 
ATOM     53  H   UNL A   1      44.036  32.706  30.850  1.00  0.00     0.167 HD
ATOM     54  C   UNL A   1      41.425  31.759  31.969  1.00  0.00     0.074 A 
ATOM     55  C   UNL A   1      41.336  32.698  30.854  1.00  0.00     0.031 C 
ATOM     56  C   UNL A   1      42.447  30.984  32.437  1.00  0.00     0.037 A 
BRANCH  43  57
ATOM     57  C   UNL A   1      44.964  32.695  27.984  1.00  0.00     0.064 A 
ATOM     58  C   UNL A   1      46.257  33.058  27.546  1.00  0.00     0.173 A 
ATOM     59  C   UNL A   1      44.060  33.765  28.147  1.00  0.00     0.173 A 
ATOM     60  F   UNL A   1      47.203  32.125  27.357  1.00  0.00    -0.203 F 
ATOM     61  C   UNL A   1      46.642  34.393  27.398  1.00  0.00     0.198 A 
ATOM     62  C   UNL A   1      44.434  35.094  27.947  1.00  0.00     0.198 A 
ATOM     63  F   UNL A   1      42.820  33.591  28.614  1.00  0.00    -0.203 F 
ATOM     64  F   UNL A   1      47.920  34.690  27.127  1.00  0.00    -0.200 F 
ATOM     65  C   UNL A   1      45.732  35.411  27.611  1.00  0.00     0.200 A 
ATOM     66  F   UNL A   1      43.541  36.068  28.172  1.00  0.00    -0.200 F 
ATOM     67  F   UNL A   1      46.116  36.692  27.543  1.00  0.00    -0.200 F 
ENDBRANCH  43  57
BRANCH  44  68
ATOM     68  C   UNL A   1      36.911  31.780  30.631  1.00  0.00     0.064 A 
ATOM     69  C   UNL A   1      36.046  31.835  31.736  1.00  0.00     0.173 A 
ATOM     70  C   UNL A   1      36.588  32.604  29.537  1.00  0.00     0.173 A 
ATOM     71  F   UNL A   1      36.305  31.106  32.831  1.00  0.00    -0.203 F 
ATOM     72  C   UNL A   1      34.951  32.701  31.765  1.00  0.00     0.198 A 
ATOM     73  C   UNL A   1      35.489  33.464  29.565  1.00  0.00     0.198 A 
ATOM     74  F   UNL A   1      37.389  32.667  28.463  1.00  0.00    -0.203 F 
ATOM     75  F   UNL A   1      34.194  32.783  32.869  1.00  0.00    -0.200 F 
ATOM     76  C   UNL A   1      34.681  33.526  30.686  1.00  0.00     0.200 A 
ATOM     77  F   UNL A   1      35.259  34.285  28.529  1.00  0.00    -0.200 F 
ATOM     78  F   UNL A   1      33.676  34.410  30.744  1.00  0.00    -0.200 F 
ENDBRANCH  44  68
BRANCH  56  79
ATOM     79  C   UNL A   1      42.151  30.052  33.580  1.00  0.00     0.064 A 
ATOM     80  C   UNL A   1      41.694  28.730  33.439  1.00  0.00     0.173 A 
ATOM     81  C   UNL A   1      42.447  30.496  34.877  1.00  0.00     0.173 A 
ATOM     82  F   UNL A   1      41.486  28.192  32.231  1.00  0.00    -0.203 F 
ATOM     83  C   UNL A   1      41.487  27.916  34.553  1.00  0.00     0.198 A 
ATOM     84  C   UNL A   1      42.279  29.667  35.982  1.00  0.00     0.198 A 
ATOM     85  F   UNL A   1      42.935  31.731  35.071  1.00  0.00    -0.203 F 
ATOM     86  F   UNL A   1      41.022  26.667  34.397  1.00  0.00    -0.200 F 
ATOM     87  C   UNL A   1      41.784  28.384  35.822  1.00  0.00     0.200 A 
ATOM     88  F   UNL A   1      42.616  30.109  37.202  1.00  0.00    -0.200 F 
ATOM     89  F   UNL A   1      41.616  27.592  36.891  1.00  0.00    -0.200 F 
ENDBRANCH  56  79
ENDBRANCH  30  31
ENDBRANCH  22  25
ENDBRANCH  20  21
ENDBRANCH  19  20
ENDBRANCH   1  19
TORSDOF 14
ENDMDL
MODEL 3
REMARK VINA RESULT:     -11.5      3.379      9.104
REMARK SMILES CC(C)n1cncc1[C@@H](O)[C@H](C)C(=O)NCCCNC(=O)c1ccc(-c2c3nc(c(-c4c(F)c(F)c(F)c(F)c4F)c4ccc([nH]4)c(-c4c(F)c(F)c(F)c(F)c4F)c4nc(c(-c5c(F)c(F)c(F)c(F)c5F)c5ccc2[nH]5)C=C4)C=C3)cc1
REMARK SMILES IDX 16 1 15 2 13 3 14 4 11 6 12 7 9 8 8 9 4 10 5 11 6 12 7 13
REMARK SMILES IDX 2 14 1 15 3 16 10 17 17 19 18 20 19 21 20 22 21 24 22 25
REMARK SMILES IDX 23 26 84 27 24 28 83 29 25 30 26 31 27 32 77 33 28 34 82 35
REMARK SMILES IDX 76 36 78 37 29 38 81 39 75 40 74 41 30 43 62 44 42 45 61 46
REMARK SMILES IDX 43 47 46 48 60 49 79 50 44 51 45 52 59 54 80 55 47 56 31 57
REMARK SMILES IDX 32 58 40 59 33 60 34 61 38 62 41 63 35 64 36 65 39 66 37 67
REMARK SMILES IDX 63 68 64 69 72 70 65 71 66 72 70 73 73 74 67 75 68 76 71 77
REMARK SMILES IDX 69 78 48 79 49 80 57 81 50 82 51 83 55 84 58 85 52 86 53 87
REMARK SMILES IDX 56 88 54 89
REMARK H PARENT 15 5 10 18 19 23 78 42 46 53
REMARK Flexibility Score: inf
ROOT
ATOM      1  C   UNL A   1      33.766  29.813  27.247  1.00  0.00     0.117 C 
ENDROOT
BRANCH   1   2
ATOM      2  N   UNL A   1      32.759  28.823  27.585  1.00  0.00    -0.356 N 
ATOM      3  C   UNL A   1      32.090  27.974  26.750  1.00  0.00     0.225 C 
ATOM      4  O   UNL A   1      31.436  27.059  27.260  1.00  0.00    -0.275 OA
ATOM      5  H   UNL A   1      32.526  28.756  28.539  1.00  0.00     0.163 HD
BRANCH   3   6
ATOM      6  C   UNL A   1      32.068  28.188  25.240  1.00  0.00     0.110 C 
ATOM      7  C   UNL A   1      31.316  29.480  24.908  1.00  0.00     0.021 C 
BRANCH   6   8
ATOM      8  C   UNL A   1      33.401  27.864  24.510  1.00  0.00     0.175 C 
BRANCH   8   9
ATOM      9  C   UNL A   1      33.342  26.877  23.384  1.00  0.00     0.067 A 
ATOM     10  N   UNL A   1      33.170  25.504  23.460  1.00  0.00    -0.330 N 
ATOM     11  C   UNL A   1      33.027  25.058  22.160  1.00  0.00     0.199 A 
ATOM     12  N   UNL A   1      33.267  25.993  21.279  1.00  0.00    -0.245 NA
ATOM     13  C   UNL A   1      33.489  27.110  22.021  1.00  0.00     0.137 A 
BRANCH  10  14
ATOM     14  C   UNL A   1      33.142  24.554  24.576  1.00  0.00     0.082 C 
ATOM     15  C   UNL A   1      34.278  24.850  25.572  1.00  0.00     0.031 C 
ATOM     16  C   UNL A   1      31.852  24.420  25.386  1.00  0.00     0.031 C 
ENDBRANCH  10  14
ENDBRANCH   8   9
BRANCH   8  17
ATOM     17  O   UNL A   1      34.086  29.003  23.998  1.00  0.00    -0.386 OA
ATOM     18  H   UNL A   1      33.544  29.795  24.139  1.00  0.00     0.211 HD
ENDBRANCH   8  17
ENDBRANCH   6   8
ENDBRANCH   3   6
ENDBRANCH   1   2
BRANCH   1  19
ATOM     19  C   UNL A   1      33.354  31.255  27.506  1.00  0.00     0.042 C 
BRANCH  19  20
ATOM     20  C   UNL A   1      34.524  32.127  27.898  1.00  0.00     0.118 C 
BRANCH  20  21
ATOM     21  N   UNL A   1      34.511  32.490  29.316  1.00  0.00    -0.352 N 
ATOM     22  C   UNL A   1      35.274  31.950  30.336  1.00  0.00     0.251 C 
ATOM     23  H   UNL A   1      33.884  33.203  29.575  1.00  0.00     0.163 HD
ATOM     24  O   UNL A   1      34.969  32.083  31.503  1.00  0.00    -0.269 OA
BRANCH  22  25
ATOM     25  C   UNL A   1      36.470  31.180  29.949  1.00  0.00     0.039 A 
ATOM     26  C   UNL A   1      37.675  31.829  29.688  1.00  0.00     0.014 A 
ATOM     27  C   UNL A   1      36.386  29.790  29.975  1.00  0.00     0.014 A 
ATOM     28  C   UNL A   1      38.825  31.058  29.565  1.00  0.00     0.010 A 
ATOM     29  C   UNL A   1      37.540  29.048  30.017  1.00  0.00     0.010 A 
ATOM     30  C   UNL A   1      38.761  29.667  29.777  1.00  0.00    -0.014 A 
BRANCH  30  31
ATOM     31  C   UNL A   1      39.991  28.886  29.850  1.00  0.00     0.031 A 
ATOM     32  C   UNL A   1      40.528  28.695  31.224  1.00  0.00     0.074 A 
ATOM     33  C   UNL A   1      40.559  28.253  28.802  1.00  0.00     0.049 A 
ATOM     34  N   UNL A   1      41.570  29.263  31.732  1.00  0.00    -0.248 NA
ATOM     35  C   UNL A   1      39.761  27.891  32.185  1.00  0.00     0.031 C 
ATOM     36  C   UNL A   1      40.032  28.058  27.448  1.00  0.00     0.029 A 
ATOM     37  N   UNL A   1      41.737  27.570  28.766  1.00  0.00    -0.354 N 
ATOM     38  C   UNL A   1      41.709  28.749  33.017  1.00  0.00     0.074 A 
ATOM     39  C   UNL A   1      40.485  28.044  33.298  1.00  0.00     0.031 C 
ATOM     40  C   UNL A   1      40.775  27.132  26.801  1.00  0.00     0.029 A 
ATOM     41  C   UNL A   1      41.929  26.814  27.618  1.00  0.00     0.049 A 
ATOM     42  H   UNL A   1      42.398  27.610  29.495  1.00  0.00     0.167 HD
ATOM     43  C   UNL A   1      42.923  28.760  33.636  1.00  0.00     0.037 A 
ATOM     44  C   UNL A   1      42.967  25.984  27.355  1.00  0.00     0.037 A 
ATOM     45  C   UNL A   1      43.830  29.663  32.968  1.00  0.00     0.049 A 
ATOM     46  C   UNL A   1      44.091  26.392  28.231  1.00  0.00     0.074 A 
ATOM     47  C   UNL A   1      43.827  31.016  32.684  1.00  0.00     0.029 A 
ATOM     48  N   UNL A   1      44.774  29.114  32.136  1.00  0.00    -0.354 N 
ATOM     49  N   UNL A   1      44.752  27.506  28.093  1.00  0.00    -0.248 NA
ATOM     50  C   UNL A   1      44.209  25.751  29.530  1.00  0.00     0.031 C 
ATOM     51  C   UNL A   1      44.399  31.121  31.379  1.00  0.00     0.029 A 
ATOM     52  C   UNL A   1      44.784  29.842  30.976  1.00  0.00     0.049 A 
ATOM     53  H   UNL A   1      45.342  28.335  32.336  1.00  0.00     0.167 HD
ATOM     54  C   UNL A   1      44.976  27.937  29.390  1.00  0.00     0.074 A 
ATOM     55  C   UNL A   1      44.731  26.765  30.226  1.00  0.00     0.031 C 
ATOM     56  C   UNL A   1      45.058  29.268  29.679  1.00  0.00     0.037 A 
BRANCH  43  57
ATOM     57  C   UNL A   1      43.429  27.682  34.570  1.00  0.00     0.064 A 
ATOM     58  C   UNL A   1      43.445  26.344  34.117  1.00  0.00     0.173 A 
ATOM     59  C   UNL A   1      43.584  27.849  35.962  1.00  0.00     0.173 A 
ATOM     60  F   UNL A   1      43.305  26.061  32.813  1.00  0.00    -0.203 F 
ATOM     61  C   UNL A   1      43.493  25.263  35.001  1.00  0.00     0.198 A 
ATOM     62  C   UNL A   1      43.685  26.766  36.836  1.00  0.00     0.198 A 
ATOM     63  F   UNL A   1      43.528  29.047  36.551  1.00  0.00    -0.203 F 
ATOM     64  F   UNL A   1      43.353  24.015  34.532  1.00  0.00    -0.200 F 
ATOM     65  C   UNL A   1      43.600  25.475  36.361  1.00  0.00     0.200 A 
ATOM     66  F   UNL A   1      43.774  26.994  38.154  1.00  0.00    -0.200 F 
ATOM     67  F   UNL A   1      43.572  24.445  37.216  1.00  0.00    -0.200 F 
ENDBRANCH  43  57
BRANCH  44  68
ATOM     68  C   UNL A   1      42.984  24.721  26.586  1.00  0.00     0.064 A 
ATOM     69  C   UNL A   1      43.773  24.593  25.432  1.00  0.00     0.173 A 
ATOM     70  C   UNL A   1      42.475  23.531  27.137  1.00  0.00     0.173 A 
ATOM     71  F   UNL A   1      44.324  25.677  24.867  1.00  0.00    -0.203 F 
ATOM     72  C   UNL A   1      44.077  23.341  24.889  1.00  0.00     0.198 A 
ATOM     73  C   UNL A   1      42.773  22.282  26.589  1.00  0.00     0.198 A 
ATOM     74  F   UNL A   1      41.765  23.548  28.274  1.00  0.00    -0.203 F 
ATOM     75  F   UNL A   1      44.897  23.253  23.832  1.00  0.00    -0.200 F 
ATOM     76  C   UNL A   1      43.589  22.186  25.476  1.00  0.00     0.200 A 
ATOM     77  F   UNL A   1      42.325  21.169  27.188  1.00  0.00    -0.200 F 
ATOM     78  F   UNL A   1      43.940  20.984  25.001  1.00  0.00    -0.200 F 
ENDBRANCH  44  68
BRANCH  56  79
ATOM     79  C   UNL A   1      45.241  30.223  28.530  1.00  0.00     0.064 A 
ATOM     80  C   UNL A   1      44.195  30.772  27.769  1.00  0.00     0.173 A 
ATOM     81  C   UNL A   1      46.540  30.678  28.261  1.00  0.00     0.173 A 
ATOM     82  F   UNL A   1      42.916  30.472  28.028  1.00  0.00    -0.203 F 
ATOM     83  C   UNL A   1      44.449  31.688  26.748  1.00  0.00     0.198 A 
ATOM     84  C   UNL A   1      46.786  31.623  27.270  1.00  0.00     0.198 A 
ATOM     85  F   UNL A   1      47.575  30.229  28.989  1.00  0.00    -0.203 F 
ATOM     86  F   UNL A   1      43.437  32.176  26.014  1.00  0.00    -0.200 F 
ATOM     87  C   UNL A   1      45.743  32.115  26.503  1.00  0.00     0.200 A 
ATOM     88  F   UNL A   1      48.034  32.069  27.071  1.00  0.00    -0.200 F 
ATOM     89  F   UNL A   1      45.986  33.019  25.542  1.00  0.00    -0.200 F 
ENDBRANCH  56  79
ENDBRANCH  30  31
ENDBRANCH  22  25
ENDBRANCH  20  21
ENDBRANCH  19  20
ENDBRANCH   1  19
TORSDOF 14
ENDMDL
