MODEL 1
REMARK VINA RESULT:     -11.6      0.000      0.000
REMARK SMILES C[C@H]1CCN1c1cc(C(=O)NCCCNC(=O)c2ccc(-c3c4nc(c(-c5c(F)c(F)c(F)c(F)c5F)c5ccc([nH]5)c(-c5c(F)c(F)c(F)c(F)c5F)c5nc(c(-c6c(F)c(F)c(F)c(F)c6F)c6ccc3[nH]6)C=C5)C=C4)cc2)ccc1Cl
REMARK SMILES IDX 13 1 12 2 11 3 9 4 10 5 8 7 6 8 7 9 83 10 82 11 84 12 81 13
REMARK SMILES IDX 5 14 1 15 2 16 3 17 4 18 14 19 15 20 16 21 17 23 18 24 19 25
REMARK SMILES IDX 80 26 20 27 79 28 21 29 22 30 23 31 73 32 24 33 78 34 72 35
REMARK SMILES IDX 74 36 25 37 77 38 71 39 70 40 26 42 58 43 38 44 57 45 39 46
REMARK SMILES IDX 42 47 56 48 75 49 40 50 41 51 55 53 76 54 43 55 27 56 28 57
REMARK SMILES IDX 36 58 29 59 30 60 34 61 37 62 31 63 32 64 35 65 33 66 59 67
REMARK SMILES IDX 60 68 68 69 61 70 62 71 66 72 69 73 63 74 64 75 67 76 65 77
REMARK SMILES IDX 44 78 45 79 53 80 46 81 47 82 51 83 54 84 48 85 49 86 52 87
REMARK SMILES IDX 50 88
REMARK H PARENT 11 6 15 22 74 41 42 52
REMARK Flexibility Score: inf
ROOT
ATOM      1  C   UNL A   1      38.260  19.757  24.832  1.00  0.00     0.042 C 
ENDROOT
BRANCH   1   2
ATOM      2  C   UNL A   1      37.325  20.947  24.611  1.00  0.00     0.118 C 
BRANCH   2   3
ATOM      3  N   UNL A   1      37.882  22.165  25.169  1.00  0.00    -0.352 N 
ATOM      4  C   UNL A   1      37.322  23.271  25.753  1.00  0.00     0.251 C 
ATOM      5  O   UNL A   1      38.097  24.129  26.175  1.00  0.00    -0.269 OA
ATOM      6  H   UNL A   1      38.864  22.206  25.115  1.00  0.00     0.163 HD
BRANCH   4   7
ATOM      7  C   UNL A   1      35.856  23.474  25.935  1.00  0.00     0.041 A 
ATOM      8  C   UNL A   1      33.867  24.720  25.164  1.00  0.00     0.057 A 
ATOM      9  C   UNL A   1      35.247  24.438  25.113  1.00  0.00     0.041 A 
ATOM     10  C   UNL A   1      33.088  23.998  26.081  1.00  0.00     0.064 A 
ATOM     11  C   UNL A   1      33.679  23.014  26.886  1.00  0.00     0.023 A 
ATOM     12  Cl  UNL A   1      31.372  24.156  26.205  1.00  0.00    -0.082 Cl
ATOM     13  C   UNL A   1      35.048  22.738  26.797  1.00  0.00     0.015 A 
BRANCH   8  14
ATOM     14  N   UNL A   1      33.385  25.668  24.242  1.00  0.00    -0.367 N 
ATOM     15  C   UNL A   1      31.890  25.381  22.347  1.00  0.00     0.031 C 
ATOM     16  C   UNL A   1      33.303  25.696  22.814  1.00  0.00     0.081 C 
ATOM     17  C   UNL A   1      33.664  27.185  22.872  1.00  0.00     0.046 C 
ATOM     18  C   UNL A   1      33.499  27.090  24.388  1.00  0.00     0.119 C 
ENDBRANCH   8  14
ENDBRANCH   4   7
ENDBRANCH   2   3
ENDBRANCH   1   2
BRANCH   1  19
ATOM     19  C   UNL A   1      39.072  19.843  26.126  1.00  0.00     0.118 C 
BRANCH  19  20
ATOM     20  N   UNL A   1      40.244  18.980  26.095  1.00  0.00    -0.352 N 
ATOM     21  C   UNL A   1      41.582  19.285  26.114  1.00  0.00     0.251 C 
ATOM     22  H   UNL A   1      40.044  18.017  26.053  1.00  0.00     0.163 HD
ATOM     23  O   UNL A   1      42.399  18.404  25.864  1.00  0.00    -0.269 OA
BRANCH  21  24
ATOM     24  C   UNL A   1      42.062  20.652  26.423  1.00  0.00     0.039 A 
ATOM     25  C   UNL A   1      42.240  21.547  25.362  1.00  0.00     0.014 A 
ATOM     26  C   UNL A   1      42.413  21.039  27.719  1.00  0.00     0.014 A 
ATOM     27  C   UNL A   1      42.723  22.835  25.603  1.00  0.00     0.010 A 
ATOM     28  C   UNL A   1      42.843  22.345  27.968  1.00  0.00     0.010 A 
ATOM     29  C   UNL A   1      43.005  23.254  26.913  1.00  0.00    -0.014 A 
BRANCH  29  30
ATOM     30  C   UNL A   1      43.460  24.642  27.186  1.00  0.00     0.031 A 
ATOM     31  C   UNL A   1      42.513  25.666  27.745  1.00  0.00     0.074 A 
ATOM     32  C   UNL A   1      44.725  24.994  26.884  1.00  0.00     0.049 A 
ATOM     33  N   UNL A   1      42.721  26.932  28.009  1.00  0.00    -0.248 NA
ATOM     34  C   UNL A   1      41.141  25.213  28.026  1.00  0.00     0.031 C 
ATOM     35  C   UNL A   1      45.729  24.106  26.295  1.00  0.00     0.029 A 
ATOM     36  N   UNL A   1      45.381  26.192  27.022  1.00  0.00    -0.354 N 
ATOM     37  C   UNL A   1      41.510  27.429  28.472  1.00  0.00     0.074 A 
ATOM     38  C   UNL A   1      40.559  26.339  28.414  1.00  0.00     0.031 C 
ATOM     39  C   UNL A   1      46.877  24.783  26.140  1.00  0.00     0.029 A 
ATOM     40  C   UNL A   1      46.683  26.159  26.589  1.00  0.00     0.049 A 
ATOM     41  H   UNL A   1      44.956  26.998  27.395  1.00  0.00     0.167 HD
ATOM     42  C   UNL A   1      41.223  28.675  28.919  1.00  0.00     0.037 A 
ATOM     43  C   UNL A   1      47.616  27.129  26.557  1.00  0.00     0.037 A 
ATOM     44  C   UNL A   1      42.176  29.752  29.002  1.00  0.00     0.049 A 
ATOM     45  C   UNL A   1      47.275  28.498  27.072  1.00  0.00     0.074 A 
ATOM     46  C   UNL A   1      41.995  31.031  29.501  1.00  0.00     0.029 A 
ATOM     47  N   UNL A   1      43.493  29.674  28.571  1.00  0.00    -0.354 N 
ATOM     48  N   UNL A   1      46.144  28.938  27.567  1.00  0.00    -0.248 NA
ATOM     49  C   UNL A   1      48.344  29.506  27.032  1.00  0.00     0.031 C 
ATOM     50  C   UNL A   1      43.191  31.738  29.339  1.00  0.00     0.029 A 
ATOM     51  C   UNL A   1      44.130  30.889  28.777  1.00  0.00     0.049 A 
ATOM     52  H   UNL A   1      43.913  28.876  28.179  1.00  0.00     0.167 HD
ATOM     53  C   UNL A   1      46.368  30.262  27.914  1.00  0.00     0.074 A 
ATOM     54  C   UNL A   1      47.750  30.551  27.591  1.00  0.00     0.031 C 
ATOM     55  C   UNL A   1      45.505  31.161  28.450  1.00  0.00     0.037 A 
BRANCH  42  56
ATOM     56  C   UNL A   1      39.814  28.945  29.361  1.00  0.00     0.064 A 
ATOM     57  C   UNL A   1      38.845  29.429  28.470  1.00  0.00     0.173 A 
ATOM     58  C   UNL A   1      39.417  28.676  30.679  1.00  0.00     0.173 A 
ATOM     59  F   UNL A   1      39.177  29.710  27.200  1.00  0.00    -0.203 F 
ATOM     60  C   UNL A   1      37.537  29.658  28.888  1.00  0.00     0.198 A 
ATOM     61  C   UNL A   1      38.102  28.883  31.088  1.00  0.00     0.198 A 
ATOM     62  F   UNL A   1      40.302  28.204  31.569  1.00  0.00    -0.203 F 
ATOM     63  F   UNL A   1      36.639  30.162  28.030  1.00  0.00    -0.200 F 
ATOM     64  C   UNL A   1      37.164  29.380  30.195  1.00  0.00     0.200 A 
ATOM     65  F   UNL A   1      37.740  28.601  32.348  1.00  0.00    -0.200 F 
ATOM     66  F   UNL A   1      35.904  29.597  30.595  1.00  0.00    -0.200 F 
ENDBRANCH  42  56
BRANCH  43  67
ATOM     67  C   UNL A   1      48.975  26.827  26.041  1.00  0.00     0.064 A 
ATOM     68  C   UNL A   1      49.966  26.311  26.888  1.00  0.00     0.173 A 
ATOM     69  C   UNL A   1      49.310  27.042  24.696  1.00  0.00     0.173 A 
ATOM     70  F   UNL A   1      49.697  26.109  28.186  1.00  0.00    -0.203 F 
ATOM     71  C   UNL A   1      51.245  26.034  26.412  1.00  0.00     0.198 A 
ATOM     72  C   UNL A   1      50.582  26.742  24.217  1.00  0.00     0.198 A 
ATOM     73  F   UNL A   1      48.395  27.529  23.846  1.00  0.00    -0.203 F 
ATOM     74  F   UNL A   1      52.185  25.577  27.250  1.00  0.00    -0.200 F 
ATOM     75  C   UNL A   1      51.551  26.244  25.076  1.00  0.00     0.200 A 
ATOM     76  F   UNL A   1      50.870  26.934  22.922  1.00  0.00    -0.200 F 
ATOM     77  F   UNL A   1      52.780  25.973  24.617  1.00  0.00    -0.200 F 
ENDBRANCH  43  67
BRANCH  55  78
ATOM     78  C   UNL A   1      46.040  32.532  28.736  1.00  0.00     0.064 A 
ATOM     79  C   UNL A   1      45.939  33.569  27.798  1.00  0.00     0.173 A 
ATOM     80  C   UNL A   1      46.640  32.818  29.972  1.00  0.00     0.173 A 
ATOM     81  F   UNL A   1      45.388  33.341  26.596  1.00  0.00    -0.203 F 
ATOM     82  C   UNL A   1      46.442  34.837  28.077  1.00  0.00     0.198 A 
ATOM     83  C   UNL A   1      47.118  34.093  30.257  1.00  0.00     0.198 A 
ATOM     84  F   UNL A   1      46.757  31.861  30.905  1.00  0.00    -0.203 F 
ATOM     85  F   UNL A   1      46.377  35.801  27.148  1.00  0.00    -0.200 F 
ATOM     86  C   UNL A   1      47.027  35.100  29.307  1.00  0.00     0.200 A 
ATOM     87  F   UNL A   1      47.675  34.348  31.449  1.00  0.00    -0.200 F 
ATOM     88  F   UNL A   1      47.509  36.321  29.573  1.00  0.00    -0.200 F 
ENDBRANCH  55  78
ENDBRANCH  29  30
ENDBRANCH  21  24
ENDBRANCH  19  20
ENDBRANCH   1  19
TORSDOF 11
ENDMDL
MODEL 2
REMARK VINA RESULT:     -11.5      5.658     11.177
REMARK SMILES C[C@H]1CCN1c1cc(C(=O)NCCCNC(=O)c2ccc(-c3c4nc(c(-c5c(F)c(F)c(F)c(F)c5F)c5ccc([nH]5)c(-c5c(F)c(F)c(F)c(F)c5F)c5nc(c(-c6c(F)c(F)c(F)c(F)c6F)c6ccc3[nH]6)C=C5)C=C4)cc2)ccc1Cl
REMARK SMILES IDX 13 1 12 2 11 3 9 4 10 5 8 7 6 8 7 9 83 10 82 11 84 12 81 13
REMARK SMILES IDX 5 14 1 15 2 16 3 17 4 18 14 19 15 20 16 21 17 23 18 24 19 25
REMARK SMILES IDX 80 26 20 27 79 28 21 29 22 30 23 31 73 32 24 33 78 34 72 35
REMARK SMILES IDX 74 36 25 37 77 38 71 39 70 40 26 42 58 43 38 44 57 45 39 46
REMARK SMILES IDX 42 47 56 48 75 49 40 50 41 51 55 53 76 54 43 55 27 56 28 57
REMARK SMILES IDX 36 58 29 59 30 60 34 61 37 62 31 63 32 64 35 65 33 66 59 67
REMARK SMILES IDX 60 68 68 69 61 70 62 71 66 72 69 73 63 74 64 75 67 76 65 77
REMARK SMILES IDX 44 78 45 79 53 80 46 81 47 82 51 83 54 84 48 85 49 86 52 87
REMARK SMILES IDX 50 88
REMARK H PARENT 11 6 15 22 74 41 42 52
REMARK Flexibility Score: inf
ROOT
ATOM      1  C   UNL A   1      31.405  32.061  26.876  1.00  0.00     0.042 C 
ENDROOT
BRANCH   1   2
ATOM      2  C   UNL A   1      31.668  30.567  26.680  1.00  0.00     0.118 C 
BRANCH   2   3
ATOM      3  N   UNL A   1      32.935  30.174  27.267  1.00  0.00    -0.352 N 
ATOM      4  C   UNL A   1      33.873  29.233  26.931  1.00  0.00     0.251 C 
ATOM      5  O   UNL A   1      34.887  29.186  27.628  1.00  0.00    -0.269 OA
ATOM      6  H   UNL A   1      33.170  30.690  28.072  1.00  0.00     0.163 HD
BRANCH   4   7
ATOM      7  C   UNL A   1      33.751  28.302  25.773  1.00  0.00     0.041 A 
ATOM      8  C   UNL A   1      33.398  25.958  25.078  1.00  0.00     0.057 A 
ATOM      9  C   UNL A   1      33.549  26.944  26.074  1.00  0.00     0.041 A 
ATOM     10  C   UNL A   1      33.459  26.370  23.739  1.00  0.00     0.064 A 
ATOM     11  C   UNL A   1      33.632  27.726  23.426  1.00  0.00     0.023 A 
ATOM     12  Cl  UNL A   1      33.202  25.305  22.403  1.00  0.00    -0.082 Cl
ATOM     13  C   UNL A   1      33.754  28.687  24.435  1.00  0.00     0.015 A 
BRANCH   8  14
ATOM     14  N   UNL A   1      33.143  24.648  25.526  1.00  0.00    -0.367 N 
ATOM     15  C   UNL A   1      31.028  23.489  25.834  1.00  0.00     0.031 C 
ATOM     16  C   UNL A   1      32.252  24.099  26.501  1.00  0.00     0.081 C 
ATOM     17  C   UNL A   1      33.359  23.110  26.884  1.00  0.00     0.046 C 
ATOM     18  C   UNL A   1      34.131  23.619  25.668  1.00  0.00     0.119 C 
ENDBRANCH   8  14
ENDBRANCH   4   7
ENDBRANCH   2   3
ENDBRANCH   1   2
BRANCH   1  19
ATOM     19  C   UNL A   1      32.675  32.914  26.902  1.00  0.00     0.118 C 
BRANCH  19  20
ATOM     20  N   UNL A   1      32.457  34.203  27.542  1.00  0.00    -0.352 N 
ATOM     21  C   UNL A   1      33.021  34.752  28.667  1.00  0.00     0.251 C 
ATOM     22  H   UNL A   1      31.793  34.776  27.094  1.00  0.00     0.163 HD
ATOM     23  O   UNL A   1      32.528  35.769  29.145  1.00  0.00    -0.269 OA
BRANCH  21  24
ATOM     24  C   UNL A   1      34.203  34.142  29.318  1.00  0.00     0.039 A 
ATOM     25  C   UNL A   1      33.992  33.266  30.389  1.00  0.00     0.014 A 
ATOM     26  C   UNL A   1      35.508  34.478  28.948  1.00  0.00     0.014 A 
ATOM     27  C   UNL A   1      35.079  32.695  31.055  1.00  0.00     0.010 A 
ATOM     28  C   UNL A   1      36.595  33.865  29.577  1.00  0.00     0.010 A 
ATOM     29  C   UNL A   1      36.391  32.970  30.638  1.00  0.00    -0.014 A 
BRANCH  29  30
ATOM     30  C   UNL A   1      37.551  32.319  31.300  1.00  0.00     0.031 A 
ATOM     31  C   UNL A   1      38.300  31.208  30.620  1.00  0.00     0.074 A 
ATOM     32  C   UNL A   1      37.903  32.704  32.542  1.00  0.00     0.049 A 
ATOM     33  N   UNL A   1      39.309  30.498  31.060  1.00  0.00    -0.248 NA
ATOM     34  C   UNL A   1      37.841  30.828  29.275  1.00  0.00     0.031 C 
ATOM     35  C   UNL A   1      37.228  33.738  33.327  1.00  0.00     0.029 A 
ATOM     36  N   UNL A   1      38.908  32.262  33.367  1.00  0.00    -0.354 N 
ATOM     37  C   UNL A   1      39.596  29.582  30.057  1.00  0.00     0.074 A 
ATOM     38  C   UNL A   1      38.629  29.798  29.001  1.00  0.00     0.031 C 
ATOM     39  C   UNL A   1      37.849  33.866  34.510  1.00  0.00     0.029 A 
ATOM     40  C   UNL A   1      38.945  32.903  34.580  1.00  0.00     0.049 A 
ATOM     41  H   UNL A   1      39.541  31.553  33.111  1.00  0.00     0.167 HD
ATOM     42  C   UNL A   1      40.586  28.658  30.013  1.00  0.00     0.037 A 
ATOM     43  C   UNL A   1      39.768  32.734  35.631  1.00  0.00     0.037 A 
ATOM     44  C   UNL A   1      41.565  28.462  31.052  1.00  0.00     0.049 A 
ATOM     45  C   UNL A   1      40.866  31.711  35.551  1.00  0.00     0.074 A 
ATOM     46  C   UNL A   1      42.644  27.594  31.070  1.00  0.00     0.029 A 
ATOM     47  N   UNL A   1      41.581  29.144  32.259  1.00  0.00    -0.354 N 
ATOM     48  N   UNL A   1      41.167  30.896  34.570  1.00  0.00    -0.248 NA
ATOM     49  C   UNL A   1      41.746  31.592  36.723  1.00  0.00     0.031 C 
ATOM     50  C   UNL A   1      43.292  27.727  32.303  1.00  0.00     0.029 A 
ATOM     51  C   UNL A   1      42.642  28.705  33.037  1.00  0.00     0.049 A 
ATOM     52  H   UNL A   1      40.936  29.839  32.524  1.00  0.00     0.167 HD
ATOM     53  C   UNL A   1      42.277  30.181  34.996  1.00  0.00     0.074 A 
ATOM     54  C   UNL A   1      42.611  30.672  36.317  1.00  0.00     0.031 C 
ATOM     55  C   UNL A   1      42.959  29.202  34.350  1.00  0.00     0.037 A 
BRANCH  42  56
ATOM     56  C   UNL A   1      40.665  27.784  28.795  1.00  0.00     0.064 A 
ATOM     57  C   UNL A   1      39.927  26.596  28.695  1.00  0.00     0.173 A 
ATOM     58  C   UNL A   1      41.454  28.162  27.698  1.00  0.00     0.173 A 
ATOM     59  F   UNL A   1      39.164  26.187  29.720  1.00  0.00    -0.203 F 
ATOM     60  C   UNL A   1      39.996  25.803  27.552  1.00  0.00     0.198 A 
ATOM     61  C   UNL A   1      41.502  27.379  26.546  1.00  0.00     0.198 A 
ATOM     62  F   UNL A   1      42.173  29.292  27.738  1.00  0.00    -0.203 F 
ATOM     63  F   UNL A   1      39.316  24.649  27.496  1.00  0.00    -0.200 F 
ATOM     64  C   UNL A   1      40.778  26.197  26.477  1.00  0.00     0.200 A 
ATOM     65  F   UNL A   1      42.248  27.768  25.504  1.00  0.00    -0.200 F 
ATOM     66  F   UNL A   1      40.840  25.437  25.376  1.00  0.00    -0.200 F 
ENDBRANCH  42  56
BRANCH  43  67
ATOM     67  C   UNL A   1      39.600  33.575  36.843  1.00  0.00     0.064 A 
ATOM     68  C   UNL A   1      38.767  33.163  37.893  1.00  0.00     0.173 A 
ATOM     69  C   UNL A   1      40.270  34.800  36.980  1.00  0.00     0.173 A 
ATOM     70  F   UNL A   1      38.091  32.010  37.797  1.00  0.00    -0.203 F 
ATOM     71  C   UNL A   1      38.598  33.953  39.028  1.00  0.00     0.198 A 
ATOM     72  C   UNL A   1      40.118  35.576  38.126  1.00  0.00     0.198 A 
ATOM     73  F   UNL A   1      41.081  35.234  36.004  1.00  0.00    -0.203 F 
ATOM     74  F   UNL A   1      37.767  33.555  40.000  1.00  0.00    -0.200 F 
ATOM     75  C   UNL A   1      39.279  35.156  39.146  1.00  0.00     0.200 A 
ATOM     76  F   UNL A   1      40.787  36.732  38.242  1.00  0.00    -0.200 F 
ATOM     77  F   UNL A   1      39.120  35.913  40.240  1.00  0.00    -0.200 F 
ENDBRANCH  43  67
BRANCH  55  78
ATOM     78  C   UNL A   1      44.143  28.615  35.059  1.00  0.00     0.064 A 
ATOM     79  C   UNL A   1      44.018  27.489  35.885  1.00  0.00     0.173 A 
ATOM     80  C   UNL A   1      45.420  29.172  34.891  1.00  0.00     0.173 A 
ATOM     81  F   UNL A   1      42.816  26.932  36.090  1.00  0.00    -0.203 F 
ATOM     82  C   UNL A   1      45.126  26.956  36.539  1.00  0.00     0.198 A 
ATOM     83  C   UNL A   1      46.530  28.620  35.526  1.00  0.00     0.198 A 
ATOM     84  F   UNL A   1      45.593  30.247  34.108  1.00  0.00    -0.203 F 
ATOM     85  F   UNL A   1      44.976  25.909  37.362  1.00  0.00    -0.200 F 
ATOM     86  C   UNL A   1      46.381  27.519  36.356  1.00  0.00     0.200 A 
ATOM     87  F   UNL A   1      47.743  29.159  35.341  1.00  0.00    -0.200 F 
ATOM     88  F   UNL A   1      47.445  27.003  36.985  1.00  0.00    -0.200 F 
ENDBRANCH  55  78
ENDBRANCH  29  30
ENDBRANCH  21  24
ENDBRANCH  19  20
ENDBRANCH   1  19
TORSDOF 11
ENDMDL
MODEL 3
REMARK VINA RESULT:     -11.5      0.152      1.168
REMARK SMILES C[C@H]1CCN1c1cc(C(=O)NCCCNC(=O)c2ccc(-c3c4nc(c(-c5c(F)c(F)c(F)c(F)c5F)c5ccc([nH]5)c(-c5c(F)c(F)c(F)c(F)c5F)c5nc(c(-c6c(F)c(F)c(F)c(F)c6F)c6ccc3[nH]6)C=C5)C=C4)cc2)ccc1Cl
REMARK SMILES IDX 13 1 12 2 11 3 9 4 10 5 8 7 6 8 7 9 83 10 82 11 84 12 81 13
REMARK SMILES IDX 5 14 1 15 2 16 3 17 4 18 14 19 15 20 16 21 17 23 18 24 19 25
REMARK SMILES IDX 80 26 20 27 79 28 21 29 22 30 23 31 73 32 24 33 78 34 72 35
REMARK SMILES IDX 74 36 25 37 77 38 71 39 70 40 26 42 58 43 38 44 57 45 39 46
REMARK SMILES IDX 42 47 56 48 75 49 40 50 41 51 55 53 76 54 43 55 27 56 28 57
REMARK SMILES IDX 36 58 29 59 30 60 34 61 37 62 31 63 32 64 35 65 33 66 59 67
REMARK SMILES IDX 60 68 68 69 61 70 62 71 66 72 69 73 63 74 64 75 67 76 65 77
REMARK SMILES IDX 44 78 45 79 53 80 46 81 47 82 51 83 54 84 48 85 49 86 52 87
REMARK SMILES IDX 50 88
REMARK H PARENT 11 6 15 22 74 41 42 52
REMARK Flexibility Score: inf
ROOT
ATOM      1  C   UNL A   1      38.195  19.674  24.932  1.00  0.00     0.042 C 
ENDROOT
BRANCH   1   2
ATOM      2  C   UNL A   1      37.308  20.882  24.626  1.00  0.00     0.118 C 
BRANCH   2   3
ATOM      3  N   UNL A   1      37.882  22.104  25.158  1.00  0.00    -0.352 N 
ATOM      4  C   UNL A   1      37.338  23.227  25.725  1.00  0.00     0.251 C 
ATOM      5  O   UNL A   1      38.126  24.084  26.126  1.00  0.00    -0.269 OA
ATOM      6  H   UNL A   1      38.864  22.132  25.099  1.00  0.00     0.163 HD
BRANCH   4   7
ATOM      7  C   UNL A   1      35.875  23.451  25.909  1.00  0.00     0.041 A 
ATOM      8  C   UNL A   1      33.898  24.709  25.129  1.00  0.00     0.057 A 
ATOM      9  C   UNL A   1      35.274  24.410  25.076  1.00  0.00     0.041 A 
ATOM     10  C   UNL A   1      33.115  24.011  26.060  1.00  0.00     0.064 A 
ATOM     11  C   UNL A   1      33.697  23.032  26.877  1.00  0.00     0.023 A 
ATOM     12  Cl  UNL A   1      31.402  24.192  26.189  1.00  0.00    -0.082 Cl
ATOM     13  C   UNL A   1      35.062  22.738  26.786  1.00  0.00     0.015 A 
BRANCH   8  14
ATOM     14  N   UNL A   1      33.424  25.649  24.194  1.00  0.00    -0.367 N 
ATOM     15  C   UNL A   1      32.491  25.308  21.976  1.00  0.00     0.031 C 
ATOM     16  C   UNL A   1      33.653  25.846  22.796  1.00  0.00     0.081 C 
ATOM     17  C   UNL A   1      33.636  27.357  23.057  1.00  0.00     0.046 C 
ATOM     18  C   UNL A   1      33.169  27.032  24.474  1.00  0.00     0.119 C 
ENDBRANCH   8  14
ENDBRANCH   4   7
ENDBRANCH   2   3
ENDBRANCH   1   2
BRANCH   1  19
ATOM     19  C   UNL A   1      39.129  19.879  26.126  1.00  0.00     0.118 C 
BRANCH  19  20
ATOM     20  N   UNL A   1      40.305  19.025  26.055  1.00  0.00    -0.352 N 
ATOM     21  C   UNL A   1      41.641  19.338  26.053  1.00  0.00     0.251 C 
ATOM     22  H   UNL A   1      40.110  18.061  25.998  1.00  0.00     0.163 HD
ATOM     23  O   UNL A   1      42.458  18.467  25.769  1.00  0.00    -0.269 OA
BRANCH  21  24
ATOM     24  C   UNL A   1      42.119  20.703  26.378  1.00  0.00     0.039 A 
ATOM     25  C   UNL A   1      42.326  21.600  25.325  1.00  0.00     0.014 A 
ATOM     26  C   UNL A   1      42.440  21.083  27.684  1.00  0.00     0.014 A 
ATOM     27  C   UNL A   1      42.808  22.886  25.583  1.00  0.00     0.010 A 
ATOM     28  C   UNL A   1      42.869  22.386  27.949  1.00  0.00     0.010 A 
ATOM     29  C   UNL A   1      43.060  23.299  26.901  1.00  0.00    -0.014 A 
BRANCH  29  30
ATOM     30  C   UNL A   1      43.513  24.684  27.190  1.00  0.00     0.031 A 
ATOM     31  C   UNL A   1      42.557  25.708  27.734  1.00  0.00     0.074 A 
ATOM     32  C   UNL A   1      44.786  25.032  26.918  1.00  0.00     0.049 A 
ATOM     33  N   UNL A   1      42.765  26.973  28.008  1.00  0.00    -0.248 NA
ATOM     34  C   UNL A   1      41.179  25.260  27.982  1.00  0.00     0.031 C 
ATOM     35  C   UNL A   1      45.799  24.144  26.346  1.00  0.00     0.029 A 
ATOM     36  N   UNL A   1      45.442  26.228  27.076  1.00  0.00    -0.354 N 
ATOM     37  C   UNL A   1      41.545  27.471  28.447  1.00  0.00     0.074 A 
ATOM     38  C   UNL A   1      40.592  26.385  28.363  1.00  0.00     0.031 C 
ATOM     39  C   UNL A   1      46.953  24.818  26.220  1.00  0.00     0.029 A 
ATOM     40  C   UNL A   1      46.753  26.192  26.671  1.00  0.00     0.049 A 
ATOM     41  H   UNL A   1      45.012  27.033  27.443  1.00  0.00     0.167 HD
ATOM     42  C   UNL A   1      41.253  28.717  28.893  1.00  0.00     0.037 A 
ATOM     43  C   UNL A   1      47.690  27.159  26.664  1.00  0.00     0.037 A 
ATOM     44  C   UNL A   1      42.208  29.790  29.001  1.00  0.00     0.049 A 
ATOM     45  C   UNL A   1      47.343  28.527  27.178  1.00  0.00     0.074 A 
ATOM     46  C   UNL A   1      42.020  31.067  29.502  1.00  0.00     0.029 A 
ATOM     47  N   UNL A   1      43.533  29.710  28.600  1.00  0.00    -0.354 N 
ATOM     48  N   UNL A   1      46.203  28.968  27.650  1.00  0.00    -0.248 NA
ATOM     49  C   UNL A   1      48.416  29.531  27.166  1.00  0.00     0.031 C 
ATOM     50  C   UNL A   1      43.222  31.771  29.370  1.00  0.00     0.029 A 
ATOM     51  C   UNL A   1      44.170  30.921  28.825  1.00  0.00     0.049 A 
ATOM     52  H   UNL A   1      43.959  28.911  28.212  1.00  0.00     0.167 HD
ATOM     53  C   UNL A   1      46.424  30.291  28.007  1.00  0.00     0.074 A 
ATOM     54  C   UNL A   1      47.814  30.576  27.716  1.00  0.00     0.031 C 
ATOM     55  C   UNL A   1      45.553  31.189  28.529  1.00  0.00     0.037 A 
BRANCH  42  56
ATOM     56  C   UNL A   1      39.835  28.989  29.306  1.00  0.00     0.064 A 
ATOM     57  C   UNL A   1      38.879  29.448  28.388  1.00  0.00     0.173 A 
ATOM     58  C   UNL A   1      39.418  28.748  30.623  1.00  0.00     0.173 A 
ATOM     59  F   UNL A   1      39.230  29.702  27.118  1.00  0.00    -0.203 F 
ATOM     60  C   UNL A   1      37.563  29.681  28.779  1.00  0.00     0.198 A 
ATOM     61  C   UNL A   1      38.095  28.958  31.005  1.00  0.00     0.198 A 
ATOM     62  F   UNL A   1      40.290  28.301  31.538  1.00  0.00    -0.203 F 
ATOM     63  F   UNL A   1      36.677  30.161  27.895  1.00  0.00    -0.200 F 
ATOM     64  C   UNL A   1      37.170  29.430  30.085  1.00  0.00     0.200 A 
ATOM     65  F   UNL A   1      37.714  28.703  32.264  1.00  0.00    -0.200 F 
ATOM     66  F   UNL A   1      35.903  29.649  30.459  1.00  0.00    -0.200 F 
ENDBRANCH  42  56
BRANCH  43  67
ATOM     67  C   UNL A   1      49.059  26.855  26.176  1.00  0.00     0.064 A 
ATOM     68  C   UNL A   1      49.396  27.031  24.827  1.00  0.00     0.173 A 
ATOM     69  C   UNL A   1      50.058  26.391  27.045  1.00  0.00     0.173 A 
ATOM     70  F   UNL A   1      48.468  27.454  23.955  1.00  0.00    -0.203 F 
ATOM     71  C   UNL A   1      50.676  26.739  24.362  1.00  0.00     0.198 A 
ATOM     72  C   UNL A   1      51.344  26.123  26.583  1.00  0.00     0.198 A 
ATOM     73  F   UNL A   1      49.786  26.211  28.346  1.00  0.00    -0.203 F 
ATOM     74  F   UNL A   1      50.961  26.880  23.061  1.00  0.00    -0.200 F 
ATOM     75  C   UNL A   1      51.650  26.291  25.241  1.00  0.00     0.200 A 
ATOM     76  F   UNL A   1      52.286  25.702  27.438  1.00  0.00    -0.200 F 
ATOM     77  F   UNL A   1      52.883  26.015  24.794  1.00  0.00    -0.200 F 
ENDBRANCH  43  67
BRANCH  55  78
ATOM     78  C   UNL A   1      46.085  32.557  28.833  1.00  0.00     0.064 A 
ATOM     79  C   UNL A   1      46.022  33.595  27.892  1.00  0.00     0.173 A 
ATOM     80  C   UNL A   1      46.646  32.840  30.088  1.00  0.00     0.173 A 
ATOM     81  F   UNL A   1      45.510  33.370  26.673  1.00  0.00    -0.203 F 
ATOM     82  C   UNL A   1      46.523  34.860  28.188  1.00  0.00     0.198 A 
ATOM     83  C   UNL A   1      47.122  34.112  30.390  1.00  0.00     0.198 A 
ATOM     84  F   UNL A   1      46.727  31.882  31.024  1.00  0.00    -0.203 F 
ATOM     85  F   UNL A   1      46.494  35.825  27.257  1.00  0.00    -0.200 F 
ATOM     86  C   UNL A   1      47.068  35.119  29.437  1.00  0.00     0.200 A 
ATOM     87  F   UNL A   1      47.641  34.364  31.599  1.00  0.00    -0.200 F 
ATOM     88  F   UNL A   1      47.549  36.337  29.719  1.00  0.00    -0.200 F 
ENDBRANCH  55  78
ENDBRANCH  29  30
ENDBRANCH  21  24
ENDBRANCH  19  20
ENDBRANCH   1  19
TORSDOF 11
ENDMDL
