MODEL 1
REMARK VINA RESULT:     -11.6      0.000      0.000
REMARK SMILES O=C(NCCCNC(=O)[C@H](F)[C@H](O)C1CCOCC1)c1ccc(-c2c3nc(c(-c4c(F)c(F)c(F)c(F)c4F)c4ccc([nH]4)c(-c4c(F)c(F)c(F)c(F)c4F)c4nc(c(-c5c(F)c(F)c(F)c(F)c5F)c5ccc2[nH]5)C=C4)C=C3)cc1
REMARK SMILES IDX 5 1 4 2 3 3 1 4 2 5 20 7 21 8 82 9 22 10 81 11 23 12 24 13
REMARK SMILES IDX 25 14 75 15 26 16 80 17 74 18 76 19 27 20 79 21 73 22 72 23
REMARK SMILES IDX 28 25 60 26 40 27 59 28 41 29 44 30 58 31 77 32 42 33 43 34
REMARK SMILES IDX 57 36 78 37 45 38 29 39 30 40 38 41 31 42 32 43 36 44 39 45
REMARK SMILES IDX 33 46 34 47 37 48 35 49 61 50 62 51 70 52 63 53 64 54 68 55
REMARK SMILES IDX 71 56 65 57 66 58 69 59 67 60 46 61 47 62 55 63 48 64 49 65
REMARK SMILES IDX 53 66 56 67 50 68 51 69 54 70 52 71 6 72 7 73 8 74 9 76
REMARK SMILES IDX 10 77 11 78 12 79 14 80 15 81 19 82 16 83 18 84 17 85 13 86
REMARK H PARENT 3 6 76 24 44 35 7 75 13 87
REMARK Flexibility Score: inf
ROOT
ATOM      1  C   UNL A   1      31.406  32.075  26.773  1.00  0.00     0.042 C 
ENDROOT
BRANCH   1   2
ATOM      2  C   UNL A   1      32.696  32.858  26.983  1.00  0.00     0.118 C 
BRANCH   2   3
ATOM      3  N   UNL A   1      32.469  34.173  27.555  1.00  0.00    -0.352 N 
ATOM      4  O   UNL A   1      32.528  35.822  29.080  1.00  0.00    -0.269 OA
ATOM      5  C   UNL A   1      33.011  34.772  28.669  1.00  0.00     0.251 C 
ATOM      6  H   UNL A   1      31.819  34.727  27.065  1.00  0.00     0.163 HD
BRANCH   5   7
ATOM      7  C   UNL A   1      34.154  34.163  29.392  1.00  0.00     0.039 A 
ATOM      8  C   UNL A   1      33.961  33.204  30.385  1.00  0.00     0.014 A 
ATOM      9  C   UNL A   1      35.461  34.504  29.017  1.00  0.00     0.014 A 
ATOM     10  C   UNL A   1      35.043  32.715  31.108  1.00  0.00     0.010 A 
ATOM     11  C   UNL A   1      36.558  33.913  29.660  1.00  0.00     0.010 A 
ATOM     12  C   UNL A   1      36.359  33.024  30.727  1.00  0.00    -0.014 A 
BRANCH  12  13
ATOM     13  C   UNL A   1      37.482  32.303  31.388  1.00  0.00     0.031 A 
ATOM     14  C   UNL A   1      38.233  31.197  30.700  1.00  0.00     0.074 A 
ATOM     15  C   UNL A   1      37.851  32.699  32.624  1.00  0.00     0.049 A 
ATOM     16  N   UNL A   1      39.263  30.511  31.134  1.00  0.00    -0.248 NA
ATOM     17  C   UNL A   1      37.771  30.800  29.363  1.00  0.00     0.031 C 
ATOM     18  C   UNL A   1      37.180  33.741  33.408  1.00  0.00     0.029 A 
ATOM     19  N   UNL A   1      38.890  32.305  33.428  1.00  0.00    -0.354 N 
ATOM     20  C   UNL A   1      39.568  29.601  30.129  1.00  0.00     0.074 A 
ATOM     21  C   UNL A   1      38.591  29.797  29.077  1.00  0.00     0.031 C 
ATOM     22  C   UNL A   1      37.857  33.947  34.544  1.00  0.00     0.029 A 
ATOM     23  C   UNL A   1      38.963  33.000  34.612  1.00  0.00     0.049 A 
ATOM     24  H   UNL A   1      39.523  31.592  33.182  1.00  0.00     0.167 HD
ATOM     25  C   UNL A   1      40.576  28.696  30.086  1.00  0.00     0.037 A 
ATOM     26  C   UNL A   1      39.809  32.879  35.651  1.00  0.00     0.037 A 
ATOM     27  C   UNL A   1      41.549  28.508  31.135  1.00  0.00     0.049 A 
ATOM     28  C   UNL A   1      40.900  31.850  35.579  1.00  0.00     0.074 A 
ATOM     29  C   UNL A   1      42.617  27.627  31.175  1.00  0.00     0.029 A 
ATOM     30  N   UNL A   1      41.572  29.211  32.331  1.00  0.00    -0.354 N 
ATOM     31  N   UNL A   1      41.194  31.022  34.607  1.00  0.00    -0.248 NA
ATOM     32  C   UNL A   1      41.776  31.737  36.752  1.00  0.00     0.031 C 
ATOM     33  C   UNL A   1      43.255  27.763  32.412  1.00  0.00     0.029 A 
ATOM     34  C   UNL A   1      42.623  28.768  33.122  1.00  0.00     0.049 A 
ATOM     35  H   UNL A   1      40.936  29.920  32.583  1.00  0.00     0.167 HD
ATOM     36  C   UNL A   1      42.294  30.298  35.045  1.00  0.00     0.074 A 
ATOM     37  C   UNL A   1      42.639  30.815  36.352  1.00  0.00     0.031 C 
ATOM     38  C   UNL A   1      42.952  29.289  34.425  1.00  0.00     0.037 A 
BRANCH  25  39
ATOM     39  C   UNL A   1      40.691  27.827  28.865  1.00  0.00     0.064 A 
ATOM     40  C   UNL A   1      39.952  26.641  28.736  1.00  0.00     0.173 A 
ATOM     41  C   UNL A   1      41.484  28.225  27.778  1.00  0.00     0.173 A 
ATOM     42  F   UNL A   1      39.185  26.211  29.748  1.00  0.00    -0.203 F 
ATOM     43  C   UNL A   1      40.014  25.881  27.570  1.00  0.00     0.198 A 
ATOM     44  C   UNL A   1      41.521  27.477  26.602  1.00  0.00     0.198 A 
ATOM     45  F   UNL A   1      42.203  29.356  27.843  1.00  0.00    -0.203 F 
ATOM     46  F   UNL A   1      39.323  24.735  27.482  1.00  0.00    -0.200 F 
ATOM     47  C   UNL A   1      40.789  26.304  26.502  1.00  0.00     0.200 A 
ATOM     48  F   UNL A   1      42.258  27.897  25.565  1.00  0.00    -0.200 F 
ATOM     49  F   UNL A   1      40.832  25.581  25.374  1.00  0.00    -0.200 F 
ENDBRANCH  25  39
BRANCH  26  50
ATOM     50  C   UNL A   1      39.640  33.735  36.855  1.00  0.00     0.064 A 
ATOM     51  C   UNL A   1      38.824  33.340  37.923  1.00  0.00     0.173 A 
ATOM     52  C   UNL A   1      40.277  34.983  36.951  1.00  0.00     0.173 A 
ATOM     53  F   UNL A   1      38.180  32.164  37.873  1.00  0.00    -0.203 F 
ATOM     54  C   UNL A   1      38.625  34.170  39.024  1.00  0.00     0.198 A 
ATOM     55  C   UNL A   1      40.109  35.795  38.069  1.00  0.00     0.198 A 
ATOM     56  F   UNL A   1      41.075  35.408  35.960  1.00  0.00    -0.203 F 
ATOM     57  F   UNL A   1      37.790  33.794  40.001  1.00  0.00    -0.200 F 
ATOM     58  C   UNL A   1      39.274  35.394  39.099  1.00  0.00     0.200 A 
ATOM     59  F   UNL A   1      40.755  36.966  38.145  1.00  0.00    -0.200 F 
ATOM     60  F   UNL A   1      39.083  36.192  40.158  1.00  0.00    -0.200 F 
ENDBRANCH  26  50
BRANCH  38  61
ATOM     61  C   UNL A   1      44.126  28.700  35.152  1.00  0.00     0.064 A 
ATOM     62  C   UNL A   1      45.423  29.212  34.991  1.00  0.00     0.173 A 
ATOM     63  C   UNL A   1      43.954  27.606  36.013  1.00  0.00     0.173 A 
ATOM     64  F   UNL A   1      45.644  30.245  34.165  1.00  0.00    -0.203 F 
ATOM     65  C   UNL A   1      46.510  28.624  35.633  1.00  0.00     0.198 A 
ATOM     66  C   UNL A   1      45.038  27.043  36.682  1.00  0.00     0.198 A 
ATOM     67  F   UNL A   1      42.735  27.082  36.207  1.00  0.00    -0.203 F 
ATOM     68  F   UNL A   1      47.748  29.085  35.409  1.00  0.00    -0.200 F 
ATOM     69  C   UNL A   1      46.316  27.543  36.481  1.00  0.00     0.200 A 
ATOM     70  F   UNL A   1      44.847  26.008  37.511  1.00  0.00    -0.200 F 
ATOM     71  F   UNL A   1      47.362  26.976  37.095  1.00  0.00    -0.200 F 
ENDBRANCH  38  61
ENDBRANCH  12  13
ENDBRANCH   5   7
ENDBRANCH   2   3
ENDBRANCH   1   2
BRANCH   1  72
ATOM     72  C   UNL A   1      31.582  30.562  26.776  1.00  0.00     0.117 C 
BRANCH  72  73
ATOM     73  N   UNL A   1      32.182  30.070  25.550  1.00  0.00    -0.353 N 
ATOM     74  C   UNL A   1      31.759  29.448  24.432  1.00  0.00     0.257 C 
ATOM     75  H   UNL A   1      33.152  30.235  25.528  1.00  0.00     0.163 HD
ATOM     76  O   UNL A   1      32.685  29.198  23.639  1.00  0.00    -0.272 OA
BRANCH  74  77
ATOM     77  C   UNL A   1      30.341  29.008  24.034  1.00  0.00     0.283 C 
ATOM     78  F   UNL A   1      30.293  27.627  24.159  1.00  0.00    -0.234 F 
BRANCH  77  79
ATOM     79  C   UNL A   1      29.660  29.265  22.689  1.00  0.00     0.161 C 
BRANCH  79  80
ATOM     80  C   UNL A   1      29.393  30.717  22.242  1.00  0.00     0.026 C 
ATOM     81  C   UNL A   1      28.978  31.689  23.355  1.00  0.00     0.035 C 
ATOM     82  C   UNL A   1      28.287  30.751  21.162  1.00  0.00     0.035 C 
ATOM     83  C   UNL A   1      28.778  33.078  22.754  1.00  0.00     0.160 C 
ATOM     84  C   UNL A   1      28.029  32.178  20.690  1.00  0.00     0.160 C 
ATOM     85  O   UNL A   1      27.733  33.044  21.786  1.00  0.00    -0.381 OA
ENDBRANCH  79  80
BRANCH  79  86
ATOM     86  O   UNL A   1      30.324  28.566  21.626  1.00  0.00    -0.389 OA
ATOM     87  H   UNL A   1      31.157  29.017  21.415  1.00  0.00     0.211 HD
ENDBRANCH  79  86
ENDBRANCH  77  79
ENDBRANCH  74  77
ENDBRANCH  72  73
ENDBRANCH   1  72
TORSDOF 13
ENDMDL
MODEL 2
REMARK VINA RESULT:     -11.5      7.006     11.052
REMARK SMILES O=C(NCCCNC(=O)[C@H](F)[C@H](O)C1CCOCC1)c1ccc(-c2c3nc(c(-c4c(F)c(F)c(F)c(F)c4F)c4ccc([nH]4)c(-c4c(F)c(F)c(F)c(F)c4F)c4nc(c(-c5c(F)c(F)c(F)c(F)c5F)c5ccc2[nH]5)C=C4)C=C3)cc1
REMARK SMILES IDX 5 1 4 2 3 3 1 4 2 5 20 7 21 8 82 9 22 10 81 11 23 12 24 13
REMARK SMILES IDX 25 14 75 15 26 16 80 17 74 18 76 19 27 20 79 21 73 22 72 23
REMARK SMILES IDX 28 25 60 26 40 27 59 28 41 29 44 30 58 31 77 32 42 33 43 34
REMARK SMILES IDX 57 36 78 37 45 38 29 39 30 40 38 41 31 42 32 43 36 44 39 45
REMARK SMILES IDX 33 46 34 47 37 48 35 49 61 50 62 51 70 52 63 53 64 54 68 55
REMARK SMILES IDX 71 56 65 57 66 58 69 59 67 60 46 61 47 62 55 63 48 64 49 65
REMARK SMILES IDX 53 66 56 67 50 68 51 69 54 70 52 71 6 72 7 73 8 74 9 76
REMARK SMILES IDX 10 77 11 78 12 79 14 80 15 81 19 82 16 83 18 84 17 85 13 86
REMARK H PARENT 3 6 76 24 44 35 7 75 13 87
REMARK Flexibility Score: inf
ROOT
ATOM      1  C   UNL A   1      38.173  19.970  24.862  1.00  0.00     0.042 C 
ENDROOT
BRANCH   1   2
ATOM      2  C   UNL A   1      39.073  20.023  26.089  1.00  0.00     0.118 C 
BRANCH   2   3
ATOM      3  N   UNL A   1      40.206  19.120  25.995  1.00  0.00    -0.352 N 
ATOM      4  O   UNL A   1      42.342  18.474  25.734  1.00  0.00    -0.269 OA
ATOM      5  C   UNL A   1      41.559  19.371  26.027  1.00  0.00     0.251 C 
ATOM      6  H   UNL A   1      39.967  18.170  25.891  1.00  0.00     0.163 HD
BRANCH   5   7
ATOM      7  C   UNL A   1      42.086  20.710  26.390  1.00  0.00     0.039 A 
ATOM      8  C   UNL A   1      42.250  21.712  25.435  1.00  0.00     0.014 A 
ATOM      9  C   UNL A   1      42.354  20.998  27.735  1.00  0.00     0.014 A 
ATOM     10  C   UNL A   1      42.829  22.926  25.785  1.00  0.00     0.010 A 
ATOM     11  C   UNL A   1      42.816  22.268  28.108  1.00  0.00     0.010 A 
ATOM     12  C   UNL A   1      43.076  23.241  27.132  1.00  0.00    -0.014 A 
BRANCH  12  13
ATOM     13  C   UNL A   1      43.485  24.631  27.477  1.00  0.00     0.031 A 
ATOM     14  C   UNL A   1      44.880  25.134  27.236  1.00  0.00     0.074 A 
ATOM     15  C   UNL A   1      42.548  25.463  27.980  1.00  0.00     0.049 A 
ATOM     16  N   UNL A   1      45.369  26.333  27.443  1.00  0.00    -0.248 NA
ATOM     17  C   UNL A   1      45.859  24.174  26.705  1.00  0.00     0.031 C 
ATOM     18  C   UNL A   1      41.165  25.083  28.288  1.00  0.00     0.029 A 
ATOM     19  N   UNL A   1      42.596  26.798  28.292  1.00  0.00    -0.354 N 
ATOM     20  C   UNL A   1      46.707  26.271  27.074  1.00  0.00     0.074 A 
ATOM     21  C   UNL A   1      46.965  24.906  26.663  1.00  0.00     0.031 C 
ATOM     22  C   UNL A   1      40.485  26.166  28.681  1.00  0.00     0.029 A 
ATOM     23  C   UNL A   1      41.396  27.302  28.731  1.00  0.00     0.049 A 
ATOM     24  H   UNL A   1      43.413  27.342  28.209  1.00  0.00     0.167 HD
ATOM     25  C   UNL A   1      47.628  27.266  27.068  1.00  0.00     0.037 A 
ATOM     26  C   UNL A   1      41.064  28.536  29.152  1.00  0.00     0.037 A 
ATOM     27  C   UNL A   1      47.365  28.625  27.475  1.00  0.00     0.049 A 
ATOM     28  C   UNL A   1      42.116  29.607  29.155  1.00  0.00     0.074 A 
ATOM     29  C   UNL A   1      48.231  29.706  27.488  1.00  0.00     0.029 A 
ATOM     30  N   UNL A   1      46.144  29.091  27.942  1.00  0.00    -0.354 N 
ATOM     31  N   UNL A   1      43.367  29.540  28.770  1.00  0.00    -0.248 NA
ATOM     32  C   UNL A   1      41.710  30.928  29.653  1.00  0.00     0.031 C 
ATOM     33  C   UNL A   1      47.549  30.810  28.008  1.00  0.00     0.029 A 
ATOM     34  C   UNL A   1      46.241  30.437  28.265  1.00  0.00     0.049 A 
ATOM     35  H   UNL A   1      45.328  28.547  28.032  1.00  0.00     0.167 HD
ATOM     36  C   UNL A   1      43.894  30.808  28.968  1.00  0.00     0.074 A 
ATOM     37  C   UNL A   1      42.815  31.634  29.468  1.00  0.00     0.031 C 
ATOM     38  C   UNL A   1      45.160  31.246  28.766  1.00  0.00     0.037 A 
BRANCH  25  39
ATOM     39  C   UNL A   1      49.020  26.933  26.609  1.00  0.00     0.064 A 
ATOM     40  C   UNL A   1      49.987  26.435  27.496  1.00  0.00     0.173 A 
ATOM     41  C   UNL A   1      49.368  27.034  25.253  1.00  0.00     0.173 A 
ATOM     42  F   UNL A   1      49.709  26.325  28.804  1.00  0.00    -0.203 F 
ATOM     43  C   UNL A   1      51.251  26.064  27.046  1.00  0.00     0.198 A 
ATOM     44  C   UNL A   1      50.625  26.636  24.801  1.00  0.00     0.198 A 
ATOM     45  F   UNL A   1      48.480  27.495  24.360  1.00  0.00    -0.203 F 
ATOM     46  F   UNL A   1      52.168  25.619  27.917  1.00  0.00    -0.200 F 
ATOM     47  C   UNL A   1      51.566  26.155  25.698  1.00  0.00     0.200 A 
ATOM     48  F   UNL A   1      50.920  26.709  23.496  1.00  0.00    -0.200 F 
ATOM     49  F   UNL A   1      52.777  25.779  25.264  1.00  0.00    -0.200 F 
ENDBRANCH  25  39
BRANCH  26  50
ATOM     50  C   UNL A   1      39.684  28.816  29.630  1.00  0.00     0.064 A 
ATOM     51  C   UNL A   1      38.708  29.345  28.774  1.00  0.00     0.173 A 
ATOM     52  C   UNL A   1      39.319  28.581  30.966  1.00  0.00     0.173 A 
ATOM     53  F   UNL A   1      39.011  29.604  27.494  1.00  0.00    -0.203 F 
ATOM     54  C   UNL A   1      37.433  29.658  29.241  1.00  0.00     0.198 A 
ATOM     55  C   UNL A   1      38.033  28.856  31.421  1.00  0.00     0.198 A 
ATOM     56  F   UNL A   1      40.211  28.069  31.826  1.00  0.00    -0.203 F 
ATOM     57  F   UNL A   1      36.540  30.220  28.416  1.00  0.00    -0.200 F 
ATOM     58  C   UNL A   1      37.095  29.406  30.562  1.00  0.00     0.200 A 
ATOM     59  F   UNL A   1      37.705  28.592  32.693  1.00  0.00    -0.200 F 
ATOM     60  F   UNL A   1      35.868  29.706  31.011  1.00  0.00    -0.200 F 
ENDBRANCH  26  50
BRANCH  38  61
ATOM     61  C   UNL A   1      45.431  32.692  29.065  1.00  0.00     0.064 A 
ATOM     62  C   UNL A   1      45.887  33.108  30.326  1.00  0.00     0.173 A 
ATOM     63  C   UNL A   1      45.226  33.673  28.085  1.00  0.00     0.173 A 
ATOM     64  F   UNL A   1      46.082  32.212  31.304  1.00  0.00    -0.203 F 
ATOM     65  C   UNL A   1      46.087  34.458  30.606  1.00  0.00     0.198 A 
ATOM     66  C   UNL A   1      45.461  35.018  28.356  1.00  0.00     0.198 A 
ATOM     67  F   UNL A   1      44.797  33.328  26.862  1.00  0.00    -0.203 F 
ATOM     68  F   UNL A   1      46.453  34.839  31.837  1.00  0.00    -0.200 F 
ATOM     69  C   UNL A   1      45.878  35.411  29.620  1.00  0.00     0.200 A 
ATOM     70  F   UNL A   1      45.272  35.937  27.399  1.00  0.00    -0.200 F 
ATOM     71  F   UNL A   1      46.066  36.709  29.891  1.00  0.00    -0.200 F 
ENDBRANCH  38  61
ENDBRANCH  12  13
ENDBRANCH   5   7
ENDBRANCH   2   3
ENDBRANCH   1   2
BRANCH   1  72
ATOM     72  C   UNL A   1      37.368  21.240  24.618  1.00  0.00     0.117 C 
BRANCH  72  73
ATOM     73  N   UNL A   1      36.270  21.389  25.555  1.00  0.00    -0.353 N 
ATOM     74  C   UNL A   1      34.961  21.070  25.592  1.00  0.00     0.257 C 
ATOM     75  H   UNL A   1      36.556  21.842  26.381  1.00  0.00     0.163 HD
ATOM     76  O   UNL A   1      34.404  21.439  26.641  1.00  0.00    -0.272 OA
BRANCH  74  77
ATOM     77  C   UNL A   1      34.098  20.354  24.540  1.00  0.00     0.283 C 
ATOM     78  F   UNL A   1      33.408  21.336  23.843  1.00  0.00    -0.234 F 
BRANCH  77  79
ATOM     79  C   UNL A   1      33.028  19.298  24.816  1.00  0.00     0.161 C 
BRANCH  79  80
ATOM     80  C   UNL A   1      33.457  17.890  25.277  1.00  0.00     0.026 C 
ATOM     81  C   UNL A   1      34.609  17.255  24.486  1.00  0.00     0.035 C 
ATOM     82  C   UNL A   1      32.258  16.915  25.212  1.00  0.00     0.035 C 
ATOM     83  C   UNL A   1      34.925  15.884  25.081  1.00  0.00     0.160 C 
ATOM     84  C   UNL A   1      32.660  15.523  25.689  1.00  0.00     0.160 C 
ATOM     85  O   UNL A   1      33.789  15.031  24.968  1.00  0.00    -0.381 OA
ENDBRANCH  79  80
BRANCH  79  86
ATOM     86  O   UNL A   1      32.025  19.795  25.714  1.00  0.00    -0.389 OA
ATOM     87  H   UNL A   1      31.831  20.722  25.502  1.00  0.00     0.211 HD
ENDBRANCH  79  86
ENDBRANCH  77  79
ENDBRANCH  74  77
ENDBRANCH  72  73
ENDBRANCH   1  72
TORSDOF 13
ENDMDL
MODEL 3
REMARK VINA RESULT:     -11.5      1.599      7.733
REMARK SMILES O=C(NCCCNC(=O)[C@H](F)[C@H](O)C1CCOCC1)c1ccc(-c2c3nc(c(-c4c(F)c(F)c(F)c(F)c4F)c4ccc([nH]4)c(-c4c(F)c(F)c(F)c(F)c4F)c4nc(c(-c5c(F)c(F)c(F)c(F)c5F)c5ccc2[nH]5)C=C4)C=C3)cc1
REMARK SMILES IDX 5 1 4 2 3 3 1 4 2 5 20 7 21 8 82 9 22 10 81 11 23 12 24 13
REMARK SMILES IDX 25 14 75 15 26 16 80 17 74 18 76 19 27 20 79 21 73 22 72 23
REMARK SMILES IDX 28 25 60 26 40 27 59 28 41 29 44 30 58 31 77 32 42 33 43 34
REMARK SMILES IDX 57 36 78 37 45 38 29 39 30 40 38 41 31 42 32 43 36 44 39 45
REMARK SMILES IDX 33 46 34 47 37 48 35 49 61 50 62 51 70 52 63 53 64 54 68 55
REMARK SMILES IDX 71 56 65 57 66 58 69 59 67 60 46 61 47 62 55 63 48 64 49 65
REMARK SMILES IDX 53 66 56 67 50 68 51 69 54 70 52 71 6 72 7 73 8 74 9 76
REMARK SMILES IDX 10 77 11 78 12 79 14 80 15 81 19 82 16 83 18 84 17 85 13 86
REMARK H PARENT 3 6 76 24 44 35 7 75 13 87
REMARK Flexibility Score: inf
ROOT
ATOM      1  C   UNL A   1      31.474  30.060  25.291  1.00  0.00     0.042 C 
ENDROOT
BRANCH   1   2
ATOM      2  C   UNL A   1      32.136  30.503  26.589  1.00  0.00     0.118 C 
BRANCH   2   3
ATOM      3  N   UNL A   1      32.112  31.944  26.769  1.00  0.00    -0.352 N 
ATOM      4  O   UNL A   1      32.603  33.941  27.676  1.00  0.00    -0.269 OA
ATOM      5  C   UNL A   1      32.926  32.768  27.513  1.00  0.00     0.251 C 
ATOM      6  H   UNL A   1      31.394  32.408  26.280  1.00  0.00     0.163 HD
BRANCH   5   7
ATOM      7  C   UNL A   1      34.174  32.262  28.134  1.00  0.00     0.039 A 
ATOM      8  C   UNL A   1      35.182  33.128  28.554  1.00  0.00     0.014 A 
ATOM      9  C   UNL A   1      34.311  30.888  28.374  1.00  0.00     0.014 A 
ATOM     10  C   UNL A   1      36.378  32.624  29.052  1.00  0.00     0.010 A 
ATOM     11  C   UNL A   1      35.466  30.390  28.995  1.00  0.00     0.010 A 
ATOM     12  C   UNL A   1      36.520  31.254  29.325  1.00  0.00    -0.014 A 
BRANCH  12  13
ATOM     13  C   UNL A   1      37.730  30.794  30.062  1.00  0.00     0.031 A 
ATOM     14  C   UNL A   1      37.989  31.183  31.490  1.00  0.00     0.074 A 
ATOM     15  C   UNL A   1      38.585  29.965  29.425  1.00  0.00     0.049 A 
ATOM     16  N   UNL A   1      38.976  30.821  32.274  1.00  0.00    -0.248 NA
ATOM     17  C   UNL A   1      37.031  32.103  32.120  1.00  0.00     0.031 C 
ATOM     18  C   UNL A   1      38.458  29.539  28.027  1.00  0.00     0.029 A 
ATOM     19  N   UNL A   1      39.706  29.309  29.865  1.00  0.00    -0.354 N 
ATOM     20  C   UNL A   1      38.761  31.469  33.484  1.00  0.00     0.074 A 
ATOM     21  C   UNL A   1      37.569  32.276  33.321  1.00  0.00     0.031 C 
ATOM     22  C   UNL A   1      39.418  28.649  27.746  1.00  0.00     0.029 A 
ATOM     23  C   UNL A   1      40.277  28.499  28.913  1.00  0.00     0.049 A 
ATOM     24  H   UNL A   1      40.067  29.409  30.776  1.00  0.00     0.167 HD
ATOM     25  C   UNL A   1      39.486  31.385  34.627  1.00  0.00     0.037 A 
ATOM     26  C   UNL A   1      41.384  27.735  28.960  1.00  0.00     0.037 A 
ATOM     27  C   UNL A   1      40.670  30.577  34.785  1.00  0.00     0.049 A 
ATOM     28  C   UNL A   1      42.176  27.686  30.235  1.00  0.00     0.074 A 
ATOM     29  C   UNL A   1      41.462  30.416  35.910  1.00  0.00     0.029 A 
ATOM     30  N   UNL A   1      41.235  29.793  33.789  1.00  0.00    -0.354 N 
ATOM     31  N   UNL A   1      41.939  28.277  31.380  1.00  0.00    -0.248 NA
ATOM     32  C   UNL A   1      43.392  26.862  30.223  1.00  0.00     0.031 C 
ATOM     33  C   UNL A   1      42.530  29.575  35.581  1.00  0.00     0.029 A 
ATOM     34  C   UNL A   1      42.375  29.164  34.269  1.00  0.00     0.049 A 
ATOM     35  H   UNL A   1      40.879  29.697  32.876  1.00  0.00     0.167 HD
ATOM     36  C   UNL A   1      42.967  27.890  32.226  1.00  0.00     0.074 A 
ATOM     37  C   UNL A   1      43.806  26.980  31.475  1.00  0.00     0.031 C 
ATOM     38  C   UNL A   1      43.203  28.263  33.508  1.00  0.00     0.037 A 
BRANCH  25  39
ATOM     39  C   UNL A   1      39.029  32.191  35.811  1.00  0.00     0.064 A 
ATOM     40  C   UNL A   1      38.222  31.630  36.813  1.00  0.00     0.173 A 
ATOM     41  C   UNL A   1      39.469  33.511  35.989  1.00  0.00     0.173 A 
ATOM     42  F   UNL A   1      37.767  30.374  36.689  1.00  0.00    -0.203 F 
ATOM     43  C   UNL A   1      37.863  32.365  37.941  1.00  0.00     0.198 A 
ATOM     44  C   UNL A   1      39.131  34.234  37.132  1.00  0.00     0.198 A 
ATOM     45  F   UNL A   1      40.250  34.094  35.067  1.00  0.00    -0.203 F 
ATOM     46  F   UNL A   1      37.066  31.818  38.870  1.00  0.00    -0.200 F 
ATOM     47  C   UNL A   1      38.326  33.662  38.104  1.00  0.00     0.200 A 
ATOM     48  F   UNL A   1      39.593  35.481  37.295  1.00  0.00    -0.200 F 
ATOM     49  F   UNL A   1      37.995  34.361  39.199  1.00  0.00    -0.200 F 
ENDBRANCH  25  39
BRANCH  26  50
ATOM     50  C   UNL A   1      41.822  26.980  27.756  1.00  0.00     0.064 A 
ATOM     51  C   UNL A   1      41.413  25.657  27.536  1.00  0.00     0.173 A 
ATOM     52  C   UNL A   1      42.680  27.561  26.809  1.00  0.00     0.173 A 
ATOM     53  F   UNL A   1      40.607  25.050  28.420  1.00  0.00    -0.203 F 
ATOM     54  C   UNL A   1      41.871  24.936  26.435  1.00  0.00     0.198 A 
ATOM     55  C   UNL A   1      43.104  26.853  25.688  1.00  0.00     0.198 A 
ATOM     56  F   UNL A   1      43.096  28.827  26.966  1.00  0.00    -0.203 F 
ATOM     57  F   UNL A   1      41.514  23.653  26.284  1.00  0.00    -0.200 F 
ATOM     58  C   UNL A   1      42.710  25.537  25.509  1.00  0.00     0.200 A 
ATOM     59  F   UNL A   1      43.898  27.444  24.786  1.00  0.00    -0.200 F 
ATOM     60  F   UNL A   1      43.149  24.842  24.450  1.00  0.00    -0.200 F 
ENDBRANCH  26  50
BRANCH  38  61
ATOM     61  C   UNL A   1      44.405  27.663  34.177  1.00  0.00     0.064 A 
ATOM     62  C   UNL A   1      45.655  28.302  34.153  1.00  0.00     0.173 A 
ATOM     63  C   UNL A   1      44.310  26.433  34.843  1.00  0.00     0.173 A 
ATOM     64  F   UNL A   1      45.804  29.472  33.515  1.00  0.00    -0.203 F 
ATOM     65  C   UNL A   1      46.773  27.710  34.735  1.00  0.00     0.198 A 
ATOM     66  C   UNL A   1      45.422  25.860  35.454  1.00  0.00     0.198 A 
ATOM     67  F   UNL A   1      43.137  25.783  34.900  1.00  0.00    -0.203 F 
ATOM     68  F   UNL A   1      47.971  28.304  34.638  1.00  0.00    -0.200 F 
ATOM     69  C   UNL A   1      46.655  26.492  35.388  1.00  0.00     0.200 A 
ATOM     70  F   UNL A   1      45.303  24.690  36.098  1.00  0.00    -0.200 F 
ATOM     71  F   UNL A   1      47.732  25.921  35.944  1.00  0.00    -0.200 F 
ENDBRANCH  38  61
ENDBRANCH  12  13
ENDBRANCH   5   7
ENDBRANCH   2   3
ENDBRANCH   1   2
BRANCH   1  72
ATOM     72  C   UNL A   1      32.097  28.823  24.658  1.00  0.00     0.117 C 
BRANCH  72  73
ATOM     73  N   UNL A   1      31.217  27.671  24.707  1.00  0.00    -0.353 N 
ATOM     74  C   UNL A   1      30.099  27.264  24.074  1.00  0.00     0.257 C 
ATOM     75  H   UNL A   1      31.514  27.015  25.377  1.00  0.00     0.163 HD
ATOM     76  O   UNL A   1      29.679  26.170  24.493  1.00  0.00    -0.272 OA
BRANCH  74  77
ATOM     77  C   UNL A   1      29.298  27.954  22.959  1.00  0.00     0.283 C 
ATOM     78  F   UNL A   1      30.218  28.487  22.067  1.00  0.00    -0.234 F 
BRANCH  77  79
ATOM     79  C   UNL A   1      28.286  29.086  23.141  1.00  0.00     0.161 C 
BRANCH  79  80
ATOM     80  C   UNL A   1      28.625  30.495  22.613  1.00  0.00     0.026 C 
ATOM     81  C   UNL A   1      28.292  31.657  23.558  1.00  0.00     0.035 C 
ATOM     82  C   UNL A   1      27.890  30.759  21.278  1.00  0.00     0.035 C 
ATOM     83  C   UNL A   1      28.709  32.970  22.900  1.00  0.00     0.160 C 
ATOM     84  C   UNL A   1      28.235  32.139  20.728  1.00  0.00     0.160 C 
ATOM     85  O   UNL A   1      27.980  33.162  21.691  1.00  0.00    -0.381 OA
ENDBRANCH  79  80
BRANCH  79  86
ATOM     86  O   UNL A   1      26.988  28.709  22.658  1.00  0.00    -0.389 OA
ATOM     87  H   UNL A   1      26.457  29.506  22.502  1.00  0.00     0.211 HD
ENDBRANCH  79  86
ENDBRANCH  77  79
ENDBRANCH  74  77
ENDBRANCH  72  73
ENDBRANCH   1  72
TORSDOF 13
ENDMDL
