MODEL 1
REMARK VINA RESULT:     -11.8      0.000      0.000
REMARK SMILES Cc1sc2nc3c(S[C@H](C)C(=O)NCCCNC(=O)c4ccc(-c5c6nc(c(-c7c(F)c(F)c(F)c(F)c7F)c7ccc([nH]7)c(-c7c(F)c(F)c(F)c(F)c7F)c7nc(c(-c8c(F)c(F)c(F)c(F)c8F)c8ccc5[nH]8)C=C7)C=C6)cc4)cc(C(=O)c4ccccc4O)cn3c(=O)c2c1C
REMARK SMILES IDX 11 1 12 2 13 3 9 5 10 6 8 7 7 8 1 9 2 10 3 11 99 12 4 13
REMARK SMILES IDX 98 14 100 15 5 16 96 17 6 18 95 19 97 20 94 21 83 22 84 23
REMARK SMILES IDX 85 24 86 25 87 26 88 27 92 28 89 29 91 30 90 31 93 32 14 34
REMARK SMILES IDX 15 35 16 36 17 37 18 38 19 40 20 41 21 42 82 43 22 44 81 45
REMARK SMILES IDX 23 46 24 47 25 48 75 49 26 50 80 51 74 52 76 53 27 54 79 55
REMARK SMILES IDX 73 56 72 57 28 59 60 60 40 61 59 62 41 63 44 64 58 65 77 66
REMARK SMILES IDX 42 67 43 68 57 70 78 71 45 72 29 73 30 74 38 75 31 76 32 77
REMARK SMILES IDX 36 78 39 79 33 80 34 81 37 82 35 83 61 84 62 85 70 86 63 87
REMARK SMILES IDX 64 88 68 89 71 90 65 91 66 92 69 93 67 94 46 95 47 96 55 97
REMARK SMILES IDX 48 98 49 99 53 100 56 101 50 102 51 103 54 104 52 105
REMARK H PARENT 13 4 93 33 17 39 76 58 44 69
REMARK Flexibility Score: inf
ROOT
ATOM      1  C   UNL A   1      40.690  29.287  35.809  1.00  0.00     0.233 C 
ATOM      2  O   UNL A   1      39.661  29.814  36.246  1.00  0.00    -0.274 OA
ATOM      3  N   UNL A   1      41.105  28.146  36.432  1.00  0.00    -0.355 N 
ATOM      4  H   UNL A   1      40.490  27.824  37.130  1.00  0.00     0.163 HD
ENDROOT
BRANCH   1   5
ATOM      5  C   UNL A   1      41.427  29.874  34.592  1.00  0.00     0.138 C 
ATOM      6  C   UNL A   1      40.978  29.206  33.297  1.00  0.00     0.030 C 
BRANCH   5   7
ATOM      7  S   UNL A   1      41.296  31.690  34.761  1.00  0.00    -0.109 SA
BRANCH   7   8
ATOM      8  C   UNL A   1      40.277  32.318  33.519  1.00  0.00     0.052 A 
ATOM      9  C   UNL A   1      44.859  35.611  28.541  1.00  0.00     0.057 C 
ATOM     10  C   UNL A   1      43.708  35.184  29.392  1.00  0.00     0.007 A 
ATOM     11  S   UNL A   1      44.038  34.559  30.949  1.00  0.00    -0.120 S 
ATOM     12  C   UNL A   1      42.348  35.208  29.110  1.00  0.00    -0.022 A 
ATOM     13  C   UNL A   1      42.397  34.227  31.237  1.00  0.00     0.131 A 
ATOM     14  C   UNL A   1      41.594  34.621  30.196  1.00  0.00     0.080 A 
ATOM     15  C   UNL A   1      41.780  35.735  27.829  1.00  0.00     0.046 C 
ATOM     16  N   UNL A   1      42.018  33.572  32.357  1.00  0.00    -0.218 NA
ATOM     17  C   UNL A   1      40.167  34.361  30.322  1.00  0.00     0.266 A 
ATOM     18  C   UNL A   1      40.769  33.221  32.416  1.00  0.00     0.155 A 
ATOM     19  N   UNL A   1      39.804  33.616  31.465  1.00  0.00    -0.266 N 
ATOM     20  O   UNL A   1      39.358  34.749  29.482  1.00  0.00    -0.268 OA
ATOM     21  C   UNL A   1      38.453  33.308  31.639  1.00  0.00     0.108 A 
ATOM     22  C   UNL A   1      38.969  32.028  33.590  1.00  0.00     0.032 A 
ATOM     23  C   UNL A   1      38.005  32.575  32.669  1.00  0.00     0.041 A 
BRANCH  23  24
ATOM     24  C   UNL A   1      36.528  32.312  32.742  1.00  0.00     0.198 C 
ATOM     25  O   UNL A   1      36.074  31.182  32.922  1.00  0.00    -0.288 OA
BRANCH  24  26
ATOM     26  C   UNL A   1      35.571  33.441  32.736  1.00  0.00     0.064 A 
ATOM     27  C   UNL A   1      35.002  33.923  31.549  1.00  0.00     0.016 A 
ATOM     28  C   UNL A   1      35.249  34.050  33.954  1.00  0.00     0.126 A 
ATOM     29  C   UNL A   1      34.194  35.063  31.582  1.00  0.00     0.001 A 
ATOM     30  C   UNL A   1      34.455  35.192  33.984  1.00  0.00     0.047 A 
ATOM     31  C   UNL A   1      33.937  35.706  32.794  1.00  0.00     0.004 A 
BRANCH  28  32
ATOM     32  O   UNL A   1      35.694  33.573  35.157  1.00  0.00    -0.507 OA
ATOM     33  H   UNL A   1      36.150  32.755  35.198  1.00  0.00     0.293 HD
ENDBRANCH  28  32
ENDBRANCH  24  26
ENDBRANCH  23  24
ENDBRANCH   7   8
ENDBRANCH   5   7
ENDBRANCH   1   5
BRANCH   3  34
ATOM     34  C   UNL A   1      42.291  27.320  36.256  1.00  0.00     0.117 C 
BRANCH  34  35
ATOM     35  C   UNL A   1      42.088  26.268  35.166  1.00  0.00     0.042 C 
BRANCH  35  36
ATOM     36  C   UNL A   1      41.699  24.905  35.734  1.00  0.00     0.118 C 
BRANCH  36  37
ATOM     37  N   UNL A   1      42.846  24.135  36.183  1.00  0.00    -0.352 N 
ATOM     38  C   UNL A   1      44.054  23.930  35.553  1.00  0.00     0.251 C 
ATOM     39  H   UNL A   1      42.746  23.696  37.059  1.00  0.00     0.163 HD
ATOM     40  O   UNL A   1      44.867  23.141  36.003  1.00  0.00    -0.269 OA
BRANCH  38  41
ATOM     41  C   UNL A   1      44.336  24.649  34.295  1.00  0.00     0.039 A 
ATOM     42  C   UNL A   1      45.019  25.868  34.313  1.00  0.00     0.014 A 
ATOM     43  C   UNL A   1      43.912  24.087  33.088  1.00  0.00     0.014 A 
ATOM     44  C   UNL A   1      45.176  26.585  33.136  1.00  0.00     0.010 A 
ATOM     45  C   UNL A   1      44.110  24.784  31.899  1.00  0.00     0.010 A 
ATOM     46  C   UNL A   1      44.722  26.043  31.928  1.00  0.00    -0.014 A 
BRANCH  46  47
ATOM     47  C   UNL A   1      45.025  26.803  30.713  1.00  0.00     0.031 A 
ATOM     48  C   UNL A   1      45.007  26.002  29.459  1.00  0.00     0.074 A 
ATOM     49  C   UNL A   1      44.788  28.125  30.613  1.00  0.00     0.049 A 
ATOM     50  N   UNL A   1      43.904  25.726  28.827  1.00  0.00    -0.248 NA
ATOM     51  C   UNL A   1      46.172  25.263  28.981  1.00  0.00     0.031 C 
ATOM     52  C   UNL A   1      43.718  28.830  31.326  1.00  0.00     0.029 A 
ATOM     53  N   UNL A   1      45.257  29.036  29.699  1.00  0.00    -0.354 N 
ATOM     54  C   UNL A   1      44.197  24.722  27.928  1.00  0.00     0.074 A 
ATOM     55  C   UNL A   1      45.621  24.487  28.034  1.00  0.00     0.031 C 
ATOM     56  C   UNL A   1      43.477  29.993  30.687  1.00  0.00     0.029 A 
ATOM     57  C   UNL A   1      44.479  30.185  29.644  1.00  0.00     0.049 A 
ATOM     58  H   UNL A   1      46.056  28.890  29.142  1.00  0.00     0.167 HD
ATOM     59  C   UNL A   1      43.249  24.117  27.169  1.00  0.00     0.037 A 
ATOM     60  C   UNL A   1      44.333  30.963  28.539  1.00  0.00     0.037 A 
ATOM     61  C   UNL A   1      41.910  24.593  27.339  1.00  0.00     0.049 A 
ATOM     62  C   UNL A   1      43.478  30.063  27.677  1.00  0.00     0.074 A 
ATOM     63  C   UNL A   1      40.831  24.275  28.134  1.00  0.00     0.029 A 
ATOM     64  N   UNL A   1      41.525  25.722  26.654  1.00  0.00    -0.354 N 
ATOM     65  N   UNL A   1      42.186  29.893  27.796  1.00  0.00    -0.248 NA
ATOM     66  C   UNL A   1      44.149  29.042  26.870  1.00  0.00     0.031 C 
ATOM     67  C   UNL A   1      40.049  25.470  28.216  1.00  0.00     0.029 A 
ATOM     68  C   UNL A   1      40.740  26.454  27.512  1.00  0.00     0.049 A 
ATOM     69  H   UNL A   1      41.766  25.960  25.729  1.00  0.00     0.167 HD
ATOM     70  C   UNL A   1      41.936  28.605  27.311  1.00  0.00     0.074 A 
ATOM     71  C   UNL A   1      43.174  28.160  26.710  1.00  0.00     0.031 C 
ATOM     72  C   UNL A   1      40.811  27.893  27.602  1.00  0.00     0.037 A 
BRANCH  59  73
ATOM     73  C   UNL A   1      43.536  23.104  26.143  1.00  0.00     0.064 A 
ATOM     74  C   UNL A   1      43.298  21.758  26.450  1.00  0.00     0.173 A 
ATOM     75  C   UNL A   1      44.202  23.412  24.955  1.00  0.00     0.173 A 
ATOM     76  F   UNL A   1      42.671  21.434  27.593  1.00  0.00    -0.203 F 
ATOM     77  C   UNL A   1      43.742  20.746  25.610  1.00  0.00     0.198 A 
ATOM     78  C   UNL A   1      44.644  22.395  24.110  1.00  0.00     0.198 A 
ATOM     79  F   UNL A   1      44.457  24.689  24.631  1.00  0.00    -0.203 F 
ATOM     80  F   UNL A   1      43.535  19.465  25.943  1.00  0.00    -0.200 F 
ATOM     81  C   UNL A   1      44.424  21.064  24.445  1.00  0.00     0.200 A 
ATOM     82  F   UNL A   1      45.307  22.698  22.986  1.00  0.00    -0.200 F 
ATOM     83  F   UNL A   1      44.881  20.087  23.650  1.00  0.00    -0.200 F 
ENDBRANCH  59  73
BRANCH  60  84
ATOM     84  C   UNL A   1      45.616  31.608  28.102  1.00  0.00     0.064 A 
ATOM     85  C   UNL A   1      45.578  32.446  26.962  1.00  0.00     0.173 A 
ATOM     86  C   UNL A   1      46.860  31.499  28.735  1.00  0.00     0.173 A 
ATOM     87  F   UNL A   1      44.461  32.519  26.218  1.00  0.00    -0.203 F 
ATOM     88  C   UNL A   1      46.663  33.232  26.579  1.00  0.00     0.198 A 
ATOM     89  C   UNL A   1      47.942  32.307  28.369  1.00  0.00     0.198 A 
ATOM     90  F   UNL A   1      47.058  30.625  29.730  1.00  0.00    -0.203 F 
ATOM     91  F   UNL A   1      46.559  34.049  25.522  1.00  0.00    -0.200 F 
ATOM     92  C   UNL A   1      47.836  33.189  27.307  1.00  0.00     0.200 A 
ATOM     93  F   UNL A   1      49.080  32.247  29.072  1.00  0.00    -0.200 F 
ATOM     94  F   UNL A   1      48.862  33.988  26.986  1.00  0.00    -0.200 F 
ENDBRANCH  60  84
BRANCH  72  95
ATOM     95  C   UNL A   1      39.735  28.645  28.301  1.00  0.00     0.064 A 
ATOM     96  C   UNL A   1      38.837  29.429  27.566  1.00  0.00     0.173 A 
ATOM     97  C   UNL A   1      39.555  28.559  29.689  1.00  0.00     0.173 A 
ATOM     98  F   UNL A   1      38.967  29.537  26.234  1.00  0.00    -0.203 F 
ATOM     99  C   UNL A   1      37.780  30.079  28.194  1.00  0.00     0.198 A 
ATOM    100  C   UNL A   1      38.483  29.191  30.310  1.00  0.00     0.198 A 
ATOM    101  F   UNL A   1      40.399  27.840  30.448  1.00  0.00    -0.203 F 
ATOM    102  F   UNL A   1      36.924  30.815  27.471  1.00  0.00    -0.200 F 
ATOM    103  C   UNL A   1      37.595  29.948  29.562  1.00  0.00     0.200 A 
ATOM    104  F   UNL A   1      38.299  29.050  31.631  1.00  0.00    -0.200 F 
ATOM    105  F   UNL A   1      36.554  30.543  30.160  1.00  0.00    -0.200 F 
ENDBRANCH  72  95
ENDBRANCH  46  47
ENDBRANCH  38  41
ENDBRANCH  36  37
ENDBRANCH  35  36
ENDBRANCH  34  35
ENDBRANCH   3  34
TORSDOF 15
ENDMDL
MODEL 2
REMARK VINA RESULT:     -11.8      5.722     10.826
REMARK SMILES Cc1sc2nc3c(S[C@H](C)C(=O)NCCCNC(=O)c4ccc(-c5c6nc(c(-c7c(F)c(F)c(F)c(F)c7F)c7ccc([nH]7)c(-c7c(F)c(F)c(F)c(F)c7F)c7nc(c(-c8c(F)c(F)c(F)c(F)c8F)c8ccc5[nH]8)C=C7)C=C6)cc4)cc(C(=O)c4ccccc4O)cn3c(=O)c2c1C
REMARK SMILES IDX 11 1 12 2 13 3 9 5 10 6 8 7 7 8 1 9 2 10 3 11 99 12 4 13
REMARK SMILES IDX 98 14 100 15 5 16 96 17 6 18 95 19 97 20 94 21 83 22 84 23
REMARK SMILES IDX 85 24 86 25 87 26 88 27 92 28 89 29 91 30 90 31 93 32 14 34
REMARK SMILES IDX 15 35 16 36 17 37 18 38 19 40 20 41 21 42 82 43 22 44 81 45
REMARK SMILES IDX 23 46 24 47 25 48 75 49 26 50 80 51 74 52 76 53 27 54 79 55
REMARK SMILES IDX 73 56 72 57 28 59 60 60 40 61 59 62 41 63 44 64 58 65 77 66
REMARK SMILES IDX 42 67 43 68 57 70 78 71 45 72 29 73 30 74 38 75 31 76 32 77
REMARK SMILES IDX 36 78 39 79 33 80 34 81 37 82 35 83 61 84 62 85 70 86 63 87
REMARK SMILES IDX 64 88 68 89 71 90 65 91 66 92 69 93 67 94 46 95 47 96 55 97
REMARK SMILES IDX 48 98 49 99 53 100 56 101 50 102 51 103 54 104 52 105
REMARK H PARENT 13 4 93 33 17 39 76 58 44 69
REMARK Flexibility Score: inf
ROOT
ATOM      1  C   UNL A   1      34.201  29.317  26.315  1.00  0.00     0.233 C 
ATOM      2  O   UNL A   1      34.395  28.667  25.283  1.00  0.00    -0.274 OA
ATOM      3  N   UNL A   1      35.289  29.928  26.869  1.00  0.00    -0.355 N 
ATOM      4  H   UNL A   1      36.113  29.839  26.336  1.00  0.00     0.163 HD
ENDROOT
BRANCH   1   5
ATOM      5  C   UNL A   1      32.788  29.461  26.909  1.00  0.00     0.138 C 
ATOM      6  C   UNL A   1      31.861  30.208  25.957  1.00  0.00     0.030 C 
BRANCH   5   7
ATOM      7  S   UNL A   1      32.324  27.792  27.493  1.00  0.00    -0.109 SA
BRANCH   7   8
ATOM      8  C   UNL A   1      31.689  26.871  26.180  1.00  0.00     0.052 A 
ATOM      9  C   UNL A   1      36.076  20.783  25.600  1.00  0.00     0.057 C 
ATOM     10  C   UNL A   1      35.139  21.924  25.370  1.00  0.00     0.007 A 
ATOM     11  S   UNL A   1      35.333  23.337  26.312  1.00  0.00    -0.120 S 
ATOM     12  C   UNL A   1      34.081  22.027  24.475  1.00  0.00    -0.022 A 
ATOM     13  C   UNL A   1      33.967  24.070  25.617  1.00  0.00     0.131 A 
ATOM     14  C   UNL A   1      33.389  23.285  24.650  1.00  0.00     0.080 A 
ATOM     15  C   UNL A   1      33.709  20.946  23.509  1.00  0.00     0.046 C 
ATOM     16  N   UNL A   1      33.519  25.259  26.078  1.00  0.00    -0.218 NA
ATOM     17  C   UNL A   1      32.192  23.803  24.002  1.00  0.00     0.266 A 
ATOM     18  C   UNL A   1      32.382  25.664  25.598  1.00  0.00     0.155 A 
ATOM     19  N   UNL A   1      31.705  25.010  24.546  1.00  0.00    -0.266 N 
ATOM     20  O   UNL A   1      31.651  23.214  23.069  1.00  0.00    -0.268 OA
ATOM     21  C   UNL A   1      30.544  25.554  23.991  1.00  0.00     0.108 A 
ATOM     22  C   UNL A   1      30.550  27.302  25.619  1.00  0.00     0.032 A 
ATOM     23  C   UNL A   1      29.975  26.676  24.455  1.00  0.00     0.041 A 
BRANCH  23  24
ATOM     24  C   UNL A   1      28.727  27.156  23.771  1.00  0.00     0.198 C 
ATOM     25  O   UNL A   1      27.640  26.605  23.934  1.00  0.00    -0.288 OA
BRANCH  24  26
ATOM     26  C   UNL A   1      28.749  28.405  22.977  1.00  0.00     0.064 A 
ATOM     27  C   UNL A   1      29.933  28.911  22.424  1.00  0.00     0.016 A 
ATOM     28  C   UNL A   1      27.550  29.104  22.800  1.00  0.00     0.126 A 
ATOM     29  C   UNL A   1      29.923  30.153  21.782  1.00  0.00     0.001 A 
ATOM     30  C   UNL A   1      27.543  30.345  22.172  1.00  0.00     0.047 A 
ATOM     31  C   UNL A   1      28.733  30.875  21.673  1.00  0.00     0.004 A 
BRANCH  28  32
ATOM     32  O   UNL A   1      26.344  28.622  23.233  1.00  0.00    -0.507 OA
ATOM     33  H   UNL A   1      26.269  27.730  23.512  1.00  0.00     0.293 HD
ENDBRANCH  28  32
ENDBRANCH  24  26
ENDBRANCH  23  24
ENDBRANCH   7   8
ENDBRANCH   5   7
ENDBRANCH   1   5
BRANCH   3  34
ATOM     34  C   UNL A   1      35.457  30.684  28.102  1.00  0.00     0.117 C 
BRANCH  34  35
ATOM     35  C   UNL A   1      35.909  29.788  29.255  1.00  0.00     0.042 C 
BRANCH  35  36
ATOM     36  C   UNL A   1      36.791  30.529  30.258  1.00  0.00     0.118 C 
BRANCH  36  37
ATOM     37  N   UNL A   1      36.836  29.876  31.556  1.00  0.00    -0.352 N 
ATOM     38  C   UNL A   1      37.684  28.888  32.001  1.00  0.00     0.251 C 
ATOM     39  H   UNL A   1      36.164  30.183  32.207  1.00  0.00     0.163 HD
ATOM     40  O   UNL A   1      37.503  28.347  33.079  1.00  0.00    -0.269 OA
BRANCH  38  41
ATOM     41  C   UNL A   1      38.798  28.456  31.134  1.00  0.00     0.039 A 
ATOM     42  C   UNL A   1      40.057  29.051  31.249  1.00  0.00     0.014 A 
ATOM     43  C   UNL A   1      38.571  27.441  30.200  1.00  0.00     0.014 A 
ATOM     44  C   UNL A   1      41.061  28.714  30.352  1.00  0.00     0.010 A 
ATOM     45  C   UNL A   1      39.592  27.070  29.329  1.00  0.00     0.010 A 
ATOM     46  C   UNL A   1      40.829  27.724  29.392  1.00  0.00    -0.014 A 
BRANCH  46  47
ATOM     47  C   UNL A   1      41.969  27.341  28.555  1.00  0.00     0.031 A 
ATOM     48  C   UNL A   1      42.716  28.483  27.963  1.00  0.00     0.074 A 
ATOM     49  C   UNL A   1      42.634  26.184  28.731  1.00  0.00     0.049 A 
ATOM     50  N   UNL A   1      43.621  29.140  28.627  1.00  0.00    -0.248 NA
ATOM     51  C   UNL A   1      42.327  29.109  26.702  1.00  0.00     0.031 C 
ATOM     52  C   UNL A   1      42.776  25.498  30.020  1.00  0.00     0.029 A 
ATOM     53  N   UNL A   1      43.508  25.535  27.894  1.00  0.00    -0.354 N 
ATOM     54  C   UNL A   1      43.867  30.304  27.928  1.00  0.00     0.074 A 
ATOM     55  C   UNL A   1      43.066  30.229  26.725  1.00  0.00     0.031 C 
ATOM     56  C   UNL A   1      43.829  24.659  29.941  1.00  0.00     0.029 A 
ATOM     57  C   UNL A   1      44.312  24.623  28.565  1.00  0.00     0.049 A 
ATOM     58  H   UNL A   1      43.560  25.699  26.925  1.00  0.00     0.167 HD
ATOM     59  C   UNL A   1      44.689  31.278  28.392  1.00  0.00     0.037 A 
ATOM     60  C   UNL A   1      45.566  24.271  28.175  1.00  0.00     0.037 A 
ATOM     61  C   UNL A   1      45.313  31.026  29.655  1.00  0.00     0.049 A 
ATOM     62  C   UNL A   1      46.324  25.536  28.504  1.00  0.00     0.074 A 
ATOM     63  C   UNL A   1      45.020  31.270  30.980  1.00  0.00     0.029 A 
ATOM     64  N   UNL A   1      46.454  30.259  29.680  1.00  0.00    -0.354 N 
ATOM     65  N   UNL A   1      46.735  25.893  29.695  1.00  0.00    -0.248 NA
ATOM     66  C   UNL A   1      46.322  26.617  27.517  1.00  0.00     0.031 C 
ATOM     67  C   UNL A   1      45.731  30.273  31.720  1.00  0.00     0.029 A 
ATOM     68  C   UNL A   1      46.361  29.451  30.788  1.00  0.00     0.049 A 
ATOM     69  H   UNL A   1      47.193  30.283  29.030  1.00  0.00     0.167 HD
ATOM     70  C   UNL A   1      46.777  27.290  29.667  1.00  0.00     0.074 A 
ATOM     71  C   UNL A   1      46.563  27.668  28.287  1.00  0.00     0.031 C 
ATOM     72  C   UNL A   1      46.777  28.068  30.786  1.00  0.00     0.037 A 
BRANCH  59  73
ATOM     73  C   UNL A   1      45.038  32.491  27.638  1.00  0.00     0.064 A 
ATOM     74  C   UNL A   1      46.260  32.521  26.953  1.00  0.00     0.173 A 
ATOM     75  C   UNL A   1      44.291  33.667  27.727  1.00  0.00     0.173 A 
ATOM     76  F   UNL A   1      47.004  31.406  26.863  1.00  0.00    -0.203 F 
ATOM     77  C   UNL A   1      46.739  33.701  26.402  1.00  0.00     0.198 A 
ATOM     78  C   UNL A   1      44.772  34.851  27.170  1.00  0.00     0.198 A 
ATOM     79  F   UNL A   1      43.121  33.680  28.383  1.00  0.00    -0.203 F 
ATOM     80  F   UNL A   1      47.928  33.713  25.784  1.00  0.00    -0.200 F 
ATOM     81  C   UNL A   1      46.000  34.869  26.519  1.00  0.00     0.200 A 
ATOM     82  F   UNL A   1      44.063  35.982  27.285  1.00  0.00    -0.200 F 
ATOM     83  F   UNL A   1      46.477  36.015  26.015  1.00  0.00    -0.200 F 
ENDBRANCH  59  73
BRANCH  60  84
ATOM     84  C   UNL A   1      45.592  23.572  26.847  1.00  0.00     0.064 A 
ATOM     85  C   UNL A   1      44.554  22.651  26.566  1.00  0.00     0.173 A 
ATOM     86  C   UNL A   1      46.527  23.766  25.822  1.00  0.00     0.173 A 
ATOM     87  F   UNL A   1      43.681  22.308  27.527  1.00  0.00    -0.203 F 
ATOM     88  C   UNL A   1      44.381  22.087  25.303  1.00  0.00     0.198 A 
ATOM     89  C   UNL A   1      46.339  23.223  24.547  1.00  0.00     0.198 A 
ATOM     90  F   UNL A   1      47.631  24.497  26.020  1.00  0.00    -0.203 F 
ATOM     91  F   UNL A   1      43.352  21.261  25.073  1.00  0.00    -0.200 F 
ATOM     92  C   UNL A   1      45.256  22.403  24.281  1.00  0.00     0.200 A 
ATOM     93  F   UNL A   1      47.202  23.524  23.567  1.00  0.00    -0.200 F 
ATOM     94  F   UNL A   1      45.060  21.918  23.048  1.00  0.00    -0.200 F 
ENDBRANCH  60  84
BRANCH  72  95
ATOM     95  C   UNL A   1      46.950  27.345  32.074  1.00  0.00     0.064 A 
ATOM     96  C   UNL A   1      45.833  26.833  32.745  1.00  0.00     0.173 A 
ATOM     97  C   UNL A   1      48.218  27.115  32.627  1.00  0.00     0.173 A 
ATOM     98  F   UNL A   1      44.600  27.024  32.251  1.00  0.00    -0.203 F 
ATOM     99  C   UNL A   1      45.982  26.090  33.912  1.00  0.00     0.198 A 
ATOM    100  C   UNL A   1      48.365  26.351  33.781  1.00  0.00     0.198 A 
ATOM    101  F   UNL A   1      49.323  27.602  32.039  1.00  0.00    -0.203 F 
ATOM    102  F   UNL A   1      44.901  25.598  34.533  1.00  0.00    -0.200 F 
ATOM    103  C   UNL A   1      47.247  25.838  34.421  1.00  0.00     0.200 A 
ATOM    104  F   UNL A   1      49.590  26.097  34.262  1.00  0.00    -0.200 F 
ATOM    105  F   UNL A   1      47.392  25.090  35.523  1.00  0.00    -0.200 F 
ENDBRANCH  72  95
ENDBRANCH  46  47
ENDBRANCH  38  41
ENDBRANCH  36  37
ENDBRANCH  35  36
ENDBRANCH  34  35
ENDBRANCH   3  34
TORSDOF 15
ENDMDL
MODEL 3
REMARK VINA RESULT:     -11.6      6.378     11.930
REMARK SMILES Cc1sc2nc3c(S[C@H](C)C(=O)NCCCNC(=O)c4ccc(-c5c6nc(c(-c7c(F)c(F)c(F)c(F)c7F)c7ccc([nH]7)c(-c7c(F)c(F)c(F)c(F)c7F)c7nc(c(-c8c(F)c(F)c(F)c(F)c8F)c8ccc5[nH]8)C=C7)C=C6)cc4)cc(C(=O)c4ccccc4O)cn3c(=O)c2c1C
REMARK SMILES IDX 11 1 12 2 13 3 9 5 10 6 8 7 7 8 1 9 2 10 3 11 99 12 4 13
REMARK SMILES IDX 98 14 100 15 5 16 96 17 6 18 95 19 97 20 94 21 83 22 84 23
REMARK SMILES IDX 85 24 86 25 87 26 88 27 92 28 89 29 91 30 90 31 93 32 14 34
REMARK SMILES IDX 15 35 16 36 17 37 18 38 19 40 20 41 21 42 82 43 22 44 81 45
REMARK SMILES IDX 23 46 24 47 25 48 75 49 26 50 80 51 74 52 76 53 27 54 79 55
REMARK SMILES IDX 73 56 72 57 28 59 60 60 40 61 59 62 41 63 44 64 58 65 77 66
REMARK SMILES IDX 42 67 43 68 57 70 78 71 45 72 29 73 30 74 38 75 31 76 32 77
REMARK SMILES IDX 36 78 39 79 33 80 34 81 37 82 35 83 61 84 62 85 70 86 63 87
REMARK SMILES IDX 64 88 68 89 71 90 65 91 66 92 69 93 67 94 46 95 47 96 55 97
REMARK SMILES IDX 48 98 49 99 53 100 56 101 50 102 51 103 54 104 52 105
REMARK H PARENT 13 4 93 33 17 39 76 58 44 69
REMARK Flexibility Score: inf
ROOT
ATOM      1  C   UNL A   1      34.286  29.679  27.063  1.00  0.00     0.233 C 
ATOM      2  O   UNL A   1      35.328  29.041  27.251  1.00  0.00    -0.274 OA
ATOM      3  N   UNL A   1      34.241  30.944  27.575  1.00  0.00    -0.355 N 
ATOM      4  H   UNL A   1      35.085  31.240  27.986  1.00  0.00     0.163 HD
ENDROOT
BRANCH   1   5
ATOM      5  C   UNL A   1      33.125  29.080  26.249  1.00  0.00     0.138 C 
ATOM      6  C   UNL A   1      33.280  29.376  24.762  1.00  0.00     0.030 C 
BRANCH   5   7
ATOM      7  S   UNL A   1      32.968  27.347  26.811  1.00  0.00    -0.109 SA
BRANCH   7   8
ATOM      8  C   UNL A   1      31.978  26.465  25.709  1.00  0.00     0.052 A 
ATOM      9  C   UNL A   1      35.184  19.693  25.001  1.00  0.00     0.057 C 
ATOM     10  C   UNL A   1      34.412  20.960  24.819  1.00  0.00     0.007 A 
ATOM     11  S   UNL A   1      34.987  22.377  25.583  1.00  0.00    -0.120 S 
ATOM     12  C   UNL A   1      33.245  21.183  24.101  1.00  0.00    -0.022 A 
ATOM     13  C   UNL A   1      33.654  23.285  25.051  1.00  0.00     0.131 A 
ATOM     14  C   UNL A   1      32.801  22.549  24.267  1.00  0.00     0.080 A 
ATOM     15  C   UNL A   1      32.545  20.120  23.312  1.00  0.00     0.046 C 
ATOM     16  N   UNL A   1      33.485  24.561  25.465  1.00  0.00    -0.218 NA
ATOM     17  C   UNL A   1      31.606  23.221  23.774  1.00  0.00     0.266 A 
ATOM     18  C   UNL A   1      32.360  25.121  25.138  1.00  0.00     0.155 A 
ATOM     19  N   UNL A   1      31.416  24.526  24.275  1.00  0.00    -0.266 N 
ATOM     20  O   UNL A   1      30.825  22.673  22.999  1.00  0.00    -0.268 OA
ATOM     21  C   UNL A   1      30.277  25.222  23.864  1.00  0.00     0.108 A 
ATOM     22  C   UNL A   1      30.841  27.047  25.301  1.00  0.00     0.032 A 
ATOM     23  C   UNL A   1      29.981  26.453  24.308  1.00  0.00     0.041 A 
BRANCH  23  24
ATOM     24  C   UNL A   1      28.725  27.094  23.791  1.00  0.00     0.198 C 
ATOM     25  O   UNL A   1      27.608  26.679  24.096  1.00  0.00    -0.288 OA
BRANCH  24  26
ATOM     26  C   UNL A   1      28.799  28.342  22.999  1.00  0.00     0.064 A 
ATOM     27  C   UNL A   1      30.015  28.837  22.509  1.00  0.00     0.016 A 
ATOM     28  C   UNL A   1      27.616  29.050  22.758  1.00  0.00     0.126 A 
ATOM     29  C   UNL A   1      30.049  30.078  21.866  1.00  0.00     0.001 A 
ATOM     30  C   UNL A   1      27.653  30.290  22.129  1.00  0.00     0.047 A 
ATOM     31  C   UNL A   1      28.873  30.810  21.693  1.00  0.00     0.004 A 
BRANCH  28  32
ATOM     32  O   UNL A   1      26.386  28.578  23.126  1.00  0.00    -0.507 OA
ATOM     33  H   UNL A   1      26.255  27.659  23.253  1.00  0.00     0.293 HD
ENDBRANCH  28  32
ENDBRANCH  24  26
ENDBRANCH  23  24
ENDBRANCH   7   8
ENDBRANCH   5   7
ENDBRANCH   1   5
BRANCH   3  34
ATOM     34  C   UNL A   1      33.175  31.933  27.627  1.00  0.00     0.117 C 
BRANCH  34  35
ATOM     35  C   UNL A   1      33.707  33.317  27.999  1.00  0.00     0.042 C 
BRANCH  35  36
ATOM     36  C   UNL A   1      34.696  33.269  29.161  1.00  0.00     0.118 C 
BRANCH  36  37
ATOM     37  N   UNL A   1      34.071  33.544  30.443  1.00  0.00    -0.352 N 
ATOM     38  C   UNL A   1      34.482  33.178  31.705  1.00  0.00     0.251 C 
ATOM     39  H   UNL A   1      33.234  34.062  30.405  1.00  0.00     0.163 HD
ATOM     40  O   UNL A   1      33.770  33.370  32.676  1.00  0.00    -0.269 OA
BRANCH  38  41
ATOM     41  C   UNL A   1      35.787  32.506  31.866  1.00  0.00     0.039 A 
ATOM     42  C   UNL A   1      35.883  31.115  31.779  1.00  0.00     0.014 A 
ATOM     43  C   UNL A   1      36.923  33.286  32.103  1.00  0.00     0.014 A 
ATOM     44  C   UNL A   1      37.093  30.491  32.044  1.00  0.00     0.010 A 
ATOM     45  C   UNL A   1      38.148  32.663  32.324  1.00  0.00     0.010 A 
ATOM     46  C   UNL A   1      38.227  31.265  32.316  1.00  0.00    -0.014 A 
BRANCH  46  47
ATOM     47  C   UNL A   1      39.492  30.544  32.473  1.00  0.00     0.031 A 
ATOM     48  C   UNL A   1      40.560  30.950  31.521  1.00  0.00     0.074 A 
ATOM     49  C   UNL A   1      39.874  30.007  33.647  1.00  0.00     0.049 A 
ATOM     50  N   UNL A   1      41.309  31.995  31.720  1.00  0.00    -0.248 NA
ATOM     51  C   UNL A   1      40.688  30.368  30.187  1.00  0.00     0.031 C 
ATOM     52  C   UNL A   1      39.496  30.538  34.962  1.00  0.00     0.029 A 
ATOM     53  N   UNL A   1      40.847  29.076  33.914  1.00  0.00    -0.354 N 
ATOM     54  C   UNL A   1      41.943  32.268  30.526  1.00  0.00     0.074 A 
ATOM     55  C   UNL A   1      41.555  31.216  29.612  1.00  0.00     0.031 C 
ATOM     56  C   UNL A   1      40.371  30.070  35.876  1.00  0.00     0.029 A 
ATOM     57  C   UNL A   1      41.246  29.087  35.245  1.00  0.00     0.049 A 
ATOM     58  H   UNL A   1      41.223  28.469  33.237  1.00  0.00     0.167 HD
ATOM     59  C   UNL A   1      42.727  33.361  30.346  1.00  0.00     0.037 A 
ATOM     60  C   UNL A   1      42.484  28.734  35.680  1.00  0.00     0.037 A 
ATOM     61  C   UNL A   1      42.879  34.220  31.480  1.00  0.00     0.049 A 
ATOM     62  C   UNL A   1      43.297  29.908  35.185  1.00  0.00     0.074 A 
ATOM     63  C   UNL A   1      42.234  35.327  31.988  1.00  0.00     0.029 A 
ATOM     64  N   UNL A   1      43.817  33.889  32.431  1.00  0.00    -0.354 N 
ATOM     65  N   UNL A   1      43.370  31.082  35.757  1.00  0.00    -0.248 NA
ATOM     66  C   UNL A   1      43.775  29.879  33.801  1.00  0.00     0.031 C 
ATOM     67  C   UNL A   1      42.509  35.321  33.392  1.00  0.00     0.029 A 
ATOM     68  C   UNL A   1      43.255  34.174  33.652  1.00  0.00     0.049 A 
ATOM     69  H   UNL A   1      44.715  33.520  32.268  1.00  0.00     0.167 HD
ATOM     70  C   UNL A   1      43.644  31.981  34.721  1.00  0.00     0.074 A 
ATOM     71  C   UNL A   1      43.933  31.172  33.558  1.00  0.00     0.031 C 
ATOM     72  C   UNL A   1      43.422  33.323  34.808  1.00  0.00     0.037 A 
BRANCH  59  73
ATOM     73  C   UNL A   1      43.484  33.639  29.117  1.00  0.00     0.064 A 
ATOM     74  C   UNL A   1      42.967  34.577  28.213  1.00  0.00     0.173 A 
ATOM     75  C   UNL A   1      44.591  32.879  28.732  1.00  0.00     0.173 A 
ATOM     76  F   UNL A   1      41.896  35.312  28.553  1.00  0.00    -0.203 F 
ATOM     77  C   UNL A   1      43.520  34.728  26.949  1.00  0.00     0.198 A 
ATOM     78  C   UNL A   1      45.147  33.035  27.464  1.00  0.00     0.198 A 
ATOM     79  F   UNL A   1      45.108  31.964  29.566  1.00  0.00    -0.203 F 
ATOM     80  F   UNL A   1      42.984  35.606  26.089  1.00  0.00    -0.200 F 
ATOM     81  C   UNL A   1      44.603  33.950  26.570  1.00  0.00     0.200 A 
ATOM     82  F   UNL A   1      46.191  32.281  27.092  1.00  0.00    -0.200 F 
ATOM     83  F   UNL A   1      45.116  34.073  25.338  1.00  0.00    -0.200 F 
ENDBRANCH  59  73
BRANCH  60  84
ATOM     84  C   UNL A   1      42.807  27.292  35.420  1.00  0.00     0.064 A 
ATOM     85  C   UNL A   1      41.966  26.312  36.001  1.00  0.00     0.173 A 
ATOM     86  C   UNL A   1      43.846  26.803  34.618  1.00  0.00     0.173 A 
ATOM     87  F   UNL A   1      41.018  26.676  36.880  1.00  0.00    -0.203 F 
ATOM     88  C   UNL A   1      42.066  24.960  35.679  1.00  0.00     0.198 A 
ATOM     89  C   UNL A   1      43.931  25.450  34.273  1.00  0.00     0.198 A 
ATOM     90  F   UNL A   1      44.793  27.618  34.136  1.00  0.00    -0.203 F 
ATOM     91  F   UNL A   1      41.212  24.078  36.216  1.00  0.00    -0.200 F 
ATOM     92  C   UNL A   1      43.028  24.534  34.784  1.00  0.00     0.200 A 
ATOM     93  F   UNL A   1      44.877  25.045  33.415  1.00  0.00    -0.200 F 
ATOM     94  F   UNL A   1      43.090  23.247  34.418  1.00  0.00    -0.200 F 
ENDBRANCH  60  84
BRANCH  72  95
ATOM     95  C   UNL A   1      43.068  33.833  36.159  1.00  0.00     0.064 A 
ATOM     96  C   UNL A   1      44.073  34.286  37.022  1.00  0.00     0.173 A 
ATOM     97  C   UNL A   1      41.736  33.921  36.590  1.00  0.00     0.173 A 
ATOM     98  F   UNL A   1      45.362  34.226  36.651  1.00  0.00    -0.203 F 
ATOM     99  C   UNL A   1      43.755  34.835  38.261  1.00  0.00     0.198 A 
ATOM    100  C   UNL A   1      41.420  34.492  37.818  1.00  0.00     0.198 A 
ATOM    101  F   UNL A   1      40.733  33.481  35.813  1.00  0.00    -0.203 F 
ATOM    102  F   UNL A   1      44.730  35.274  39.068  1.00  0.00    -0.200 F 
ATOM    103  C   UNL A   1      42.429  34.950  38.651  1.00  0.00     0.200 A 
ATOM    104  F   UNL A   1      40.137  34.616  38.187  1.00  0.00    -0.200 F 
ATOM    105  F   UNL A   1      42.122  35.515  39.827  1.00  0.00    -0.200 F 
ENDBRANCH  72  95
ENDBRANCH  46  47
ENDBRANCH  38  41
ENDBRANCH  36  37
ENDBRANCH  35  36
ENDBRANCH  34  35
ENDBRANCH   3  34
TORSDOF 15
ENDMDL
