MODEL 1
REMARK VINA RESULT:     -13.6      0.000      0.000
REMARK SMILES CCC(=O)N1CCC[C@](C[C@H]2CC(c3ccc(C)cc3)=NO2)(C(=O)NCCCNC(=O)c2ccc(-c3c4nc(c(-c5c(F)c(F)c(F)c(F)c5F)c5ccc([nH]5)c(-c5c(F)c(F)c(F)c(F)c5F)c5nc(c(-c6c(F)c(F)c(F)c(F)c6F)c6ccc3[nH]6)C=C5)C=C4)cc2)C1
REMARK SMILES IDX 26 1 25 2 23 3 24 4 9 6 5 7 6 8 95 9 7 10 8 11 3 12 4 13
REMARK SMILES IDX 2 14 1 15 10 16 11 17 12 18 22 19 13 20 21 21 14 22 15 23
REMARK SMILES IDX 20 24 16 25 19 26 17 27 18 28 27 29 28 30 29 31 30 32 31 34
REMARK SMILES IDX 32 35 33 36 94 37 34 38 93 39 35 40 36 41 37 42 87 43 38 44
REMARK SMILES IDX 92 45 86 46 88 47 39 48 91 49 85 50 84 51 40 53 72 54 52 55
REMARK SMILES IDX 71 56 53 57 56 58 70 59 89 60 54 61 55 62 69 64 90 65 57 66
REMARK SMILES IDX 41 67 42 68 50 69 43 70 44 71 48 72 51 73 45 74 46 75 49 76
REMARK SMILES IDX 47 77 73 78 74 79 82 80 75 81 76 82 80 83 83 84 77 85 78 86
REMARK SMILES IDX 81 87 79 88 58 89 59 90 67 91 60 92 61 93 65 94 68 95 62 96
REMARK SMILES IDX 63 97 66 98 64 99
REMARK H PARENT 25 5 29 33 88 52 56 63
REMARK Flexibility Score: inf
ROOT
ATOM      1  C   UNL A   1      32.960  29.098  25.348  1.00  0.00     0.117 C 
ENDROOT
BRANCH   1   2
ATOM      2  N   UNL A   1      32.054  28.190  26.030  1.00  0.00    -0.355 N 
ATOM      3  C   UNL A   1      31.314  27.131  25.589  1.00  0.00     0.228 C 
ATOM      4  O   UNL A   1      30.543  26.641  26.419  1.00  0.00    -0.274 OA
ATOM      5  H   UNL A   1      31.956  28.373  26.993  1.00  0.00     0.163 HD
BRANCH   3   6
ATOM      6  C   UNL A   1      31.323  26.662  24.105  1.00  0.00     0.070 C 
ATOM      7  N   UNL A   1      29.831  28.567  23.367  1.00  0.00    -0.342 N 
ATOM      8  C   UNL A   1      28.661  27.700  23.250  1.00  0.00     0.119 C 
ATOM      9  C   UNL A   1      31.158  27.936  23.207  1.00  0.00     0.136 C 
ATOM     10  C   UNL A   1      28.796  26.428  24.066  1.00  0.00     0.023 C 
ATOM     11  C   UNL A   1      30.126  25.762  23.736  1.00  0.00     0.021 C 
BRANCH   7  12
ATOM     12  C   UNL A   1      29.593  29.921  23.543  1.00  0.00     0.222 C 
ATOM     13  O   UNL A   1      30.196  30.574  24.400  1.00  0.00    -0.275 OA
BRANCH  12  14
ATOM     14  C   UNL A   1      28.409  30.556  22.831  1.00  0.00     0.097 C 
ATOM     15  C   UNL A   1      27.550  31.528  23.610  1.00  0.00     0.014 C 
ENDBRANCH  12  14
ENDBRANCH   7  12
BRANCH   6  16
ATOM     16  C   UNL A   1      32.743  26.025  23.943  1.00  0.00     0.067 C 
BRANCH  16  17
ATOM     17  C   UNL A   1      32.982  24.515  23.869  1.00  0.00     0.211 C 
ATOM     18  C   UNL A   1      34.397  24.079  23.565  1.00  0.00     0.108 C 
ATOM     19  O   UNL A   1      32.582  23.853  25.067  1.00  0.00    -0.392 OA
ATOM     20  C   UNL A   1      34.705  23.402  24.846  1.00  0.00     0.091 C 
ATOM     21  N   UNL A   1      33.709  23.238  25.651  1.00  0.00    -0.090 NA
BRANCH  20  22
ATOM     22  C   UNL A   1      36.064  22.944  25.155  1.00  0.00    -0.001 A 
ATOM     23  C   UNL A   1      36.934  23.762  25.878  1.00  0.00     0.010 A 
ATOM     24  C   UNL A   1      36.449  21.661  24.770  1.00  0.00     0.010 A 
ATOM     25  C   UNL A   1      38.194  23.284  26.237  1.00  0.00     0.004 A 
ATOM     26  C   UNL A   1      37.720  21.197  25.107  1.00  0.00     0.004 A 
ATOM     27  C   UNL A   1      38.593  21.997  25.859  1.00  0.00    -0.051 A 
ATOM     28  C   UNL A   1      39.950  21.478  26.234  1.00  0.00     0.044 C 
ENDBRANCH  20  22
ENDBRANCH  16  17
ENDBRANCH   6  16
ENDBRANCH   3   6
ENDBRANCH   1   2
BRANCH   1  29
ATOM     29  C   UNL A   1      33.256  30.343  26.160  1.00  0.00     0.042 C 
BRANCH  29  30
ATOM     30  C   UNL A   1      33.450  30.060  27.636  1.00  0.00     0.118 C 
BRANCH  30  31
ATOM     31  N   UNL A   1      34.062  31.168  28.368  1.00  0.00    -0.352 N 
ATOM     32  C   UNL A   1      35.330  31.255  28.924  1.00  0.00     0.251 C 
ATOM     33  H   UNL A   1      33.495  31.965  28.483  1.00  0.00     0.163 HD
ATOM     34  O   UNL A   1      35.705  32.283  29.462  1.00  0.00    -0.269 OA
BRANCH  32  35
ATOM     35  C   UNL A   1      36.266  30.124  28.725  1.00  0.00     0.039 A 
ATOM     36  C   UNL A   1      36.635  29.371  29.844  1.00  0.00     0.014 A 
ATOM     37  C   UNL A   1      36.967  30.003  27.532  1.00  0.00     0.014 A 
ATOM     38  C   UNL A   1      37.865  28.720  29.839  1.00  0.00     0.010 A 
ATOM     39  C   UNL A   1      38.245  29.488  27.576  1.00  0.00     0.010 A 
ATOM     40  C   UNL A   1      38.721  28.899  28.752  1.00  0.00    -0.014 A 
BRANCH  40  41
ATOM     41  C   UNL A   1      40.149  28.602  28.799  1.00  0.00     0.031 A 
ATOM     42  C   UNL A   1      40.656  27.283  28.365  1.00  0.00     0.074 A 
ATOM     43  C   UNL A   1      41.031  29.555  29.182  1.00  0.00     0.049 A 
ATOM     44  N   UNL A   1      41.774  26.781  28.766  1.00  0.00    -0.248 NA
ATOM     45  C   UNL A   1      39.927  26.404  27.457  1.00  0.00     0.031 C 
ATOM     46  C   UNL A   1      42.487  29.504  29.069  1.00  0.00     0.029 A 
ATOM     47  N   UNL A   1      40.786  30.705  29.954  1.00  0.00    -0.354 N 
ATOM     48  C   UNL A   1      42.033  25.663  28.013  1.00  0.00     0.074 A 
ATOM     49  C   UNL A   1      40.836  25.449  27.233  1.00  0.00     0.031 C 
ATOM     50  C   UNL A   1      43.020  30.330  29.981  1.00  0.00     0.029 A 
ATOM     51  C   UNL A   1      41.928  30.849  30.783  1.00  0.00     0.049 A 
ATOM     52  H   UNL A   1      39.992  31.286  29.924  1.00  0.00     0.167 HD
ATOM     53  C   UNL A   1      43.270  25.093  28.059  1.00  0.00     0.037 A 
ATOM     54  C   UNL A   1      41.829  30.764  32.141  1.00  0.00     0.037 A 
ATOM     55  C   UNL A   1      44.154  25.779  28.995  1.00  0.00     0.049 A 
ATOM     56  C   UNL A   1      42.616  29.631  32.766  1.00  0.00     0.074 A 
ATOM     57  C   UNL A   1      45.172  26.711  28.873  1.00  0.00     0.029 A 
ATOM     58  N   UNL A   1      43.839  25.739  30.339  1.00  0.00    -0.354 N 
ATOM     59  N   UNL A   1      43.321  28.763  32.095  1.00  0.00    -0.248 NA
ATOM     60  C   UNL A   1      42.574  29.322  34.196  1.00  0.00     0.031 C 
ATOM     61  C   UNL A   1      45.480  27.208  30.172  1.00  0.00     0.029 A 
ATOM     62  C   UNL A   1      44.646  26.579  31.077  1.00  0.00     0.049 A 
ATOM     63  H   UNL A   1      43.126  25.180  30.722  1.00  0.00     0.167 HD
ATOM     64  C   UNL A   1      43.750  27.774  32.944  1.00  0.00     0.074 A 
ATOM     65  C   UNL A   1      43.264  28.172  34.250  1.00  0.00     0.031 C 
ATOM     66  C   UNL A   1      44.425  26.672  32.507  1.00  0.00     0.037 A 
BRANCH  53  67
ATOM     67  C   UNL A   1      43.730  24.024  27.104  1.00  0.00     0.064 A 
ATOM     68  C   UNL A   1      44.559  24.339  26.008  1.00  0.00     0.173 A 
ATOM     69  C   UNL A   1      43.361  22.670  27.203  1.00  0.00     0.173 A 
ATOM     70  F   UNL A   1      45.066  25.567  25.843  1.00  0.00    -0.203 F 
ATOM     71  C   UNL A   1      44.892  23.399  25.030  1.00  0.00     0.198 A 
ATOM     72  C   UNL A   1      43.641  21.745  26.193  1.00  0.00     0.198 A 
ATOM     73  F   UNL A   1      42.758  22.194  28.302  1.00  0.00    -0.203 F 
ATOM     74  F   UNL A   1      45.682  23.757  24.008  1.00  0.00    -0.200 F 
ATOM     75  C   UNL A   1      44.397  22.114  25.099  1.00  0.00     0.200 A 
ATOM     76  F   UNL A   1      43.169  20.494  26.288  1.00  0.00    -0.200 F 
ATOM     77  F   UNL A   1      44.669  21.229  24.131  1.00  0.00    -0.200 F 
ENDBRANCH  53  67
BRANCH  54  78
ATOM     78  C   UNL A   1      40.541  31.300  32.654  1.00  0.00     0.064 A 
ATOM     79  C   UNL A   1      40.350  32.696  32.650  1.00  0.00     0.173 A 
ATOM     80  C   UNL A   1      39.409  30.491  32.781  1.00  0.00     0.173 A 
ATOM     81  F   UNL A   1      41.406  33.516  32.530  1.00  0.00    -0.203 F 
ATOM     82  C   UNL A   1      39.073  33.251  32.643  1.00  0.00     0.198 A 
ATOM     83  C   UNL A   1      38.131  31.051  32.794  1.00  0.00     0.198 A 
ATOM     84  F   UNL A   1      39.524  29.155  32.768  1.00  0.00    -0.203 F 
ATOM     85  F   UNL A   1      38.918  34.576  32.515  1.00  0.00    -0.200 F 
ATOM     86  C   UNL A   1      37.963  32.424  32.687  1.00  0.00     0.200 A 
ATOM     87  F   UNL A   1      37.055  30.251  32.809  1.00  0.00    -0.200 F 
ATOM     88  F   UNL A   1      36.734  32.947  32.582  1.00  0.00    -0.200 F 
ENDBRANCH  54  78
BRANCH  66  89
ATOM     89  C   UNL A   1      44.913  25.571  33.405  1.00  0.00     0.064 A 
ATOM     90  C   UNL A   1      44.043  24.793  34.181  1.00  0.00     0.173 A 
ATOM     91  C   UNL A   1      46.294  25.350  33.609  1.00  0.00     0.173 A 
ATOM     92  F   UNL A   1      42.716  24.968  34.108  1.00  0.00    -0.203 F 
ATOM     93  C   UNL A   1      44.521  23.827  35.072  1.00  0.00     0.198 A 
ATOM     94  C   UNL A   1      46.768  24.425  34.536  1.00  0.00     0.198 A 
ATOM     95  F   UNL A   1      47.222  26.004  32.898  1.00  0.00    -0.203 F 
ATOM     96  F   UNL A   1      43.654  23.069  35.757  1.00  0.00    -0.200 F 
ATOM     97  C   UNL A   1      45.881  23.654  35.259  1.00  0.00     0.200 A 
ATOM     98  F   UNL A   1      48.089  24.284  34.718  1.00  0.00    -0.200 F 
ATOM     99  F   UNL A   1      46.337  22.744  36.129  1.00  0.00    -0.200 F 
ENDBRANCH  66  89
ENDBRANCH  40  41
ENDBRANCH  32  35
ENDBRANCH  30  31
ENDBRANCH  29  30
ENDBRANCH   1  29
TORSDOF 15
ENDMDL
MODEL 2
REMARK VINA RESULT:     -13.6      1.518      2.356
REMARK SMILES CCC(=O)N1CCC[C@](C[C@H]2CC(c3ccc(C)cc3)=NO2)(C(=O)NCCCNC(=O)c2ccc(-c3c4nc(c(-c5c(F)c(F)c(F)c(F)c5F)c5ccc([nH]5)c(-c5c(F)c(F)c(F)c(F)c5F)c5nc(c(-c6c(F)c(F)c(F)c(F)c6F)c6ccc3[nH]6)C=C5)C=C4)cc2)C1
REMARK SMILES IDX 26 1 25 2 23 3 24 4 9 6 5 7 6 8 95 9 7 10 8 11 3 12 4 13
REMARK SMILES IDX 2 14 1 15 10 16 11 17 12 18 22 19 13 20 21 21 14 22 15 23
REMARK SMILES IDX 20 24 16 25 19 26 17 27 18 28 27 29 28 30 29 31 30 32 31 34
REMARK SMILES IDX 32 35 33 36 94 37 34 38 93 39 35 40 36 41 37 42 87 43 38 44
REMARK SMILES IDX 92 45 86 46 88 47 39 48 91 49 85 50 84 51 40 53 72 54 52 55
REMARK SMILES IDX 71 56 53 57 56 58 70 59 89 60 54 61 55 62 69 64 90 65 57 66
REMARK SMILES IDX 41 67 42 68 50 69 43 70 44 71 48 72 51 73 45 74 46 75 49 76
REMARK SMILES IDX 47 77 73 78 74 79 82 80 75 81 76 82 80 83 83 84 77 85 78 86
REMARK SMILES IDX 81 87 79 88 58 89 59 90 67 91 60 92 61 93 65 94 68 95 62 96
REMARK SMILES IDX 63 97 66 98 64 99
REMARK H PARENT 25 5 29 33 88 52 56 63
REMARK Flexibility Score: inf
ROOT
ATOM      1  C   UNL A   1      32.608  28.361  26.773  1.00  0.00     0.117 C 
ENDROOT
BRANCH   1   2
ATOM      2  N   UNL A   1      31.705  29.352  26.212  1.00  0.00    -0.355 N 
ATOM      3  C   UNL A   1      31.184  29.511  24.960  1.00  0.00     0.228 C 
ATOM      4  O   UNL A   1      30.534  30.545  24.784  1.00  0.00    -0.274 OA
ATOM      5  H   UNL A   1      31.413  30.036  26.856  1.00  0.00     0.163 HD
BRANCH   3   6
ATOM      6  C   UNL A   1      31.507  28.539  23.788  1.00  0.00     0.070 C 
ATOM      7  N   UNL A   1      29.106  28.512  22.989  1.00  0.00    -0.342 N 
ATOM      8  C   UNL A   1      28.862  27.182  23.540  1.00  0.00     0.119 C 
ATOM      9  C   UNL A   1      30.500  28.848  22.627  1.00  0.00     0.136 C 
ATOM     10  C   UNL A   1      29.845  26.818  24.637  1.00  0.00     0.023 C 
ATOM     11  C   UNL A   1      31.264  27.056  24.134  1.00  0.00     0.021 C 
BRANCH   7  12
ATOM     12  C   UNL A   1      27.998  29.318  22.781  1.00  0.00     0.222 C 
ATOM     13  O   UNL A   1      26.900  29.041  23.272  1.00  0.00    -0.275 OA
BRANCH  12  14
ATOM     14  C   UNL A   1      28.082  30.429  21.746  1.00  0.00     0.097 C 
ATOM     15  C   UNL A   1      27.974  31.859  22.227  1.00  0.00     0.014 C 
ENDBRANCH  12  14
ENDBRANCH   7  12
BRANCH   6  16
ATOM     16  C   UNL A   1      32.971  28.927  23.397  1.00  0.00     0.067 C 
BRANCH  16  17
ATOM     17  C   UNL A   1      34.029  27.902  22.981  1.00  0.00     0.211 C 
ATOM     18  C   UNL A   1      34.078  26.628  23.795  1.00  0.00     0.108 C 
ATOM     19  O   UNL A   1      33.896  27.526  21.612  1.00  0.00    -0.392 OA
ATOM     20  C   UNL A   1      33.679  25.669  22.738  1.00  0.00     0.091 C 
ATOM     21  N   UNL A   1      33.621  26.144  21.538  1.00  0.00    -0.090 NA
BRANCH  20  22
ATOM     22  C   UNL A   1      33.386  24.268  23.057  1.00  0.00    -0.001 A 
ATOM     23  C   UNL A   1      34.378  23.448  23.598  1.00  0.00     0.010 A 
ATOM     24  C   UNL A   1      32.091  23.789  22.868  1.00  0.00     0.010 A 
ATOM     25  C   UNL A   1      34.065  22.142  23.974  1.00  0.00     0.004 A 
ATOM     26  C   UNL A   1      31.790  22.473  23.220  1.00  0.00     0.004 A 
ATOM     27  C   UNL A   1      32.768  21.647  23.793  1.00  0.00    -0.051 A 
ATOM     28  C   UNL A   1      32.426  20.241  24.187  1.00  0.00     0.044 C 
ENDBRANCH  20  22
ENDBRANCH  16  17
ENDBRANCH   6  16
ENDBRANCH   3   6
ENDBRANCH   1   2
BRANCH   1  29
ATOM     29  C   UNL A   1      33.671  28.980  27.658  1.00  0.00     0.042 C 
BRANCH  29  30
ATOM     30  C   UNL A   1      34.044  30.390  27.246  1.00  0.00     0.118 C 
BRANCH  30  31
ATOM     31  N   UNL A   1      34.558  31.204  28.346  1.00  0.00    -0.352 N 
ATOM     32  C   UNL A   1      35.709  31.031  29.101  1.00  0.00     0.251 C 
ATOM     33  H   UNL A   1      34.010  31.987  28.586  1.00  0.00     0.163 HD
ATOM     34  O   UNL A   1      36.021  31.841  29.957  1.00  0.00    -0.269 OA
BRANCH  32  35
ATOM     35  C   UNL A   1      36.622  29.918  28.748  1.00  0.00     0.039 A 
ATOM     36  C   UNL A   1      37.018  29.045  29.766  1.00  0.00     0.014 A 
ATOM     37  C   UNL A   1      37.280  29.920  27.525  1.00  0.00     0.014 A 
ATOM     38  C   UNL A   1      38.238  28.385  29.648  1.00  0.00     0.010 A 
ATOM     39  C   UNL A   1      38.552  29.391  27.469  1.00  0.00     0.010 A 
ATOM     40  C   UNL A   1      39.059  28.673  28.557  1.00  0.00    -0.014 A 
BRANCH  40  41
ATOM     41  C   UNL A   1      40.483  28.357  28.521  1.00  0.00     0.031 A 
ATOM     42  C   UNL A   1      40.950  27.049  28.017  1.00  0.00     0.074 A 
ATOM     43  C   UNL A   1      41.396  29.286  28.891  1.00  0.00     0.049 A 
ATOM     44  N   UNL A   1      42.081  26.520  28.343  1.00  0.00    -0.248 NA
ATOM     45  C   UNL A   1      40.165  26.211  27.118  1.00  0.00     0.031 C 
ATOM     46  C   UNL A   1      42.844  29.222  28.703  1.00  0.00     0.029 A 
ATOM     47  N   UNL A   1      41.205  30.411  29.713  1.00  0.00    -0.354 N 
ATOM     48  C   UNL A   1      42.286  25.427  27.540  1.00  0.00     0.074 A 
ATOM     49  C   UNL A   1      41.048  25.254  26.815  1.00  0.00     0.031 C 
ATOM     50  C   UNL A   1      43.432  30.010  29.615  1.00  0.00     0.029 A 
ATOM     51  C   UNL A   1      42.389  30.513  30.488  1.00  0.00     0.049 A 
ATOM     52  H   UNL A   1      40.418  31.003  29.744  1.00  0.00     0.167 HD
ATOM     53  C   UNL A   1      43.516  24.841  27.504  1.00  0.00     0.037 A 
ATOM     54  C   UNL A   1      42.357  30.382  31.846  1.00  0.00     0.037 A 
ATOM     55  C   UNL A   1      44.455  25.484  28.417  1.00  0.00     0.049 A 
ATOM     56  C   UNL A   1      43.160  29.219  32.390  1.00  0.00     0.074 A 
ATOM     57  C   UNL A   1      45.478  26.408  28.275  1.00  0.00     0.029 A 
ATOM     58  N   UNL A   1      44.207  25.401  29.773  1.00  0.00    -0.354 N 
ATOM     59  N   UNL A   1      43.819  28.366  31.656  1.00  0.00    -0.248 NA
ATOM     60  C   UNL A   1      43.185  28.861  33.810  1.00  0.00     0.031 C 
ATOM     61  C   UNL A   1      45.857  26.855  29.574  1.00  0.00     0.029 A 
ATOM     62  C   UNL A   1      45.062  26.205  30.497  1.00  0.00     0.049 A 
ATOM     63  H   UNL A   1      43.507  24.837  30.173  1.00  0.00     0.167 HD
ATOM     64  C   UNL A   1      44.276  27.344  32.447  1.00  0.00     0.074 A 
ATOM     65  C   UNL A   1      43.862  27.702  33.789  1.00  0.00     0.031 C 
ATOM     66  C   UNL A   1      44.914  26.251  31.939  1.00  0.00     0.037 A 
BRANCH  53  67
ATOM     67  C   UNL A   1      43.913  23.800  26.491  1.00  0.00     0.064 A 
ATOM     68  C   UNL A   1      43.409  22.486  26.566  1.00  0.00     0.173 A 
ATOM     69  C   UNL A   1      44.812  24.035  25.434  1.00  0.00     0.173 A 
ATOM     70  F   UNL A   1      42.473  22.144  27.460  1.00  0.00    -0.203 F 
ATOM     71  C   UNL A   1      43.860  21.465  25.727  1.00  0.00     0.198 A 
ATOM     72  C   UNL A   1      45.310  23.001  24.636  1.00  0.00     0.198 A 
ATOM     73  F   UNL A   1      45.199  25.279  25.117  1.00  0.00    -0.203 F 
ATOM     74  F   UNL A   1      43.346  20.232  25.846  1.00  0.00    -0.200 F 
ATOM     75  C   UNL A   1      44.841  21.713  24.790  1.00  0.00     0.200 A 
ATOM     76  F   UNL A   1      46.249  23.266  23.716  1.00  0.00    -0.200 F 
ATOM     77  F   UNL A   1      45.314  20.721  24.024  1.00  0.00    -0.200 F 
ENDBRANCH  53  67
BRANCH  54  78
ATOM     78  C   UNL A   1      41.105  30.914  32.441  1.00  0.00     0.064 A 
ATOM     79  C   UNL A   1      40.953  32.312  32.538  1.00  0.00     0.173 A 
ATOM     80  C   UNL A   1      39.955  30.128  32.557  1.00  0.00     0.173 A 
ATOM     81  F   UNL A   1      42.026  33.112  32.434  1.00  0.00    -0.203 F 
ATOM     82  C   UNL A   1      39.692  32.899  32.616  1.00  0.00     0.198 A 
ATOM     83  C   UNL A   1      38.695  30.718  32.655  1.00  0.00     0.198 A 
ATOM     84  F   UNL A   1      40.032  28.793  32.449  1.00  0.00    -0.203 F 
ATOM     85  F   UNL A   1      39.570  34.233  32.583  1.00  0.00    -0.200 F 
ATOM     86  C   UNL A   1      38.561  32.100  32.646  1.00  0.00     0.200 A 
ATOM     87  F   UNL A   1      37.598  29.947  32.657  1.00  0.00    -0.200 F 
ATOM     88  F   UNL A   1      37.344  32.659  32.623  1.00  0.00    -0.200 F 
ENDBRANCH  54  78
BRANCH  66  89
ATOM     89  C   UNL A   1      45.432  25.113  32.773  1.00  0.00     0.064 A 
ATOM     90  C   UNL A   1      44.643  24.002  33.102  1.00  0.00     0.173 A 
ATOM     91  C   UNL A   1      46.708  25.169  33.377  1.00  0.00     0.173 A 
ATOM     92  F   UNL A   1      43.393  23.885  32.631  1.00  0.00    -0.203 F 
ATOM     93  C   UNL A   1      45.115  22.992  33.945  1.00  0.00     0.198 A 
ATOM     94  C   UNL A   1      47.155  24.189  34.260  1.00  0.00     0.198 A 
ATOM     95  F   UNL A   1      47.569  26.161  33.109  1.00  0.00    -0.203 F 
ATOM     96  F   UNL A   1      44.348  21.922  34.194  1.00  0.00    -0.200 F 
ATOM     97  C   UNL A   1      46.363  23.093  34.534  1.00  0.00     0.200 A 
ATOM     98  F   UNL A   1      48.360  24.312  34.836  1.00  0.00    -0.200 F 
ATOM     99  F   UNL A   1      46.804  22.135  35.360  1.00  0.00    -0.200 F 
ENDBRANCH  66  89
ENDBRANCH  40  41
ENDBRANCH  32  35
ENDBRANCH  30  31
ENDBRANCH  29  30
ENDBRANCH   1  29
TORSDOF 15
ENDMDL
MODEL 3
REMARK VINA RESULT:     -13.6      3.325      9.857
REMARK SMILES CCC(=O)N1CCC[C@](C[C@H]2CC(c3ccc(C)cc3)=NO2)(C(=O)NCCCNC(=O)c2ccc(-c3c4nc(c(-c5c(F)c(F)c(F)c(F)c5F)c5ccc([nH]5)c(-c5c(F)c(F)c(F)c(F)c5F)c5nc(c(-c6c(F)c(F)c(F)c(F)c6F)c6ccc3[nH]6)C=C5)C=C4)cc2)C1
REMARK SMILES IDX 26 1 25 2 23 3 24 4 9 6 5 7 6 8 95 9 7 10 8 11 3 12 4 13
REMARK SMILES IDX 2 14 1 15 10 16 11 17 12 18 22 19 13 20 21 21 14 22 15 23
REMARK SMILES IDX 20 24 16 25 19 26 17 27 18 28 27 29 28 30 29 31 30 32 31 34
REMARK SMILES IDX 32 35 33 36 94 37 34 38 93 39 35 40 36 41 37 42 87 43 38 44
REMARK SMILES IDX 92 45 86 46 88 47 39 48 91 49 85 50 84 51 40 53 72 54 52 55
REMARK SMILES IDX 71 56 53 57 56 58 70 59 89 60 54 61 55 62 69 64 90 65 57 66
REMARK SMILES IDX 41 67 42 68 50 69 43 70 44 71 48 72 51 73 45 74 46 75 49 76
REMARK SMILES IDX 47 77 73 78 74 79 82 80 75 81 76 82 80 83 83 84 77 85 78 86
REMARK SMILES IDX 81 87 79 88 58 89 59 90 67 91 60 92 61 93 65 94 68 95 62 96
REMARK SMILES IDX 63 97 66 98 64 99
REMARK H PARENT 25 5 29 33 88 52 56 63
REMARK Flexibility Score: inf
ROOT
ATOM      1  C   UNL A   1      36.603  22.797  24.117  1.00  0.00     0.117 C 
ENDROOT
BRANCH   1   2
ATOM      2  N   UNL A   1      36.396  21.374  24.330  1.00  0.00    -0.355 N 
ATOM      3  C   UNL A   1      35.356  20.670  24.866  1.00  0.00     0.228 C 
ATOM      4  O   UNL A   1      35.555  19.461  25.012  1.00  0.00    -0.274 OA
ATOM      5  H   UNL A   1      37.147  20.813  24.030  1.00  0.00     0.163 HD
BRANCH   3   6
ATOM      6  C   UNL A   1      34.064  21.357  25.397  1.00  0.00     0.070 C 
ATOM      7  N   UNL A   1      32.560  19.627  24.328  1.00  0.00    -0.342 N 
ATOM      8  C   UNL A   1      32.160  20.533  23.254  1.00  0.00     0.119 C 
ATOM      9  C   UNL A   1      32.986  20.238  25.604  1.00  0.00     0.136 C 
ATOM     10  C   UNL A   1      33.151  21.663  23.048  1.00  0.00     0.023 C 
ATOM     11  C   UNL A   1      33.428  22.334  24.388  1.00  0.00     0.021 C 
BRANCH   7  12
ATOM     12  C   UNL A   1      32.432  18.269  24.082  1.00  0.00     0.222 C 
ATOM     13  O   UNL A   1      31.846  17.524  24.874  1.00  0.00    -0.275 OA
BRANCH  12  14
ATOM     14  C   UNL A   1      33.225  17.652  22.940  1.00  0.00     0.097 C 
ATOM     15  C   UNL A   1      34.219  16.561  23.274  1.00  0.00     0.014 C 
ENDBRANCH  12  14
ENDBRANCH   7  12
BRANCH   6  16
ATOM     16  C   UNL A   1      34.524  21.972  26.760  1.00  0.00     0.067 C 
BRANCH  16  17
ATOM     17  C   UNL A   1      33.813  23.149  27.432  1.00  0.00     0.211 C 
ATOM     18  C   UNL A   1      33.637  24.391  26.589  1.00  0.00     0.108 C 
ATOM     19  O   UNL A   1      32.524  22.782  27.922  1.00  0.00    -0.392 OA
ATOM     20  C   UNL A   1      32.158  24.398  26.501  1.00  0.00     0.091 C 
ATOM     21  N   UNL A   1      31.544  23.551  27.259  1.00  0.00    -0.090 NA
BRANCH  20  22
ATOM     22  C   UNL A   1      31.455  25.326  25.610  1.00  0.00    -0.001 A 
ATOM     23  C   UNL A   1      30.605  24.838  24.616  1.00  0.00     0.010 A 
ATOM     24  C   UNL A   1      31.602  26.697  25.810  1.00  0.00     0.010 A 
ATOM     25  C   UNL A   1      29.878  25.731  23.829  1.00  0.00     0.004 A 
ATOM     26  C   UNL A   1      30.895  27.588  25.002  1.00  0.00     0.004 A 
ATOM     27  C   UNL A   1      30.014  27.111  24.020  1.00  0.00    -0.051 A 
ATOM     28  C   UNL A   1      29.242  28.079  23.173  1.00  0.00     0.044 C 
ENDBRANCH  20  22
ENDBRANCH  16  17
ENDBRANCH   6  16
ENDBRANCH   3   6
ENDBRANCH   1   2
BRANCH   1  29
ATOM     29  C   UNL A   1      37.695  23.364  25.002  1.00  0.00     0.042 C 
BRANCH  29  30
ATOM     30  C   UNL A   1      38.280  22.342  25.956  1.00  0.00     0.118 C 
BRANCH  30  31
ATOM     31  N   UNL A   1      39.742  22.355  26.002  1.00  0.00    -0.352 N 
ATOM     32  C   UNL A   1      40.598  23.392  26.342  1.00  0.00     0.251 C 
ATOM     33  H   UNL A   1      40.180  21.508  25.756  1.00  0.00     0.163 HD
ATOM     34  O   UNL A   1      41.805  23.216  26.379  1.00  0.00    -0.269 OA
BRANCH  32  35
ATOM     35  C   UNL A   1      40.008  24.673  26.795  1.00  0.00     0.039 A 
ATOM     36  C   UNL A   1      40.472  25.854  26.208  1.00  0.00     0.014 A 
ATOM     37  C   UNL A   1      39.242  24.715  27.953  1.00  0.00     0.014 A 
ATOM     38  C   UNL A   1      40.401  27.038  26.936  1.00  0.00     0.010 A 
ATOM     39  C   UNL A   1      39.305  25.848  28.736  1.00  0.00     0.010 A 
ATOM     40  C   UNL A   1      39.941  26.996  28.253  1.00  0.00    -0.014 A 
BRANCH  40  41
ATOM     41  C   UNL A   1      40.180  28.062  29.219  1.00  0.00     0.031 A 
ATOM     42  C   UNL A   1      39.218  29.175  29.364  1.00  0.00     0.074 A 
ATOM     43  C   UNL A   1      41.256  28.010  30.039  1.00  0.00     0.049 A 
ATOM     44  N   UNL A   1      39.533  30.335  29.833  1.00  0.00    -0.248 NA
ATOM     45  C   UNL A   1      37.818  29.079  28.967  1.00  0.00     0.031 C 
ATOM     46  C   UNL A   1      41.522  28.856  31.201  1.00  0.00     0.029 A 
ATOM     47  N   UNL A   1      42.452  27.292  29.857  1.00  0.00    -0.354 N 
ATOM     48  C   UNL A   1      38.374  31.043  30.027  1.00  0.00     0.074 A 
ATOM     49  C   UNL A   1      37.332  30.231  29.441  1.00  0.00     0.031 C 
ATOM     50  C   UNL A   1      42.843  28.878  31.426  1.00  0.00     0.029 A 
ATOM     51  C   UNL A   1      43.477  28.140  30.350  1.00  0.00     0.049 A 
ATOM     52  H   UNL A   1      42.556  26.392  29.470  1.00  0.00     0.167 HD
ATOM     53  C   UNL A   1      38.405  32.199  30.750  1.00  0.00     0.037 A 
ATOM     54  C   UNL A   1      44.454  28.618  29.526  1.00  0.00     0.037 A 
ATOM     55  C   UNL A   1      39.757  32.536  31.183  1.00  0.00     0.049 A 
ATOM     56  C   UNL A   1      44.491  30.127  29.395  1.00  0.00     0.074 A 
ATOM     57  C   UNL A   1      40.466  32.402  32.366  1.00  0.00     0.029 A 
ATOM     58  N   UNL A   1      40.692  32.850  30.217  1.00  0.00    -0.354 N 
ATOM     59  N   UNL A   1      43.657  30.941  29.979  1.00  0.00    -0.248 NA
ATOM     60  C   UNL A   1      45.411  30.828  28.496  1.00  0.00     0.031 C 
ATOM     61  C   UNL A   1      41.839  32.670  32.096  1.00  0.00     0.029 A 
ATOM     62  C   UNL A   1      41.959  32.961  30.751  1.00  0.00     0.049 A 
ATOM     63  H   UNL A   1      40.481  32.979  29.265  1.00  0.00     0.167 HD
ATOM     64  C   UNL A   1      43.858  32.213  29.505  1.00  0.00     0.074 A 
ATOM     65  C   UNL A   1      44.971  32.093  28.585  1.00  0.00     0.031 C 
ATOM     66  C   UNL A   1      43.062  33.262  29.859  1.00  0.00     0.037 A 
BRANCH  53  67
ATOM     67  C   UNL A   1      37.170  32.919  31.223  1.00  0.00     0.064 A 
ATOM     68  C   UNL A   1      36.711  32.774  32.548  1.00  0.00     0.173 A 
ATOM     69  C   UNL A   1      36.380  33.746  30.404  1.00  0.00     0.173 A 
ATOM     70  F   UNL A   1      37.413  32.096  33.464  1.00  0.00    -0.203 F 
ATOM     71  C   UNL A   1      35.499  33.317  32.980  1.00  0.00     0.198 A 
ATOM     72  C   UNL A   1      35.139  34.236  30.817  1.00  0.00     0.198 A 
ATOM     73  F   UNL A   1      36.810  34.140  29.197  1.00  0.00    -0.203 F 
ATOM     74  F   UNL A   1      35.111  33.145  34.252  1.00  0.00    -0.200 F 
ATOM     75  C   UNL A   1      34.692  34.012  32.103  1.00  0.00     0.200 A 
ATOM     76  F   UNL A   1      34.377  34.928  29.957  1.00  0.00    -0.200 F 
ATOM     77  F   UNL A   1      33.504  34.483  32.502  1.00  0.00    -0.200 F 
ENDBRANCH  53  67
BRANCH  54  78
ATOM     78  C   UNL A   1      44.822  27.654  28.458  1.00  0.00     0.064 A 
ATOM     79  C   UNL A   1      45.601  26.533  28.809  1.00  0.00     0.173 A 
ATOM     80  C   UNL A   1      44.137  27.612  27.240  1.00  0.00     0.173 A 
ATOM     81  F   UNL A   1      46.278  26.525  29.968  1.00  0.00    -0.203 F 
ATOM     82  C   UNL A   1      45.589  25.375  28.037  1.00  0.00     0.198 A 
ATOM     83  C   UNL A   1      44.143  26.455  26.459  1.00  0.00     0.198 A 
ATOM     84  F   UNL A   1      43.360  28.638  26.862  1.00  0.00    -0.203 F 
ATOM     85  F   UNL A   1      46.241  24.282  28.458  1.00  0.00    -0.200 F 
ATOM     86  C   UNL A   1      44.836  25.328  26.876  1.00  0.00     0.200 A 
ATOM     87  F   UNL A   1      43.394  26.399  25.349  1.00  0.00    -0.200 F 
ATOM     88  F   UNL A   1      44.744  24.185  26.183  1.00  0.00    -0.200 F 
ENDBRANCH  54  78
BRANCH  66  89
ATOM     89  C   UNL A   1      43.252  34.669  29.365  1.00  0.00     0.064 A 
ATOM     90  C   UNL A   1      43.488  35.744  30.234  1.00  0.00     0.173 A 
ATOM     91  C   UNL A   1      43.073  34.998  28.003  1.00  0.00     0.173 A 
ATOM     92  F   UNL A   1      43.610  35.546  31.554  1.00  0.00    -0.203 F 
ATOM     93  C   UNL A   1      43.581  37.058  29.764  1.00  0.00     0.198 A 
ATOM     94  C   UNL A   1      43.113  36.313  27.546  1.00  0.00     0.198 A 
ATOM     95  F   UNL A   1      42.881  34.053  27.072  1.00  0.00    -0.203 F 
ATOM     96  F   UNL A   1      43.859  38.051  30.620  1.00  0.00    -0.200 F 
ATOM     97  C   UNL A   1      43.380  37.342  28.425  1.00  0.00     0.200 A 
ATOM     98  F   UNL A   1      42.897  36.572  26.248  1.00  0.00    -0.200 F 
ATOM     99  F   UNL A   1      43.448  38.604  27.981  1.00  0.00    -0.200 F 
ENDBRANCH  66  89
ENDBRANCH  40  41
ENDBRANCH  32  35
ENDBRANCH  30  31
ENDBRANCH  29  30
ENDBRANCH   1  29
TORSDOF 15
ENDMDL
