MODEL 1
REMARK VINA RESULT:     -13.4      0.000      0.000
REMARK SMILES CN1C(=O)C[C@@H](C(=O)NCCCNC(=O)c2ccc(-c3c4nc(c(-c5c(F)c(F)c(F)c(F)c5F)c5ccc([nH]5)c(-c5c(F)c(F)c(F)c(F)c5F)c5nc(c(-c6c(F)c(F)c(F)c(F)c6F)c6ccc3[nH]6)C=C5)C=C4)cc2)C12CCN(c1ccc(Cl)cn1)CC2
REMARK SMILES IDX 11 1 10 2 9 3 7 4 8 5 6 7 1 8 2 9 3 10 79 11 4 12 5 13 80 14
REMARK SMILES IDX 91 15 81 16 90 17 82 18 83 19 84 20 89 21 85 22 88 23 86 24
REMARK SMILES IDX 87 25 12 26 13 27 14 28 15 30 16 31 17 32 78 33 18 34 77 35
REMARK SMILES IDX 19 36 20 37 21 38 71 39 22 40 76 41 70 42 72 43 23 44 75 45
REMARK SMILES IDX 69 46 68 47 24 49 56 50 36 51 55 52 37 53 40 54 54 55 73 56
REMARK SMILES IDX 38 57 39 58 53 60 74 61 41 62 25 63 26 64 34 65 27 66 28 67
REMARK SMILES IDX 32 68 35 69 29 70 30 71 33 72 31 73 57 74 58 75 66 76 59 77
REMARK SMILES IDX 60 78 64 79 67 80 61 81 62 82 65 83 63 84 42 85 43 86 51 87
REMARK SMILES IDX 44 88 45 89 49 90 52 91 46 92 47 93 50 94 48 95
REMARK H PARENT 9 6 13 29 72 48 40 59
REMARK Flexibility Score: inf
ROOT
ATOM      1  C   UNL A   1      33.215  28.986  23.949  1.00  0.00     0.042 C 
ENDROOT
BRANCH   1   2
ATOM      2  C   UNL A   1      32.172  28.114  23.250  1.00  0.00     0.117 C 
BRANCH   2   3
ATOM      3  N   UNL A   1      32.730  27.248  22.222  1.00  0.00    -0.356 N 
ATOM      4  C   UNL A   1      32.703  25.915  21.991  1.00  0.00     0.226 C 
ATOM      5  O   UNL A   1      33.278  25.542  20.960  1.00  0.00    -0.275 OA
ATOM      6  H   UNL A   1      33.241  27.744  21.541  1.00  0.00     0.163 HD
BRANCH   4   7
ATOM      7  C   UNL A   1      32.080  24.860  22.901  1.00  0.00     0.113 C 
ATOM      8  C   UNL A   1      31.862  25.831  26.501  1.00  0.00     0.147 C 
ATOM      9  N   UNL A   1      31.647  25.387  25.137  1.00  0.00    -0.339 N 
ATOM     10  C   UNL A   1      30.421  25.500  24.501  1.00  0.00     0.223 C 
ATOM     11  C   UNL A   1      32.663  24.698  24.325  1.00  0.00     0.058 C 
ATOM     12  O   UNL A   1      29.392  25.953  24.980  1.00  0.00    -0.275 OA
ATOM     13  C   UNL A   1      30.570  25.024  23.083  1.00  0.00     0.116 C 
ATOM     14  C   UNL A   1      34.082  25.284  24.507  1.00  0.00     0.051 C 
ATOM     15  C   UNL A   1      32.665  23.186  24.733  1.00  0.00     0.051 C 
ATOM     16  C   UNL A   1      35.153  24.433  23.846  1.00  0.00     0.120 C 
ATOM     17  C   UNL A   1      33.829  22.378  24.138  1.00  0.00     0.120 C 
ATOM     18  N   UNL A   1      35.046  23.111  24.425  1.00  0.00    -0.356 N 
BRANCH  18  19
ATOM     19  C   UNL A   1      36.189  22.464  24.832  1.00  0.00     0.128 A 
ATOM     20  C   UNL A   1      37.194  23.196  25.474  1.00  0.00     0.048 A 
ATOM     21  N   UNL A   1      36.315  21.139  24.625  1.00  0.00    -0.238 NA
ATOM     22  C   UNL A   1      38.362  22.568  25.897  1.00  0.00     0.026 A 
ATOM     23  C   UNL A   1      37.475  20.550  25.016  1.00  0.00     0.134 A 
ATOM     24  C   UNL A   1      38.511  21.215  25.651  1.00  0.00     0.059 A 
ATOM     25  Cl  UNL A   1      39.941  20.396  26.126  1.00  0.00    -0.083 Cl
ENDBRANCH  18  19
ENDBRANCH   4   7
ENDBRANCH   2   3
ENDBRANCH   1   2
BRANCH   1  26
ATOM     26  C   UNL A   1      33.027  29.070  25.458  1.00  0.00     0.118 C 
BRANCH  26  27
ATOM     27  N   UNL A   1      32.631  30.407  25.872  1.00  0.00    -0.352 N 
ATOM     28  C   UNL A   1      33.134  31.196  26.879  1.00  0.00     0.251 C 
ATOM     29  H   UNL A   1      31.895  30.807  25.355  1.00  0.00     0.163 HD
ATOM     30  O   UNL A   1      32.489  32.157  27.285  1.00  0.00    -0.269 OA
BRANCH  28  31
ATOM     31  C   UNL A   1      34.446  30.880  27.484  1.00  0.00     0.039 A 
ATOM     32  C   UNL A   1      35.394  31.897  27.626  1.00  0.00     0.014 A 
ATOM     33  C   UNL A   1      34.749  29.580  27.892  1.00  0.00     0.014 A 
ATOM     34  C   UNL A   1      36.613  31.625  28.253  1.00  0.00     0.010 A 
ATOM     35  C   UNL A   1      35.927  29.328  28.588  1.00  0.00     0.010 A 
ATOM     36  C   UNL A   1      36.868  30.351  28.783  1.00  0.00    -0.014 A 
BRANCH  36  37
ATOM     37  C   UNL A   1      38.092  30.066  29.575  1.00  0.00     0.031 A 
ATOM     38  C   UNL A   1      39.131  29.115  29.051  1.00  0.00     0.074 A 
ATOM     39  C   UNL A   1      38.219  30.593  30.808  1.00  0.00     0.049 A 
ATOM     40  N   UNL A   1      40.198  28.645  29.644  1.00  0.00    -0.248 NA
ATOM     41  C   UNL A   1      38.928  28.604  27.686  1.00  0.00     0.031 C 
ATOM     42  C   UNL A   1      37.263  31.504  31.440  1.00  0.00     0.029 A 
ATOM     43  N   UNL A   1      39.194  30.425  31.759  1.00  0.00    -0.354 N 
ATOM     44  C   UNL A   1      40.785  27.777  28.732  1.00  0.00     0.074 A 
ATOM     45  C   UNL A   1      39.928  27.743  27.567  1.00  0.00     0.031 C 
ATOM     46  C   UNL A   1      37.706  31.826  32.665  1.00  0.00     0.029 A 
ATOM     47  C   UNL A   1      38.946  31.104  32.928  1.00  0.00     0.049 A 
ATOM     48  H   UNL A   1      39.995  29.870  31.619  1.00  0.00     0.167 HD
ATOM     49  C   UNL A   1      41.945  27.088  28.851  1.00  0.00     0.037 A 
ATOM     50  C   UNL A   1      39.629  31.125  34.089  1.00  0.00     0.037 A 
ATOM     51  C   UNL A   1      42.799  27.135  30.010  1.00  0.00     0.049 A 
ATOM     52  C   UNL A   1      40.885  30.306  34.215  1.00  0.00     0.074 A 
ATOM     53  C   UNL A   1      44.025  26.523  30.204  1.00  0.00     0.029 A 
ATOM     54  N   UNL A   1      42.508  27.828  31.177  1.00  0.00    -0.354 N 
ATOM     55  N   UNL A   1      41.468  29.546  33.322  1.00  0.00    -0.248 NA
ATOM     56  C   UNL A   1      41.574  30.344  35.512  1.00  0.00     0.031 C 
ATOM     57  C   UNL A   1      44.445  26.792  31.511  1.00  0.00     0.029 A 
ATOM     58  C   UNL A   1      43.512  27.622  32.111  1.00  0.00     0.049 A 
ATOM     59  H   UNL A   1      41.708  28.383  31.321  1.00  0.00     0.167 HD
ATOM     60  C   UNL A   1      42.601  29.032  33.938  1.00  0.00     0.074 A 
ATOM     61  C   UNL A   1      42.634  29.583  35.277  1.00  0.00     0.031 C 
ATOM     62  C   UNL A   1      43.528  28.177  33.441  1.00  0.00     0.037 A 
BRANCH  49  63
ATOM     63  C   UNL A   1      42.358  26.214  27.701  1.00  0.00     0.064 A 
ATOM     64  C   UNL A   1      43.318  26.631  26.765  1.00  0.00     0.173 A 
ATOM     65  C   UNL A   1      41.815  24.928  27.551  1.00  0.00     0.173 A 
ATOM     66  F   UNL A   1      43.862  27.853  26.855  1.00  0.00    -0.203 F 
ATOM     67  C   UNL A   1      43.692  25.807  25.705  1.00  0.00     0.198 A 
ATOM     68  C   UNL A   1      42.218  24.095  26.511  1.00  0.00     0.198 A 
ATOM     69  F   UNL A   1      40.901  24.474  28.422  1.00  0.00    -0.203 F 
ATOM     70  F   UNL A   1      44.569  26.250  24.794  1.00  0.00    -0.200 F 
ATOM     71  C   UNL A   1      43.147  24.539  25.584  1.00  0.00     0.200 A 
ATOM     72  F   UNL A   1      41.702  22.862  26.404  1.00  0.00    -0.200 F 
ATOM     73  F   UNL A   1      43.514  23.745  24.567  1.00  0.00    -0.200 F 
ENDBRANCH  49  63
BRANCH  50  74
ATOM     74  C   UNL A   1      39.137  31.949  35.225  1.00  0.00     0.064 A 
ATOM     75  C   UNL A   1      39.414  33.321  35.291  1.00  0.00     0.173 A 
ATOM     76  C   UNL A   1      38.380  31.386  36.264  1.00  0.00     0.173 A 
ATOM     77  F   UNL A   1      40.151  33.902  34.334  1.00  0.00    -0.203 F 
ATOM     78  C   UNL A   1      38.969  34.094  36.362  1.00  0.00     0.198 A 
ATOM     79  C   UNL A   1      37.909  32.167  37.317  1.00  0.00     0.198 A 
ATOM     80  F   UNL A   1      38.082  30.078  36.247  1.00  0.00    -0.203 F 
ATOM     81  F   UNL A   1      39.288  35.395  36.424  1.00  0.00    -0.200 F 
ATOM     82  C   UNL A   1      38.212  33.519  37.371  1.00  0.00     0.200 A 
ATOM     83  F   UNL A   1      37.162  31.608  38.280  1.00  0.00    -0.200 F 
ATOM     84  F   UNL A   1      37.778  34.264  38.397  1.00  0.00    -0.200 F 
ENDBRANCH  50  74
BRANCH  62  85
ATOM     85  C   UNL A   1      44.667  27.791  34.341  1.00  0.00     0.064 A 
ATOM     86  C   UNL A   1      44.611  26.641  35.141  1.00  0.00     0.173 A 
ATOM     87  C   UNL A   1      45.852  28.544  34.355  1.00  0.00     0.173 A 
ATOM     88  F   UNL A   1      43.495  25.897  35.178  1.00  0.00    -0.203 F 
ATOM     89  C   UNL A   1      45.694  26.266  35.933  1.00  0.00     0.198 A 
ATOM     90  C   UNL A   1      46.943  28.150  35.122  1.00  0.00     0.198 A 
ATOM     91  F   UNL A   1      45.958  29.650  33.604  1.00  0.00    -0.203 F 
ATOM     92  F   UNL A   1      45.605  25.185  36.720  1.00  0.00    -0.200 F 
ATOM     93  C   UNL A   1      46.862  27.015  35.914  1.00  0.00     0.200 A 
ATOM     94  F   UNL A   1      48.076  28.864  35.090  1.00  0.00    -0.200 F 
ATOM     95  F   UNL A   1      47.910  26.642  36.663  1.00  0.00    -0.200 F 
ENDBRANCH  62  85
ENDBRANCH  36  37
ENDBRANCH  28  31
ENDBRANCH  26  27
ENDBRANCH   1  26
TORSDOF 11
ENDMDL
MODEL 2
REMARK VINA RESULT:     -13.3      1.452      2.119
REMARK SMILES CN1C(=O)C[C@@H](C(=O)NCCCNC(=O)c2ccc(-c3c4nc(c(-c5c(F)c(F)c(F)c(F)c5F)c5ccc([nH]5)c(-c5c(F)c(F)c(F)c(F)c5F)c5nc(c(-c6c(F)c(F)c(F)c(F)c6F)c6ccc3[nH]6)C=C5)C=C4)cc2)C12CCN(c1ccc(Cl)cn1)CC2
REMARK SMILES IDX 11 1 10 2 9 3 7 4 8 5 6 7 1 8 2 9 3 10 79 11 4 12 5 13 80 14
REMARK SMILES IDX 91 15 81 16 90 17 82 18 83 19 84 20 89 21 85 22 88 23 86 24
REMARK SMILES IDX 87 25 12 26 13 27 14 28 15 30 16 31 17 32 78 33 18 34 77 35
REMARK SMILES IDX 19 36 20 37 21 38 71 39 22 40 76 41 70 42 72 43 23 44 75 45
REMARK SMILES IDX 69 46 68 47 24 49 56 50 36 51 55 52 37 53 40 54 54 55 73 56
REMARK SMILES IDX 38 57 39 58 53 60 74 61 41 62 25 63 26 64 34 65 27 66 28 67
REMARK SMILES IDX 32 68 35 69 29 70 30 71 33 72 31 73 57 74 58 75 66 76 59 77
REMARK SMILES IDX 60 78 64 79 67 80 61 81 62 82 65 83 63 84 42 85 43 86 51 87
REMARK SMILES IDX 44 88 45 89 49 90 52 91 46 92 47 93 50 94 48 95
REMARK H PARENT 9 6 13 29 72 48 40 59
REMARK Flexibility Score: inf
ROOT
ATOM      1  C   UNL A   1      31.266  31.072  25.847  1.00  0.00     0.042 C 
ENDROOT
BRANCH   1   2
ATOM      2  C   UNL A   1      31.416  29.665  25.271  1.00  0.00     0.117 C 
BRANCH   2   3
ATOM      3  N   UNL A   1      32.588  29.503  24.424  1.00  0.00    -0.356 N 
ATOM      4  C   UNL A   1      32.905  28.686  23.392  1.00  0.00     0.226 C 
ATOM      5  O   UNL A   1      34.016  28.878  22.884  1.00  0.00    -0.275 OA
ATOM      6  H   UNL A   1      33.314  30.127  24.653  1.00  0.00     0.163 HD
BRANCH   4   7
ATOM      7  C   UNL A   1      32.042  27.548  22.853  1.00  0.00     0.113 C 
ATOM      8  C   UNL A   1      29.801  25.952  25.379  1.00  0.00     0.147 C 
ATOM      9  N   UNL A   1      30.413  26.593  24.231  1.00  0.00    -0.339 N 
ATOM     10  C   UNL A   1      29.715  27.457  23.401  1.00  0.00     0.223 C 
ATOM     11  C   UNL A   1      31.788  26.333  23.776  1.00  0.00     0.058 C 
ATOM     12  O   UNL A   1      28.539  27.774  23.502  1.00  0.00    -0.275 OA
ATOM     13  C   UNL A   1      30.663  28.002  22.369  1.00  0.00     0.116 C 
ATOM     14  C   UNL A   1      32.793  26.193  24.942  1.00  0.00     0.051 C 
ATOM     15  C   UNL A   1      31.777  25.013  22.933  1.00  0.00     0.051 C 
ATOM     16  C   UNL A   1      34.156  25.705  24.481  1.00  0.00     0.120 C 
ATOM     17  C   UNL A   1      33.177  24.484  22.582  1.00  0.00     0.120 C 
ATOM     18  N   UNL A   1      33.938  24.440  23.814  1.00  0.00    -0.356 N 
BRANCH  18  19
ATOM     19  C   UNL A   1      34.761  23.378  24.107  1.00  0.00     0.128 A 
ATOM     20  C   UNL A   1      36.037  23.328  23.535  1.00  0.00     0.048 A 
ATOM     21  N   UNL A   1      34.335  22.416  24.949  1.00  0.00    -0.238 NA
ATOM     22  C   UNL A   1      36.892  22.265  23.813  1.00  0.00     0.026 A 
ATOM     23  C   UNL A   1      35.171  21.371  25.182  1.00  0.00     0.134 A 
ATOM     24  C   UNL A   1      36.443  21.256  24.645  1.00  0.00     0.059 A 
ATOM     25  Cl  UNL A   1      37.444  19.909  25.000  1.00  0.00    -0.083 Cl
ENDBRANCH  18  19
ENDBRANCH   4   7
ENDBRANCH   2   3
ENDBRANCH   1   2
BRANCH   1  26
ATOM     26  C   UNL A   1      32.342  31.434  26.863  1.00  0.00     0.118 C 
BRANCH  26  27
ATOM     27  N   UNL A   1      32.365  32.864  27.128  1.00  0.00    -0.352 N 
ATOM     28  C   UNL A   1      33.167  33.582  27.983  1.00  0.00     0.251 C 
ATOM     29  H   UNL A   1      31.711  33.397  26.620  1.00  0.00     0.163 HD
ATOM     30  O   UNL A   1      32.850  34.722  28.307  1.00  0.00    -0.269 OA
BRANCH  28  31
ATOM     31  C   UNL A   1      34.404  32.979  28.523  1.00  0.00     0.039 A 
ATOM     32  C   UNL A   1      35.598  33.703  28.463  1.00  0.00     0.014 A 
ATOM     33  C   UNL A   1      34.392  31.693  29.068  1.00  0.00     0.014 A 
ATOM     34  C   UNL A   1      36.760  33.169  29.026  1.00  0.00     0.010 A 
ATOM     35  C   UNL A   1      35.528  31.197  29.699  1.00  0.00     0.010 A 
ATOM     36  C   UNL A   1      36.722  31.934  29.692  1.00  0.00    -0.014 A 
BRANCH  36  37
ATOM     37  C   UNL A   1      37.904  31.404  30.420  1.00  0.00     0.031 A 
ATOM     38  C   UNL A   1      38.801  30.388  29.771  1.00  0.00     0.074 A 
ATOM     39  C   UNL A   1      38.111  31.769  31.699  1.00  0.00     0.049 A 
ATOM     40  N   UNL A   1      39.801  29.718  30.284  1.00  0.00    -0.248 NA
ATOM     41  C   UNL A   1      38.519  30.063  28.364  1.00  0.00     0.031 C 
ATOM     42  C   UNL A   1      37.291  32.723  32.449  1.00  0.00     0.029 A 
ATOM     43  N   UNL A   1      39.063  31.368  32.604  1.00  0.00    -0.354 N 
ATOM     44  C   UNL A   1      40.258  28.886  29.270  1.00  0.00     0.074 A 
ATOM     45  C   UNL A   1      39.394  29.096  28.129  1.00  0.00     0.031 C 
ATOM     46  C   UNL A   1      37.783  32.845  33.691  1.00  0.00     0.029 A 
ATOM     47  C   UNL A   1      38.918  31.941  33.845  1.00  0.00     0.049 A 
ATOM     48  H   UNL A   1      39.781  30.732  32.386  1.00  0.00     0.167 HD
ATOM     49  C   UNL A   1      41.316  28.041  29.286  1.00  0.00     0.037 A 
ATOM     50  C   UNL A   1      39.607  31.742  34.985  1.00  0.00     0.037 A 
ATOM     51  C   UNL A   1      42.179  27.846  30.423  1.00  0.00     0.049 A 
ATOM     52  C   UNL A   1      40.744  30.755  34.992  1.00  0.00     0.074 A 
ATOM     53  C   UNL A   1      43.313  27.059  30.521  1.00  0.00     0.029 A 
ATOM     54  N   UNL A   1      41.993  28.437  31.665  1.00  0.00    -0.354 N 
ATOM     55  N   UNL A   1      41.212  30.028  34.008  1.00  0.00    -0.248 NA
ATOM     56  C   UNL A   1      41.442  30.557  36.269  1.00  0.00     0.031 C 
ATOM     57  C   UNL A   1      43.777  27.123  31.839  1.00  0.00     0.029 A 
ATOM     58  C   UNL A   1      42.968  27.997  32.548  1.00  0.00     0.049 A 
ATOM     59  H   UNL A   1      41.276  29.073  31.887  1.00  0.00     0.167 HD
ATOM     60  C   UNL A   1      42.270  29.303  34.538  1.00  0.00     0.074 A 
ATOM     61  C   UNL A   1      42.388  29.693  35.928  1.00  0.00     0.031 C 
ATOM     62  C   UNL A   1      43.070  28.394  33.929  1.00  0.00     0.037 A 
BRANCH  49  63
ATOM     63  C   UNL A   1      41.599  27.253  28.038  1.00  0.00     0.064 A 
ATOM     64  C   UNL A   1      42.481  27.723  27.053  1.00  0.00     0.173 A 
ATOM     65  C   UNL A   1      41.008  25.995  27.840  1.00  0.00     0.173 A 
ATOM     66  F   UNL A   1      43.066  28.923  27.187  1.00  0.00    -0.203 F 
ATOM     67  C   UNL A   1      42.734  26.979  25.902  1.00  0.00     0.198 A 
ATOM     68  C   UNL A   1      41.290  25.240  26.705  1.00  0.00     0.198 A 
ATOM     69  F   UNL A   1      40.162  25.493  28.753  1.00  0.00    -0.203 F 
ATOM     70  F   UNL A   1      43.537  27.475  24.951  1.00  0.00    -0.200 F 
ATOM     71  C   UNL A   1      42.144  25.736  25.733  1.00  0.00     0.200 A 
ATOM     72  F   UNL A   1      40.732  24.031  26.551  1.00  0.00    -0.200 F 
ATOM     73  F   UNL A   1      42.395  25.019  24.628  1.00  0.00    -0.200 F 
ENDBRANCH  49  63
BRANCH  50  74
ATOM     74  C   UNL A   1      39.240  32.492  36.216  1.00  0.00     0.064 A 
ATOM     75  C   UNL A   1      38.337  31.954  37.142  1.00  0.00     0.173 A 
ATOM     76  C   UNL A   1      39.783  33.756  36.493  1.00  0.00     0.173 A 
ATOM     77  F   UNL A   1      37.774  30.760  36.913  1.00  0.00    -0.203 F 
ATOM     78  C   UNL A   1      37.976  32.660  38.289  1.00  0.00     0.198 A 
ATOM     79  C   UNL A   1      39.446  34.446  37.656  1.00  0.00     0.198 A 
ATOM     80  F   UNL A   1      40.657  34.315  35.642  1.00  0.00    -0.203 F 
ATOM     81  F   UNL A   1      37.074  32.142  39.134  1.00  0.00    -0.200 F 
ATOM     82  C   UNL A   1      38.535  33.901  38.548  1.00  0.00     0.200 A 
ATOM     83  F   UNL A   1      40.004  35.637  37.910  1.00  0.00    -0.200 F 
ATOM     84  F   UNL A   1      38.194  34.576  39.655  1.00  0.00    -0.200 F 
ENDBRANCH  50  74
BRANCH  62  85
ATOM     85  C   UNL A   1      44.154  27.763  34.755  1.00  0.00     0.064 A 
ATOM     86  C   UNL A   1      43.968  26.526  35.388  1.00  0.00     0.173 A 
ATOM     87  C   UNL A   1      45.415  28.371  34.861  1.00  0.00     0.173 A 
ATOM     88  F   UNL A   1      42.776  25.911  35.332  1.00  0.00    -0.203 F 
ATOM     89  C   UNL A   1      44.998  25.927  36.108  1.00  0.00     0.198 A 
ATOM     90  C   UNL A   1      46.452  27.756  35.555  1.00  0.00     0.198 A 
ATOM     91  F   UNL A   1      45.647  29.553  34.270  1.00  0.00    -0.203 F 
ATOM     92  F   UNL A   1      44.786  24.763  36.738  1.00  0.00    -0.200 F 
ATOM     93  C   UNL A   1      46.242  26.537  36.182  1.00  0.00     0.200 A 
ATOM     94  F   UNL A   1      47.657  28.339  35.611  1.00  0.00    -0.200 F 
ATOM     95  F   UNL A   1      47.238  25.951  36.861  1.00  0.00    -0.200 F 
ENDBRANCH  62  85
ENDBRANCH  36  37
ENDBRANCH  28  31
ENDBRANCH  26  27
ENDBRANCH   1  26
TORSDOF 11
ENDMDL
MODEL 3
REMARK VINA RESULT:     -13.3      4.800      9.895
REMARK SMILES CN1C(=O)C[C@@H](C(=O)NCCCNC(=O)c2ccc(-c3c4nc(c(-c5c(F)c(F)c(F)c(F)c5F)c5ccc([nH]5)c(-c5c(F)c(F)c(F)c(F)c5F)c5nc(c(-c6c(F)c(F)c(F)c(F)c6F)c6ccc3[nH]6)C=C5)C=C4)cc2)C12CCN(c1ccc(Cl)cn1)CC2
REMARK SMILES IDX 11 1 10 2 9 3 7 4 8 5 6 7 1 8 2 9 3 10 79 11 4 12 5 13 80 14
REMARK SMILES IDX 91 15 81 16 90 17 82 18 83 19 84 20 89 21 85 22 88 23 86 24
REMARK SMILES IDX 87 25 12 26 13 27 14 28 15 30 16 31 17 32 78 33 18 34 77 35
REMARK SMILES IDX 19 36 20 37 21 38 71 39 22 40 76 41 70 42 72 43 23 44 75 45
REMARK SMILES IDX 69 46 68 47 24 49 56 50 36 51 55 52 37 53 40 54 54 55 73 56
REMARK SMILES IDX 38 57 39 58 53 60 74 61 41 62 25 63 26 64 34 65 27 66 28 67
REMARK SMILES IDX 32 68 35 69 29 70 30 71 33 72 31 73 57 74 58 75 66 76 59 77
REMARK SMILES IDX 60 78 64 79 67 80 61 81 62 82 65 83 63 84 42 85 43 86 51 87
REMARK SMILES IDX 44 88 45 89 49 90 52 91 46 92 47 93 50 94 48 95
REMARK H PARENT 9 6 13 29 72 48 40 59
REMARK Flexibility Score: inf
ROOT
ATOM      1  C   UNL A   1      37.872  20.013  24.745  1.00  0.00     0.042 C 
ENDROOT
BRANCH   1   2
ATOM      2  C   UNL A   1      36.533  20.691  25.032  1.00  0.00     0.117 C 
BRANCH   2   3
ATOM      3  N   UNL A   1      36.654  22.100  25.374  1.00  0.00    -0.356 N 
ATOM      4  C   UNL A   1      35.833  23.008  25.952  1.00  0.00     0.226 C 
ATOM      5  O   UNL A   1      36.318  24.134  26.118  1.00  0.00    -0.275 OA
ATOM      6  H   UNL A   1      37.530  22.478  25.131  1.00  0.00     0.163 HD
BRANCH   4   7
ATOM      7  C   UNL A   1      34.381  22.771  26.359  1.00  0.00     0.113 C 
ATOM      8  C   UNL A   1      32.353  20.854  23.877  1.00  0.00     0.147 C 
ATOM      9  N   UNL A   1      33.031  21.391  25.041  1.00  0.00    -0.339 N 
ATOM     10  C   UNL A   1      33.415  20.597  26.110  1.00  0.00     0.223 C 
ATOM     11  C   UNL A   1      33.302  22.822  25.251  1.00  0.00     0.058 C 
ATOM     12  O   UNL A   1      33.231  19.394  26.228  1.00  0.00    -0.275 OA
ATOM     13  C   UNL A   1      34.161  21.450  27.098  1.00  0.00     0.116 C 
ATOM     14  C   UNL A   1      33.742  23.550  23.961  1.00  0.00     0.051 C 
ATOM     15  C   UNL A   1      31.996  23.484  25.807  1.00  0.00     0.051 C 
ATOM     16  C   UNL A   1      33.801  25.058  24.134  1.00  0.00     0.120 C 
ATOM     17  C   UNL A   1      32.047  25.019  25.861  1.00  0.00     0.120 C 
ATOM     18  N   UNL A   1      32.482  25.477  24.556  1.00  0.00    -0.356 N 
BRANCH  18  19
ATOM     19  C   UNL A   1      31.900  26.567  23.953  1.00  0.00     0.128 A 
ATOM     20  C   UNL A   1      30.518  26.569  23.739  1.00  0.00     0.048 A 
ATOM     21  N   UNL A   1      32.664  27.618  23.595  1.00  0.00    -0.238 NA
ATOM     22  C   UNL A   1      29.901  27.659  23.130  1.00  0.00     0.026 A 
ATOM     23  C   UNL A   1      32.049  28.658  22.973  1.00  0.00     0.134 A 
ATOM     24  C   UNL A   1      30.688  28.722  22.726  1.00  0.00     0.059 A 
ATOM     25  Cl  UNL A   1      29.985  30.079  21.946  1.00  0.00    -0.083 Cl
ENDBRANCH  18  19
ENDBRANCH   4   7
ENDBRANCH   2   3
ENDBRANCH   1   2
BRANCH   1  26
ATOM     26  C   UNL A   1      38.967  20.379  25.738  1.00  0.00     0.118 C 
BRANCH  26  27
ATOM     27  N   UNL A   1      39.937  19.305  25.883  1.00  0.00    -0.352 N 
ATOM     28  C   UNL A   1      41.300  19.373  26.043  1.00  0.00     0.251 C 
ATOM     29  H   UNL A   1      39.562  18.394  25.863  1.00  0.00     0.163 HD
ATOM     30  O   UNL A   1      41.991  18.380  25.842  1.00  0.00    -0.269 OA
BRANCH  28  31
ATOM     31  C   UNL A   1      41.938  20.646  26.444  1.00  0.00     0.039 A 
ATOM     32  C   UNL A   1      42.334  21.551  25.455  1.00  0.00     0.014 A 
ATOM     33  C   UNL A   1      42.164  20.938  27.790  1.00  0.00     0.014 A 
ATOM     34  C   UNL A   1      42.880  22.783  25.823  1.00  0.00     0.010 A 
ATOM     35  C   UNL A   1      42.631  22.195  28.158  1.00  0.00     0.010 A 
ATOM     36  C   UNL A   1      42.986  23.135  27.179  1.00  0.00    -0.014 A 
BRANCH  36  37
ATOM     37  C   UNL A   1      43.432  24.487  27.601  1.00  0.00     0.031 A 
ATOM     38  C   UNL A   1      42.423  25.540  27.962  1.00  0.00     0.074 A 
ATOM     39  C   UNL A   1      44.744  24.792  27.567  1.00  0.00     0.049 A 
ATOM     40  N   UNL A   1      42.608  26.807  28.231  1.00  0.00    -0.248 NA
ATOM     41  C   UNL A   1      41.014  25.118  27.998  1.00  0.00     0.031 C 
ATOM     42  C   UNL A   1      45.817  23.865  27.202  1.00  0.00     0.029 A 
ATOM     43  N   UNL A   1      45.398  25.971  27.823  1.00  0.00    -0.354 N 
ATOM     44  C   UNL A   1      41.343  27.334  28.458  1.00  0.00     0.074 A 
ATOM     45  C   UNL A   1      40.394  26.263  28.241  1.00  0.00     0.031 C 
ATOM     46  C   UNL A   1      46.994  24.504  27.273  1.00  0.00     0.029 A 
ATOM     47  C   UNL A   1      46.758  25.898  27.635  1.00  0.00     0.049 A 
ATOM     48  H   UNL A   1      44.938  26.791  28.114  1.00  0.00     0.167 HD
ATOM     49  C   UNL A   1      41.008  28.592  28.832  1.00  0.00     0.037 A 
ATOM     50  C   UNL A   1      47.704  26.852  27.721  1.00  0.00     0.037 A 
ATOM     51  C   UNL A   1      41.959  29.649  29.057  1.00  0.00     0.049 A 
ATOM     52  C   UNL A   1      47.300  28.256  28.084  1.00  0.00     0.074 A 
ATOM     53  C   UNL A   1      41.727  30.940  29.499  1.00  0.00     0.029 A 
ATOM     54  N   UNL A   1      43.327  29.539  28.847  1.00  0.00    -0.354 N 
ATOM     55  N   UNL A   1      46.109  28.725  28.365  1.00  0.00    -0.248 NA
ATOM     56  C   UNL A   1      48.369  29.263  28.135  1.00  0.00     0.031 C 
ATOM     57  C   UNL A   1      42.944  31.629  29.493  1.00  0.00     0.029 A 
ATOM     58  C   UNL A   1      43.945  30.753  29.107  1.00  0.00     0.049 A 
ATOM     59  H   UNL A   1      43.790  28.720  28.555  1.00  0.00     0.167 HD
ATOM     60  C   UNL A   1      46.286  30.073  28.646  1.00  0.00     0.074 A 
ATOM     61  C   UNL A   1      47.703  30.342  28.521  1.00  0.00     0.031 C 
ATOM     62  C   UNL A   1      45.358  31.004  28.975  1.00  0.00     0.037 A 
BRANCH  49  63
ATOM     63  C   UNL A   1      39.549  28.900  29.016  1.00  0.00     0.064 A 
ATOM     64  C   UNL A   1      38.928  28.809  30.271  1.00  0.00     0.173 A 
ATOM     65  C   UNL A   1      38.768  29.326  27.930  1.00  0.00     0.173 A 
ATOM     66  F   UNL A   1      39.625  28.398  31.341  1.00  0.00    -0.203 F 
ATOM     67  C   UNL A   1      37.574  29.100  30.425  1.00  0.00     0.198 A 
ATOM     68  C   UNL A   1      37.424  29.650  28.095  1.00  0.00     0.198 A 
ATOM     69  F   UNL A   1      39.312  29.439  26.708  1.00  0.00    -0.203 F 
ATOM     70  F   UNL A   1      36.992  28.953  31.623  1.00  0.00    -0.200 F 
ATOM     71  C   UNL A   1      36.826  29.527  29.339  1.00  0.00     0.200 A 
ATOM     72  F   UNL A   1      36.706  30.078  27.047  1.00  0.00    -0.200 F 
ATOM     73  F   UNL A   1      35.525  29.814  29.491  1.00  0.00    -0.200 F 
ENDBRANCH  49  63
BRANCH  50  74
ATOM     74  C   UNL A   1      49.128  26.513  27.455  1.00  0.00     0.064 A 
ATOM     75  C   UNL A   1      49.611  26.417  26.144  1.00  0.00     0.173 A 
ATOM     76  C   UNL A   1      50.033  26.280  28.502  1.00  0.00     0.173 A 
ATOM     77  F   UNL A   1      48.782  26.610  25.109  1.00  0.00    -0.203 F 
ATOM     78  C   UNL A   1      50.940  26.083  25.889  1.00  0.00     0.198 A 
ATOM     79  C   UNL A   1      51.368  25.977  28.246  1.00  0.00     0.198 A 
ATOM     80  F   UNL A   1      49.623  26.363  29.777  1.00  0.00    -0.203 F 
ATOM     81  F   UNL A   1      51.364  25.953  24.624  1.00  0.00    -0.200 F 
ATOM     82  C   UNL A   1      51.819  25.870  26.940  1.00  0.00     0.200 A 
ATOM     83  F   UNL A   1      52.217  25.790  29.266  1.00  0.00    -0.200 F 
ATOM     84  F   UNL A   1      53.099  25.556  26.694  1.00  0.00    -0.200 F 
ENDBRANCH  50  74
BRANCH  62  85
ATOM     85  C   UNL A   1      45.842  32.401  29.238  1.00  0.00     0.064 A 
ATOM     86  C   UNL A   1      45.883  33.365  28.220  1.00  0.00     0.173 A 
ATOM     87  C   UNL A   1      46.207  32.798  30.534  1.00  0.00     0.173 A 
ATOM     88  F   UNL A   1      45.561  33.032  26.961  1.00  0.00    -0.203 F 
ATOM     89  C   UNL A   1      46.285  34.672  28.487  1.00  0.00     0.198 A 
ATOM     90  C   UNL A   1      46.578  34.112  30.803  1.00  0.00     0.198 A 
ATOM     91  F   UNL A   1      46.181  31.916  31.543  1.00  0.00    -0.203 F 
ATOM     92  F   UNL A   1      46.354  35.567  27.492  1.00  0.00    -0.200 F 
ATOM     93  C   UNL A   1      46.621  35.046  29.780  1.00  0.00     0.200 A 
ATOM     94  F   UNL A   1      46.887  34.476  32.055  1.00  0.00    -0.200 F 
ATOM     95  F   UNL A   1      46.991  36.309  30.038  1.00  0.00    -0.200 F 
ENDBRANCH  62  85
ENDBRANCH  36  37
ENDBRANCH  28  31
ENDBRANCH  26  27
ENDBRANCH   1  26
TORSDOF 11
ENDMDL
