MODEL 1
REMARK VINA RESULT:     -12.7      0.000      0.000
REMARK SMILES C[C@@H]1CCCN(C(=O)c2ccncc2/C=C/C(=O)NCCCNC(=O)c2ccc(-c3c4nc(c(-c5c(F)c(F)c(F)c(F)c5F)c5ccc([nH]5)c(-c5c(F)c(F)c(F)c(F)c5F)c5nc(c(-c6c(F)c(F)c(F)c(F)c6F)c6ccc3[nH]6)C=C5)C=C4)cc2)[C@@H]1C
REMARK SMILES IDX 20 1 19 2 17 3 18 4 16 6 15 7 14 8 9 9 10 10 11 11 13 12
REMARK SMILES IDX 12 13 7 14 8 15 6 16 1 17 2 18 3 19 89 20 4 21 90 22 5 23
REMARK SMILES IDX 21 24 22 25 23 26 24 27 25 29 26 30 27 31 88 32 28 33 87 34
REMARK SMILES IDX 29 35 30 36 31 37 81 38 32 39 86 40 80 41 82 42 33 43 85 44
REMARK SMILES IDX 79 45 78 46 34 48 66 49 46 50 65 51 47 52 50 53 64 54 83 55
REMARK SMILES IDX 48 56 49 57 63 59 84 60 51 61 35 62 36 63 44 64 37 65 38 66
REMARK SMILES IDX 42 67 45 68 39 69 40 70 43 71 41 72 67 73 68 74 76 75 69 76
REMARK SMILES IDX 70 77 74 78 77 79 71 80 72 81 75 82 73 83 52 84 53 85 61 86
REMARK SMILES IDX 54 87 55 88 59 89 62 90 56 91 57 92 60 93 58 94
REMARK H PARENT 19 5 23 28 82 47 50 58
REMARK Flexibility Score: inf
ROOT
ATOM      1  C   UNL A   1      32.660  28.641  22.637  1.00  0.00     0.118 C 
ENDROOT
BRANCH   1   2
ATOM      2  N   UNL A   1      33.095  27.690  21.627  1.00  0.00    -0.352 N 
ATOM      3  C   UNL A   1      32.883  26.352  21.529  1.00  0.00     0.244 C 
ATOM      4  O   UNL A   1      33.277  25.741  20.537  1.00  0.00    -0.270 OA
ATOM      5  H   UNL A   1      33.631  28.077  20.897  1.00  0.00     0.163 HD
BRANCH   3   6
ATOM      6  C   UNL A   1      32.104  25.628  22.556  1.00  0.00     0.072 C 
ATOM      7  C   UNL A   1      32.611  25.191  23.720  1.00  0.00     0.016 C 
BRANCH   7   8
ATOM      8  C   UNL A   1      31.804  24.437  24.697  1.00  0.00     0.006 A 
ATOM      9  C   UNL A   1      31.774  23.036  24.756  1.00  0.00     0.050 A 
ATOM     10  C   UNL A   1      31.040  22.377  25.752  1.00  0.00     0.034 A 
ATOM     11  C   UNL A   1      30.278  23.144  26.610  1.00  0.00     0.112 A 
ATOM     12  C   UNL A   1      30.982  25.098  25.607  1.00  0.00     0.119 A 
ATOM     13  N   UNL A   1      30.218  24.488  26.547  1.00  0.00    -0.264 NA
BRANCH   9  14
ATOM     14  C   UNL A   1      32.577  22.217  23.818  1.00  0.00     0.254 C 
ATOM     15  O   UNL A   1      31.967  21.757  22.857  1.00  0.00    -0.269 OA
BRANCH  14  16
ATOM     16  N   UNL A   1      33.939  22.017  24.079  1.00  0.00    -0.336 N 
ATOM     17  C   UNL A   1      34.394  22.177  27.161  1.00  0.00     0.010 C 
ATOM     18  C   UNL A   1      35.260  21.453  26.125  1.00  0.00     0.008 C 
ATOM     19  C   UNL A   1      36.381  22.373  25.615  1.00  0.00     0.007 C 
ATOM     20  C   UNL A   1      34.440  20.902  24.925  1.00  0.00     0.085 C 
ATOM     21  C   UNL A   1      35.842  23.477  24.713  1.00  0.00     0.022 C 
ATOM     22  C   UNL A   1      33.440  19.835  25.376  1.00  0.00     0.031 C 
ATOM     23  C   UNL A   1      35.001  22.903  23.577  1.00  0.00     0.120 C 
ENDBRANCH  14  16
ENDBRANCH   9  14
ENDBRANCH   7   8
ENDBRANCH   3   6
ENDBRANCH   1   2
BRANCH   1  24
ATOM     24  C   UNL A   1      33.761  28.904  23.659  1.00  0.00     0.042 C 
BRANCH  24  25
ATOM     25  C   UNL A   1      33.306  28.809  25.114  1.00  0.00     0.118 C 
BRANCH  25  26
ATOM     26  N   UNL A   1      32.774  30.070  25.605  1.00  0.00    -0.352 N 
ATOM     27  C   UNL A   1      33.148  30.847  26.674  1.00  0.00     0.251 C 
ATOM     28  H   UNL A   1      32.019  30.427  25.084  1.00  0.00     0.163 HD
ATOM     29  O   UNL A   1      32.408  31.760  27.036  1.00  0.00    -0.269 OA
BRANCH  27  30
ATOM     30  C   UNL A   1      34.419  30.620  27.405  1.00  0.00     0.039 A 
ATOM     31  C   UNL A   1      34.640  29.360  27.978  1.00  0.00     0.014 A 
ATOM     32  C   UNL A   1      35.344  31.643  27.627  1.00  0.00     0.014 A 
ATOM     33  C   UNL A   1      35.791  29.118  28.735  1.00  0.00     0.010 A 
ATOM     34  C   UNL A   1      36.523  31.384  28.332  1.00  0.00     0.010 A 
ATOM     35  C   UNL A   1      36.754  30.124  28.905  1.00  0.00    -0.014 A 
BRANCH  35  36
ATOM     36  C   UNL A   1      37.992  29.879  29.692  1.00  0.00     0.031 A 
ATOM     37  C   UNL A   1      39.065  28.965  29.163  1.00  0.00     0.074 A 
ATOM     38  C   UNL A   1      38.135  30.434  30.912  1.00  0.00     0.049 A 
ATOM     39  N   UNL A   1      40.169  28.558  29.739  1.00  0.00    -0.248 NA
ATOM     40  C   UNL A   1      38.857  28.415  27.813  1.00  0.00     0.031 C 
ATOM     41  C   UNL A   1      37.158  31.309  31.560  1.00  0.00     0.029 A 
ATOM     42  N   UNL A   1      39.151  30.331  31.830  1.00  0.00    -0.354 N 
ATOM     43  C   UNL A   1      40.770  27.687  28.840  1.00  0.00     0.074 A 
ATOM     44  C   UNL A   1      39.896  27.601  27.689  1.00  0.00     0.031 C 
ATOM     45  C   UNL A   1      37.625  31.670  32.766  1.00  0.00     0.029 A 
ATOM     46  C   UNL A   1      38.917  31.028  32.990  1.00  0.00     0.049 A 
ATOM     47  H   UNL A   1      39.969  29.807  31.672  1.00  0.00     0.167 HD
ATOM     48  C   UNL A   1      41.948  27.028  28.958  1.00  0.00     0.037 A 
ATOM     49  C   UNL A   1      39.654  31.129  34.113  1.00  0.00     0.037 A 
ATOM     50  C   UNL A   1      42.845  27.148  30.078  1.00  0.00     0.049 A 
ATOM     51  C   UNL A   1      40.974  30.412  34.203  1.00  0.00     0.074 A 
ATOM     52  C   UNL A   1      44.096  26.580  30.246  1.00  0.00     0.029 A 
ATOM     53  N   UNL A   1      42.587  27.893  31.219  1.00  0.00    -0.354 N 
ATOM     54  N   UNL A   1      41.554  29.634  33.323  1.00  0.00    -0.248 NA
ATOM     55  C   UNL A   1      41.743  30.593  35.443  1.00  0.00     0.031 C 
ATOM     56  C   UNL A   1      44.582  26.954  31.504  1.00  0.00     0.029 A 
ATOM     57  C   UNL A   1      43.649  27.785  32.102  1.00  0.00     0.049 A 
ATOM     58  H   UNL A   1      41.771  28.419  31.376  1.00  0.00     0.167 HD
ATOM     59  C   UNL A   1      42.760  29.248  33.892  1.00  0.00     0.074 A 
ATOM     60  C   UNL A   1      42.838  29.891  35.187  1.00  0.00     0.031 C 
ATOM     61  C   UNL A   1      43.716  28.432  33.386  1.00  0.00     0.037 A 
BRANCH  48  62
ATOM     62  C   UNL A   1      42.348  26.112  27.839  1.00  0.00     0.064 A 
ATOM     63  C   UNL A   1      41.860  24.800  27.752  1.00  0.00     0.173 A 
ATOM     64  C   UNL A   1      43.186  26.571  26.811  1.00  0.00     0.173 A 
ATOM     65  F   UNL A   1      41.063  24.312  28.715  1.00  0.00    -0.203 F 
ATOM     66  C   UNL A   1      42.213  23.974  26.688  1.00  0.00     0.198 A 
ATOM     67  C   UNL A   1      43.517  25.750  25.736  1.00  0.00     0.198 A 
ATOM     68  F   UNL A   1      43.674  27.821  26.843  1.00  0.00    -0.203 F 
ATOM     69  F   UNL A   1      41.763  22.712  26.645  1.00  0.00    -0.200 F 
ATOM     70  C   UNL A   1      43.035  24.451  25.679  1.00  0.00     0.200 A 
ATOM     71  F   UNL A   1      44.303  26.216  24.756  1.00  0.00    -0.200 F 
ATOM     72  F   UNL A   1      43.366  23.657  24.651  1.00  0.00    -0.200 F 
ENDBRANCH  48  62
BRANCH  49  73
ATOM     73  C   UNL A   1      39.165  31.956  35.244  1.00  0.00     0.064 A 
ATOM     74  C   UNL A   1      39.427  33.332  35.294  1.00  0.00     0.173 A 
ATOM     75  C   UNL A   1      38.430  31.390  36.294  1.00  0.00     0.173 A 
ATOM     76  F   UNL A   1      40.145  33.912  34.322  1.00  0.00    -0.203 F 
ATOM     77  C   UNL A   1      38.983  34.109  36.363  1.00  0.00     0.198 A 
ATOM     78  C   UNL A   1      37.967  32.172  37.350  1.00  0.00     0.198 A 
ATOM     79  F   UNL A   1      38.151  30.078  36.290  1.00  0.00    -0.203 F 
ATOM     80  F   UNL A   1      39.280  35.415  36.406  1.00  0.00    -0.200 F 
ATOM     81  C   UNL A   1      38.249  33.530  37.386  1.00  0.00     0.200 A 
ATOM     82  F   UNL A   1      37.246  31.612  38.331  1.00  0.00    -0.200 F 
ATOM     83  F   UNL A   1      37.819  34.278  38.411  1.00  0.00    -0.200 F 
ENDBRANCH  49  73
BRANCH  61  84
ATOM     84  C   UNL A   1      44.937  28.204  34.225  1.00  0.00     0.064 A 
ATOM     85  C   UNL A   1      46.049  29.055  34.142  1.00  0.00     0.173 A 
ATOM     86  C   UNL A   1      44.983  27.146  35.144  1.00  0.00     0.173 A 
ATOM     87  F   UNL A   1      46.058  30.071  33.266  1.00  0.00    -0.203 F 
ATOM     88  C   UNL A   1      47.172  28.840  34.936  1.00  0.00     0.198 A 
ATOM     89  C   UNL A   1      46.100  26.948  35.951  1.00  0.00     0.198 A 
ATOM     90  F   UNL A   1      43.944  26.306  35.262  1.00  0.00    -0.203 F 
ATOM     91  F   UNL A   1      48.240  29.642  34.812  1.00  0.00    -0.200 F 
ATOM     92  C   UNL A   1      47.195  27.791  35.842  1.00  0.00     0.200 A 
ATOM     93  F   UNL A   1      46.118  25.939  36.833  1.00  0.00    -0.200 F 
ATOM     94  F   UNL A   1      48.277  27.590  36.607  1.00  0.00    -0.200 F 
ENDBRANCH  61  84
ENDBRANCH  35  36
ENDBRANCH  27  30
ENDBRANCH  25  26
ENDBRANCH  24  25
ENDBRANCH   1  24
TORSDOF 13
ENDMDL
MODEL 2
REMARK VINA RESULT:     -12.6      0.282      1.607
REMARK SMILES C[C@@H]1CCCN(C(=O)c2ccncc2/C=C/C(=O)NCCCNC(=O)c2ccc(-c3c4nc(c(-c5c(F)c(F)c(F)c(F)c5F)c5ccc([nH]5)c(-c5c(F)c(F)c(F)c(F)c5F)c5nc(c(-c6c(F)c(F)c(F)c(F)c6F)c6ccc3[nH]6)C=C5)C=C4)cc2)[C@@H]1C
REMARK SMILES IDX 20 1 19 2 17 3 18 4 16 6 15 7 14 8 9 9 10 10 11 11 13 12
REMARK SMILES IDX 12 13 7 14 8 15 6 16 1 17 2 18 3 19 89 20 4 21 90 22 5 23
REMARK SMILES IDX 21 24 22 25 23 26 24 27 25 29 26 30 27 31 88 32 28 33 87 34
REMARK SMILES IDX 29 35 30 36 31 37 81 38 32 39 86 40 80 41 82 42 33 43 85 44
REMARK SMILES IDX 79 45 78 46 34 48 66 49 46 50 65 51 47 52 50 53 64 54 83 55
REMARK SMILES IDX 48 56 49 57 63 59 84 60 51 61 35 62 36 63 44 64 37 65 38 66
REMARK SMILES IDX 42 67 45 68 39 69 40 70 43 71 41 72 67 73 68 74 76 75 69 76
REMARK SMILES IDX 70 77 74 78 77 79 71 80 72 81 75 82 73 83 52 84 53 85 61 86
REMARK SMILES IDX 54 87 55 88 59 89 62 90 56 91 57 92 60 93 58 94
REMARK H PARENT 19 5 23 28 82 47 50 58
REMARK Flexibility Score: inf
ROOT
ATOM      1  C   UNL A   1      32.438  28.689  23.010  1.00  0.00     0.118 C 
ENDROOT
BRANCH   1   2
ATOM      2  N   UNL A   1      32.957  27.785  21.996  1.00  0.00    -0.352 N 
ATOM      3  C   UNL A   1      32.825  26.440  21.867  1.00  0.00     0.244 C 
ATOM      4  O   UNL A   1      33.282  25.872  20.876  1.00  0.00    -0.270 OA
ATOM      5  H   UNL A   1      33.491  28.217  21.291  1.00  0.00     0.163 HD
BRANCH   3   6
ATOM      6  C   UNL A   1      32.058  25.651  22.855  1.00  0.00     0.072 C 
ATOM      7  C   UNL A   1      32.542  25.251  24.041  1.00  0.00     0.016 C 
BRANCH   7   8
ATOM      8  C   UNL A   1      31.752  24.431  24.979  1.00  0.00     0.006 A 
ATOM      9  C   UNL A   1      31.704  23.030  24.927  1.00  0.00     0.050 A 
ATOM     10  C   UNL A   1      30.988  22.303  25.888  1.00  0.00     0.034 A 
ATOM     11  C   UNL A   1      30.263  23.008  26.827  1.00  0.00     0.112 A 
ATOM     12  C   UNL A   1      30.966  25.027  25.963  1.00  0.00     0.119 A 
ATOM     13  N   UNL A   1      30.220  24.353  26.874  1.00  0.00    -0.264 NA
BRANCH   9  14
ATOM     14  C   UNL A   1      32.467  22.280  23.903  1.00  0.00     0.254 C 
ATOM     15  O   UNL A   1      31.822  21.902  22.929  1.00  0.00    -0.269 OA
BRANCH  14  16
ATOM     16  N   UNL A   1      33.834  22.047  24.104  1.00  0.00    -0.336 N 
ATOM     17  C   UNL A   1      34.410  22.104  27.169  1.00  0.00     0.010 C 
ATOM     18  C   UNL A   1      35.221  21.396  26.079  1.00  0.00     0.008 C 
ATOM     19  C   UNL A   1      36.339  22.310  25.554  1.00  0.00     0.007 C 
ATOM     20  C   UNL A   1      34.345  20.897  24.897  1.00  0.00     0.085 C 
ATOM     21  C   UNL A   1      35.788  23.451  24.707  1.00  0.00     0.022 C 
ATOM     22  C   UNL A   1      33.342  19.835  25.354  1.00  0.00     0.031 C 
ATOM     23  C   UNL A   1      34.893  22.928  23.588  1.00  0.00     0.120 C 
ENDBRANCH  14  16
ENDBRANCH   9  14
ENDBRANCH   7   8
ENDBRANCH   3   6
ENDBRANCH   1   2
BRANCH   1  24
ATOM     24  C   UNL A   1      33.490  28.991  24.071  1.00  0.00     0.042 C 
BRANCH  24  25
ATOM     25  C   UNL A   1      32.948  29.044  25.499  1.00  0.00     0.118 C 
BRANCH  25  26
ATOM     26  N   UNL A   1      32.561  30.392  25.888  1.00  0.00    -0.352 N 
ATOM     27  C   UNL A   1      33.059  31.222  26.862  1.00  0.00     0.251 C 
ATOM     28  H   UNL A   1      31.818  30.772  25.366  1.00  0.00     0.163 HD
ATOM     29  O   UNL A   1      32.426  32.232  27.165  1.00  0.00    -0.269 OA
BRANCH  27  30
ATOM     30  C   UNL A   1      34.337  30.939  27.560  1.00  0.00     0.039 A 
ATOM     31  C   UNL A   1      34.573  29.633  28.011  1.00  0.00     0.014 A 
ATOM     32  C   UNL A   1      35.255  31.946  27.870  1.00  0.00     0.014 A 
ATOM     33  C   UNL A   1      35.732  29.332  28.734  1.00  0.00     0.010 A 
ATOM     34  C   UNL A   1      36.441  31.633  28.540  1.00  0.00     0.010 A 
ATOM     35  C   UNL A   1      36.688  30.327  28.991  1.00  0.00    -0.014 A 
BRANCH  35  36
ATOM     36  C   UNL A   1      37.934  30.021  29.743  1.00  0.00     0.031 A 
ATOM     37  C   UNL A   1      38.951  29.066  29.179  1.00  0.00     0.074 A 
ATOM     38  C   UNL A   1      38.132  30.558  30.963  1.00  0.00     0.049 A 
ATOM     39  N   UNL A   1      40.051  28.606  29.723  1.00  0.00    -0.248 NA
ATOM     40  C   UNL A   1      38.685  28.539  27.831  1.00  0.00     0.031 C 
ATOM     41  C   UNL A   1      37.211  31.469  31.644  1.00  0.00     0.029 A 
ATOM     42  N   UNL A   1      39.166  30.402  31.854  1.00  0.00    -0.354 N 
ATOM     43  C   UNL A   1      40.590  27.718  28.801  1.00  0.00     0.074 A 
ATOM     44  C   UNL A   1      39.684  27.681  27.673  1.00  0.00     0.031 C 
ATOM     45  C   UNL A   1      37.724  31.798  32.840  1.00  0.00     0.029 A 
ATOM     46  C   UNL A   1      38.993  31.098  33.025  1.00  0.00     0.049 A 
ATOM     47  H   UNL A   1      39.956  29.845  31.670  1.00  0.00     0.167 HD
ATOM     48  C   UNL A   1      41.741  27.008  28.883  1.00  0.00     0.037 A 
ATOM     49  C   UNL A   1      39.762  31.156  34.129  1.00  0.00     0.037 A 
ATOM     50  C   UNL A   1      42.670  27.078  29.980  1.00  0.00     0.049 A 
ATOM     51  C   UNL A   1      41.051  30.382  34.179  1.00  0.00     0.074 A 
ATOM     52  C   UNL A   1      43.900  26.455  30.111  1.00  0.00     0.029 A 
ATOM     53  N   UNL A   1      42.475  27.823  31.133  1.00  0.00    -0.354 N 
ATOM     54  N   UNL A   1      41.574  29.588  33.278  1.00  0.00    -0.248 NA
ATOM     55  C   UNL A   1      41.859  30.518  35.400  1.00  0.00     0.031 C 
ATOM     56  C   UNL A   1      44.434  26.796  31.358  1.00  0.00     0.029 A 
ATOM     57  C   UNL A   1      43.554  27.660  31.987  1.00  0.00     0.049 A 
ATOM     58  H   UNL A   1      41.687  28.383  31.316  1.00  0.00     0.167 HD
ATOM     59  C   UNL A   1      42.776  29.144  33.812  1.00  0.00     0.074 A 
ATOM     60  C   UNL A   1      42.915  29.771  35.109  1.00  0.00     0.031 C 
ATOM     61  C   UNL A   1      43.682  28.292  33.274  1.00  0.00     0.037 A 
BRANCH  48  62
ATOM     62  C   UNL A   1      42.071  26.086  27.746  1.00  0.00     0.064 A 
ATOM     63  C   UNL A   1      42.946  26.468  26.719  1.00  0.00     0.173 A 
ATOM     64  C   UNL A   1      41.549  24.784  27.715  1.00  0.00     0.173 A 
ATOM     65  F   UNL A   1      43.464  27.706  26.700  1.00  0.00    -0.203 F 
ATOM     66  C   UNL A   1      43.270  25.588  25.690  1.00  0.00     0.198 A 
ATOM     67  C   UNL A   1      41.894  23.898  26.697  1.00  0.00     0.198 A 
ATOM     68  F   UNL A   1      40.713  24.366  28.677  1.00  0.00    -0.203 F 
ATOM     69  F   UNL A   1      44.081  25.987  24.700  1.00  0.00    -0.200 F 
ATOM     70  C   UNL A   1      42.750  24.302  25.683  1.00  0.00     0.200 A 
ATOM     71  F   UNL A   1      41.400  22.653  26.698  1.00  0.00    -0.200 F 
ATOM     72  F   UNL A   1      43.071  23.454  24.697  1.00  0.00    -0.200 F 
ENDBRANCH  48  62
BRANCH  49  73
ATOM     73  C   UNL A   1      39.339  31.993  35.279  1.00  0.00     0.064 A 
ATOM     74  C   UNL A   1      38.548  31.458  36.305  1.00  0.00     0.173 A 
ATOM     75  C   UNL A   1      39.712  33.341  35.375  1.00  0.00     0.173 A 
ATOM     76  F   UNL A   1      38.148  30.179  36.244  1.00  0.00    -0.203 F 
ATOM     77  C   UNL A   1      38.134  32.245  37.378  1.00  0.00     0.198 A 
ATOM     78  C   UNL A   1      39.317  34.120  36.460  1.00  0.00     0.198 A 
ATOM     79  F   UNL A   1      40.471  33.898  34.420  1.00  0.00    -0.203 F 
ATOM     80  F   UNL A   1      37.346  31.719  38.326  1.00  0.00    -0.200 F 
ATOM     81  C   UNL A   1      38.523  33.573  37.458  1.00  0.00     0.200 A 
ATOM     82  F   UNL A   1      39.706  35.400  36.540  1.00  0.00    -0.200 F 
ATOM     83  F   UNL A   1      38.129  34.328  38.492  1.00  0.00    -0.200 F 
ENDBRANCH  49  73
BRANCH  61  84
ATOM     84  C   UNL A   1      44.913  28.004  34.079  1.00  0.00     0.064 A 
ATOM     85  C   UNL A   1      46.051  28.819  33.990  1.00  0.00     0.173 A 
ATOM     86  C   UNL A   1      44.944  26.923  34.971  1.00  0.00     0.173 A 
ATOM     87  F   UNL A   1      46.075  29.855  33.137  1.00  0.00    -0.203 F 
ATOM     88  C   UNL A   1      47.184  28.548  34.752  1.00  0.00     0.198 A 
ATOM     89  C   UNL A   1      46.072  26.669  35.747  1.00  0.00     0.198 A 
ATOM     90  F   UNL A   1      43.880  26.116  35.094  1.00  0.00    -0.203 F 
ATOM     91  F   UNL A   1      48.275  29.316  34.622  1.00  0.00    -0.200 F 
ATOM     92  C   UNL A   1      47.192  27.477  35.633  1.00  0.00     0.200 A 
ATOM     93  F   UNL A   1      46.075  25.639  36.605  1.00  0.00    -0.200 F 
ATOM     94  F   UNL A   1      48.283  27.221  36.368  1.00  0.00    -0.200 F 
ENDBRANCH  61  84
ENDBRANCH  35  36
ENDBRANCH  27  30
ENDBRANCH  25  26
ENDBRANCH  24  25
ENDBRANCH   1  24
TORSDOF 13
ENDMDL
MODEL 3
REMARK VINA RESULT:     -12.5      4.456      9.432
REMARK SMILES C[C@@H]1CCCN(C(=O)c2ccncc2/C=C/C(=O)NCCCNC(=O)c2ccc(-c3c4nc(c(-c5c(F)c(F)c(F)c(F)c5F)c5ccc([nH]5)c(-c5c(F)c(F)c(F)c(F)c5F)c5nc(c(-c6c(F)c(F)c(F)c(F)c6F)c6ccc3[nH]6)C=C5)C=C4)cc2)[C@@H]1C
REMARK SMILES IDX 20 1 19 2 17 3 18 4 16 6 15 7 14 8 9 9 10 10 11 11 13 12
REMARK SMILES IDX 12 13 7 14 8 15 6 16 1 17 2 18 3 19 89 20 4 21 90 22 5 23
REMARK SMILES IDX 21 24 22 25 23 26 24 27 25 29 26 30 27 31 88 32 28 33 87 34
REMARK SMILES IDX 29 35 30 36 31 37 81 38 32 39 86 40 80 41 82 42 33 43 85 44
REMARK SMILES IDX 79 45 78 46 34 48 66 49 46 50 65 51 47 52 50 53 64 54 83 55
REMARK SMILES IDX 48 56 49 57 63 59 84 60 51 61 35 62 36 63 44 64 37 65 38 66
REMARK SMILES IDX 42 67 45 68 39 69 40 70 43 71 41 72 67 73 68 74 76 75 69 76
REMARK SMILES IDX 70 77 74 78 77 79 71 80 72 81 75 82 73 83 52 84 53 85 61 86
REMARK SMILES IDX 54 87 55 88 59 89 62 90 56 91 57 92 60 93 58 94
REMARK H PARENT 19 5 23 28 82 47 50 58
REMARK Flexibility Score: inf
ROOT
ATOM      1  C   UNL A   1      37.419  20.811  24.632  1.00  0.00     0.118 C 
ENDROOT
BRANCH   1   2
ATOM      2  N   UNL A   1      38.026  22.071  25.033  1.00  0.00    -0.352 N 
ATOM      3  C   UNL A   1      37.482  23.153  25.647  1.00  0.00     0.244 C 
ATOM      4  O   UNL A   1      38.200  24.096  25.974  1.00  0.00    -0.270 OA
ATOM      5  H   UNL A   1      38.984  22.153  24.824  1.00  0.00     0.163 HD
BRANCH   3   6
ATOM      6  C   UNL A   1      36.050  23.180  26.015  1.00  0.00     0.072 C 
ATOM      7  C   UNL A   1      35.215  24.190  25.727  1.00  0.00     0.016 C 
BRANCH   7   8
ATOM      8  C   UNL A   1      33.803  24.190  26.149  1.00  0.00     0.006 A 
ATOM      9  C   UNL A   1      32.940  25.280  25.959  1.00  0.00     0.050 A 
ATOM     10  C   UNL A   1      31.589  25.194  26.321  1.00  0.00     0.034 A 
ATOM     11  C   UNL A   1      31.157  24.045  26.951  1.00  0.00     0.112 A 
ATOM     12  C   UNL A   1      33.253  23.093  26.808  1.00  0.00     0.119 A 
ATOM     13  N   UNL A   1      31.964  23.000  27.220  1.00  0.00    -0.264 NA
BRANCH   9  14
ATOM     14  C   UNL A   1      33.414  26.520  25.303  1.00  0.00     0.254 C 
ATOM     15  O   UNL A   1      34.045  27.293  26.017  1.00  0.00    -0.269 OA
BRANCH  14  16
ATOM     16  N   UNL A   1      33.119  26.733  23.949  1.00  0.00    -0.336 N 
ATOM     17  C   UNL A   1      30.066  26.263  23.515  1.00  0.00     0.010 C 
ATOM     18  C   UNL A   1      31.009  27.119  22.664  1.00  0.00     0.008 C 
ATOM     19  C   UNL A   1      31.600  26.293  21.510  1.00  0.00     0.007 C 
ATOM     20  C   UNL A   1      32.154  27.767  23.491  1.00  0.00     0.085 C 
ATOM     21  C   UNL A   1      32.620  25.274  22.006  1.00  0.00     0.022 C 
ATOM     22  C   UNL A   1      31.605  28.750  24.529  1.00  0.00     0.031 C 
ATOM     23  C   UNL A   1      33.699  25.938  22.856  1.00  0.00     0.120 C 
ENDBRANCH  14  16
ENDBRANCH   9  14
ENDBRANCH   7   8
ENDBRANCH   3   6
ENDBRANCH   1   2
BRANCH   1  24
ATOM     24  C   UNL A   1      38.361  19.640  24.889  1.00  0.00     0.042 C 
BRANCH  24  25
ATOM     25  C   UNL A   1      39.323  19.850  26.058  1.00  0.00     0.118 C 
BRANCH  25  26
ATOM     26  N   UNL A   1      40.514  19.022  25.942  1.00  0.00    -0.352 N 
ATOM     27  C   UNL A   1      41.845  19.356  25.973  1.00  0.00     0.251 C 
ATOM     28  H   UNL A   1      40.335  18.062  25.822  1.00  0.00     0.163 HD
ATOM     29  O   UNL A   1      42.678  18.520  25.626  1.00  0.00    -0.269 OA
BRANCH  27  30
ATOM     30  C   UNL A   1      42.312  20.694  26.412  1.00  0.00     0.039 A 
ATOM     31  C   UNL A   1      42.265  20.999  27.779  1.00  0.00     0.014 A 
ATOM     32  C   UNL A   1      42.694  21.684  25.503  1.00  0.00     0.014 A 
ATOM     33  C   UNL A   1      42.630  22.270  28.234  1.00  0.00     0.010 A 
ATOM     34  C   UNL A   1      43.116  22.935  25.962  1.00  0.00     0.010 A 
ATOM     35  C   UNL A   1      43.077  23.247  27.331  1.00  0.00    -0.014 A 
BRANCH  35  36
ATOM     36  C   UNL A   1      43.485  24.599  27.799  1.00  0.00     0.031 A 
ATOM     37  C   UNL A   1      42.447  25.632  28.147  1.00  0.00     0.074 A 
ATOM     38  C   UNL A   1      44.792  24.922  27.861  1.00  0.00     0.049 A 
ATOM     39  N   UNL A   1      42.606  26.888  28.485  1.00  0.00    -0.248 NA
ATOM     40  C   UNL A   1      41.041  25.203  28.083  1.00  0.00     0.031 C 
ATOM     41  C   UNL A   1      45.899  24.030  27.518  1.00  0.00     0.029 A 
ATOM     42  N   UNL A   1      45.408  26.096  28.221  1.00  0.00    -0.354 N 
ATOM     43  C   UNL A   1      41.327  27.404  28.645  1.00  0.00     0.074 A 
ATOM     44  C   UNL A   1      40.400  26.335  28.341  1.00  0.00     0.031 C 
ATOM     45  C   UNL A   1      47.059  24.684  27.691  1.00  0.00     0.029 A 
ATOM     46  C   UNL A   1      46.778  26.049  28.127  1.00  0.00     0.049 A 
ATOM     47  H   UNL A   1      44.915  26.894  28.517  1.00  0.00     0.167 HD
ATOM     48  C   UNL A   1      40.959  28.652  29.023  1.00  0.00     0.037 A 
ATOM     49  C   UNL A   1      47.702  27.003  28.352  1.00  0.00     0.037 A 
ATOM     50  C   UNL A   1      41.875  29.705  29.375  1.00  0.00     0.049 A 
ATOM     51  C   UNL A   1      47.266  28.370  28.802  1.00  0.00     0.074 A 
ATOM     52  C   UNL A   1      41.590  30.975  29.845  1.00  0.00     0.029 A 
ATOM     53  N   UNL A   1      43.256  29.606  29.300  1.00  0.00    -0.354 N 
ATOM     54  N   UNL A   1      46.055  28.828  29.000  1.00  0.00    -0.248 NA
ATOM     55  C   UNL A   1      48.328  29.352  29.064  1.00  0.00     0.031 C 
ATOM     56  C   UNL A   1      42.799  31.658  30.024  1.00  0.00     0.029 A 
ATOM     57  C   UNL A   1      43.836  30.800  29.700  1.00  0.00     0.049 A 
ATOM     58  H   UNL A   1      43.750  28.808  29.006  1.00  0.00     0.167 HD
ATOM     59  C   UNL A   1      46.208  30.140  29.426  1.00  0.00     0.074 A 
ATOM     60  C   UNL A   1      47.630  30.402  29.475  1.00  0.00     0.031 C 
ATOM     61  C   UNL A   1      45.253  31.047  29.746  1.00  0.00     0.037 A 
BRANCH  48  62
ATOM     62  C   UNL A   1      39.490  28.956  29.083  1.00  0.00     0.064 A 
ATOM     63  C   UNL A   1      38.775  28.896  30.288  1.00  0.00     0.173 A 
ATOM     64  C   UNL A   1      38.803  29.366  27.931  1.00  0.00     0.173 A 
ATOM     65  F   UNL A   1      39.386  28.500  31.416  1.00  0.00    -0.203 F 
ATOM     66  C   UNL A   1      37.421  29.215  30.333  1.00  0.00     0.198 A 
ATOM     67  C   UNL A   1      37.454  29.708  27.984  1.00  0.00     0.198 A 
ATOM     68  F   UNL A   1      39.443  29.447  26.754  1.00  0.00    -0.203 F 
ATOM     69  F   UNL A   1      36.749  29.117  31.489  1.00  0.00    -0.200 F 
ATOM     70  C   UNL A   1      36.764  29.627  29.184  1.00  0.00     0.200 A 
ATOM     71  F   UNL A   1      36.823  30.116  26.875  1.00  0.00    -0.200 F 
ATOM     72  F   UNL A   1      35.462  29.943  29.232  1.00  0.00    -0.200 F 
ENDBRANCH  48  62
BRANCH  49  73
ATOM     73  C   UNL A   1      49.141  26.691  28.169  1.00  0.00     0.064 A 
ATOM     74  C   UNL A   1      49.953  26.372  29.266  1.00  0.00     0.173 A 
ATOM     75  C   UNL A   1      49.733  26.707  26.898  1.00  0.00     0.173 A 
ATOM     76  F   UNL A   1      49.435  26.367  30.503  1.00  0.00    -0.203 F 
ATOM     77  C   UNL A   1      51.309  26.096  29.100  1.00  0.00     0.198 A 
ATOM     78  C   UNL A   1      51.084  26.407  26.732  1.00  0.00     0.198 A 
ATOM     79  F   UNL A   1      48.997  27.003  25.817  1.00  0.00    -0.203 F 
ATOM     80  F   UNL A   1      52.072  25.832  30.170  1.00  0.00    -0.200 F 
ATOM     81  C   UNL A   1      51.872  26.108  27.833  1.00  0.00     0.200 A 
ATOM     82  F   UNL A   1      51.621  26.407  25.503  1.00  0.00    -0.200 F 
ATOM     83  F   UNL A   1      53.174  25.837  27.673  1.00  0.00    -0.200 F 
ENDBRANCH  49  73
BRANCH  61  84
ATOM     84  C   UNL A   1      45.716  32.399  30.197  1.00  0.00     0.064 A 
ATOM     85  C   UNL A   1      46.002  32.662  31.545  1.00  0.00     0.173 A 
ATOM     86  C   UNL A   1      45.907  33.433  29.269  1.00  0.00     0.173 A 
ATOM     87  F   UNL A   1      45.818  31.709  32.472  1.00  0.00    -0.203 F 
ATOM     88  C   UNL A   1      46.444  33.919  31.949  1.00  0.00     0.198 A 
ATOM     89  C   UNL A   1      46.370  34.681  29.675  1.00  0.00     0.198 A 
ATOM     90  F   UNL A   1      45.650  33.230  27.968  1.00  0.00    -0.203 F 
ATOM     91  F   UNL A   1      46.673  34.159  33.248  1.00  0.00    -0.200 F 
ATOM     92  C   UNL A   1      46.632  34.925  31.014  1.00  0.00     0.200 A 
ATOM     93  F   UNL A   1      46.560  35.651  28.769  1.00  0.00    -0.200 F 
ATOM     94  F   UNL A   1      47.061  36.133  31.406  1.00  0.00    -0.200 F 
ENDBRANCH  61  84
ENDBRANCH  35  36
ENDBRANCH  27  30
ENDBRANCH  25  26
ENDBRANCH  24  25
ENDBRANCH   1  24
TORSDOF 13
ENDMDL
