MODEL 1
REMARK VINA RESULT:     -13.0      0.000      0.000
REMARK SMILES Cc1cccc([C@@H](CC(F)(F)F)C(=O)NCCCNC(=O)c2ccc(-c3c4nc(c(-c5c(F)c(F)c(F)c(F)c5F)c5ccc([nH]5)c(-c5c(F)c(F)c(F)c(F)c5F)c5nc(c(-c6c(F)c(F)c(F)c(F)c6F)c6ccc3[nH]6)C=C5)C=C4)cc2)c1
REMARK SMILES IDX 17 1 16 2 15 3 13 4 14 5 7 7 6 8 1 9 2 10 3 11 85 12 4 13
REMARK SMILES IDX 5 14 8 15 9 16 10 17 11 18 12 19 18 20 19 21 20 22 21 24
REMARK SMILES IDX 22 25 23 26 84 27 24 28 83 29 25 30 26 31 27 32 77 33 28 34
REMARK SMILES IDX 82 35 76 36 78 37 29 38 81 39 75 40 74 41 30 43 62 44 42 45
REMARK SMILES IDX 61 46 43 47 46 48 60 49 79 50 44 51 45 52 59 54 80 55 47 56
REMARK SMILES IDX 31 57 32 58 40 59 33 60 34 61 38 62 41 63 35 64 36 65 39 66
REMARK SMILES IDX 37 67 63 68 64 69 72 70 65 71 66 72 70 73 73 74 67 75 68 76
REMARK SMILES IDX 71 77 69 78 48 79 49 80 57 81 50 82 51 83 55 84 58 85 52 86
REMARK SMILES IDX 53 87 56 88 54 89
REMARK H PARENT 15 6 19 23 78 42 46 53
REMARK Flexibility Score: inf
ROOT
ATOM      1  C   UNL A   1      32.116  30.915  26.693  1.00  0.00     0.042 C 
ENDROOT
BRANCH   1   2
ATOM      2  C   UNL A   1      31.706  29.878  25.661  1.00  0.00     0.117 C 
BRANCH   2   3
ATOM      3  N   UNL A   1      32.722  29.669  24.644  1.00  0.00    -0.356 N 
ATOM      4  C   UNL A   1      32.773  28.933  23.508  1.00  0.00     0.227 C 
ATOM      5  O   UNL A   1      33.831  29.027  22.868  1.00  0.00    -0.274 OA
ATOM      6  H   UNL A   1      33.551  30.169  24.818  1.00  0.00     0.163 HD
BRANCH   4   7
ATOM      7  C   UNL A   1      31.654  28.038  22.961  1.00  0.00     0.117 C 
BRANCH   7   8
ATOM      8  C   UNL A   1      30.335  28.736  22.644  1.00  0.00    -0.035 A 
ATOM      9  C   UNL A   1      26.629  28.229  23.500  1.00  0.00     0.044 C 
ATOM     10  C   UNL A   1      27.895  28.828  22.960  1.00  0.00    -0.051 A 
ATOM     11  C   UNL A   1      27.842  29.997  22.201  1.00  0.00     0.003 A 
ATOM     12  C   UNL A   1      29.141  28.230  23.202  1.00  0.00     0.008 A 
ATOM     13  C   UNL A   1      29.005  30.506  21.631  1.00  0.00     0.001 A 
ATOM     14  C   UNL A   1      30.230  29.856  21.818  1.00  0.00     0.004 A 
ENDBRANCH   7   8
BRANCH   7  15
ATOM     15  C   UNL A   1      32.060  26.822  22.114  1.00  0.00     0.133 C 
BRANCH  15  16
ATOM     16  C   UNL A   1      32.620  25.598  22.781  1.00  0.00     0.390 C 
ATOM     17  F   UNL A   1      32.477  24.495  22.018  1.00  0.00    -0.171 F 
ATOM     18  F   UNL A   1      33.949  25.757  22.991  1.00  0.00    -0.171 F 
ATOM     19  F   UNL A   1      32.065  25.362  23.985  1.00  0.00    -0.171 F 
ENDBRANCH  15  16
ENDBRANCH   7  15
ENDBRANCH   4   7
ENDBRANCH   2   3
ENDBRANCH   1   2
BRANCH   1  20
ATOM     20  C   UNL A   1      33.246  30.457  27.593  1.00  0.00     0.118 C 
BRANCH  20  21
ATOM     21  N   UNL A   1      34.002  31.554  28.203  1.00  0.00    -0.352 N 
ATOM     22  C   UNL A   1      35.270  31.519  28.765  1.00  0.00     0.251 C 
ATOM     23  H   UNL A   1      33.551  32.429  28.217  1.00  0.00     0.163 HD
ATOM     24  O   UNL A   1      35.803  32.527  29.196  1.00  0.00    -0.269 OA
BRANCH  22  25
ATOM     25  C   UNL A   1      36.015  30.240  28.699  1.00  0.00     0.039 A 
ATOM     26  C   UNL A   1      36.370  29.638  29.908  1.00  0.00     0.014 A 
ATOM     27  C   UNL A   1      36.634  29.882  27.509  1.00  0.00     0.014 A 
ATOM     28  C   UNL A   1      37.545  28.895  29.961  1.00  0.00     0.010 A 
ATOM     29  C   UNL A   1      37.867  29.267  27.589  1.00  0.00     0.010 A 
ATOM     30  C   UNL A   1      38.358  28.843  28.830  1.00  0.00    -0.014 A 
BRANCH  30  31
ATOM     31  C   UNL A   1      39.776  28.502  28.888  1.00  0.00     0.031 A 
ATOM     32  C   UNL A   1      40.222  27.122  28.589  1.00  0.00     0.074 A 
ATOM     33  C   UNL A   1      40.696  29.469  29.127  1.00  0.00     0.049 A 
ATOM     34  N   UNL A   1      41.395  26.672  28.880  1.00  0.00    -0.248 NA
ATOM     35  C   UNL A   1      39.353  26.096  28.009  1.00  0.00     0.031 C 
ATOM     36  C   UNL A   1      42.138  29.394  28.894  1.00  0.00     0.029 A 
ATOM     37  N   UNL A   1      40.527  30.677  29.836  1.00  0.00    -0.354 N 
ATOM     38  C   UNL A   1      41.539  25.453  28.270  1.00  0.00     0.074 A 
ATOM     39  C   UNL A   1      40.211  25.080  27.862  1.00  0.00     0.031 C 
ATOM     40  C   UNL A   1      42.755  30.292  29.674  1.00  0.00     0.029 A 
ATOM     41  C   UNL A   1      41.744  30.877  30.534  1.00  0.00     0.049 A 
ATOM     42  H   UNL A   1      39.731  31.257  29.846  1.00  0.00     0.167 HD
ATOM     43  C   UNL A   1      42.795  24.972  28.067  1.00  0.00     0.037 A 
ATOM     44  C   UNL A   1      41.807  30.905  31.896  1.00  0.00     0.037 A 
ATOM     45  C   UNL A   1      43.768  25.691  28.887  1.00  0.00     0.049 A 
ATOM     46  C   UNL A   1      42.721  29.867  32.504  1.00  0.00     0.074 A 
ATOM     47  C   UNL A   1      44.779  26.593  28.614  1.00  0.00     0.029 A 
ATOM     48  N   UNL A   1      43.605  25.684  30.272  1.00  0.00    -0.354 N 
ATOM     49  N   UNL A   1      43.176  28.832  31.855  1.00  0.00    -0.248 NA
ATOM     50  C   UNL A   1      43.154  29.884  33.898  1.00  0.00     0.031 C 
ATOM     51  C   UNL A   1      45.162  27.197  29.845  1.00  0.00     0.029 A 
ATOM     52  C   UNL A   1      44.419  26.626  30.864  1.00  0.00     0.049 A 
ATOM     53  H   UNL A   1      42.993  25.088  30.759  1.00  0.00     0.167 HD
ATOM     54  C   UNL A   1      43.885  28.030  32.710  1.00  0.00     0.074 A 
ATOM     55  C   UNL A   1      43.872  28.750  33.970  1.00  0.00     0.031 C 
ATOM     56  C   UNL A   1      44.391  26.825  32.308  1.00  0.00     0.037 A 
BRANCH  43  57
ATOM     57  C   UNL A   1      43.185  23.966  27.004  1.00  0.00     0.064 A 
ATOM     58  C   UNL A   1      42.876  22.598  27.177  1.00  0.00     0.173 A 
ATOM     59  C   UNL A   1      43.983  24.248  25.873  1.00  0.00     0.173 A 
ATOM     60  F   UNL A   1      42.141  22.180  28.217  1.00  0.00    -0.203 F 
ATOM     61  C   UNL A   1      43.335  21.606  26.301  1.00  0.00     0.198 A 
ATOM     62  C   UNL A   1      44.390  23.264  24.968  1.00  0.00     0.198 A 
ATOM     63  F   UNL A   1      44.463  25.470  25.623  1.00  0.00    -0.203 F 
ATOM     64  F   UNL A   1      43.063  20.318  26.553  1.00  0.00    -0.200 F 
ATOM     65  C   UNL A   1      44.080  21.940  25.189  1.00  0.00     0.200 A 
ATOM     66  F   UNL A   1      45.119  23.612  23.897  1.00  0.00    -0.200 F 
ATOM     67  F   UNL A   1      44.517  20.994  24.348  1.00  0.00    -0.200 F 
ENDBRANCH  43  57
BRANCH  44  68
ATOM     68  C   UNL A   1      40.578  31.440  32.531  1.00  0.00     0.064 A 
ATOM     69  C   UNL A   1      40.367  32.831  32.499  1.00  0.00     0.173 A 
ATOM     70  C   UNL A   1      39.475  30.621  32.792  1.00  0.00     0.173 A 
ATOM     71  F   UNL A   1      41.396  33.658  32.253  1.00  0.00    -0.203 F 
ATOM     72  C   UNL A   1      39.087  33.371  32.603  1.00  0.00     0.198 A 
ATOM     73  C   UNL A   1      38.193  31.167  32.903  1.00  0.00     0.198 A 
ATOM     74  F   UNL A   1      39.609  29.288  32.809  1.00  0.00    -0.203 F 
ATOM     75  F   UNL A   1      38.905  34.691  32.458  1.00  0.00    -0.200 F 
ATOM     76  C   UNL A   1      37.998  32.534  32.773  1.00  0.00     0.200 A 
ATOM     77  F   UNL A   1      37.133  30.357  33.030  1.00  0.00    -0.200 F 
ATOM     78  F   UNL A   1      36.756  33.040  32.764  1.00  0.00    -0.200 F 
ENDBRANCH  44  68
BRANCH  56  79
ATOM     79  C   UNL A   1      44.954  25.749  33.209  1.00  0.00     0.064 A 
ATOM     80  C   UNL A   1      46.306  25.364  33.236  1.00  0.00     0.173 A 
ATOM     81  C   UNL A   1      44.141  25.158  34.209  1.00  0.00     0.173 A 
ATOM     82  F   UNL A   1      47.212  25.938  32.434  1.00  0.00    -0.203 F 
ATOM     83  C   UNL A   1      46.790  24.413  34.141  1.00  0.00     0.198 A 
ATOM     84  C   UNL A   1      44.640  24.257  35.149  1.00  0.00     0.198 A 
ATOM     85  F   UNL A   1      42.839  25.463  34.322  1.00  0.00    -0.203 F 
ATOM     86  F   UNL A   1      48.081  24.051  34.094  1.00  0.00    -0.200 F 
ATOM     87  C   UNL A   1      45.962  23.870  35.104  1.00  0.00     0.200 A 
ATOM     88  F   UNL A   1      43.835  23.782  36.110  1.00  0.00    -0.200 F 
ATOM     89  F   UNL A   1      46.442  22.995  35.998  1.00  0.00    -0.200 F 
ENDBRANCH  56  79
ENDBRANCH  30  31
ENDBRANCH  22  25
ENDBRANCH  20  21
ENDBRANCH   1  20
TORSDOF 13
ENDMDL
MODEL 2
REMARK VINA RESULT:     -13.0      4.244     10.018
REMARK SMILES Cc1cccc([C@@H](CC(F)(F)F)C(=O)NCCCNC(=O)c2ccc(-c3c4nc(c(-c5c(F)c(F)c(F)c(F)c5F)c5ccc([nH]5)c(-c5c(F)c(F)c(F)c(F)c5F)c5nc(c(-c6c(F)c(F)c(F)c(F)c6F)c6ccc3[nH]6)C=C5)C=C4)cc2)c1
REMARK SMILES IDX 17 1 16 2 15 3 13 4 14 5 7 7 6 8 1 9 2 10 3 11 85 12 4 13
REMARK SMILES IDX 5 14 8 15 9 16 10 17 11 18 12 19 18 20 19 21 20 22 21 24
REMARK SMILES IDX 22 25 23 26 84 27 24 28 83 29 25 30 26 31 27 32 77 33 28 34
REMARK SMILES IDX 82 35 76 36 78 37 29 38 81 39 75 40 74 41 30 43 62 44 42 45
REMARK SMILES IDX 61 46 43 47 46 48 60 49 79 50 44 51 45 52 59 54 80 55 47 56
REMARK SMILES IDX 31 57 32 58 40 59 33 60 34 61 38 62 41 63 35 64 36 65 39 66
REMARK SMILES IDX 37 67 63 68 64 69 72 70 65 71 66 72 70 73 73 74 67 75 68 76
REMARK SMILES IDX 71 77 69 78 48 79 49 80 57 81 50 82 51 83 55 84 58 85 52 86
REMARK SMILES IDX 53 87 56 88 54 89
REMARK H PARENT 15 6 19 23 78 42 46 53
REMARK Flexibility Score: inf
ROOT
ATOM      1  C   UNL A   1      38.295  21.554  25.717  1.00  0.00     0.042 C 
ENDROOT
BRANCH   1   2
ATOM      2  C   UNL A   1      36.869  21.517  25.194  1.00  0.00     0.117 C 
BRANCH   2   3
ATOM      3  N   UNL A   1      35.887  21.399  26.257  1.00  0.00    -0.356 N 
ATOM      4  C   UNL A   1      34.557  21.639  26.334  1.00  0.00     0.227 C 
ATOM      5  O   UNL A   1      34.040  21.391  27.434  1.00  0.00    -0.274 OA
ATOM      6  H   UNL A   1      36.271  21.073  27.103  1.00  0.00     0.163 HD
BRANCH   4   7
ATOM      7  C   UNL A   1      33.666  22.160  25.199  1.00  0.00     0.117 C 
BRANCH   7   8
ATOM      8  C   UNL A   1      33.740  23.660  24.928  1.00  0.00    -0.035 A 
ATOM      9  C   UNL A   1      33.237  25.981  21.913  1.00  0.00     0.044 C 
ATOM     10  C   UNL A   1      33.482  25.502  23.315  1.00  0.00    -0.051 A 
ATOM     11  C   UNL A   1      33.756  26.424  24.326  1.00  0.00     0.003 A 
ATOM     12  C   UNL A   1      33.442  24.136  23.632  1.00  0.00     0.008 A 
ATOM     13  C   UNL A   1      34.065  25.975  25.606  1.00  0.00     0.001 A 
ATOM     14  C   UNL A   1      34.097  24.606  25.890  1.00  0.00     0.004 A 
ENDBRANCH   7   8
BRANCH   7  15
ATOM     15  C   UNL A   1      33.384  21.217  24.020  1.00  0.00     0.133 C 
BRANCH  15  16
ATOM     16  C   UNL A   1      33.040  19.777  24.278  1.00  0.00     0.390 C 
ATOM     17  F   UNL A   1      32.238  19.633  25.352  1.00  0.00    -0.171 F 
ATOM     18  F   UNL A   1      32.367  19.270  23.217  1.00  0.00    -0.171 F 
ATOM     19  F   UNL A   1      34.130  19.005  24.449  1.00  0.00    -0.171 F 
ENDBRANCH  15  16
ENDBRANCH   7  15
ENDBRANCH   4   7
ENDBRANCH   2   3
ENDBRANCH   1   2
BRANCH   1  20
ATOM     20  C   UNL A   1      38.787  22.953  26.032  1.00  0.00     0.118 C 
BRANCH  20  21
ATOM     21  N   UNL A   1      40.210  23.020  26.377  1.00  0.00    -0.352 N 
ATOM     22  C   UNL A   1      40.945  24.120  26.792  1.00  0.00     0.251 C 
ATOM     23  H   UNL A   1      40.708  22.174  26.302  1.00  0.00     0.163 HD
ATOM     24  O   UNL A   1      42.122  24.022  27.095  1.00  0.00    -0.269 OA
BRANCH  22  25
ATOM     25  C   UNL A   1      40.220  25.397  26.988  1.00  0.00     0.039 A 
ATOM     26  C   UNL A   1      40.674  26.512  26.280  1.00  0.00     0.014 A 
ATOM     27  C   UNL A   1      39.388  25.536  28.092  1.00  0.00     0.014 A 
ATOM     28  C   UNL A   1      40.531  27.769  26.858  1.00  0.00     0.010 A 
ATOM     29  C   UNL A   1      39.371  26.760  28.730  1.00  0.00     0.010 A 
ATOM     30  C   UNL A   1      40.012  27.860  28.148  1.00  0.00    -0.014 A 
BRANCH  30  31
ATOM     31  C   UNL A   1      40.230  29.018  29.011  1.00  0.00     0.031 A 
ATOM     32  C   UNL A   1      39.224  30.103  29.067  1.00  0.00     0.074 A 
ATOM     33  C   UNL A   1      41.311  29.059  29.829  1.00  0.00     0.049 A 
ATOM     34  N   UNL A   1      39.457  31.266  29.574  1.00  0.00    -0.248 NA
ATOM     35  C   UNL A   1      37.887  30.003  28.478  1.00  0.00     0.031 C 
ATOM     36  C   UNL A   1      41.517  29.943  30.976  1.00  0.00     0.029 A 
ATOM     37  N   UNL A   1      42.558  28.424  29.658  1.00  0.00    -0.354 N 
ATOM     38  C   UNL A   1      38.261  31.931  29.662  1.00  0.00     0.074 A 
ATOM     39  C   UNL A   1      37.349  31.168  28.851  1.00  0.00     0.031 C 
ATOM     40  C   UNL A   1      42.831  30.045  31.219  1.00  0.00     0.029 A 
ATOM     41  C   UNL A   1      43.518  29.341  30.153  1.00  0.00     0.049 A 
ATOM     42  H   UNL A   1      42.727  27.533  29.274  1.00  0.00     0.167 HD
ATOM     43  C   UNL A   1      38.160  32.976  30.526  1.00  0.00     0.037 A 
ATOM     44  C   UNL A   1      44.481  29.890  29.358  1.00  0.00     0.037 A 
ATOM     45  C   UNL A   1      39.483  33.440  30.940  1.00  0.00     0.049 A 
ATOM     46  C   UNL A   1      44.457  31.398  29.293  1.00  0.00     0.074 A 
ATOM     47  C   UNL A   1      40.198  33.385  32.122  1.00  0.00     0.029 A 
ATOM     48  N   UNL A   1      40.373  33.876  29.959  1.00  0.00    -0.354 N 
ATOM     49  N   UNL A   1      43.448  32.126  29.685  1.00  0.00    -0.248 NA
ATOM     50  C   UNL A   1      45.540  32.204  28.737  1.00  0.00     0.031 C 
ATOM     51  C   UNL A   1      41.552  33.706  31.822  1.00  0.00     0.029 A 
ATOM     52  C   UNL A   1      41.645  34.002  30.473  1.00  0.00     0.049 A 
ATOM     53  H   UNL A   1      40.125  34.067  29.026  1.00  0.00     0.167 HD
ATOM     54  C   UNL A   1      43.693  33.443  29.397  1.00  0.00     0.074 A 
ATOM     55  C   UNL A   1      45.031  33.444  28.836  1.00  0.00     0.031 C 
ATOM     56  C   UNL A   1      42.752  34.410  29.617  1.00  0.00     0.037 A 
BRANCH  43  57
ATOM     57  C   UNL A   1      36.872  33.482  31.140  1.00  0.00     0.064 A 
ATOM     58  C   UNL A   1      36.575  33.202  32.493  1.00  0.00     0.173 A 
ATOM     59  C   UNL A   1      35.828  34.116  30.430  1.00  0.00     0.173 A 
ATOM     60  F   UNL A   1      37.465  32.587  33.285  1.00  0.00    -0.203 F 
ATOM     61  C   UNL A   1      35.340  33.519  33.074  1.00  0.00     0.198 A 
ATOM     62  C   UNL A   1      34.619  34.485  31.028  1.00  0.00     0.198 A 
ATOM     63  F   UNL A   1      35.895  34.349  29.116  1.00  0.00    -0.203 F 
ATOM     64  F   UNL A   1      35.093  33.170  34.344  1.00  0.00    -0.200 F 
ATOM     65  C   UNL A   1      34.368  34.173  32.346  1.00  0.00     0.200 A 
ATOM     66  F   UNL A   1      33.686  35.114  30.298  1.00  0.00    -0.200 F 
ATOM     67  F   UNL A   1      33.188  34.480  32.900  1.00  0.00    -0.200 F 
ENDBRANCH  43  57
BRANCH  44  68
ATOM     68  C   UNL A   1      44.919  28.992  28.261  1.00  0.00     0.064 A 
ATOM     69  C   UNL A   1      45.783  27.928  28.580  1.00  0.00     0.173 A 
ATOM     70  C   UNL A   1      44.221  28.922  27.051  1.00  0.00     0.173 A 
ATOM     71  F   UNL A   1      46.476  27.951  29.729  1.00  0.00    -0.203 F 
ATOM     72  C   UNL A   1      45.852  26.789  27.781  1.00  0.00     0.198 A 
ATOM     73  C   UNL A   1      44.297  27.780  26.249  1.00  0.00     0.198 A 
ATOM     74  F   UNL A   1      43.363  29.894  26.706  1.00  0.00    -0.203 F 
ATOM     75  F   UNL A   1      46.599  25.746  28.169  1.00  0.00    -0.200 F 
ATOM     76  C   UNL A   1      45.084  26.704  26.633  1.00  0.00     0.200 A 
ATOM     77  F   UNL A   1      43.527  27.680  25.157  1.00  0.00    -0.200 F 
ATOM     78  F   UNL A   1      45.064  25.567  25.922  1.00  0.00    -0.200 F 
ENDBRANCH  44  68
BRANCH  56  79
ATOM     79  C   UNL A   1      42.801  35.833  29.107  1.00  0.00     0.064 A 
ATOM     80  C   UNL A   1      42.094  36.297  27.983  1.00  0.00     0.173 A 
ATOM     81  C   UNL A   1      43.470  36.836  29.853  1.00  0.00     0.173 A 
ATOM     82  F   UNL A   1      41.314  35.482  27.263  1.00  0.00    -0.203 F 
ATOM     83  C   UNL A   1      42.115  37.642  27.596  1.00  0.00     0.198 A 
ATOM     84  C   UNL A   1      43.438  38.184  29.498  1.00  0.00     0.198 A 
ATOM     85  F   UNL A   1      44.153  36.538  30.968  1.00  0.00    -0.203 F 
ATOM     86  F   UNL A   1      41.458  38.023  26.490  1.00  0.00    -0.200 F 
ATOM     87  C   UNL A   1      42.775  38.585  28.358  1.00  0.00     0.200 A 
ATOM     88  F   UNL A   1      44.038  39.093  30.280  1.00  0.00    -0.200 F 
ATOM     89  F   UNL A   1      42.753  39.879  28.009  1.00  0.00    -0.200 F 
ENDBRANCH  56  79
ENDBRANCH  30  31
ENDBRANCH  22  25
ENDBRANCH  20  21
ENDBRANCH   1  20
TORSDOF 13
ENDMDL
MODEL 3
REMARK VINA RESULT:     -12.9      1.323      2.788
REMARK SMILES Cc1cccc([C@@H](CC(F)(F)F)C(=O)NCCCNC(=O)c2ccc(-c3c4nc(c(-c5c(F)c(F)c(F)c(F)c5F)c5ccc([nH]5)c(-c5c(F)c(F)c(F)c(F)c5F)c5nc(c(-c6c(F)c(F)c(F)c(F)c6F)c6ccc3[nH]6)C=C5)C=C4)cc2)c1
REMARK SMILES IDX 17 1 16 2 15 3 13 4 14 5 7 7 6 8 1 9 2 10 3 11 85 12 4 13
REMARK SMILES IDX 5 14 8 15 9 16 10 17 11 18 12 19 18 20 19 21 20 22 21 24
REMARK SMILES IDX 22 25 23 26 84 27 24 28 83 29 25 30 26 31 27 32 77 33 28 34
REMARK SMILES IDX 82 35 76 36 78 37 29 38 81 39 75 40 74 41 30 43 62 44 42 45
REMARK SMILES IDX 61 46 43 47 46 48 60 49 79 50 44 51 45 52 59 54 80 55 47 56
REMARK SMILES IDX 31 57 32 58 40 59 33 60 34 61 38 62 41 63 35 64 36 65 39 66
REMARK SMILES IDX 37 67 63 68 64 69 72 70 65 71 66 72 70 73 73 74 67 75 68 76
REMARK SMILES IDX 71 77 69 78 48 79 49 80 57 81 50 82 51 83 55 84 58 85 52 86
REMARK SMILES IDX 53 87 56 88 54 89
REMARK H PARENT 15 6 19 23 78 42 46 53
REMARK Flexibility Score: inf
ROOT
ATOM      1  C   UNL A   1      33.092  30.170  26.079  1.00  0.00     0.042 C 
ENDROOT
BRANCH   1   2
ATOM      2  C   UNL A   1      33.655  28.820  25.668  1.00  0.00     0.117 C 
BRANCH   2   3
ATOM      3  N   UNL A   1      34.014  28.769  24.262  1.00  0.00    -0.356 N 
ATOM      4  C   UNL A   1      33.668  27.956  23.235  1.00  0.00     0.227 C 
ATOM      5  O   UNL A   1      34.174  28.246  22.141  1.00  0.00    -0.274 OA
ATOM      6  H   UNL A   1      34.644  29.477  23.999  1.00  0.00     0.163 HD
BRANCH   4   7
ATOM      7  C   UNL A   1      32.716  26.756  23.315  1.00  0.00     0.117 C 
BRANCH   7   8
ATOM      8  C   UNL A   1      33.067  25.694  24.353  1.00  0.00    -0.035 A 
ATOM      9  C   UNL A   1      36.206  23.759  25.419  1.00  0.00     0.044 C 
ATOM     10  C   UNL A   1      34.797  24.278  25.386  1.00  0.00    -0.051 A 
ATOM     11  C   UNL A   1      33.857  23.796  26.296  1.00  0.00     0.003 A 
ATOM     12  C   UNL A   1      34.403  25.245  24.449  1.00  0.00     0.008 A 
ATOM     13  C   UNL A   1      32.532  24.214  26.211  1.00  0.00     0.001 A 
ATOM     14  C   UNL A   1      32.137  25.121  25.222  1.00  0.00     0.004 A 
ENDBRANCH   7   8
BRANCH   7  15
ATOM     15  C   UNL A   1      31.234  26.994  22.986  1.00  0.00     0.133 C 
BRANCH  15  16
ATOM     16  C   UNL A   1      30.476  28.081  23.693  1.00  0.00     0.390 C 
ATOM     17  F   UNL A   1      29.146  27.984  23.491  1.00  0.00    -0.171 F 
ATOM     18  F   UNL A   1      30.675  27.984  25.029  1.00  0.00    -0.171 F 
ATOM     19  F   UNL A   1      30.877  29.314  23.331  1.00  0.00    -0.171 F 
ENDBRANCH  15  16
ENDBRANCH   7  15
ENDBRANCH   4   7
ENDBRANCH   2   3
ENDBRANCH   1   2
BRANCH   1  20
ATOM     20  C   UNL A   1      33.095  30.395  27.578  1.00  0.00     0.118 C 
BRANCH  20  21
ATOM     21  N   UNL A   1      33.894  31.547  28.005  1.00  0.00    -0.352 N 
ATOM     22  C   UNL A   1      35.207  31.568  28.449  1.00  0.00     0.251 C 
ATOM     23  H   UNL A   1      33.438  32.419  27.973  1.00  0.00     0.163 HD
ATOM     24  O   UNL A   1      35.768  32.614  28.729  1.00  0.00    -0.269 OA
BRANCH  22  25
ATOM     25  C   UNL A   1      35.956  30.289  28.443  1.00  0.00     0.039 A 
ATOM     26  C   UNL A   1      36.241  29.703  29.678  1.00  0.00     0.014 A 
ATOM     27  C   UNL A   1      36.642  29.916  27.295  1.00  0.00     0.014 A 
ATOM     28  C   UNL A   1      37.411  28.962  29.808  1.00  0.00     0.010 A 
ATOM     29  C   UNL A   1      37.869  29.304  27.453  1.00  0.00     0.010 A 
ATOM     30  C   UNL A   1      38.287  28.896  28.726  1.00  0.00    -0.014 A 
BRANCH  30  31
ATOM     31  C   UNL A   1      39.700  28.558  28.869  1.00  0.00     0.031 A 
ATOM     32  C   UNL A   1      40.169  27.185  28.571  1.00  0.00     0.074 A 
ATOM     33  C   UNL A   1      40.598  29.521  29.188  1.00  0.00     0.049 A 
ATOM     34  N   UNL A   1      41.322  26.732  28.929  1.00  0.00    -0.248 NA
ATOM     35  C   UNL A   1      39.344  26.169  27.915  1.00  0.00     0.031 C 
ATOM     36  C   UNL A   1      42.054  29.455  29.048  1.00  0.00     0.029 A 
ATOM     37  N   UNL A   1      40.379  30.714  29.909  1.00  0.00    -0.354 N 
ATOM     38  C   UNL A   1      41.511  25.526  28.305  1.00  0.00     0.074 A 
ATOM     39  C   UNL A   1      40.213  25.159  27.803  1.00  0.00     0.031 C 
ATOM     40  C   UNL A   1      42.615  30.338  29.885  1.00  0.00     0.029 A 
ATOM     41  C   UNL A   1      41.547  30.902  30.689  1.00  0.00     0.049 A 
ATOM     42  H   UNL A   1      39.582  31.291  29.879  1.00  0.00     0.167 HD
ATOM     43  C   UNL A   1      42.779  25.052  28.174  1.00  0.00     0.037 A 
ATOM     44  C   UNL A   1      41.522  30.902  32.052  1.00  0.00     0.037 A 
ATOM     45  C   UNL A   1      43.694  25.756  29.071  1.00  0.00     0.049 A 
ATOM     46  C   UNL A   1      42.398  29.854  32.697  1.00  0.00     0.074 A 
ATOM     47  C   UNL A   1      44.717  26.666  28.884  1.00  0.00     0.029 A 
ATOM     48  N   UNL A   1      43.441  25.720  30.441  1.00  0.00    -0.354 N 
ATOM     49  N   UNL A   1      42.898  28.833  32.058  1.00  0.00    -0.248 NA
ATOM     50  C   UNL A   1      42.739  29.842  34.117  1.00  0.00     0.031 C 
ATOM     51  C   UNL A   1      45.017  27.245  30.149  1.00  0.00     0.029 A 
ATOM     52  C   UNL A   1      44.211  26.651  31.105  1.00  0.00     0.049 A 
ATOM     53  H   UNL A   1      42.800  25.113  30.876  1.00  0.00     0.167 HD
ATOM     54  C   UNL A   1      43.553  28.015  32.941  1.00  0.00     0.074 A 
ATOM     55  C   UNL A   1      43.455  28.709  34.212  1.00  0.00     0.031 C 
ATOM     56  C   UNL A   1      44.088  26.820  32.548  1.00  0.00     0.037 A 
BRANCH  43  57
ATOM     57  C   UNL A   1      43.241  24.069  27.119  1.00  0.00     0.064 A 
ATOM     58  C   UNL A   1      42.865  22.711  27.204  1.00  0.00     0.173 A 
ATOM     59  C   UNL A   1      44.164  24.359  26.089  1.00  0.00     0.173 A 
ATOM     60  F   UNL A   1      42.010  22.286  28.145  1.00  0.00    -0.203 F 
ATOM     61  C   UNL A   1      43.377  21.732  26.342  1.00  0.00     0.198 A 
ATOM     62  C   UNL A   1      44.627  23.392  25.192  1.00  0.00     0.198 A 
ATOM     63  F   UNL A   1      44.712  25.568  25.938  1.00  0.00    -0.203 F 
ATOM     64  F   UNL A   1      43.033  20.448  26.513  1.00  0.00    -0.200 F 
ATOM     65  C   UNL A   1      44.247  22.074  25.328  1.00  0.00     0.200 A 
ATOM     66  F   UNL A   1      45.477  23.747  24.218  1.00  0.00    -0.200 F 
ATOM     67  F   UNL A   1      44.735  21.142  24.500  1.00  0.00    -0.200 F 
ENDBRANCH  43  57
BRANCH  44  68
ATOM     68  C   UNL A   1      40.251  31.421  32.616  1.00  0.00     0.064 A 
ATOM     69  C   UNL A   1      40.047  32.813  32.619  1.00  0.00     0.173 A 
ATOM     70  C   UNL A   1      39.130  30.599  32.769  1.00  0.00     0.173 A 
ATOM     71  F   UNL A   1      41.093  33.643  32.477  1.00  0.00    -0.203 F 
ATOM     72  C   UNL A   1      38.765  33.355  32.651  1.00  0.00     0.198 A 
ATOM     73  C   UNL A   1      37.845  31.147  32.808  1.00  0.00     0.198 A 
ATOM     74  F   UNL A   1      39.260  29.265  32.748  1.00  0.00    -0.203 F 
ATOM     75  F   UNL A   1      38.597  34.681  32.540  1.00  0.00    -0.200 F 
ATOM     76  C   UNL A   1      37.664  32.519  32.713  1.00  0.00     0.200 A 
ATOM     77  F   UNL A   1      36.777  30.339  32.830  1.00  0.00    -0.200 F 
ATOM     78  F   UNL A   1      36.427  33.031  32.634  1.00  0.00    -0.200 F 
ENDBRANCH  44  68
BRANCH  56  79
ATOM     79  C   UNL A   1      44.595  25.727  33.462  1.00  0.00     0.064 A 
ATOM     80  C   UNL A   1      43.777  24.960  34.311  1.00  0.00     0.173 A 
ATOM     81  C   UNL A   1      45.948  25.311  33.393  1.00  0.00     0.173 A 
ATOM     82  F   UNL A   1      42.455  25.159  34.375  1.00  0.00    -0.203 F 
ATOM     83  C   UNL A   1      44.286  23.909  35.082  1.00  0.00     0.198 A 
ATOM     84  C   UNL A   1      46.439  24.224  34.117  1.00  0.00     0.198 A 
ATOM     85  F   UNL A   1      46.830  25.931  32.594  1.00  0.00    -0.203 F 
ATOM     86  F   UNL A   1      43.470  23.239  35.909  1.00  0.00    -0.200 F 
ATOM     87  C   UNL A   1      45.612  23.534  34.977  1.00  0.00     0.200 A 
ATOM     88  F   UNL A   1      47.713  23.839  33.960  1.00  0.00    -0.200 F 
ATOM     89  F   UNL A   1      46.083  22.498  35.683  1.00  0.00    -0.200 F 
ENDBRANCH  56  79
ENDBRANCH  30  31
ENDBRANCH  22  25
ENDBRANCH  20  21
ENDBRANCH   1  20
TORSDOF 13
ENDMDL
