MODEL 1
REMARK VINA RESULT:     -13.5      0.000      0.000
REMARK SMILES CCOc1ccc2[nH]c(C)c/c(=N\c3cccc(C(=O)NCCCNC(=O)c4ccc(-c5c6nc(c(-c7c(F)c(F)c(F)c(F)c7F)c7ccc([nH]7)c(-c7c(F)c(F)c(F)c(F)c7F)c7nc(c(-c8c(F)c(F)c(F)c(F)c8F)c8ccc5[nH]8)C=C7)C=C6)cc4)c3)c2c1
REMARK SMILES IDX 22 1 21 2 19 3 20 4 18 6 14 7 15 8 91 9 16 10 17 11 13 12
REMARK SMILES IDX 4 13 5 14 93 15 6 16 92 17 7 18 12 19 8 20 11 21 9 22 10 24
REMARK SMILES IDX 3 25 2 26 1 27 23 28 24 29 25 30 26 31 27 33 28 34 29 35
REMARK SMILES IDX 90 36 30 37 89 38 31 39 32 40 33 41 83 42 34 43 88 44 82 45
REMARK SMILES IDX 84 46 35 47 87 48 81 49 80 50 36 52 68 53 48 54 67 55 49 56
REMARK SMILES IDX 52 57 66 58 85 59 50 60 51 61 65 63 86 64 53 65 37 66 38 67
REMARK SMILES IDX 46 68 39 69 40 70 44 71 47 72 41 73 42 74 45 75 43 76 69 77
REMARK SMILES IDX 70 78 78 79 71 80 72 81 76 82 79 83 73 84 74 85 77 86 75 87
REMARK SMILES IDX 54 88 55 89 63 90 56 91 57 92 61 93 64 94 58 95 59 96 62 97
REMARK SMILES IDX 60 98
REMARK H PARENT 21 5 8 23 25 32 84 51 52 62
REMARK Flexibility Score: inf
ROOT
ATOM      1  C   UNL A   1      31.763  30.769  26.107  1.00  0.00     0.118 C 
ENDROOT
BRANCH   1   2
ATOM      2  N   UNL A   1      31.617  29.682  27.066  1.00  0.00    -0.352 N 
ATOM      3  C   UNL A   1      31.892  28.338  27.085  1.00  0.00     0.251 C 
ATOM      4  O   UNL A   1      31.582  27.739  28.119  1.00  0.00    -0.269 OA
ATOM      5  H   UNL A   1      31.222  29.989  27.915  1.00  0.00     0.163 HD
BRANCH   3   6
ATOM      6  C   UNL A   1      32.482  27.554  25.962  1.00  0.00     0.041 A 
ATOM      7  C   UNL A   1      33.895  25.808  25.040  1.00  0.00     0.064 A 
ATOM      8  C   UNL A   1      33.651  26.268  23.746  1.00  0.00     0.028 A 
ATOM      9  C   UNL A   1      33.207  26.379  26.111  1.00  0.00     0.042 A 
ATOM     10  C   UNL A   1      32.847  27.390  23.552  1.00  0.00     0.003 A 
ATOM     11  C   UNL A   1      32.300  28.050  24.659  1.00  0.00     0.014 A 
BRANCH   7  12
ATOM     12  N   UNL A   1      34.884  24.859  25.351  1.00  0.00    -0.248 NA
ATOM     13  C   UNL A   1      38.175  22.141  25.627  1.00  0.00     0.120 A 
ATOM     14  C   UNL A   1      37.921  20.786  25.419  1.00  0.00     0.048 A 
ATOM     15  C   UNL A   1      37.150  23.080  25.502  1.00  0.00     0.059 A 
ATOM     16  C   UNL A   1      36.660  20.367  25.002  1.00  0.00     0.030 A 
ATOM     17  C   UNL A   1      35.875  22.658  25.097  1.00  0.00     0.027 A 
ATOM     18  C   UNL A   1      35.632  21.297  24.823  1.00  0.00     0.048 A 
ATOM     19  C   UNL A   1      34.754  23.638  24.906  1.00  0.00     0.075 A 
ATOM     20  N   UNL A   1      34.388  20.878  24.341  1.00  0.00    -0.359 N 
ATOM     21  C   UNL A   1      33.550  23.094  24.182  1.00  0.00     0.050 A 
ATOM     22  C   UNL A   1      33.410  21.773  23.990  1.00  0.00     0.014 A 
ATOM     23  H   UNL A   1      34.210  19.914  24.250  1.00  0.00     0.166 HD
ATOM     24  C   UNL A   1      32.153  21.212  23.387  1.00  0.00     0.064 C 
BRANCH  13  25
ATOM     25  O   UNL A   1      39.403  22.555  26.063  1.00  0.00    -0.494 OA
BRANCH  25  26
ATOM     26  C   UNL A   1      40.198  21.492  26.609  1.00  0.00     0.226 C 
ATOM     27  C   UNL A   1      40.943  21.920  27.865  1.00  0.00     0.049 C 
ENDBRANCH  25  26
ENDBRANCH  13  25
ENDBRANCH   7  12
ENDBRANCH   3   6
ENDBRANCH   1   2
BRANCH   1  28
ATOM     28  C   UNL A   1      31.493  32.142  26.706  1.00  0.00     0.042 C 
BRANCH  28  29
ATOM     29  C   UNL A   1      32.735  32.831  27.251  1.00  0.00     0.118 C 
BRANCH  29  30
ATOM     30  N   UNL A   1      32.490  34.208  27.668  1.00  0.00    -0.352 N 
ATOM     31  C   UNL A   1      33.024  34.968  28.684  1.00  0.00     0.251 C 
ATOM     32  H   UNL A   1      31.822  34.680  27.121  1.00  0.00     0.163 HD
ATOM     33  O   UNL A   1      32.528  36.057  28.947  1.00  0.00    -0.269 OA
BRANCH  31  34
ATOM     34  C   UNL A   1      34.155  34.469  29.498  1.00  0.00     0.039 A 
ATOM     35  C   UNL A   1      35.468  34.552  29.044  1.00  0.00     0.014 A 
ATOM     36  C   UNL A   1      33.897  33.916  30.759  1.00  0.00     0.014 A 
ATOM     37  C   UNL A   1      36.480  33.883  29.723  1.00  0.00     0.010 A 
ATOM     38  C   UNL A   1      34.938  33.347  31.501  1.00  0.00     0.010 A 
ATOM     39  C   UNL A   1      36.227  33.262  30.957  1.00  0.00    -0.014 A 
BRANCH  39  40
ATOM     40  C   UNL A   1      37.324  32.519  31.634  1.00  0.00     0.031 A 
ATOM     41  C   UNL A   1      38.053  31.409  30.922  1.00  0.00     0.074 A 
ATOM     42  C   UNL A   1      37.714  32.891  32.868  1.00  0.00     0.049 A 
ATOM     43  N   UNL A   1      39.049  30.671  31.345  1.00  0.00    -0.248 NA
ATOM     44  C   UNL A   1      37.603  31.078  29.562  1.00  0.00     0.031 C 
ATOM     45  C   UNL A   1      37.092  33.953  33.661  1.00  0.00     0.029 A 
ATOM     46  N   UNL A   1      38.743  32.445  33.659  1.00  0.00    -0.354 N 
ATOM     47  C   UNL A   1      39.319  29.772  30.322  1.00  0.00     0.074 A 
ATOM     48  C   UNL A   1      38.369  30.038  29.265  1.00  0.00     0.031 C 
ATOM     49  C   UNL A   1      37.789  34.121  34.793  1.00  0.00     0.029 A 
ATOM     50  C   UNL A   1      38.863  33.134  34.841  1.00  0.00     0.049 A 
ATOM     51  H   UNL A   1      39.337  31.703  33.404  1.00  0.00     0.167 HD
ATOM     52  C   UNL A   1      40.280  28.818  30.266  1.00  0.00     0.037 A 
ATOM     53  C   UNL A   1      39.731  32.982  35.859  1.00  0.00     0.037 A 
ATOM     54  C   UNL A   1      41.255  28.585  31.299  1.00  0.00     0.049 A 
ATOM     55  C   UNL A   1      40.780  31.914  35.777  1.00  0.00     0.074 A 
ATOM     56  C   UNL A   1      42.299  27.677  31.310  1.00  0.00     0.029 A 
ATOM     57  N   UNL A   1      41.308  29.269  32.505  1.00  0.00    -0.354 N 
ATOM     58  N   UNL A   1      41.028  31.076  34.801  1.00  0.00    -0.248 NA
ATOM     59  C   UNL A   1      41.662  31.759  36.942  1.00  0.00     0.031 C 
ATOM     60  C   UNL A   1      42.956  27.780  32.540  1.00  0.00     0.029 A 
ATOM     61  C   UNL A   1      42.351  28.783  33.278  1.00  0.00     0.049 A 
ATOM     62  H   UNL A   1      40.694  29.991  32.773  1.00  0.00     0.167 HD
ATOM     63  C   UNL A   1      42.088  30.292  35.231  1.00  0.00     0.074 A 
ATOM     64  C   UNL A   1      42.456  30.773  36.547  1.00  0.00     0.031 C 
ATOM     65  C   UNL A   1      42.696  29.262  34.594  1.00  0.00     0.037 A 
BRANCH  52  66
ATOM     66  C   UNL A   1      40.320  27.936  29.051  1.00  0.00     0.064 A 
ATOM     67  C   UNL A   1      41.072  28.272  27.915  1.00  0.00     0.173 A 
ATOM     68  C   UNL A   1      39.633  26.712  29.044  1.00  0.00     0.173 A 
ATOM     69  F   UNL A   1      41.737  29.435  27.866  1.00  0.00    -0.203 F 
ATOM     70  C   UNL A   1      41.117  27.424  26.811  1.00  0.00     0.198 A 
ATOM     71  C   UNL A   1      39.703  25.855  27.950  1.00  0.00     0.198 A 
ATOM     72  F   UNL A   1      38.903  26.341  30.107  1.00  0.00    -0.203 F 
ATOM     73  F   UNL A   1      41.809  27.784  25.720  1.00  0.00    -0.200 F 
ATOM     74  C   UNL A   1      40.440  26.214  26.832  1.00  0.00     0.200 A 
ATOM     75  F   UNL A   1      39.057  24.681  27.976  1.00  0.00    -0.200 F 
ATOM     76  F   UNL A   1      40.493  25.398  25.770  1.00  0.00    -0.200 F 
ENDBRANCH  52  66
BRANCH  53  77
ATOM     77  C   UNL A   1      39.624  33.879  37.038  1.00  0.00     0.064 A 
ATOM     78  C   UNL A   1      40.237  35.138  37.045  1.00  0.00     0.173 A 
ATOM     79  C   UNL A   1      38.849  33.521  38.152  1.00  0.00     0.173 A 
ATOM     80  F   UNL A   1      41.002  35.516  36.011  1.00  0.00    -0.203 F 
ATOM     81  C   UNL A   1      40.073  36.010  38.119  1.00  0.00     0.198 A 
ATOM     82  C   UNL A   1      38.664  34.403  39.213  1.00  0.00     0.198 A 
ATOM     83  F   UNL A   1      38.239  32.327  38.189  1.00  0.00    -0.203 F 
ATOM     84  F   UNL A   1      40.680  37.204  38.109  1.00  0.00    -0.200 F 
ATOM     85  C   UNL A   1      39.276  35.646  39.196  1.00  0.00     0.200 A 
ATOM     86  F   UNL A   1      37.879  34.056  40.241  1.00  0.00    -0.200 F 
ATOM     87  F   UNL A   1      39.098  36.497  40.217  1.00  0.00    -0.200 F 
ENDBRANCH  53  77
BRANCH  65  88
ATOM     88  C   UNL A   1      43.817  28.573  35.310  1.00  0.00     0.064 A 
ATOM     89  C   UNL A   1      43.587  27.437  36.099  1.00  0.00     0.173 A 
ATOM     90  C   UNL A   1      45.140  29.014  35.158  1.00  0.00     0.173 A 
ATOM     91  F   UNL A   1      42.337  26.986  36.287  1.00  0.00    -0.203 F 
ATOM     92  C   UNL A   1      44.642  26.773  36.720  1.00  0.00     0.198 A 
ATOM     93  C   UNL A   1      46.195  28.333  35.759  1.00  0.00     0.198 A 
ATOM     94  F   UNL A   1      45.412  30.092  34.408  1.00  0.00    -0.203 F 
ATOM     95  F   UNL A   1      44.397  25.707  37.495  1.00  0.00    -0.200 F 
ATOM     96  C   UNL A   1      45.944  27.216  36.542  1.00  0.00     0.200 A 
ATOM     97  F   UNL A   1      47.453  28.753  35.576  1.00  0.00    -0.200 F 
ATOM     98  F   UNL A   1      46.959  26.567  37.130  1.00  0.00    -0.200 F 
ENDBRANCH  65  88
ENDBRANCH  39  40
ENDBRANCH  31  34
ENDBRANCH  29  30
ENDBRANCH  28  29
ENDBRANCH   1  28
TORSDOF 13
ENDMDL
MODEL 2
REMARK VINA RESULT:     -13.4      2.377      7.840
REMARK SMILES CCOc1ccc2[nH]c(C)c/c(=N\c3cccc(C(=O)NCCCNC(=O)c4ccc(-c5c6nc(c(-c7c(F)c(F)c(F)c(F)c7F)c7ccc([nH]7)c(-c7c(F)c(F)c(F)c(F)c7F)c7nc(c(-c8c(F)c(F)c(F)c(F)c8F)c8ccc5[nH]8)C=C7)C=C6)cc4)c3)c2c1
REMARK SMILES IDX 22 1 21 2 19 3 20 4 18 6 14 7 15 8 91 9 16 10 17 11 13 12
REMARK SMILES IDX 4 13 5 14 93 15 6 16 92 17 7 18 12 19 8 20 11 21 9 22 10 24
REMARK SMILES IDX 3 25 2 26 1 27 23 28 24 29 25 30 26 31 27 33 28 34 29 35
REMARK SMILES IDX 90 36 30 37 89 38 31 39 32 40 33 41 83 42 34 43 88 44 82 45
REMARK SMILES IDX 84 46 35 47 87 48 81 49 80 50 36 52 68 53 48 54 67 55 49 56
REMARK SMILES IDX 52 57 66 58 85 59 50 60 51 61 65 63 86 64 53 65 37 66 38 67
REMARK SMILES IDX 46 68 39 69 40 70 44 71 47 72 41 73 42 74 45 75 43 76 69 77
REMARK SMILES IDX 70 78 78 79 71 80 72 81 76 82 79 83 73 84 74 85 77 86 75 87
REMARK SMILES IDX 54 88 55 89 63 90 56 91 57 92 61 93 64 94 58 95 59 96 62 97
REMARK SMILES IDX 60 98
REMARK H PARENT 21 5 8 23 25 32 84 51 52 62
REMARK Flexibility Score: inf
ROOT
ATOM      1  C   UNL A   1      32.783  28.870  23.910  1.00  0.00     0.118 C 
ENDROOT
BRANCH   1   2
ATOM      2  N   UNL A   1      32.089  28.126  22.867  1.00  0.00    -0.352 N 
ATOM      3  C   UNL A   1      31.496  26.892  22.762  1.00  0.00     0.251 C 
ATOM      4  O   UNL A   1      31.026  26.613  21.656  1.00  0.00    -0.269 OA
ATOM      5  H   UNL A   1      32.031  28.634  22.026  1.00  0.00     0.163 HD
BRANCH   3   6
ATOM      6  C   UNL A   1      31.417  25.869  23.845  1.00  0.00     0.041 A 
ATOM      7  C   UNL A   1      31.896  23.698  24.820  1.00  0.00     0.064 A 
ATOM      8  C   UNL A   1      31.046  23.970  25.891  1.00  0.00     0.028 A 
ATOM      9  C   UNL A   1      32.163  24.699  23.885  1.00  0.00     0.042 A 
ATOM     10  C   UNL A   1      30.354  25.179  25.933  1.00  0.00     0.003 A 
ATOM     11  C   UNL A   1      30.510  26.104  24.894  1.00  0.00     0.014 A 
BRANCH   7  12
ATOM     12  N   UNL A   1      32.429  22.424  24.558  1.00  0.00    -0.248 NA
ATOM     13  C   UNL A   1      33.861  18.394  24.471  1.00  0.00     0.120 A 
ATOM     14  C   UNL A   1      35.236  18.188  24.567  1.00  0.00     0.048 A 
ATOM     15  C   UNL A   1      33.332  19.684  24.543  1.00  0.00     0.059 A 
ATOM     16  C   UNL A   1      36.088  19.262  24.821  1.00  0.00     0.030 A 
ATOM     17  C   UNL A   1      34.190  20.767  24.782  1.00  0.00     0.027 A 
ATOM     18  C   UNL A   1      35.573  20.555  24.945  1.00  0.00     0.048 A 
ATOM     19  C   UNL A   1      33.660  22.166  24.912  1.00  0.00     0.075 A 
ATOM     20  N   UNL A   1      36.425  21.617  25.264  1.00  0.00    -0.359 N 
ATOM     21  C   UNL A   1      34.638  23.168  25.468  1.00  0.00     0.050 A 
ATOM     22  C   UNL A   1      35.942  22.865  25.563  1.00  0.00     0.014 A 
ATOM     23  H   UNL A   1      37.397  21.464  25.277  1.00  0.00     0.166 HD
ATOM     24  C   UNL A   1      36.943  23.902  25.993  1.00  0.00     0.064 C 
BRANCH  13  25
ATOM     25  O   UNL A   1      33.024  17.349  24.195  1.00  0.00    -0.494 OA
BRANCH  25  26
ATOM     26  C   UNL A   1      32.529  16.694  25.372  1.00  0.00     0.226 C 
ATOM     27  C   UNL A   1      32.743  15.188  25.323  1.00  0.00     0.049 C 
ENDBRANCH  25  26
ENDBRANCH  13  25
ENDBRANCH   7  12
ENDBRANCH   3   6
ENDBRANCH   1   2
BRANCH   1  28
ATOM     28  C   UNL A   1      31.841  29.513  24.919  1.00  0.00     0.042 C 
BRANCH  28  29
ATOM     29  C   UNL A   1      32.499  29.848  26.248  1.00  0.00     0.118 C 
BRANCH  29  30
ATOM     30  N   UNL A   1      32.402  31.262  26.596  1.00  0.00    -0.352 N 
ATOM     31  C   UNL A   1      33.224  32.085  27.334  1.00  0.00     0.251 C 
ATOM     32  H   UNL A   1      31.603  31.711  26.235  1.00  0.00     0.163 HD
ATOM     33  O   UNL A   1      32.838  33.208  27.636  1.00  0.00    -0.269 OA
BRANCH  31  34
ATOM     34  C   UNL A   1      34.544  31.616  27.812  1.00  0.00     0.039 A 
ATOM     35  C   UNL A   1      34.790  30.267  28.053  1.00  0.00     0.014 A 
ATOM     36  C   UNL A   1      35.569  32.549  28.010  1.00  0.00     0.014 A 
ATOM     37  C   UNL A   1      35.956  29.882  28.706  1.00  0.00     0.010 A 
ATOM     38  C   UNL A   1      36.791  32.141  28.556  1.00  0.00     0.010 A 
ATOM     39  C   UNL A   1      36.969  30.815  28.975  1.00  0.00    -0.014 A 
BRANCH  39  40
ATOM     40  C   UNL A   1      38.184  30.376  29.713  1.00  0.00     0.031 A 
ATOM     41  C   UNL A   1      38.399  30.781  31.149  1.00  0.00     0.074 A 
ATOM     42  C   UNL A   1      39.062  29.551  29.113  1.00  0.00     0.049 A 
ATOM     43  N   UNL A   1      39.383  30.471  31.957  1.00  0.00    -0.248 NA
ATOM     44  C   UNL A   1      37.382  31.652  31.758  1.00  0.00     0.031 C 
ATOM     45  C   UNL A   1      38.965  29.083  27.730  1.00  0.00     0.029 A 
ATOM     46  N   UNL A   1      40.189  28.932  29.595  1.00  0.00    -0.354 N 
ATOM     47  C   UNL A   1      39.122  31.133  33.148  1.00  0.00     0.074 A 
ATOM     48  C   UNL A   1      37.900  31.882  32.956  1.00  0.00     0.031 C 
ATOM     49  C   UNL A   1      39.948  28.203  27.494  1.00  0.00     0.029 A 
ATOM     50  C   UNL A   1      40.786  28.097  28.683  1.00  0.00     0.049 A 
ATOM     51  H   UNL A   1      40.535  29.073  30.506  1.00  0.00     0.167 HD
ATOM     52  C   UNL A   1      39.831  31.110  34.302  1.00  0.00     0.037 A 
ATOM     53  C   UNL A   1      41.894  27.339  28.784  1.00  0.00     0.037 A 
ATOM     54  C   UNL A   1      41.022  30.328  34.507  1.00  0.00     0.049 A 
ATOM     55  C   UNL A   1      42.668  27.336  30.069  1.00  0.00     0.074 A 
ATOM     56  C   UNL A   1      41.781  30.198  35.658  1.00  0.00     0.029 A 
ATOM     57  N   UNL A   1      41.626  29.537  33.540  1.00  0.00    -0.354 N 
ATOM     58  N   UNL A   1      42.406  27.962  31.190  1.00  0.00    -0.248 NA
ATOM     59  C   UNL A   1      43.899  26.534  30.101  1.00  0.00     0.031 C 
ATOM     60  C   UNL A   1      42.868  29.367  35.374  1.00  0.00     0.029 A 
ATOM     61  C   UNL A   1      42.763  28.939  34.061  1.00  0.00     0.049 A 
ATOM     62  H   UNL A   1      41.296  29.420  32.620  1.00  0.00     0.167 HD
ATOM     63  C   UNL A   1      43.436  27.635  32.058  1.00  0.00     0.074 A 
ATOM     64  C   UNL A   1      44.315  26.733  31.345  1.00  0.00     0.031 C 
ATOM     65  C   UNL A   1      43.637  28.055  33.332  1.00  0.00     0.037 A 
BRANCH  52  66
ATOM     66  C   UNL A   1      39.352  31.970  35.436  1.00  0.00     0.064 A 
ATOM     67  C   UNL A   1      39.686  33.329  35.529  1.00  0.00     0.173 A 
ATOM     68  C   UNL A   1      38.504  31.435  36.418  1.00  0.00     0.173 A 
ATOM     69  F   UNL A   1      40.503  33.887  34.623  1.00  0.00    -0.203 F 
ATOM     70  C   UNL A   1      39.206  34.115  36.574  1.00  0.00     0.198 A 
ATOM     71  C   UNL A   1      38.004  32.229  37.446  1.00  0.00     0.198 A 
ATOM     72  F   UNL A   1      38.150  30.141  36.373  1.00  0.00    -0.203 F 
ATOM     73  F   UNL A   1      39.572  35.402  36.666  1.00  0.00    -0.200 F 
ATOM     74  C   UNL A   1      38.360  33.566  37.527  1.00  0.00     0.200 A 
ATOM     75  F   UNL A   1      37.178  31.701  38.360  1.00  0.00    -0.200 F 
ATOM     76  F   UNL A   1      37.894  34.327  38.527  1.00  0.00    -0.200 F 
ENDBRANCH  52  66
BRANCH  53  77
ATOM     77  C   UNL A   1      42.321  26.525  27.617  1.00  0.00     0.064 A 
ATOM     78  C   UNL A   1      43.299  26.994  26.730  1.00  0.00     0.173 A 
ATOM     79  C   UNL A   1      41.809  25.236  27.407  1.00  0.00     0.173 A 
ATOM     80  F   UNL A   1      43.804  28.226  26.880  1.00  0.00    -0.203 F 
ATOM     81  C   UNL A   1      43.755  26.199  25.681  1.00  0.00     0.198 A 
ATOM     82  C   UNL A   1      42.284  24.432  26.374  1.00  0.00     0.198 A 
ATOM     83  F   UNL A   1      40.875  24.742  28.233  1.00  0.00    -0.203 F 
ATOM     84  F   UNL A   1      44.680  26.673  24.837  1.00  0.00    -0.200 F 
ATOM     85  C   UNL A   1      43.256  24.915  25.511  1.00  0.00     0.200 A 
ATOM     86  F   UNL A   1      41.814  23.187  26.226  1.00  0.00    -0.200 F 
ATOM     87  F   UNL A   1      43.714  24.141  24.517  1.00  0.00    -0.200 F 
ENDBRANCH  53  77
BRANCH  65  88
ATOM     88  C   UNL A   1      44.859  27.551  34.037  1.00  0.00     0.064 A 
ATOM     89  C   UNL A   1      46.058  28.279  34.026  1.00  0.00     0.173 A 
ATOM     90  C   UNL A   1      44.817  26.364  34.783  1.00  0.00     0.173 A 
ATOM     91  F   UNL A   1      46.153  29.413  33.315  1.00  0.00    -0.203 F 
ATOM     92  C   UNL A   1      47.174  27.830  34.727  1.00  0.00     0.198 A 
ATOM     93  C   UNL A   1      45.926  25.931  35.504  1.00  0.00     0.198 A 
ATOM     94  F   UNL A   1      43.691  25.636  34.832  1.00  0.00    -0.203 F 
ATOM     95  F   UNL A   1      48.319  28.525  34.677  1.00  0.00    -0.200 F 
ATOM     96  C   UNL A   1      47.104  26.662  35.472  1.00  0.00     0.200 A 
ATOM     97  F   UNL A   1      45.854  24.810  36.234  1.00  0.00    -0.200 F 
ATOM     98  F   UNL A   1      48.176  26.238  36.157  1.00  0.00    -0.200 F 
ENDBRANCH  65  88
ENDBRANCH  39  40
ENDBRANCH  31  34
ENDBRANCH  29  30
ENDBRANCH  28  29
ENDBRANCH   1  28
TORSDOF 13
ENDMDL
MODEL 3
REMARK VINA RESULT:     -13.2      2.287      7.865
REMARK SMILES CCOc1ccc2[nH]c(C)c/c(=N\c3cccc(C(=O)NCCCNC(=O)c4ccc(-c5c6nc(c(-c7c(F)c(F)c(F)c(F)c7F)c7ccc([nH]7)c(-c7c(F)c(F)c(F)c(F)c7F)c7nc(c(-c8c(F)c(F)c(F)c(F)c8F)c8ccc5[nH]8)C=C7)C=C6)cc4)c3)c2c1
REMARK SMILES IDX 22 1 21 2 19 3 20 4 18 6 14 7 15 8 91 9 16 10 17 11 13 12
REMARK SMILES IDX 4 13 5 14 93 15 6 16 92 17 7 18 12 19 8 20 11 21 9 22 10 24
REMARK SMILES IDX 3 25 2 26 1 27 23 28 24 29 25 30 26 31 27 33 28 34 29 35
REMARK SMILES IDX 90 36 30 37 89 38 31 39 32 40 33 41 83 42 34 43 88 44 82 45
REMARK SMILES IDX 84 46 35 47 87 48 81 49 80 50 36 52 68 53 48 54 67 55 49 56
REMARK SMILES IDX 52 57 66 58 85 59 50 60 51 61 65 63 86 64 53 65 37 66 38 67
REMARK SMILES IDX 46 68 39 69 40 70 44 71 47 72 41 73 42 74 45 75 43 76 69 77
REMARK SMILES IDX 70 78 78 79 71 80 72 81 76 82 79 83 73 84 74 85 77 86 75 87
REMARK SMILES IDX 54 88 55 89 63 90 56 91 57 92 61 93 64 94 58 95 59 96 62 97
REMARK SMILES IDX 60 98
REMARK H PARENT 21 5 8 23 25 32 84 51 52 62
REMARK Flexibility Score: inf
ROOT
ATOM      1  C   UNL A   1      32.013  27.581  26.821  1.00  0.00     0.118 C 
ENDROOT
BRANCH   1   2
ATOM      2  N   UNL A   1      30.852  26.707  26.911  1.00  0.00    -0.352 N 
ATOM      3  C   UNL A   1      30.326  25.683  26.163  1.00  0.00     0.251 C 
ATOM      4  O   UNL A   1      29.269  25.199  26.578  1.00  0.00    -0.269 OA
ATOM      5  H   UNL A   1      30.306  26.898  27.707  1.00  0.00     0.163 HD
BRANCH   3   6
ATOM      6  C   UNL A   1      30.897  25.151  24.892  1.00  0.00     0.041 A 
ATOM      7  C   UNL A   1      31.878  23.409  23.514  1.00  0.00     0.064 A 
ATOM      8  C   UNL A   1      32.110  24.324  22.488  1.00  0.00     0.028 A 
ATOM      9  C   UNL A   1      31.162  23.810  24.643  1.00  0.00     0.042 A 
ATOM     10  C   UNL A   1      31.767  25.663  22.668  1.00  0.00     0.003 A 
ATOM     11  C   UNL A   1      31.201  26.078  23.879  1.00  0.00     0.014 A 
BRANCH   7  12
ATOM     12  N   UNL A   1      32.416  22.110  23.530  1.00  0.00    -0.248 NA
ATOM     13  C   UNL A   1      33.722  18.100  24.248  1.00  0.00     0.120 A 
ATOM     14  C   UNL A   1      35.045  17.906  24.641  1.00  0.00     0.048 A 
ATOM     15  C   UNL A   1      33.226  19.390  24.047  1.00  0.00     0.059 A 
ATOM     16  C   UNL A   1      35.860  19.001  24.919  1.00  0.00     0.030 A 
ATOM     17  C   UNL A   1      34.050  20.493  24.310  1.00  0.00     0.027 A 
ATOM     18  C   UNL A   1      35.368  20.301  24.771  1.00  0.00     0.048 A 
ATOM     19  C   UNL A   1      33.545  21.898  24.151  1.00  0.00     0.075 A 
ATOM     20  N   UNL A   1      36.170  21.394  25.114  1.00  0.00    -0.359 N 
ATOM     21  C   UNL A   1      34.423  22.962  24.758  1.00  0.00     0.050 A 
ATOM     22  C   UNL A   1      35.673  22.672  25.147  1.00  0.00     0.014 A 
ATOM     23  H   UNL A   1      37.116  21.242  25.339  1.00  0.00     0.166 HD
ATOM     24  C   UNL A   1      36.599  23.754  25.631  1.00  0.00     0.064 C 
BRANCH  13  25
ATOM     25  O   UNL A   1      32.925  17.030  23.947  1.00  0.00    -0.494 OA
BRANCH  25  26
ATOM     26  C   UNL A   1      33.345  15.815  24.586  1.00  0.00     0.226 C 
ATOM     27  C   UNL A   1      32.411  15.410  25.716  1.00  0.00     0.049 C 
ENDBRANCH  25  26
ENDBRANCH  13  25
ENDBRANCH   7  12
ENDBRANCH   3   6
ENDBRANCH   1   2
BRANCH   1  28
ATOM     28  C   UNL A   1      31.656  29.061  26.846  1.00  0.00     0.042 C 
BRANCH  28  29
ATOM     29  C   UNL A   1      32.680  29.954  26.162  1.00  0.00     0.118 C 
BRANCH  29  30
ATOM     30  N   UNL A   1      32.580  31.353  26.563  1.00  0.00    -0.352 N 
ATOM     31  C   UNL A   1      33.377  32.139  27.365  1.00  0.00     0.251 C 
ATOM     32  H   UNL A   1      31.799  31.823  26.190  1.00  0.00     0.163 HD
ATOM     33  O   UNL A   1      32.988  33.252  27.698  1.00  0.00    -0.269 OA
BRANCH  31  34
ATOM     34  C   UNL A   1      34.674  31.640  27.875  1.00  0.00     0.039 A 
ATOM     35  C   UNL A   1      34.850  30.304  28.226  1.00  0.00     0.014 A 
ATOM     36  C   UNL A   1      35.750  32.529  27.991  1.00  0.00     0.014 A 
ATOM     37  C   UNL A   1      35.999  29.911  28.903  1.00  0.00     0.010 A 
ATOM     38  C   UNL A   1      36.953  32.102  28.564  1.00  0.00     0.010 A 
ATOM     39  C   UNL A   1      37.063  30.807  29.091  1.00  0.00    -0.014 A 
BRANCH  39  40
ATOM     40  C   UNL A   1      38.259  30.365  29.857  1.00  0.00     0.031 A 
ATOM     41  C   UNL A   1      38.443  30.773  31.296  1.00  0.00     0.074 A 
ATOM     42  C   UNL A   1      39.147  29.534  29.280  1.00  0.00     0.049 A 
ATOM     43  N   UNL A   1      39.407  30.461  32.127  1.00  0.00    -0.248 NA
ATOM     44  C   UNL A   1      37.416  31.650  31.879  1.00  0.00     0.031 C 
ATOM     45  C   UNL A   1      39.079  29.062  27.895  1.00  0.00     0.029 A 
ATOM     46  N   UNL A   1      40.259  28.911  29.789  1.00  0.00    -0.354 N 
ATOM     47  C   UNL A   1      39.121  31.128  33.310  1.00  0.00     0.074 A 
ATOM     48  C   UNL A   1      37.907  31.881  33.089  1.00  0.00     0.031 C 
ATOM     49  C   UNL A   1      40.063  28.177  27.684  1.00  0.00     0.029 A 
ATOM     50  C   UNL A   1      40.874  28.071  28.893  1.00  0.00     0.049 A 
ATOM     51  H   UNL A   1      40.586  29.054  30.706  1.00  0.00     0.167 HD
ATOM     52  C   UNL A   1      39.805  31.105  34.480  1.00  0.00     0.037 A 
ATOM     53  C   UNL A   1      41.976  27.309  29.021  1.00  0.00     0.037 A 
ATOM     54  C   UNL A   1      40.987  30.318  34.715  1.00  0.00     0.049 A 
ATOM     55  C   UNL A   1      42.721  27.307  30.324  1.00  0.00     0.074 A 
ATOM     56  C   UNL A   1      41.719  30.189  35.883  1.00  0.00     0.029 A 
ATOM     57  N   UNL A   1      41.609  29.522  33.764  1.00  0.00    -0.354 N 
ATOM     58  N   UNL A   1      42.435  27.937  31.436  1.00  0.00    -0.248 NA
ATOM     59  C   UNL A   1      43.947  26.500  30.385  1.00  0.00     0.031 C 
ATOM     60  C   UNL A   1      42.808  29.351  35.626  1.00  0.00     0.029 A 
ATOM     61  C   UNL A   1      42.731  28.921  34.312  1.00  0.00     0.049 A 
ATOM     62  H   UNL A   1      41.300  29.403  32.836  1.00  0.00     0.167 HD
ATOM     63  C   UNL A   1      43.444  27.608  32.329  1.00  0.00     0.074 A 
ATOM     64  C   UNL A   1      44.335  26.700  31.638  1.00  0.00     0.031 C 
ATOM     65  C   UNL A   1      43.618  28.030  33.606  1.00  0.00     0.037 A 
BRANCH  52  66
ATOM     66  C   UNL A   1      39.303  31.970  35.600  1.00  0.00     0.064 A 
ATOM     67  C   UNL A   1      38.448  31.473  36.595  1.00  0.00     0.173 A 
ATOM     68  C   UNL A   1      39.726  33.304  35.706  1.00  0.00     0.173 A 
ATOM     69  F   UNL A   1      38.004  30.209  36.535  1.00  0.00    -0.203 F 
ATOM     70  C   UNL A   1      38.018  32.286  37.641  1.00  0.00     0.198 A 
ATOM     71  C   UNL A   1      39.317  34.106  36.768  1.00  0.00     0.198 A 
ATOM     72  F   UNL A   1      40.548  33.827  34.784  1.00  0.00    -0.203 F 
ATOM     73  F   UNL A   1      37.167  31.802  38.559  1.00  0.00    -0.200 F 
ATOM     74  C   UNL A   1      38.458  33.598  37.731  1.00  0.00     0.200 A 
ATOM     75  F   UNL A   1      39.752  35.370  36.860  1.00  0.00    -0.200 F 
ATOM     76  F   UNL A   1      38.050  34.375  38.744  1.00  0.00    -0.200 F 
ENDBRANCH  52  66
BRANCH  53  77
ATOM     77  C   UNL A   1      42.426  26.490  27.867  1.00  0.00     0.064 A 
ATOM     78  C   UNL A   1      41.960  25.182  27.685  1.00  0.00     0.173 A 
ATOM     79  C   UNL A   1      43.277  27.025  26.887  1.00  0.00     0.173 A 
ATOM     80  F   UNL A   1      41.160  24.622  28.604  1.00  0.00    -0.203 F 
ATOM     81  C   UNL A   1      42.321  24.441  26.562  1.00  0.00     0.198 A 
ATOM     82  C   UNL A   1      43.616  26.293  25.752  1.00  0.00     0.198 A 
ATOM     83  F   UNL A   1      43.745  28.275  27.015  1.00  0.00    -0.203 F 
ATOM     84  F   UNL A   1      41.874  23.187  26.416  1.00  0.00    -0.200 F 
ATOM     85  C   UNL A   1      43.139  25.002  25.591  1.00  0.00     0.200 A 
ATOM     86  F   UNL A   1      44.390  26.846  24.808  1.00  0.00    -0.200 F 
ATOM     87  F   UNL A   1      43.464  24.298  24.497  1.00  0.00    -0.200 F 
ENDBRANCH  53  77
BRANCH  65  88
ATOM     88  C   UNL A   1      44.822  27.523  34.340  1.00  0.00     0.064 A 
ATOM     89  C   UNL A   1      44.777  26.329  35.074  1.00  0.00     0.173 A 
ATOM     90  C   UNL A   1      46.047  28.202  34.260  1.00  0.00     0.173 A 
ATOM     91  F   UNL A   1      43.625  25.652  35.192  1.00  0.00    -0.203 F 
ATOM     92  C   UNL A   1      45.914  25.839  35.710  1.00  0.00     0.198 A 
ATOM     93  C   UNL A   1      47.187  27.695  34.876  1.00  0.00     0.198 A 
ATOM     94  F   UNL A   1      46.142  29.345  33.564  1.00  0.00    -0.203 F 
ATOM     95  F   UNL A   1      45.841  24.711  36.432  1.00  0.00    -0.200 F 
ATOM     96  C   UNL A   1      47.119  26.517  35.603  1.00  0.00     0.200 A 
ATOM     97  F   UNL A   1      48.354  28.344  34.761  1.00  0.00    -0.200 F 
ATOM     98  F   UNL A   1      48.215  26.035  36.206  1.00  0.00    -0.200 F 
ENDBRANCH  65  88
ENDBRANCH  39  40
ENDBRANCH  31  34
ENDBRANCH  29  30
ENDBRANCH  28  29
ENDBRANCH   1  28
TORSDOF 13
ENDMDL
