MODEL 1
REMARK VINA RESULT:     -13.1      0.000      0.000
REMARK SMILES COc1ccc(CCN2C(=O)CC[C@@H](C(=O)NCCCNC(=O)c3ccc(-c4c5nc(c(-c6c(F)c(F)c(F)c(F)c6F)c6ccc([nH]6)c(-c6c(F)c(F)c(F)c(F)c6F)c6nc(c(-c7c(F)c(F)c(F)c(F)c7F)c7ccc4[nH]7)C=C6)C=C5)cc3)[C@@H]2c2ccc(Cl)cc2)cc1OC
REMARK SMILES IDX 18 1 17 2 15 3 16 4 14 6 9 7 10 8 87 9 11 10 12 11 13 12
REMARK SMILES IDX 8 13 7 14 6 15 3 16 4 17 96 18 5 19 95 20 2 21 1 22 97 23
REMARK SMILES IDX 98 24 88 25 89 26 94 27 90 28 93 29 91 30 92 31 19 32 20 33
REMARK SMILES IDX 21 34 22 35 23 37 24 38 25 39 86 40 26 41 85 42 27 43 28 44
REMARK SMILES IDX 29 45 79 46 30 47 84 48 78 49 80 50 31 51 83 52 77 53 76 54
REMARK SMILES IDX 32 56 64 57 44 58 63 59 45 60 48 61 62 62 81 63 46 64 47 65
REMARK SMILES IDX 61 67 82 68 49 69 33 70 34 71 42 72 35 73 36 74 40 75 43 76
REMARK SMILES IDX 37 77 38 78 41 79 39 80 65 81 66 82 74 83 67 84 68 85 72 86
REMARK SMILES IDX 75 87 69 88 70 89 73 90 71 91 50 92 51 93 59 94 52 95 53 96
REMARK SMILES IDX 57 97 60 98 54 99 55 100 58 101 56 102
REMARK H PARENT 17 5 21 36 80 55 48 66
REMARK Flexibility Score: inf
ROOT
ATOM      1  C   UNL A   1      32.007  27.743  27.481  1.00  0.00     0.117 C 
ENDROOT
BRANCH   1   2
ATOM      2  N   UNL A   1      31.295  26.819  26.623  1.00  0.00    -0.356 N 
ATOM      3  C   UNL A   1      31.734  25.853  25.780  1.00  0.00     0.225 C 
ATOM      4  O   UNL A   1      30.873  25.088  25.355  1.00  0.00    -0.275 OA
ATOM      5  H   UNL A   1      30.315  26.909  26.658  1.00  0.00     0.163 HD
BRANCH   3   6
ATOM      6  C   UNL A   1      33.207  25.723  25.424  1.00  0.00     0.106 C 
ATOM      7  N   UNL A   1      33.157  24.779  23.079  1.00  0.00    -0.335 N 
ATOM      8  C   UNL A   1      33.495  25.982  22.482  1.00  0.00     0.223 C 
ATOM      9  C   UNL A   1      33.425  24.497  24.504  1.00  0.00     0.128 C 
ATOM     10  O   UNL A   1      33.653  26.110  21.269  1.00  0.00    -0.275 OA
ATOM     11  C   UNL A   1      33.489  27.209  23.371  1.00  0.00     0.101 C 
ATOM     12  C   UNL A   1      33.831  26.983  24.830  1.00  0.00     0.026 C 
BRANCH   7  13
ATOM     13  C   UNL A   1      32.668  23.681  22.225  1.00  0.00     0.125 C 
BRANCH  13  14
ATOM     14  C   UNL A   1      31.652  22.732  22.899  1.00  0.00     0.057 C 
BRANCH  14  15
ATOM     15  C   UNL A   1      32.154  21.365  23.321  1.00  0.00    -0.042 A 
ATOM     16  C   UNL A   1      32.964  18.784  24.151  1.00  0.00     0.160 A 
ATOM     17  C   UNL A   1      32.529  19.004  22.846  1.00  0.00     0.051 A 
ATOM     18  C   UNL A   1      33.017  19.853  25.055  1.00  0.00     0.160 A 
ATOM     19  C   UNL A   1      32.120  20.275  22.450  1.00  0.00     0.008 A 
ATOM     20  C   UNL A   1      32.604  21.130  24.629  1.00  0.00     0.054 A 
BRANCH  16  21
ATOM     21  O   UNL A   1      33.413  17.533  24.481  1.00  0.00    -0.493 OA
ATOM     22  C   UNL A   1      34.019  16.868  23.373  1.00  0.00     0.278 C 
ENDBRANCH  16  21
BRANCH  18  23
ATOM     23  O   UNL A   1      33.428  19.833  26.361  1.00  0.00    -0.493 OA
ATOM     24  C   UNL A   1      33.654  21.077  27.008  1.00  0.00     0.278 C 
ENDBRANCH  18  23
ENDBRANCH  14  15
ENDBRANCH  13  14
ENDBRANCH   7  13
BRANCH   9  25
ATOM     25  C   UNL A   1      34.821  23.893  24.745  1.00  0.00    -0.025 A 
ATOM     26  C   UNL A   1      35.494  23.109  23.792  1.00  0.00     0.007 A 
ATOM     27  C   UNL A   1      35.458  24.105  25.986  1.00  0.00     0.007 A 
ATOM     28  C   UNL A   1      36.756  22.569  24.065  1.00  0.00     0.021 A 
ATOM     29  C   UNL A   1      36.730  23.592  26.248  1.00  0.00     0.021 A 
ATOM     30  C   UNL A   1      37.372  22.820  25.286  1.00  0.00     0.041 A 
ATOM     31  Cl  UNL A   1      38.927  22.166  25.616  1.00  0.00    -0.084 Cl
ENDBRANCH   9  25
ENDBRANCH   3   6
ENDBRANCH   1   2
BRANCH   1  32
ATOM     32  C   UNL A   1      31.597  29.187  27.233  1.00  0.00     0.042 C 
BRANCH  32  33
ATOM     33  C   UNL A   1      32.563  29.992  26.367  1.00  0.00     0.118 C 
BRANCH  33  34
ATOM     34  N   UNL A   1      32.541  31.419  26.645  1.00  0.00    -0.352 N 
ATOM     35  C   UNL A   1      33.379  32.197  27.406  1.00  0.00     0.251 C 
ATOM     36  H   UNL A   1      31.802  31.910  26.217  1.00  0.00     0.163 HD
ATOM     37  O   UNL A   1      33.083  33.367  27.622  1.00  0.00    -0.269 OA
BRANCH  35  38
ATOM     38  C   UNL A   1      34.614  31.634  27.996  1.00  0.00     0.039 A 
ATOM     39  C   UNL A   1      35.720  32.474  28.144  1.00  0.00     0.014 A 
ATOM     40  C   UNL A   1      34.703  30.294  28.379  1.00  0.00     0.014 A 
ATOM     41  C   UNL A   1      36.885  31.991  28.741  1.00  0.00     0.010 A 
ATOM     42  C   UNL A   1      35.834  29.836  29.055  1.00  0.00     0.010 A 
ATOM     43  C   UNL A   1      36.938  30.679  29.244  1.00  0.00    -0.014 A 
BRANCH  43  44
ATOM     44  C   UNL A   1      38.135  30.204  29.987  1.00  0.00     0.031 A 
ATOM     45  C   UNL A   1      38.391  30.645  31.402  1.00  0.00     0.074 A 
ATOM     46  C   UNL A   1      39.013  29.391  29.368  1.00  0.00     0.049 A 
ATOM     47  N   UNL A   1      39.373  30.315  32.206  1.00  0.00    -0.248 NA
ATOM     48  C   UNL A   1      37.436  31.599  31.985  1.00  0.00     0.031 C 
ATOM     49  C   UNL A   1      38.911  28.940  27.979  1.00  0.00     0.029 A 
ATOM     50  N   UNL A   1      40.163  28.795  29.825  1.00  0.00    -0.354 N 
ATOM     51  C   UNL A   1      39.153  31.019  33.383  1.00  0.00     0.074 A 
ATOM     52  C   UNL A   1      37.983  31.843  33.167  1.00  0.00     0.031 C 
ATOM     53  C   UNL A   1      39.929  28.108  27.709  1.00  0.00     0.029 A 
ATOM     54  C   UNL A   1      40.777  27.997  28.891  1.00  0.00     0.049 A 
ATOM     55  H   UNL A   1      40.514  28.928  30.735  1.00  0.00     0.167 HD
ATOM     56  C   UNL A   1      39.847  30.965  34.546  1.00  0.00     0.037 A 
ATOM     57  C   UNL A   1      41.897  27.255  28.977  1.00  0.00     0.037 A 
ATOM     58  C   UNL A   1      41.008  30.137  34.760  1.00  0.00     0.049 A 
ATOM     59  C   UNL A   1      42.653  27.219  30.278  1.00  0.00     0.074 A 
ATOM     60  C   UNL A   1      41.749  29.971  35.917  1.00  0.00     0.029 A 
ATOM     61  N   UNL A   1      41.602  29.342  33.790  1.00  0.00    -0.354 N 
ATOM     62  N   UNL A   1      42.388  27.826  31.408  1.00  0.00    -0.248 NA
ATOM     63  C   UNL A   1      43.859  26.381  30.314  1.00  0.00     0.031 C 
ATOM     64  C   UNL A   1      42.824  29.122  35.632  1.00  0.00     0.029 A 
ATOM     65  C   UNL A   1      42.717  28.705  34.315  1.00  0.00     0.049 A 
ATOM     66  H   UNL A   1      41.280  29.243  32.865  1.00  0.00     0.167 HD
ATOM     67  C   UNL A   1      43.376  27.425  32.298  1.00  0.00     0.074 A 
ATOM     68  C   UNL A   1      44.229  26.500  31.581  1.00  0.00     0.031 C 
ATOM     69  C   UNL A   1      43.563  27.792  33.589  1.00  0.00     0.037 A 
BRANCH  56  70
ATOM     70  C   UNL A   1      39.369  31.824  35.683  1.00  0.00     0.064 A 
ATOM     71  C   UNL A   1      39.812  33.146  35.845  1.00  0.00     0.173 A 
ATOM     72  C   UNL A   1      38.426  31.335  36.600  1.00  0.00     0.173 A 
ATOM     73  F   UNL A   1      40.721  33.662  35.004  1.00  0.00    -0.203 F 
ATOM     74  C   UNL A   1      39.353  33.934  36.899  1.00  0.00     0.198 A 
ATOM     75  C   UNL A   1      37.943  32.136  37.632  1.00  0.00     0.198 A 
ATOM     76  F   UNL A   1      37.963  30.081  36.490  1.00  0.00    -0.203 F 
ATOM     77  F   UNL A   1      39.833  35.175  37.063  1.00  0.00    -0.200 F 
ATOM     78  C   UNL A   1      38.414  33.431  37.786  1.00  0.00     0.200 A 
ATOM     79  F   UNL A   1      37.024  31.655  38.479  1.00  0.00    -0.200 F 
ATOM     80  F   UNL A   1      37.967  34.194  38.794  1.00  0.00    -0.200 F 
ENDBRANCH  56  70
BRANCH  57  81
ATOM     81  C   UNL A   1      42.358  26.463  27.805  1.00  0.00     0.064 A 
ATOM     82  C   UNL A   1      41.848  25.181  27.554  1.00  0.00     0.173 A 
ATOM     83  C   UNL A   1      43.325  26.963  26.921  1.00  0.00     0.173 A 
ATOM     84  F   UNL A   1      40.936  24.649  28.381  1.00  0.00    -0.203 F 
ATOM     85  C   UNL A   1      42.307  24.420  26.481  1.00  0.00     0.198 A 
ATOM     86  C   UNL A   1      43.758  26.216  25.829  1.00  0.00     0.198 A 
ATOM     87  F   UNL A   1      43.840  28.187  27.111  1.00  0.00    -0.203 F 
ATOM     88  F   UNL A   1      41.843  23.178  26.297  1.00  0.00    -0.200 F 
ATOM     89  C   UNL A   1      43.257  24.940  25.616  1.00  0.00     0.200 A 
ATOM     90  F   UNL A   1      44.663  26.730  24.984  1.00  0.00    -0.200 F 
ATOM     91  F   UNL A   1      43.696  24.210  24.581  1.00  0.00    -0.200 F 
ENDBRANCH  57  81
BRANCH  69  92
ATOM     92  C   UNL A   1      44.722  27.166  34.316  1.00  0.00     0.064 A 
ATOM     93  C   UNL A   1      45.986  27.773  34.356  1.00  0.00     0.173 A 
ATOM     94  C   UNL A   1      44.565  25.939  34.980  1.00  0.00     0.173 A 
ATOM     95  F   UNL A   1      46.195  28.940  33.725  1.00  0.00    -0.203 F 
ATOM     96  C   UNL A   1      47.060  27.154  34.989  1.00  0.00     0.198 A 
ATOM     97  C   UNL A   1      45.631  25.342  35.648  1.00  0.00     0.198 A 
ATOM     98  F   UNL A   1      43.376  25.318  34.983  1.00  0.00    -0.203 F 
ATOM     99  F   UNL A   1      48.274  27.718  34.949  1.00  0.00    -0.200 F 
ATOM    100  C   UNL A   1      46.881  25.941  35.639  1.00  0.00     0.200 A 
ATOM    101  F   UNL A   1      45.451  24.178  36.288  1.00  0.00    -0.200 F 
ATOM    102  F   UNL A   1      47.916  25.346  36.247  1.00  0.00    -0.200 F 
ENDBRANCH  69  92
ENDBRANCH  43  44
ENDBRANCH  35  38
ENDBRANCH  33  34
ENDBRANCH  32  33
ENDBRANCH   1  32
TORSDOF 16
ENDMDL
MODEL 2
REMARK VINA RESULT:     -13.0      0.489      2.112
REMARK SMILES COc1ccc(CCN2C(=O)CC[C@@H](C(=O)NCCCNC(=O)c3ccc(-c4c5nc(c(-c6c(F)c(F)c(F)c(F)c6F)c6ccc([nH]6)c(-c6c(F)c(F)c(F)c(F)c6F)c6nc(c(-c7c(F)c(F)c(F)c(F)c7F)c7ccc4[nH]7)C=C6)C=C5)cc3)[C@@H]2c2ccc(Cl)cc2)cc1OC
REMARK SMILES IDX 18 1 17 2 15 3 16 4 14 6 9 7 10 8 87 9 11 10 12 11 13 12
REMARK SMILES IDX 8 13 7 14 6 15 3 16 4 17 96 18 5 19 95 20 2 21 1 22 97 23
REMARK SMILES IDX 98 24 88 25 89 26 94 27 90 28 93 29 91 30 92 31 19 32 20 33
REMARK SMILES IDX 21 34 22 35 23 37 24 38 25 39 86 40 26 41 85 42 27 43 28 44
REMARK SMILES IDX 29 45 79 46 30 47 84 48 78 49 80 50 31 51 83 52 77 53 76 54
REMARK SMILES IDX 32 56 64 57 44 58 63 59 45 60 48 61 62 62 81 63 46 64 47 65
REMARK SMILES IDX 61 67 82 68 49 69 33 70 34 71 42 72 35 73 36 74 40 75 43 76
REMARK SMILES IDX 37 77 38 78 41 79 39 80 65 81 66 82 74 83 67 84 68 85 72 86
REMARK SMILES IDX 75 87 69 88 70 89 73 90 71 91 50 92 51 93 59 94 52 95 53 96
REMARK SMILES IDX 57 97 60 98 54 99 55 100 58 101 56 102
REMARK H PARENT 17 5 21 36 80 55 48 66
REMARK Flexibility Score: inf
ROOT
ATOM      1  C   UNL A   1      32.093  27.542  27.303  1.00  0.00     0.117 C 
ENDROOT
BRANCH   1   2
ATOM      2  N   UNL A   1      31.390  26.515  26.563  1.00  0.00    -0.356 N 
ATOM      3  C   UNL A   1      31.838  25.481  25.810  1.00  0.00     0.225 C 
ATOM      4  O   UNL A   1      30.991  24.652  25.488  1.00  0.00    -0.275 OA
ATOM      5  H   UNL A   1      30.408  26.580  26.615  1.00  0.00     0.163 HD
BRANCH   3   6
ATOM      6  C   UNL A   1      33.306  25.357  25.430  1.00  0.00     0.106 C 
ATOM      7  N   UNL A   1      33.226  24.232  23.168  1.00  0.00    -0.335 N 
ATOM      8  C   UNL A   1      33.521  25.392  22.471  1.00  0.00     0.223 C 
ATOM      9  C   UNL A   1      33.532  24.068  24.603  1.00  0.00     0.128 C 
ATOM     10  O   UNL A   1      33.649  25.428  21.248  1.00  0.00    -0.275 OA
ATOM     11  C   UNL A   1      33.505  26.684  23.261  1.00  0.00     0.101 C 
ATOM     12  C   UNL A   1      33.884  26.580  24.725  1.00  0.00     0.026 C 
BRANCH   7  13
ATOM     13  C   UNL A   1      32.745  23.060  22.413  1.00  0.00     0.125 C 
BRANCH  13  14
ATOM     14  C   UNL A   1      31.665  22.220  23.130  1.00  0.00     0.057 C 
BRANCH  14  15
ATOM     15  C   UNL A   1      32.112  20.929  23.787  1.00  0.00    -0.042 A 
ATOM     16  C   UNL A   1      33.077  18.555  24.987  1.00  0.00     0.160 A 
ATOM     17  C   UNL A   1      32.872  19.702  25.752  1.00  0.00     0.051 A 
ATOM     18  C   UNL A   1      32.788  18.573  23.617  1.00  0.00     0.160 A 
ATOM     19  C   UNL A   1      32.409  20.869  25.150  1.00  0.00     0.008 A 
ATOM     20  C   UNL A   1      32.315  19.765  23.033  1.00  0.00     0.054 A 
BRANCH  16  21
ATOM     21  O   UNL A   1      33.476  17.414  25.629  1.00  0.00    -0.493 OA
ATOM     22  C   UNL A   1      32.404  16.488  25.799  1.00  0.00     0.278 C 
ENDBRANCH  16  21
BRANCH  18  23
ATOM     23  O   UNL A   1      32.911  17.549  22.716  1.00  0.00    -0.493 OA
ATOM     24  C   UNL A   1      34.125  16.812  22.705  1.00  0.00     0.278 C 
ENDBRANCH  18  23
ENDBRANCH  14  15
ENDBRANCH  13  14
ENDBRANCH   7  13
BRANCH   9  25
ATOM     25  C   UNL A   1      34.949  23.517  24.856  1.00  0.00    -0.025 A 
ATOM     26  C   UNL A   1      35.666  22.775  23.902  1.00  0.00     0.007 A 
ATOM     27  C   UNL A   1      35.558  23.735  26.110  1.00  0.00     0.007 A 
ATOM     28  C   UNL A   1      36.945  22.282  24.186  1.00  0.00     0.021 A 
ATOM     29  C   UNL A   1      36.846  23.269  26.383  1.00  0.00     0.021 A 
ATOM     30  C   UNL A   1      37.532  22.538  25.420  1.00  0.00     0.041 A 
ATOM     31  Cl  UNL A   1      39.108  21.942  25.763  1.00  0.00    -0.084 Cl
ENDBRANCH   9  25
ENDBRANCH   3   6
ENDBRANCH   1   2
BRANCH   1  32
ATOM     32  C   UNL A   1      31.648  28.941  26.905  1.00  0.00     0.042 C 
BRANCH  32  33
ATOM     33  C   UNL A   1      32.727  29.797  26.245  1.00  0.00     0.118 C 
BRANCH  33  34
ATOM     34  N   UNL A   1      32.631  31.210  26.576  1.00  0.00    -0.352 N 
ATOM     35  C   UNL A   1      33.414  31.996  27.386  1.00  0.00     0.251 C 
ATOM     36  H   UNL A   1      31.879  31.681  26.149  1.00  0.00     0.163 HD
ATOM     37  O   UNL A   1      33.057  33.141  27.638  1.00  0.00    -0.269 OA
BRANCH  35  38
ATOM     38  C   UNL A   1      34.660  31.468  27.984  1.00  0.00     0.039 A 
ATOM     39  C   UNL A   1      35.739  32.342  28.144  1.00  0.00     0.014 A 
ATOM     40  C   UNL A   1      34.788  30.131  28.363  1.00  0.00     0.014 A 
ATOM     41  C   UNL A   1      36.914  31.892  28.749  1.00  0.00     0.010 A 
ATOM     42  C   UNL A   1      35.927  29.705  29.047  1.00  0.00     0.010 A 
ATOM     43  C   UNL A   1      37.003  30.581  29.248  1.00  0.00    -0.014 A 
BRANCH  43  44
ATOM     44  C   UNL A   1      38.207  30.140  29.999  1.00  0.00     0.031 A 
ATOM     45  C   UNL A   1      38.459  30.615  31.403  1.00  0.00     0.074 A 
ATOM     46  C   UNL A   1      39.096  29.327  29.397  1.00  0.00     0.049 A 
ATOM     47  N   UNL A   1      39.447  30.319  32.213  1.00  0.00    -0.248 NA
ATOM     48  C   UNL A   1      37.491  31.569  31.967  1.00  0.00     0.031 C 
ATOM     49  C   UNL A   1      38.999  28.844  28.018  1.00  0.00     0.029 A 
ATOM     50  N   UNL A   1      40.256  28.757  29.864  1.00  0.00    -0.354 N 
ATOM     51  C   UNL A   1      39.218  31.045  33.374  1.00  0.00     0.074 A 
ATOM     52  C   UNL A   1      38.036  31.847  33.142  1.00  0.00     0.031 C 
ATOM     53  C   UNL A   1      40.028  28.020  27.765  1.00  0.00     0.029 A 
ATOM     54  C   UNL A   1      40.880  27.948  28.948  1.00  0.00     0.049 A 
ATOM     55  H   UNL A   1      40.606  28.915  30.771  1.00  0.00     0.167 HD
ATOM     56  C   UNL A   1      39.915  31.026  34.537  1.00  0.00     0.037 A 
ATOM     57  C   UNL A   1      42.011  27.225  29.047  1.00  0.00     0.037 A 
ATOM     58  C   UNL A   1      41.088  30.220  34.767  1.00  0.00     0.049 A 
ATOM     59  C   UNL A   1      42.769  27.228  30.348  1.00  0.00     0.074 A 
ATOM     60  C   UNL A   1      41.833  30.091  35.926  1.00  0.00     0.029 A 
ATOM     61  N   UNL A   1      41.692  29.413  33.814  1.00  0.00    -0.354 N 
ATOM     62  N   UNL A   1      42.497  27.857  31.465  1.00  0.00    -0.248 NA
ATOM     63  C   UNL A   1      43.988  26.409  30.400  1.00  0.00     0.031 C 
ATOM     64  C   UNL A   1      42.920  29.252  35.658  1.00  0.00     0.029 A 
ATOM     65  C   UNL A   1      42.817  28.805  34.351  1.00  0.00     0.049 A 
ATOM     66  H   UNL A   1      41.370  29.289  32.892  1.00  0.00     0.167 HD
ATOM     67  C   UNL A   1      43.492  27.490  32.361  1.00  0.00     0.074 A 
ATOM     68  C   UNL A   1      44.357  26.562  31.664  1.00  0.00     0.031 C 
ATOM     69  C   UNL A   1      43.676  27.888  33.644  1.00  0.00     0.037 A 
BRANCH  56  70
ATOM     70  C   UNL A   1      39.426  31.904  35.655  1.00  0.00     0.064 A 
ATOM     71  C   UNL A   1      38.502  31.442  36.606  1.00  0.00     0.173 A 
ATOM     72  C   UNL A   1      39.915  33.211  35.803  1.00  0.00     0.173 A 
ATOM     73  F   UNL A   1      37.994  30.204  36.508  1.00  0.00    -0.203 F 
ATOM     74  C   UNL A   1      38.065  32.264  37.642  1.00  0.00     0.198 A 
ATOM     75  C   UNL A   1      39.502  34.019  36.859  1.00  0.00     0.198 A 
ATOM     76  F   UNL A   1      40.803  33.704  34.927  1.00  0.00    -0.203 F 
ATOM     77  F   UNL A   1      37.142  31.816  38.505  1.00  0.00    -0.200 F 
ATOM     78  C   UNL A   1      38.571  33.548  37.772  1.00  0.00     0.200 A 
ATOM     79  F   UNL A   1      40.003  35.254  36.993  1.00  0.00    -0.200 F 
ATOM     80  F   UNL A   1      38.155  34.334  38.775  1.00  0.00    -0.200 F 
ENDBRANCH  56  70
BRANCH  57  81
ATOM     81  C   UNL A   1      42.482  26.414  27.893  1.00  0.00     0.064 A 
ATOM     82  C   UNL A   1      43.406  26.932  26.975  1.00  0.00     0.173 A 
ATOM     83  C   UNL A   1      42.009  25.112  27.675  1.00  0.00     0.173 A 
ATOM     84  F   UNL A   1      43.875  28.180  27.127  1.00  0.00    -0.203 F 
ATOM     85  C   UNL A   1      43.819  26.190  25.870  1.00  0.00     0.198 A 
ATOM     86  C   UNL A   1      42.447  24.358  26.589  1.00  0.00     0.198 A 
ATOM     87  F   UNL A   1      41.129  24.566  28.527  1.00  0.00    -0.203 F 
ATOM     88  F   UNL A   1      44.660  26.730  24.980  1.00  0.00    -0.200 F 
ATOM     89  C   UNL A   1      43.344  24.901  25.682  1.00  0.00     0.200 A 
ATOM     90  F   UNL A   1      42.000  23.106  26.422  1.00  0.00    -0.200 F 
ATOM     91  F   UNL A   1      43.744  24.185  24.621  1.00  0.00    -0.200 F 
ENDBRANCH  57  81
BRANCH  69  92
ATOM     92  C   UNL A   1      44.844  27.295  34.382  1.00  0.00     0.064 A 
ATOM     93  C   UNL A   1      44.758  26.055  35.032  1.00  0.00     0.173 A 
ATOM     94  C   UNL A   1      46.069  27.979  34.441  1.00  0.00     0.173 A 
ATOM     95  F   UNL A   1      43.606  25.365  35.019  1.00  0.00    -0.203 F 
ATOM     96  C   UNL A   1      45.834  25.545  35.753  1.00  0.00     0.198 A 
ATOM     97  C   UNL A   1      47.156  27.448  35.129  1.00  0.00     0.198 A 
ATOM     98  F   UNL A   1      46.213  29.164  33.829  1.00  0.00    -0.203 F 
ATOM     99  F   UNL A   1      45.702  24.395  36.427  1.00  0.00    -0.200 F 
ATOM    100  C   UNL A   1      47.034  26.239  35.797  1.00  0.00     0.200 A 
ATOM    101  F   UNL A   1      48.320  28.112  35.156  1.00  0.00    -0.200 F 
ATOM    102  F   UNL A   1      48.068  25.748  36.493  1.00  0.00    -0.200 F 
ENDBRANCH  69  92
ENDBRANCH  43  44
ENDBRANCH  35  38
ENDBRANCH  33  34
ENDBRANCH  32  33
ENDBRANCH   1  32
TORSDOF 16
ENDMDL
MODEL 3
REMARK VINA RESULT:     -12.9      1.748      2.990
REMARK SMILES COc1ccc(CCN2C(=O)CC[C@@H](C(=O)NCCCNC(=O)c3ccc(-c4c5nc(c(-c6c(F)c(F)c(F)c(F)c6F)c6ccc([nH]6)c(-c6c(F)c(F)c(F)c(F)c6F)c6nc(c(-c7c(F)c(F)c(F)c(F)c7F)c7ccc4[nH]7)C=C6)C=C5)cc3)[C@@H]2c2ccc(Cl)cc2)cc1OC
REMARK SMILES IDX 18 1 17 2 15 3 16 4 14 6 9 7 10 8 87 9 11 10 12 11 13 12
REMARK SMILES IDX 8 13 7 14 6 15 3 16 4 17 96 18 5 19 95 20 2 21 1 22 97 23
REMARK SMILES IDX 98 24 88 25 89 26 94 27 90 28 93 29 91 30 92 31 19 32 20 33
REMARK SMILES IDX 21 34 22 35 23 37 24 38 25 39 86 40 26 41 85 42 27 43 28 44
REMARK SMILES IDX 29 45 79 46 30 47 84 48 78 49 80 50 31 51 83 52 77 53 76 54
REMARK SMILES IDX 32 56 64 57 44 58 63 59 45 60 48 61 62 62 81 63 46 64 47 65
REMARK SMILES IDX 61 67 82 68 49 69 33 70 34 71 42 72 35 73 36 74 40 75 43 76
REMARK SMILES IDX 37 77 38 78 41 79 39 80 65 81 66 82 74 83 67 84 68 85 72 86
REMARK SMILES IDX 75 87 69 88 70 89 73 90 71 91 50 92 51 93 59 94 52 95 53 96
REMARK SMILES IDX 57 97 60 98 54 99 55 100 58 101 56 102
REMARK H PARENT 17 5 21 36 80 55 48 66
REMARK Flexibility Score: inf
ROOT
ATOM      1  C   UNL A   1      34.011  30.445  27.353  1.00  0.00     0.117 C 
ENDROOT
BRANCH   1   2
ATOM      2  N   UNL A   1      32.813  29.684  27.638  1.00  0.00    -0.356 N 
ATOM      3  C   UNL A   1      32.332  28.531  27.113  1.00  0.00     0.225 C 
ATOM      4  O   UNL A   1      31.395  28.020  27.721  1.00  0.00    -0.275 OA
ATOM      5  H   UNL A   1      32.244  30.075  28.341  1.00  0.00     0.163 HD
BRANCH   3   6
ATOM      6  C   UNL A   1      32.950  27.910  25.869  1.00  0.00     0.106 C 
ATOM      7  N   UNL A   1      31.091  26.459  24.960  1.00  0.00    -0.335 N 
ATOM      8  C   UNL A   1      30.785  27.329  23.927  1.00  0.00     0.223 C 
ATOM      9  C   UNL A   1      32.393  26.482  25.657  1.00  0.00     0.128 C 
ATOM     10  O   UNL A   1      29.914  27.097  23.089  1.00  0.00    -0.275 OA
ATOM     11  C   UNL A   1      31.446  28.691  23.965  1.00  0.00     0.101 C 
ATOM     12  C   UNL A   1      32.818  28.754  24.605  1.00  0.00     0.026 C 
BRANCH   7  13
ATOM     13  C   UNL A   1      30.152  25.362  25.261  1.00  0.00     0.125 C 
BRANCH  13  14
ATOM     14  C   UNL A   1      30.513  24.515  26.501  1.00  0.00     0.057 C 
BRANCH  14  15
ATOM     15  C   UNL A   1      31.392  23.300  26.279  1.00  0.00    -0.042 A 
ATOM     16  C   UNL A   1      33.123  21.113  25.803  1.00  0.00     0.160 A 
ATOM     17  C   UNL A   1      33.212  21.842  26.988  1.00  0.00     0.051 A 
ATOM     18  C   UNL A   1      32.159  21.456  24.848  1.00  0.00     0.160 A 
ATOM     19  C   UNL A   1      32.364  22.924  27.207  1.00  0.00     0.008 A 
ATOM     20  C   UNL A   1      31.308  22.551  25.096  1.00  0.00     0.054 A 
BRANCH  16  21
ATOM     21  O   UNL A   1      33.935  20.021  25.654  1.00  0.00    -0.493 OA
ATOM     22  C   UNL A   1      35.163  20.346  25.003  1.00  0.00     0.278 C 
ENDBRANCH  16  21
BRANCH  18  23
ATOM     23  O   UNL A   1      31.913  20.852  23.643  1.00  0.00    -0.493 OA
ATOM     24  C   UNL A   1      32.154  21.602  22.460  1.00  0.00     0.278 C 
ENDBRANCH  18  23
ENDBRANCH  14  15
ENDBRANCH  13  14
ENDBRANCH   7  13
BRANCH   9  25
ATOM     25  C   UNL A   1      33.454  25.593  24.979  1.00  0.00    -0.025 A 
ATOM     26  C   UNL A   1      33.379  25.200  23.632  1.00  0.00     0.007 A 
ATOM     27  C   UNL A   1      34.544  25.121  25.741  1.00  0.00     0.007 A 
ATOM     28  C   UNL A   1      34.361  24.378  23.067  1.00  0.00     0.021 A 
ATOM     29  C   UNL A   1      35.539  24.326  25.169  1.00  0.00     0.021 A 
ATOM     30  C   UNL A   1      35.440  23.953  23.833  1.00  0.00     0.041 A 
ATOM     31  Cl  UNL A   1      36.652  22.953  23.134  1.00  0.00    -0.084 Cl
ENDBRANCH   9  25
ENDBRANCH   3   6
ENDBRANCH   1   2
BRANCH   1  32
ATOM     32  C   UNL A   1      33.698  31.883  26.966  1.00  0.00     0.042 C 
BRANCH  32  33
ATOM     33  C   UNL A   1      32.304  32.367  27.359  1.00  0.00     0.118 C 
BRANCH  33  34
ATOM     34  N   UNL A   1      32.236  33.799  27.605  1.00  0.00    -0.352 N 
ATOM     35  C   UNL A   1      32.994  34.606  28.417  1.00  0.00     0.251 C 
ATOM     36  H   UNL A   1      31.527  34.268  27.106  1.00  0.00     0.163 HD
ATOM     37  O   UNL A   1      32.662  35.774  28.583  1.00  0.00    -0.269 OA
BRANCH  35  38
ATOM     38  C   UNL A   1      34.184  34.076  29.119  1.00  0.00     0.039 A 
ATOM     39  C   UNL A   1      33.986  33.210  30.198  1.00  0.00     0.014 A 
ATOM     40  C   UNL A   1      35.481  34.436  28.747  1.00  0.00     0.014 A 
ATOM     41  C   UNL A   1      35.084  32.652  30.853  1.00  0.00     0.010 A 
ATOM     42  C   UNL A   1      36.576  33.810  29.343  1.00  0.00     0.010 A 
ATOM     43  C   UNL A   1      36.391  32.911  30.402  1.00  0.00    -0.014 A 
BRANCH  43  44
ATOM     44  C   UNL A   1      37.553  32.221  31.022  1.00  0.00     0.031 A 
ATOM     45  C   UNL A   1      38.019  32.584  32.405  1.00  0.00     0.074 A 
ATOM     46  C   UNL A   1      38.210  31.279  30.318  1.00  0.00     0.049 A 
ATOM     47  N   UNL A   1      39.001  32.074  33.107  1.00  0.00    -0.248 NA
ATOM     48  C   UNL A   1      37.308  33.679  33.081  1.00  0.00     0.031 C 
ATOM     49  C   UNL A   1      37.896  30.879  28.945  1.00  0.00     0.029 A 
ATOM     50  N   UNL A   1      39.276  30.483  30.657  1.00  0.00    -0.354 N 
ATOM     51  C   UNL A   1      39.024  32.783  34.301  1.00  0.00     0.074 A 
ATOM     52  C   UNL A   1      38.002  33.802  34.203  1.00  0.00     0.031 C 
ATOM     53  C   UNL A   1      38.720  29.887  28.574  1.00  0.00     0.029 A 
ATOM     54  C   UNL A   1      39.647  29.607  29.666  1.00  0.00     0.049 A 
ATOM     55  H   UNL A   1      39.732  30.536  31.528  1.00  0.00     0.167 HD
ATOM     56  C   UNL A   1      39.808  32.587  35.389  1.00  0.00     0.037 A 
ATOM     57  C   UNL A   1      40.623  28.681  29.639  1.00  0.00     0.037 A 
ATOM     58  C   UNL A   1      40.821  31.565  35.485  1.00  0.00     0.049 A 
ATOM     59  C   UNL A   1      41.484  28.489  30.859  1.00  0.00     0.074 A 
ATOM     60  C   UNL A   1      41.631  31.251  36.563  1.00  0.00     0.029 A 
ATOM     61  N   UNL A   1      41.169  30.697  34.461  1.00  0.00    -0.354 N 
ATOM     62  N   UNL A   1      41.441  29.112  32.010  1.00  0.00    -0.248 NA
ATOM     63  C   UNL A   1      42.522  27.453  30.774  1.00  0.00     0.031 C 
ATOM     64  C   UNL A   1      42.508  30.233  36.171  1.00  0.00     0.029 A 
ATOM     65  C   UNL A   1      42.201  29.866  34.871  1.00  0.00     0.049 A 
ATOM     66  H   UNL A   1      40.746  30.673  33.572  1.00  0.00     0.167 HD
ATOM     67  C   UNL A   1      42.426  28.528  32.797  1.00  0.00     0.074 A 
ATOM     68  C   UNL A   1      43.029  27.482  31.998  1.00  0.00     0.031 C 
ATOM     69  C   UNL A   1      42.799  28.833  34.064  1.00  0.00     0.037 A 
BRANCH  56  70
ATOM     70  C   UNL A   1      39.602  33.495  36.568  1.00  0.00     0.064 A 
ATOM     71  C   UNL A   1      38.765  33.138  37.638  1.00  0.00     0.173 A 
ATOM     72  C   UNL A   1      40.278  34.722  36.651  1.00  0.00     0.173 A 
ATOM     73  F   UNL A   1      38.086  31.981  37.607  1.00  0.00    -0.203 F 
ATOM     74  C   UNL A   1      38.590  33.987  38.729  1.00  0.00     0.198 A 
ATOM     75  C   UNL A   1      40.128  35.553  37.759  1.00  0.00     0.198 A 
ATOM     76  F   UNL A   1      41.094  35.113  35.661  1.00  0.00    -0.203 F 
ATOM     77  F   UNL A   1      37.744  33.645  39.711  1.00  0.00    -0.200 F 
ATOM     78  C   UNL A   1      39.278  35.189  38.792  1.00  0.00     0.200 A 
ATOM     79  F   UNL A   1      40.804  36.707  37.826  1.00  0.00    -0.200 F 
ATOM     80  F   UNL A   1      39.115  36.000  39.847  1.00  0.00    -0.200 F 
ENDBRANCH  56  70
BRANCH  57  81
ATOM     81  C   UNL A   1      40.821  27.842  28.426  1.00  0.00     0.064 A 
ATOM     82  C   UNL A   1      41.666  28.261  27.389  1.00  0.00     0.173 A 
ATOM     83  C   UNL A   1      40.161  26.614  28.273  1.00  0.00     0.173 A 
ATOM     84  F   UNL A   1      42.305  29.436  27.478  1.00  0.00    -0.203 F 
ATOM     85  C   UNL A   1      41.823  27.497  26.234  1.00  0.00     0.198 A 
ATOM     86  C   UNL A   1      40.345  25.835  27.134  1.00  0.00     0.198 A 
ATOM     87  F   UNL A   1      39.347  26.164  29.239  1.00  0.00    -0.203 F 
ATOM     88  F   UNL A   1      42.593  27.947  25.236  1.00  0.00    -0.200 F 
ATOM     89  C   UNL A   1      41.167  26.282  26.110  1.00  0.00     0.200 A 
ATOM     90  F   UNL A   1      39.724  24.652  27.026  1.00  0.00    -0.200 F 
ATOM     91  F   UNL A   1      41.321  25.545  25.001  1.00  0.00    -0.200 F 
ENDBRANCH  57  81
BRANCH  69  92
ATOM     92  C   UNL A   1      43.895  28.001  34.671  1.00  0.00     0.064 A 
ATOM     93  C   UNL A   1      45.244  28.382  34.593  1.00  0.00     0.173 A 
ATOM     94  C   UNL A   1      43.593  26.804  35.338  1.00  0.00     0.173 A 
ATOM     95  F   UNL A   1      45.590  29.510  33.953  1.00  0.00    -0.203 F 
ATOM     96  C   UNL A   1      46.249  27.573  35.116  1.00  0.00     0.198 A 
ATOM     97  C   UNL A   1      44.597  26.018  35.896  1.00  0.00     0.198 A 
ATOM     98  F   UNL A   1      42.320  26.395  35.452  1.00  0.00    -0.203 F 
ATOM     99  F   UNL A   1      47.534  27.922  34.963  1.00  0.00    -0.200 F 
ATOM    100  C   UNL A   1      45.925  26.395  35.771  1.00  0.00     0.200 A 
ATOM    101  F   UNL A   1      44.281  24.887  36.543  1.00  0.00    -0.200 F 
ATOM    102  F   UNL A   1      46.895  25.617  36.272  1.00  0.00    -0.200 F 
ENDBRANCH  69  92
ENDBRANCH  43  44
ENDBRANCH  35  38
ENDBRANCH  33  34
ENDBRANCH  32  33
ENDBRANCH   1  32
TORSDOF 16
ENDMDL
