MODEL 1
REMARK VINA RESULT:     -10.2      0.000      0.000
REMARK SMILES N#C/C(=C/c1cc(Br)ccc1OCC(=O)NCCCNC(=O)c1ccc(-c2c3nc(c(-c4c(F)c(F)c(F)c(F)c4F)c4ccc([nH]4)c(-c4c(F)c(F)c(F)c(F)c4F)c4nc(c(-c5c(F)c(F)c(F)c(F)c5F)c5ccc2[nH]5)C=C4)C=C3)cc1)c1ccc(F)cc1
REMARK SMILES IDX 17 1 16 2 14 3 15 4 13 6 12 7 11 8 5 9 6 10 7 11 10 12 8 13
REMARK SMILES IDX 9 14 4 15 3 16 2 17 1 18 86 19 87 20 92 21 88 22 91 23 89 24
REMARK SMILES IDX 90 25 18 26 19 27 20 28 21 29 22 31 23 32 24 33 85 34 25 35
REMARK SMILES IDX 84 36 26 37 27 38 28 39 78 40 29 41 83 42 77 43 79 44 30 45
REMARK SMILES IDX 82 46 76 47 75 48 31 50 63 51 43 52 62 53 44 54 47 55 61 56
REMARK SMILES IDX 80 57 45 58 46 59 60 61 81 62 48 63 32 64 33 65 41 66 34 67
REMARK SMILES IDX 35 68 39 69 42 70 36 71 37 72 40 73 38 74 64 75 65 76 73 77
REMARK SMILES IDX 66 78 67 79 71 80 74 81 68 82 69 83 72 84 70 85 49 86 50 87
REMARK SMILES IDX 58 88 51 89 52 90 56 91 59 92 53 93 54 94 57 95 55 96
REMARK H PARENT 16 5 20 30 79 49 47 60
REMARK Flexibility Score: inf
ROOT
ATOM      1  C   UNL A   1      43.490  21.266  26.077  1.00  0.00     0.117 C 
ENDROOT
BRANCH   1   2
ATOM      2  N   UNL A   1      43.801  21.508  24.685  1.00  0.00    -0.353 N 
ATOM      3  C   UNL A   1      44.138  22.688  24.095  1.00  0.00     0.257 C 
ATOM      4  O   UNL A   1      44.634  22.648  22.968  1.00  0.00    -0.271 OA
ATOM      5  H   UNL A   1      43.768  20.723  24.093  1.00  0.00     0.163 HD
BRANCH   3   6
ATOM      6  C   UNL A   1      43.912  24.019  24.826  1.00  0.00     0.329 C 
BRANCH   6   7
ATOM      7  O   UNL A   1      44.980  24.945  24.876  1.00  0.00    -0.483 OA
BRANCH   7   8
ATOM      8  C   UNL A   1      44.898  26.174  25.468  1.00  0.00     0.127 A 
ATOM      9  C   UNL A   1      45.856  26.906  26.192  1.00  0.00     0.019 A 
ATOM     10  C   UNL A   1      45.528  28.200  26.651  1.00  0.00     0.027 A 
ATOM     11  C   UNL A   1      44.250  28.724  26.463  1.00  0.00     0.018 A 
ATOM     12  C   UNL A   1      43.621  26.735  25.278  1.00  0.00     0.048 A 
ATOM     13  Br  UNL A   1      43.811  30.417  27.176  1.00  0.00    -0.051 Br
ATOM     14  C   UNL A   1      43.289  27.992  25.782  1.00  0.00     0.019 A 
BRANCH   9  15
ATOM     15  C   UNL A   1      47.163  26.360  26.578  1.00  0.00     0.032 C 
ATOM     16  C   UNL A   1      47.376  25.361  27.455  1.00  0.00     0.060 C 
BRANCH  16  17
ATOM     17  C   UNL A   1      48.775  24.796  27.641  1.00  0.00     0.100 C 
ATOM     18  N   UNL A   1      49.935  24.327  27.794  1.00  0.00    -0.192 NA
ENDBRANCH  16  17
BRANCH  16  19
ATOM     19  C   UNL A   1      46.369  24.941  28.462  1.00  0.00    -0.008 A 
ATOM     20  C   UNL A   1      46.327  25.447  29.769  1.00  0.00     0.012 A 
ATOM     21  C   UNL A   1      45.477  23.907  28.108  1.00  0.00     0.012 A 
ATOM     22  C   UNL A   1      45.448  24.897  30.708  1.00  0.00     0.040 A 
ATOM     23  C   UNL A   1      44.592  23.369  29.043  1.00  0.00     0.040 A 
ATOM     24  C   UNL A   1      44.595  23.862  30.339  1.00  0.00     0.123 A 
ATOM     25  F   UNL A   1      43.772  23.325  31.248  1.00  0.00    -0.207 F 
ENDBRANCH  16  19
ENDBRANCH   9  15
ENDBRANCH   7   8
ENDBRANCH   6   7
ENDBRANCH   3   6
ENDBRANCH   1   2
BRANCH   1  26
ATOM     26  C   UNL A   1      42.004  21.058  26.342  1.00  0.00     0.042 C 
BRANCH  26  27
ATOM     27  C   UNL A   1      41.257  22.298  26.823  1.00  0.00     0.118 C 
BRANCH  27  28
ATOM     28  N   UNL A   1      39.954  22.464  26.195  1.00  0.00    -0.352 N 
ATOM     29  C   UNL A   1      39.023  23.469  26.299  1.00  0.00     0.251 C 
ATOM     30  H   UNL A   1      39.695  21.730  25.592  1.00  0.00     0.163 HD
ATOM     31  O   UNL A   1      37.910  23.312  25.808  1.00  0.00    -0.269 OA
BRANCH  29  32
ATOM     32  C   UNL A   1      39.338  24.724  27.013  1.00  0.00     0.039 A 
ATOM     33  C   UNL A   1      38.966  24.845  28.355  1.00  0.00     0.014 A 
ATOM     34  C   UNL A   1      39.963  25.792  26.366  1.00  0.00     0.014 A 
ATOM     35  C   UNL A   1      39.284  26.006  29.064  1.00  0.00     0.010 A 
ATOM     36  C   UNL A   1      40.358  26.910  27.094  1.00  0.00     0.010 A 
ATOM     37  C   UNL A   1      40.019  27.032  28.450  1.00  0.00    -0.014 A 
BRANCH  37  38
ATOM     38  C   UNL A   1      40.437  28.241  29.204  1.00  0.00     0.031 A 
ATOM     39  C   UNL A   1      41.846  28.368  29.714  1.00  0.00     0.074 A 
ATOM     40  C   UNL A   1      39.532  29.198  29.484  1.00  0.00     0.049 A 
ATOM     41  N   UNL A   1      42.384  29.315  30.441  1.00  0.00    -0.248 NA
ATOM     42  C   UNL A   1      42.765  27.268  29.385  1.00  0.00     0.031 C 
ATOM     43  C   UNL A   1      38.126  29.176  29.078  1.00  0.00     0.029 A 
ATOM     44  N   UNL A   1      39.658  30.374  30.181  1.00  0.00    -0.354 N 
ATOM     45  C   UNL A   1      43.696  28.919  30.664  1.00  0.00     0.074 A 
ATOM     46  C   UNL A   1      43.852  27.615  30.056  1.00  0.00     0.031 C 
ATOM     47  C   UNL A   1      37.530  30.303  29.498  1.00  0.00     0.029 A 
ATOM     48  C   UNL A   1      38.497  31.104  30.243  1.00  0.00     0.049 A 
ATOM     49  H   UNL A   1      40.502  30.666  30.596  1.00  0.00     0.167 HD
ATOM     50  C   UNL A   1      44.690  29.593  31.292  1.00  0.00     0.037 A 
ATOM     51  C   UNL A   1      38.241  32.286  30.834  1.00  0.00     0.037 A 
ATOM     52  C   UNL A   1      44.531  30.893  31.892  1.00  0.00     0.049 A 
ATOM     53  C   UNL A   1      39.348  32.995  31.567  1.00  0.00     0.074 A 
ATOM     54  C   UNL A   1      45.482  31.679  32.519  1.00  0.00     0.029 A 
ATOM     55  N   UNL A   1      43.334  31.595  31.947  1.00  0.00    -0.354 N 
ATOM     56  N   UNL A   1      40.601  32.642  31.719  1.00  0.00    -0.248 NA
ATOM     57  C   UNL A   1      39.001  34.269  32.209  1.00  0.00     0.031 C 
ATOM     58  C   UNL A   1      44.850  32.830  33.002  1.00  0.00     0.029 A 
ATOM     59  C   UNL A   1      43.517  32.793  32.621  1.00  0.00     0.049 A 
ATOM     60  H   UNL A   1      42.482  31.287  31.564  1.00  0.00     0.167 HD
ATOM     61  C   UNL A   1      41.202  33.666  32.439  1.00  0.00     0.074 A 
ATOM     62  C   UNL A   1      40.175  34.658  32.686  1.00  0.00     0.031 C 
ATOM     63  C   UNL A   1      42.489  33.776  32.854  1.00  0.00     0.037 A 
BRANCH  50  64
ATOM     64  C   UNL A   1      46.034  28.922  31.367  1.00  0.00     0.064 A 
ATOM     65  C   UNL A   1      46.401  28.127  32.466  1.00  0.00     0.173 A 
ATOM     66  C   UNL A   1      46.970  29.078  30.334  1.00  0.00     0.173 A 
ATOM     67  F   UNL A   1      45.549  27.951  33.487  1.00  0.00    -0.203 F 
ATOM     68  C   UNL A   1      47.670  27.560  32.551  1.00  0.00     0.198 A 
ATOM     69  C   UNL A   1      48.225  28.477  30.404  1.00  0.00     0.198 A 
ATOM     70  F   UNL A   1      46.672  29.818  29.256  1.00  0.00    -0.203 F 
ATOM     71  F   UNL A   1      48.022  26.870  33.645  1.00  0.00    -0.200 F 
ATOM     72  C   UNL A   1      48.579  27.731  31.519  1.00  0.00     0.200 A 
ATOM     73  F   UNL A   1      49.097  28.630  29.398  1.00  0.00    -0.200 F 
ATOM     74  F   UNL A   1      49.802  27.188  31.604  1.00  0.00    -0.200 F 
ENDBRANCH  50  64
BRANCH  51  75
ATOM     75  C   UNL A   1      36.891  32.895  30.718  1.00  0.00     0.064 A 
ATOM     76  C   UNL A   1      36.541  33.642  29.583  1.00  0.00     0.173 A 
ATOM     77  C   UNL A   1      35.923  32.742  31.720  1.00  0.00     0.173 A 
ATOM     78  F   UNL A   1      37.440  33.833  28.605  1.00  0.00    -0.203 F 
ATOM     79  C   UNL A   1      35.282  34.225  29.463  1.00  0.00     0.198 A 
ATOM     80  C   UNL A   1      34.654  33.301  31.586  1.00  0.00     0.198 A 
ATOM     81  F   UNL A   1      36.204  32.032  32.823  1.00  0.00    -0.203 F 
ATOM     82  F   UNL A   1      34.989  34.967  28.386  1.00  0.00    -0.200 F 
ATOM     83  C   UNL A   1      34.337  34.048  30.461  1.00  0.00     0.200 A 
ATOM     84  F   UNL A   1      33.737  33.113  32.545  1.00  0.00    -0.200 F 
ATOM     85  F   UNL A   1      33.122  34.600  30.342  1.00  0.00    -0.200 F 
ENDBRANCH  51  75
BRANCH  63  86
ATOM     86  C   UNL A   1      42.874  35.035  33.578  1.00  0.00     0.064 A 
ATOM     87  C   UNL A   1      43.288  36.188  32.893  1.00  0.00     0.173 A 
ATOM     88  C   UNL A   1      42.795  35.098  34.978  1.00  0.00     0.173 A 
ATOM     89  F   UNL A   1      43.396  36.177  31.556  1.00  0.00    -0.203 F 
ATOM     90  C   UNL A   1      43.635  37.345  33.585  1.00  0.00     0.198 A 
ATOM     91  C   UNL A   1      43.109  36.268  35.664  1.00  0.00     0.198 A 
ATOM     92  F   UNL A   1      42.399  34.026  35.682  1.00  0.00    -0.203 F 
ATOM     93  F   UNL A   1      44.080  38.416  32.913  1.00  0.00    -0.200 F 
ATOM     94  C   UNL A   1      43.538  37.388  34.968  1.00  0.00     0.200 A 
ATOM     95  F   UNL A   1      42.999  36.310  36.999  1.00  0.00    -0.200 F 
ATOM     96  F   UNL A   1      43.865  38.505  35.631  1.00  0.00    -0.200 F 
ENDBRANCH  63  86
ENDBRANCH  37  38
ENDBRANCH  29  32
ENDBRANCH  27  28
ENDBRANCH  26  27
ENDBRANCH   1  26
TORSDOF 15
ENDMDL
MODEL 2
REMARK VINA RESULT:     -10.1      5.242     10.240
REMARK SMILES N#C/C(=C/c1cc(Br)ccc1OCC(=O)NCCCNC(=O)c1ccc(-c2c3nc(c(-c4c(F)c(F)c(F)c(F)c4F)c4ccc([nH]4)c(-c4c(F)c(F)c(F)c(F)c4F)c4nc(c(-c5c(F)c(F)c(F)c(F)c5F)c5ccc2[nH]5)C=C4)C=C3)cc1)c1ccc(F)cc1
REMARK SMILES IDX 17 1 16 2 14 3 15 4 13 6 12 7 11 8 5 9 6 10 7 11 10 12 8 13
REMARK SMILES IDX 9 14 4 15 3 16 2 17 1 18 86 19 87 20 92 21 88 22 91 23 89 24
REMARK SMILES IDX 90 25 18 26 19 27 20 28 21 29 22 31 23 32 24 33 85 34 25 35
REMARK SMILES IDX 84 36 26 37 27 38 28 39 78 40 29 41 83 42 77 43 79 44 30 45
REMARK SMILES IDX 82 46 76 47 75 48 31 50 63 51 43 52 62 53 44 54 47 55 61 56
REMARK SMILES IDX 80 57 45 58 46 59 60 61 81 62 48 63 32 64 33 65 41 66 34 67
REMARK SMILES IDX 35 68 39 69 42 70 36 71 37 72 40 73 38 74 64 75 65 76 73 77
REMARK SMILES IDX 66 78 67 79 71 80 74 81 68 82 69 83 72 84 70 85 49 86 50 87
REMARK SMILES IDX 58 88 51 89 52 90 56 91 59 92 53 93 54 94 57 95 55 96
REMARK H PARENT 16 5 20 30 79 49 47 60
REMARK Flexibility Score: inf
ROOT
ATOM      1  C   UNL A   1      31.724  30.769  26.538  1.00  0.00     0.117 C 
ENDROOT
BRANCH   1   2
ATOM      2  N   UNL A   1      33.021  30.284  26.955  1.00  0.00    -0.353 N 
ATOM      3  C   UNL A   1      33.490  29.005  26.917  1.00  0.00     0.257 C 
ATOM      4  O   UNL A   1      34.702  28.832  27.052  1.00  0.00    -0.271 OA
ATOM      5  H   UNL A   1      33.642  30.961  27.308  1.00  0.00     0.163 HD
BRANCH   3   6
ATOM      6  C   UNL A   1      32.530  27.828  26.700  1.00  0.00     0.329 C 
BRANCH   6   7
ATOM      7  O   UNL A   1      33.031  26.660  26.081  1.00  0.00    -0.483 OA
BRANCH   7   8
ATOM      8  C   UNL A   1      32.739  26.288  24.799  1.00  0.00     0.127 A 
ATOM      9  C   UNL A   1      31.698  25.487  24.293  1.00  0.00     0.019 A 
ATOM     10  C   UNL A   1      31.587  25.307  22.898  1.00  0.00     0.027 A 
ATOM     11  C   UNL A   1      32.534  25.845  22.029  1.00  0.00     0.018 A 
ATOM     12  C   UNL A   1      33.671  26.833  23.897  1.00  0.00     0.048 A 
ATOM     13  Br  UNL A   1      32.416  25.503  20.175  1.00  0.00    -0.051 Br
ATOM     14  C   UNL A   1      33.584  26.604  22.524  1.00  0.00     0.019 A 
BRANCH   9  15
ATOM     15  C   UNL A   1      30.762  24.749  25.150  1.00  0.00     0.032 C 
ATOM     16  C   UNL A   1      31.058  23.668  25.898  1.00  0.00     0.060 C 
BRANCH  16  17
ATOM     17  C   UNL A   1      30.023  23.100  26.856  1.00  0.00     0.100 C 
ATOM     18  N   UNL A   1      29.165  22.629  27.650  1.00  0.00    -0.192 NA
ENDBRANCH  16  17
BRANCH  16  19
ATOM     19  C   UNL A   1      32.253  22.821  25.658  1.00  0.00    -0.008 A 
ATOM     20  C   UNL A   1      33.453  22.960  26.372  1.00  0.00     0.012 A 
ATOM     21  C   UNL A   1      32.204  21.902  24.589  1.00  0.00     0.012 A 
ATOM     22  C   UNL A   1      34.585  22.231  25.992  1.00  0.00     0.040 A 
ATOM     23  C   UNL A   1      33.331  21.167  24.221  1.00  0.00     0.040 A 
ATOM     24  C   UNL A   1      34.515  21.348  24.919  1.00  0.00     0.123 A 
ATOM     25  F   UNL A   1      35.608  20.670  24.546  1.00  0.00    -0.207 F 
ENDBRANCH  16  19
ENDBRANCH   9  15
ENDBRANCH   7   8
ENDBRANCH   6   7
ENDBRANCH   3   6
ENDBRANCH   1   2
BRANCH   1  26
ATOM     26  C   UNL A   1      31.487  32.237  26.867  1.00  0.00     0.042 C 
BRANCH  26  27
ATOM     27  C   UNL A   1      32.751  33.048  27.133  1.00  0.00     0.118 C 
BRANCH  27  28
ATOM     28  N   UNL A   1      32.480  34.377  27.666  1.00  0.00    -0.352 N 
ATOM     29  C   UNL A   1      33.013  35.044  28.742  1.00  0.00     0.251 C 
ATOM     30  H   UNL A   1      31.796  34.883  27.171  1.00  0.00     0.163 HD
ATOM     31  O   UNL A   1      32.503  36.097  29.112  1.00  0.00    -0.269 OA
BRANCH  29  32
ATOM     32  C   UNL A   1      34.178  34.498  29.472  1.00  0.00     0.039 A 
ATOM     33  C   UNL A   1      33.963  33.858  30.696  1.00  0.00     0.014 A 
ATOM     34  C   UNL A   1      35.476  34.641  28.980  1.00  0.00     0.014 A 
ATOM     35  C   UNL A   1      35.040  33.302  31.389  1.00  0.00     0.010 A 
ATOM     36  C   UNL A   1      36.536  34.010  29.625  1.00  0.00     0.010 A 
ATOM     37  C   UNL A   1      36.331  33.337  30.839  1.00  0.00    -0.014 A 
BRANCH  37  38
ATOM     38  C   UNL A   1      37.479  32.684  31.517  1.00  0.00     0.031 A 
ATOM     39  C   UNL A   1      38.205  31.547  30.855  1.00  0.00     0.074 A 
ATOM     40  C   UNL A   1      37.830  33.075  32.758  1.00  0.00     0.049 A 
ATOM     41  N   UNL A   1      39.189  30.812  31.311  1.00  0.00    -0.248 NA
ATOM     42  C   UNL A   1      37.744  31.167  29.512  1.00  0.00     0.031 C 
ATOM     43  C   UNL A   1      37.182  34.142  33.523  1.00  0.00     0.029 A 
ATOM     44  N   UNL A   1      38.815  32.616  33.596  1.00  0.00    -0.354 N 
ATOM     45  C   UNL A   1      39.454  29.879  30.317  1.00  0.00     0.074 A 
ATOM     46  C   UNL A   1      38.483  30.096  29.266  1.00  0.00     0.031 C 
ATOM     47  C   UNL A   1      37.811  34.282  34.700  1.00  0.00     0.029 A 
ATOM     48  C   UNL A   1      38.875  33.286  34.794  1.00  0.00     0.049 A 
ATOM     49  H   UNL A   1      39.422  31.878  33.361  1.00  0.00     0.167 HD
ATOM     50  C   UNL A   1      40.435  28.946  30.269  1.00  0.00     0.037 A 
ATOM     51  C   UNL A   1      39.693  33.114  35.848  1.00  0.00     0.037 A 
ATOM     52  C   UNL A   1      41.403  28.737  31.316  1.00  0.00     0.049 A 
ATOM     53  C   UNL A   1      40.746  32.040  35.793  1.00  0.00     0.074 A 
ATOM     54  C   UNL A   1      42.460  27.846  31.352  1.00  0.00     0.029 A 
ATOM     55  N   UNL A   1      41.421  29.425  32.522  1.00  0.00    -0.354 N 
ATOM     56  N   UNL A   1      41.029  31.205  34.823  1.00  0.00    -0.248 NA
ATOM     57  C   UNL A   1      41.594  31.889  36.983  1.00  0.00     0.031 C 
ATOM     58  C   UNL A   1      43.085  27.956  32.599  1.00  0.00     0.029 A 
ATOM     59  C   UNL A   1      42.456  28.961  33.318  1.00  0.00     0.049 A 
ATOM     60  H   UNL A   1      40.792  30.139  32.773  1.00  0.00     0.167 HD
ATOM     61  C   UNL A   1      42.111  30.457  35.267  1.00  0.00     0.074 A 
ATOM     62  C   UNL A   1      42.437  30.944  36.592  1.00  0.00     0.031 C 
ATOM     63  C   UNL A   1      42.776  29.459  34.633  1.00  0.00     0.037 A 
BRANCH  50  64
ATOM     64  C   UNL A   1      40.498  28.077  29.043  1.00  0.00     0.064 A 
ATOM     65  C   UNL A   1      41.274  28.431  27.927  1.00  0.00     0.173 A 
ATOM     66  C   UNL A   1      39.771  26.879  28.977  1.00  0.00     0.173 A 
ATOM     67  F   UNL A   1      41.983  29.571  27.931  1.00  0.00    -0.203 F 
ATOM     68  C   UNL A   1      41.277  27.648  26.776  1.00  0.00     0.198 A 
ATOM     69  C   UNL A   1      39.807  26.078  27.838  1.00  0.00     0.198 A 
ATOM     70  F   UNL A   1      39.020  26.484  30.016  1.00  0.00    -0.203 F 
ATOM     71  F   UNL A   1      41.966  28.048  25.698  1.00  0.00    -0.200 F 
ATOM     72  C   UNL A   1      40.549  26.470  26.733  1.00  0.00     0.200 A 
ATOM     73  F   UNL A   1      39.115  24.931  27.804  1.00  0.00    -0.200 F 
ATOM     74  F   UNL A   1      40.549  25.720  25.623  1.00  0.00    -0.200 F 
ENDBRANCH  50  64
BRANCH  51  75
ATOM     75  C   UNL A   1      39.580  34.012  37.027  1.00  0.00     0.064 A 
ATOM     76  C   UNL A   1      38.815  33.634  38.141  1.00  0.00     0.173 A 
ATOM     77  C   UNL A   1      40.233  35.251  37.076  1.00  0.00     0.173 A 
ATOM     78  F   UNL A   1      38.157  32.466  38.133  1.00  0.00    -0.203 F 
ATOM     79  C   UNL A   1      38.696  34.468  39.249  1.00  0.00     0.198 A 
ATOM     80  C   UNL A   1      40.136  36.072  38.197  1.00  0.00     0.198 A 
ATOM     81  F   UNL A   1      40.982  35.658  36.040  1.00  0.00    -0.203 F 
ATOM     82  F   UNL A   1      37.926  34.099  40.282  1.00  0.00    -0.200 F 
ATOM     83  C   UNL A   1      39.362  35.683  39.280  1.00  0.00     0.200 A 
ATOM     84  F   UNL A   1      40.796  37.238  38.231  1.00  0.00    -0.200 F 
ATOM     85  F   UNL A   1      39.254  36.482  40.350  1.00  0.00    -0.200 F 
ENDBRANCH  51  75
BRANCH  63  86
ATOM     86  C   UNL A   1      43.955  28.856  35.343  1.00  0.00     0.064 A 
ATOM     87  C   UNL A   1      43.814  27.783  36.237  1.00  0.00     0.173 A 
ATOM     88  C   UNL A   1      45.250  29.339  35.098  1.00  0.00     0.173 A 
ATOM     89  F   UNL A   1      42.597  27.294  36.519  1.00  0.00    -0.203 F 
ATOM     90  C   UNL A   1      44.922  27.237  36.880  1.00  0.00     0.198 A 
ATOM     91  C   UNL A   1      46.359  28.767  35.716  1.00  0.00     0.198 A 
ATOM     92  F   UNL A   1      45.442  30.359  34.248  1.00  0.00    -0.203 F 
ATOM     93  F   UNL A   1      44.757  26.250  37.771  1.00  0.00    -0.200 F 
ATOM     94  C   UNL A   1      46.193  27.723  36.613  1.00  0.00     0.200 A 
ATOM     95  F   UNL A   1      47.587  29.229  35.445  1.00  0.00    -0.200 F 
ATOM     96  F   UNL A   1      47.259  27.191  37.227  1.00  0.00    -0.200 F 
ENDBRANCH  63  86
ENDBRANCH  37  38
ENDBRANCH  29  32
ENDBRANCH  27  28
ENDBRANCH  26  27
ENDBRANCH   1  26
TORSDOF 15
ENDMDL
MODEL 3
REMARK VINA RESULT:     -10.1      4.688     10.862
REMARK SMILES N#C/C(=C/c1cc(Br)ccc1OCC(=O)NCCCNC(=O)c1ccc(-c2c3nc(c(-c4c(F)c(F)c(F)c(F)c4F)c4ccc([nH]4)c(-c4c(F)c(F)c(F)c(F)c4F)c4nc(c(-c5c(F)c(F)c(F)c(F)c5F)c5ccc2[nH]5)C=C4)C=C3)cc1)c1ccc(F)cc1
REMARK SMILES IDX 17 1 16 2 14 3 15 4 13 6 12 7 11 8 5 9 6 10 7 11 10 12 8 13
REMARK SMILES IDX 9 14 4 15 3 16 2 17 1 18 86 19 87 20 92 21 88 22 91 23 89 24
REMARK SMILES IDX 90 25 18 26 19 27 20 28 21 29 22 31 23 32 24 33 85 34 25 35
REMARK SMILES IDX 84 36 26 37 27 38 28 39 78 40 29 41 83 42 77 43 79 44 30 45
REMARK SMILES IDX 82 46 76 47 75 48 31 50 63 51 43 52 62 53 44 54 47 55 61 56
REMARK SMILES IDX 80 57 45 58 46 59 60 61 81 62 48 63 32 64 33 65 41 66 34 67
REMARK SMILES IDX 35 68 39 69 42 70 36 71 37 72 40 73 38 74 64 75 65 76 73 77
REMARK SMILES IDX 66 78 67 79 71 80 74 81 68 82 69 83 72 84 70 85 49 86 50 87
REMARK SMILES IDX 58 88 51 89 52 90 56 91 59 92 53 93 54 94 57 95 55 96
REMARK H PARENT 16 5 20 30 79 49 47 60
REMARK Flexibility Score: inf
ROOT
ATOM      1  C   UNL A   1      37.173  20.999  24.488  1.00  0.00     0.117 C 
ENDROOT
BRANCH   1   2
ATOM      2  N   UNL A   1      37.789  22.278  24.768  1.00  0.00    -0.353 N 
ATOM      3  C   UNL A   1      37.337  23.263  25.592  1.00  0.00     0.257 C 
ATOM      4  O   UNL A   1      38.128  24.152  25.915  1.00  0.00    -0.271 OA
ATOM      5  H   UNL A   1      38.640  22.457  24.307  1.00  0.00     0.163 HD
BRANCH   3   6
ATOM      6  C   UNL A   1      35.892  23.249  26.106  1.00  0.00     0.329 C 
BRANCH   6   7
ATOM      7  O   UNL A   1      34.851  23.519  25.188  1.00  0.00    -0.483 OA
BRANCH   7   8
ATOM      8  C   UNL A   1      33.522  23.371  25.473  1.00  0.00     0.127 A 
ATOM      9  C   UNL A   1      32.395  23.422  24.633  1.00  0.00     0.019 A 
ATOM     10  C   UNL A   1      31.119  23.171  25.181  1.00  0.00     0.027 A 
ATOM     11  C   UNL A   1      30.957  22.952  26.548  1.00  0.00     0.018 A 
ATOM     12  C   UNL A   1      33.331  23.131  26.847  1.00  0.00     0.048 A 
ATOM     13  Br  UNL A   1      29.226  22.719  27.267  1.00  0.00    -0.051 Br
ATOM     14  C   UNL A   1      32.061  22.938  27.388  1.00  0.00     0.019 A 
BRANCH   9  15
ATOM     15  C   UNL A   1      32.462  23.811  23.219  1.00  0.00     0.032 C 
ATOM     16  C   UNL A   1      32.636  25.061  22.750  1.00  0.00     0.060 C 
BRANCH  16  17
ATOM     17  C   UNL A   1      32.841  25.294  21.262  1.00  0.00     0.100 C 
ATOM     18  N   UNL A   1      33.010  25.487  20.027  1.00  0.00    -0.192 NA
ENDBRANCH  16  17
BRANCH  16  19
ATOM     19  C   UNL A   1      32.379  26.275  23.566  1.00  0.00    -0.008 A 
ATOM     20  C   UNL A   1      31.113  26.865  23.692  1.00  0.00     0.012 A 
ATOM     21  C   UNL A   1      33.487  26.916  24.158  1.00  0.00     0.012 A 
ATOM     22  C   UNL A   1      30.972  28.090  24.352  1.00  0.00     0.040 A 
ATOM     23  C   UNL A   1      33.340  28.131  24.827  1.00  0.00     0.040 A 
ATOM     24  C   UNL A   1      32.085  28.713  24.908  1.00  0.00     0.123 A 
ATOM     25  F   UNL A   1      31.946  29.896  25.519  1.00  0.00    -0.207 F 
ENDBRANCH  16  19
ENDBRANCH   9  15
ENDBRANCH   7   8
ENDBRANCH   6   7
ENDBRANCH   3   6
ENDBRANCH   1   2
BRANCH   1  26
ATOM     26  C   UNL A   1      37.994  19.808  24.966  1.00  0.00     0.042 C 
BRANCH  26  27
ATOM     27  C   UNL A   1      39.094  20.146  25.967  1.00  0.00     0.118 C 
BRANCH  27  28
ATOM     28  N   UNL A   1      40.184  19.180  25.970  1.00  0.00    -0.352 N 
ATOM     29  C   UNL A   1      41.543  19.353  26.067  1.00  0.00     0.251 C 
ATOM     30  H   UNL A   1      39.898  18.242  25.887  1.00  0.00     0.163 HD
ATOM     31  O   UNL A   1      42.289  18.399  25.870  1.00  0.00    -0.269 OA
BRANCH  29  32
ATOM     32  C   UNL A   1      42.119  20.678  26.384  1.00  0.00     0.039 A 
ATOM     33  C   UNL A   1      42.424  21.547  25.332  1.00  0.00     0.014 A 
ATOM     34  C   UNL A   1      42.392  21.056  27.700  1.00  0.00     0.014 A 
ATOM     35  C   UNL A   1      42.934  22.818  25.605  1.00  0.00     0.010 A 
ATOM     36  C   UNL A   1      42.815  22.353  27.977  1.00  0.00     0.010 A 
ATOM     37  C   UNL A   1      43.095  23.247  26.932  1.00  0.00    -0.014 A 
BRANCH  37  38
ATOM     38  C   UNL A   1      43.561  24.621  27.249  1.00  0.00     0.031 A 
ATOM     39  C   UNL A   1      42.603  25.638  27.803  1.00  0.00     0.074 A 
ATOM     40  C   UNL A   1      44.834  24.971  26.981  1.00  0.00     0.049 A 
ATOM     41  N   UNL A   1      42.804  26.901  28.085  1.00  0.00    -0.248 NA
ATOM     42  C   UNL A   1      41.226  25.181  28.045  1.00  0.00     0.031 C 
ATOM     43  C   UNL A   1      45.852  24.088  26.410  1.00  0.00     0.029 A 
ATOM     44  N   UNL A   1      45.487  26.167  27.148  1.00  0.00    -0.354 N 
ATOM     45  C   UNL A   1      41.581  27.388  28.525  1.00  0.00     0.074 A 
ATOM     46  C   UNL A   1      40.628  26.305  28.406  1.00  0.00     0.031 C 
ATOM     47  C   UNL A   1      47.010  24.759  26.310  1.00  0.00     0.029 A 
ATOM     48  C   UNL A   1      46.806  26.131  26.766  1.00  0.00     0.049 A 
ATOM     49  H   UNL A   1      45.052  26.973  27.508  1.00  0.00     0.167 HD
ATOM     50  C   UNL A   1      41.282  28.617  29.013  1.00  0.00     0.037 A 
ATOM     51  C   UNL A   1      47.744  27.096  26.780  1.00  0.00     0.037 A 
ATOM     52  C   UNL A   1      42.235  29.691  29.134  1.00  0.00     0.049 A 
ATOM     53  C   UNL A   1      47.379  28.467  27.282  1.00  0.00     0.074 A 
ATOM     54  C   UNL A   1      42.047  30.960  29.651  1.00  0.00     0.029 A 
ATOM     55  N   UNL A   1      43.559  29.620  28.723  1.00  0.00    -0.354 N 
ATOM     56  N   UNL A   1      46.235  28.900  27.755  1.00  0.00    -0.248 NA
ATOM     57  C   UNL A   1      48.440  29.482  27.253  1.00  0.00     0.031 C 
ATOM     58  C   UNL A   1      43.239  31.676  29.501  1.00  0.00     0.029 A 
ATOM     59  C   UNL A   1      44.192  30.833  28.949  1.00  0.00     0.049 A 
ATOM     60  H   UNL A   1      43.986  28.826  28.329  1.00  0.00     0.167 HD
ATOM     61  C   UNL A   1      46.448  30.224  28.115  1.00  0.00     0.074 A 
ATOM     62  C   UNL A   1      47.834  30.520  27.813  1.00  0.00     0.031 C 
ATOM     63  C   UNL A   1      45.575  31.113  28.651  1.00  0.00     0.037 A 
BRANCH  50  64
ATOM     64  C   UNL A   1      39.861  28.860  29.441  1.00  0.00     0.064 A 
ATOM     65  C   UNL A   1      39.428  28.587  30.749  1.00  0.00     0.173 A 
ATOM     66  C   UNL A   1      38.917  29.366  28.534  1.00  0.00     0.173 A 
ATOM     67  F   UNL A   1      40.285  28.093  31.656  1.00  0.00    -0.203 F 
ATOM     68  C   UNL A   1      38.096  28.760  31.116  1.00  0.00     0.198 A 
ATOM     69  C   UNL A   1      37.594  29.575  28.916  1.00  0.00     0.198 A 
ATOM     70  F   UNL A   1      39.275  29.654  27.274  1.00  0.00    -0.203 F 
ATOM     71  F   UNL A   1      37.693  28.420  32.349  1.00  0.00    -0.200 F 
ATOM     72  C   UNL A   1      37.181  29.258  30.202  1.00  0.00     0.200 A 
ATOM     73  F   UNL A   1      36.714  30.071  28.036  1.00  0.00    -0.200 F 
ATOM     74  F   UNL A   1      35.899  29.421  30.556  1.00  0.00    -0.200 F 
ENDBRANCH  50  64
BRANCH  51  75
ATOM     75  C   UNL A   1      49.132  26.787  26.347  1.00  0.00     0.064 A 
ATOM     76  C   UNL A   1      49.525  26.985  25.016  1.00  0.00     0.173 A 
ATOM     77  C   UNL A   1      50.092  26.300  27.244  1.00  0.00     0.173 A 
ATOM     78  F   UNL A   1      48.636  27.431  24.116  1.00  0.00    -0.203 F 
ATOM     79  C   UNL A   1      50.820  26.693  24.596  1.00  0.00     0.198 A 
ATOM     80  C   UNL A   1      51.396  26.035  26.829  1.00  0.00     0.198 A 
ATOM     81  F   UNL A   1      49.770  26.098  28.531  1.00  0.00    -0.203 F 
ATOM     82  F   UNL A   1      51.156  26.854  23.308  1.00  0.00    -0.200 F 
ATOM     83  C   UNL A   1      51.757  26.226  25.504  1.00  0.00     0.200 A 
ATOM     84  F   UNL A   1      52.303  25.600  27.714  1.00  0.00    -0.200 F 
ATOM     85  F   UNL A   1      53.005  25.954  25.102  1.00  0.00    -0.200 F 
ENDBRANCH  51  75
BRANCH  63  86
ATOM     86  C   UNL A   1      46.102  32.478  28.992  1.00  0.00     0.064 A 
ATOM     87  C   UNL A   1      46.014  33.553  28.094  1.00  0.00     0.173 A 
ATOM     88  C   UNL A   1      46.675  32.720  30.250  1.00  0.00     0.173 A 
ATOM     89  F   UNL A   1      45.490  33.372  26.872  1.00  0.00    -0.203 F 
ATOM     90  C   UNL A   1      46.505  34.811  28.433  1.00  0.00     0.198 A 
ATOM     91  C   UNL A   1      47.133  33.988  30.598  1.00  0.00     0.198 A 
ATOM     92  F   UNL A   1      46.779  31.730  31.149  1.00  0.00    -0.203 F 
ATOM     93  F   UNL A   1      46.460  35.809  27.540  1.00  0.00    -0.200 F 
ATOM     94  C   UNL A   1      47.057  35.030  29.687  1.00  0.00     0.200 A 
ATOM     95  F   UNL A   1      47.652  34.200  31.816  1.00  0.00    -0.200 F 
ATOM     96  F   UNL A   1      47.521  36.243  30.014  1.00  0.00    -0.200 F 
ENDBRANCH  63  86
ENDBRANCH  37  38
ENDBRANCH  29  32
ENDBRANCH  27  28
ENDBRANCH  26  27
ENDBRANCH   1  26
TORSDOF 15
ENDMDL
