MODEL 1
REMARK VINA RESULT:     -10.3      0.000      0.000
REMARK SMILES C[C@@H]1CN(S(=O)(=O)c2cccc(C(=O)N3CCC[C@@H]3C(=O)NCCCNC(=O)c3ccc(-c4c5nc(c(-c6c(F)c(F)c(F)c(F)c6F)c6ccc([nH]6)c(-c6c(F)c(F)c(F)c(F)c6F)c6nc(c(-c7c(F)c(F)c(F)c(F)c7F)c7ccc4[nH]7)C=C6)C=C5)cc3)c2)C[C@H](C)O1
REMARK SMILES IDX 23 1 22 2 20 3 21 4 19 6 15 7 16 8 17 9 18 10 13 11 14 12
REMARK SMILES IDX 12 13 8 14 9 15 92 16 10 17 11 18 5 19 6 20 7 21 4 22 1 23
REMARK SMILES IDX 2 24 3 25 96 26 94 27 93 28 95 29 24 30 25 31 26 32 27 33
REMARK SMILES IDX 28 35 29 36 30 37 91 38 31 39 90 40 32 41 33 42 34 43 84 44
REMARK SMILES IDX 35 45 89 46 83 47 85 48 36 49 88 50 82 51 81 52 37 54 69 55
REMARK SMILES IDX 49 56 68 57 50 58 53 59 67 60 86 61 51 62 52 63 66 65 87 66
REMARK SMILES IDX 54 67 38 68 39 69 47 70 40 71 41 72 45 73 48 74 42 75 43 76
REMARK SMILES IDX 46 77 44 78 70 79 71 80 79 81 72 82 73 83 77 84 80 85 74 86
REMARK SMILES IDX 75 87 78 88 76 89 55 90 56 91 64 92 57 93 58 94 62 95 65 96
REMARK SMILES IDX 59 97 60 98 63 99 61 100
REMARK H PARENT 22 5 26 34 85 53 53 64
REMARK Flexibility Score: inf
ROOT
ATOM      1  C   UNL A   1      35.479  32.699  30.641  1.00  0.00     0.117 C 
ENDROOT
BRANCH   1   2
ATOM      2  N   UNL A   1      35.200  32.900  32.040  1.00  0.00    -0.354 N 
ATOM      3  C   UNL A   1      36.058  33.000  33.093  1.00  0.00     0.242 C 
ATOM      4  O   UNL A   1      35.547  32.913  34.216  1.00  0.00    -0.273 OA
ATOM      5  H   UNL A   1      34.246  32.977  32.268  1.00  0.00     0.163 HD
BRANCH   3   6
ATOM      6  C   UNL A   1      37.598  32.983  32.942  1.00  0.00     0.174 C 
ATOM      7  N   UNL A   1      38.483  32.522  34.023  1.00  0.00    -0.327 N 
ATOM      8  C   UNL A   1      39.784  33.116  33.765  1.00  0.00     0.121 C 
ATOM      9  C   UNL A   1      39.432  34.541  33.404  1.00  0.00     0.024 C 
ATOM     10  C   UNL A   1      38.117  34.405  32.632  1.00  0.00     0.037 C 
BRANCH   7  11
ATOM     11  C   UNL A   1      38.306  31.238  34.534  1.00  0.00     0.254 C 
ATOM     12  O   UNL A   1      37.851  31.067  35.664  1.00  0.00    -0.269 OA
BRANCH  11  13
ATOM     13  C   UNL A   1      38.908  30.057  33.812  1.00  0.00     0.041 A 
ATOM     14  C   UNL A   1      40.719  28.496  33.288  1.00  0.00     0.083 A 
ATOM     15  C   UNL A   1      39.820  27.639  32.654  1.00  0.00     0.022 A 
ATOM     16  C   UNL A   1      40.262  29.709  33.827  1.00  0.00     0.035 A 
ATOM     17  C   UNL A   1      38.474  27.999  32.570  1.00  0.00     0.002 A 
ATOM     18  C   UNL A   1      38.023  29.192  33.150  1.00  0.00     0.014 A 
BRANCH  14  19
ATOM     19  S   UNL A   1      42.473  28.107  33.316  1.00  0.00     0.243 S 
ATOM     20  O   UNL A   1      43.157  29.255  33.868  1.00  0.00    -0.207 OA
ATOM     21  O   UNL A   1      42.812  27.575  32.012  1.00  0.00    -0.207 OA
BRANCH  19  22
ATOM     22  N   UNL A   1      42.607  26.840  34.431  1.00  0.00    -0.193 NA
ATOM     23  C   UNL A   1      40.771  25.413  35.959  1.00  0.00     0.040 C 
ATOM     24  C   UNL A   1      42.071  25.919  36.574  1.00  0.00     0.130 C 
ATOM     25  C   UNL A   1      42.551  27.180  35.871  1.00  0.00     0.134 C 
ATOM     26  O   UNL A   1      43.107  24.936  36.543  1.00  0.00    -0.373 OA
ATOM     27  C   UNL A   1      43.655  24.659  35.241  1.00  0.00     0.130 C 
ATOM     28  C   UNL A   1      43.704  25.844  34.219  1.00  0.00     0.134 C 
ATOM     29  C   UNL A   1      43.021  23.386  34.690  1.00  0.00     0.040 C 
ENDBRANCH  19  22
ENDBRANCH  14  19
ENDBRANCH  11  13
ENDBRANCH   7  11
ENDBRANCH   3   6
ENDBRANCH   1   2
BRANCH   1  30
ATOM     30  C   UNL A   1      34.242  32.939  29.779  1.00  0.00     0.042 C 
BRANCH  30  31
ATOM     31  C   UNL A   1      34.400  32.721  28.272  1.00  0.00     0.118 C 
BRANCH  31  32
ATOM     32  N   UNL A   1      33.982  31.421  27.756  1.00  0.00    -0.352 N 
ATOM     33  C   UNL A   1      34.593  30.191  27.660  1.00  0.00     0.251 C 
ATOM     34  H   UNL A   1      33.065  31.426  27.398  1.00  0.00     0.163 HD
ATOM     35  O   UNL A   1      33.956  29.272  27.142  1.00  0.00    -0.269 OA
BRANCH  33  36
ATOM     36  C   UNL A   1      35.987  29.927  28.104  1.00  0.00     0.039 A 
ATOM     37  C   UNL A   1      37.031  30.119  27.180  1.00  0.00     0.014 A 
ATOM     38  C   UNL A   1      36.299  29.434  29.367  1.00  0.00     0.014 A 
ATOM     39  C   UNL A   1      38.367  29.895  27.540  1.00  0.00     0.010 A 
ATOM     40  C   UNL A   1      37.627  29.274  29.755  1.00  0.00     0.010 A 
ATOM     41  C   UNL A   1      38.669  29.479  28.838  1.00  0.00    -0.014 A 
BRANCH  41  42
ATOM     42  C   UNL A   1      40.018  29.014  29.233  1.00  0.00     0.031 A 
ATOM     43  C   UNL A   1      40.899  29.994  29.954  1.00  0.00     0.074 A 
ATOM     44  C   UNL A   1      40.494  27.819  28.845  1.00  0.00     0.049 A 
ATOM     45  N   UNL A   1      42.184  29.952  30.189  1.00  0.00    -0.248 NA
ATOM     46  C   UNL A   1      40.238  31.220  30.435  1.00  0.00     0.031 C 
ATOM     47  C   UNL A   1      39.736  26.792  28.134  1.00  0.00     0.029 A 
ATOM     48  N   UNL A   1      41.755  27.289  28.960  1.00  0.00    -0.354 N 
ATOM     49  C   UNL A   1      42.487  31.157  30.809  1.00  0.00     0.074 A 
ATOM     50  C   UNL A   1      41.265  31.925  30.878  1.00  0.00     0.031 C 
ATOM     51  C   UNL A   1      40.555  25.760  27.856  1.00  0.00     0.029 A 
ATOM     52  C   UNL A   1      41.900  26.071  28.340  1.00  0.00     0.049 A 
ATOM     53  H   UNL A   1      42.487  27.739  29.442  1.00  0.00     0.167 HD
ATOM     54  C   UNL A   1      43.680  31.582  31.286  1.00  0.00     0.037 A 
ATOM     55  C   UNL A   1      43.002  25.316  28.169  1.00  0.00     0.037 A 
ATOM     56  C   UNL A   1      44.887  30.806  31.226  1.00  0.00     0.049 A 
ATOM     57  C   UNL A   1      44.322  25.808  28.712  1.00  0.00     0.074 A 
ATOM     58  C   UNL A   1      46.147  31.125  31.698  1.00  0.00     0.029 A 
ATOM     59  N   UNL A   1      44.976  29.544  30.656  1.00  0.00    -0.354 N 
ATOM     60  N   UNL A   1      44.599  26.931  29.329  1.00  0.00    -0.248 NA
ATOM     61  C   UNL A   1      45.483  24.922  28.538  1.00  0.00     0.031 C 
ATOM     62  C   UNL A   1      47.006  30.064  31.389  1.00  0.00     0.029 A 
ATOM     63  C   UNL A   1      46.272  29.069  30.762  1.00  0.00     0.049 A 
ATOM     64  H   UNL A   1      44.229  29.059  30.237  1.00  0.00     0.167 HD
ATOM     65  C   UNL A   1      45.949  26.870  29.651  1.00  0.00     0.074 A 
ATOM     66  C   UNL A   1      46.436  25.596  29.164  1.00  0.00     0.031 C 
ATOM     67  C   UNL A   1      46.718  27.782  30.296  1.00  0.00     0.037 A 
BRANCH  54  68
ATOM     68  C   UNL A   1      43.720  32.949  31.898  1.00  0.00     0.064 A 
ATOM     69  C   UNL A   1      43.393  33.159  33.247  1.00  0.00     0.173 A 
ATOM     70  C   UNL A   1      44.062  34.067  31.124  1.00  0.00     0.173 A 
ATOM     71  F   UNL A   1      43.036  32.125  34.023  1.00  0.00    -0.203 F 
ATOM     72  C   UNL A   1      43.368  34.442  33.787  1.00  0.00     0.198 A 
ATOM     73  C   UNL A   1      44.067  35.346  31.676  1.00  0.00     0.198 A 
ATOM     74  F   UNL A   1      44.380  33.922  29.829  1.00  0.00    -0.203 F 
ATOM     75  F   UNL A   1      42.986  34.624  35.059  1.00  0.00    -0.200 F 
ATOM     76  C   UNL A   1      43.708  35.533  33.003  1.00  0.00     0.200 A 
ATOM     77  F   UNL A   1      44.401  36.399  30.919  1.00  0.00    -0.200 F 
ATOM     78  F   UNL A   1      43.677  36.768  33.522  1.00  0.00    -0.200 F 
ENDBRANCH  54  68
BRANCH  55  79
ATOM     79  C   UNL A   1      42.914  24.006  27.471  1.00  0.00     0.064 A 
ATOM     80  C   UNL A   1      43.189  23.907  26.100  1.00  0.00     0.173 A 
ATOM     81  C   UNL A   1      42.527  22.838  28.143  1.00  0.00     0.173 A 
ATOM     82  F   UNL A   1      43.537  25.002  25.407  1.00  0.00    -0.203 F 
ATOM     83  C   UNL A   1      43.059  22.697  25.422  1.00  0.00     0.198 A 
ATOM     84  C   UNL A   1      42.421  21.622  27.469  1.00  0.00     0.198 A 
ATOM     85  F   UNL A   1      42.251  22.877  29.455  1.00  0.00    -0.203 F 
ATOM     86  F   UNL A   1      43.280  22.644  24.101  1.00  0.00    -0.200 F 
ATOM     87  C   UNL A   1      42.679  21.554  26.108  1.00  0.00     0.200 A 
ATOM     88  F   UNL A   1      42.061  20.517  28.137  1.00  0.00    -0.200 F 
ATOM     89  F   UNL A   1      42.550  20.390  25.456  1.00  0.00    -0.200 F 
ENDBRANCH  55  79
BRANCH  67  90
ATOM     90  C   UNL A   1      48.146  27.414  30.570  1.00  0.00     0.064 A 
ATOM     91  C   UNL A   1      48.511  26.655  31.690  1.00  0.00     0.173 A 
ATOM     92  C   UNL A   1      49.151  27.772  29.659  1.00  0.00     0.173 A 
ATOM     93  F   UNL A   1      47.586  26.299  32.594  1.00  0.00    -0.203 F 
ATOM     94  C   UNL A   1      49.836  26.281  31.897  1.00  0.00     0.198 A 
ATOM     95  C   UNL A   1      50.470  27.376  29.855  1.00  0.00     0.198 A 
ATOM     96  F   UNL A   1      48.849  28.492  28.568  1.00  0.00    -0.203 F 
ATOM     97  F   UNL A   1      50.170  25.585  32.992  1.00  0.00    -0.200 F 
ATOM     98  C   UNL A   1      50.812  26.635  30.977  1.00  0.00     0.200 A 
ATOM     99  F   UNL A   1      51.409  27.707  28.958  1.00  0.00    -0.200 F 
ATOM    100  F   UNL A   1      52.085  26.263  31.172  1.00  0.00    -0.200 F 
ENDBRANCH  67  90
ENDBRANCH  41  42
ENDBRANCH  33  36
ENDBRANCH  31  32
ENDBRANCH  30  31
ENDBRANCH   1  30
TORSDOF 14
ENDMDL
MODEL 2
REMARK VINA RESULT:     -10.3      3.680     10.201
REMARK SMILES C[C@@H]1CN(S(=O)(=O)c2cccc(C(=O)N3CCC[C@@H]3C(=O)NCCCNC(=O)c3ccc(-c4c5nc(c(-c6c(F)c(F)c(F)c(F)c6F)c6ccc([nH]6)c(-c6c(F)c(F)c(F)c(F)c6F)c6nc(c(-c7c(F)c(F)c(F)c(F)c7F)c7ccc4[nH]7)C=C6)C=C5)cc3)c2)C[C@H](C)O1
REMARK SMILES IDX 23 1 22 2 20 3 21 4 19 6 15 7 16 8 17 9 18 10 13 11 14 12
REMARK SMILES IDX 12 13 8 14 9 15 92 16 10 17 11 18 5 19 6 20 7 21 4 22 1 23
REMARK SMILES IDX 2 24 3 25 96 26 94 27 93 28 95 29 24 30 25 31 26 32 27 33
REMARK SMILES IDX 28 35 29 36 30 37 91 38 31 39 90 40 32 41 33 42 34 43 84 44
REMARK SMILES IDX 35 45 89 46 83 47 85 48 36 49 88 50 82 51 81 52 37 54 69 55
REMARK SMILES IDX 49 56 68 57 50 58 53 59 67 60 86 61 51 62 52 63 66 65 87 66
REMARK SMILES IDX 54 67 38 68 39 69 47 70 40 71 41 72 45 73 48 74 42 75 43 76
REMARK SMILES IDX 46 77 44 78 70 79 71 80 79 81 72 82 73 83 77 84 80 85 74 86
REMARK SMILES IDX 75 87 78 88 76 89 55 90 56 91 64 92 57 93 58 94 62 95 65 96
REMARK SMILES IDX 59 97 60 98 63 99 61 100
REMARK H PARENT 22 5 26 34 85 53 53 64
REMARK Flexibility Score: inf
ROOT
ATOM      1  C   UNL A   1      42.421  22.841  26.057  1.00  0.00     0.117 C 
ENDROOT
BRANCH   1   2
ATOM      2  N   UNL A   1      43.499  23.024  25.121  1.00  0.00    -0.354 N 
ATOM      3  C   UNL A   1      44.606  23.812  25.212  1.00  0.00     0.242 C 
ATOM      4  O   UNL A   1      45.239  23.980  24.162  1.00  0.00    -0.273 OA
ATOM      5  H   UNL A   1      43.425  22.502  24.291  1.00  0.00     0.163 HD
BRANCH   3   6
ATOM      6  C   UNL A   1      44.953  24.653  26.464  1.00  0.00     0.174 C 
ATOM      7  N   UNL A   1      45.782  25.866  26.385  1.00  0.00    -0.327 N 
ATOM      8  C   UNL A   1      46.324  26.077  27.717  1.00  0.00     0.121 C 
ATOM      9  C   UNL A   1      46.757  24.685  28.122  1.00  0.00     0.024 C 
ATOM     10  C   UNL A   1      45.690  23.779  27.503  1.00  0.00     0.037 C 
BRANCH   7  11
ATOM     11  C   UNL A   1      45.383  26.899  25.540  1.00  0.00     0.254 C 
ATOM     12  O   UNL A   1      45.995  27.135  24.500  1.00  0.00    -0.269 OA
BRANCH  11  13
ATOM     13  C   UNL A   1      44.356  27.898  26.015  1.00  0.00     0.041 A 
ATOM     14  C   UNL A   1      43.645  29.918  27.200  1.00  0.00     0.083 A 
ATOM     15  C   UNL A   1      42.403  29.874  26.567  1.00  0.00     0.022 A 
ATOM     16  C   UNL A   1      44.592  28.913  26.947  1.00  0.00     0.035 A 
ATOM     17  C   UNL A   1      42.123  28.830  25.683  1.00  0.00     0.002 A 
ATOM     18  C   UNL A   1      43.092  27.858  25.405  1.00  0.00     0.014 A 
BRANCH  14  19
ATOM     19  S   UNL A   1      43.992  31.190  28.422  1.00  0.00     0.243 S 
ATOM     20  O   UNL A   1      45.272  30.874  29.017  1.00  0.00    -0.207 OA
ATOM     21  O   UNL A   1      42.798  31.343  29.228  1.00  0.00    -0.207 OA
BRANCH  19  22
ATOM     22  N   UNL A   1      44.179  32.607  27.516  1.00  0.00    -0.193 NA
ATOM     23  C   UNL A   1      43.862  33.230  24.823  1.00  0.00     0.040 C 
ATOM     24  C   UNL A   1      45.080  33.720  25.598  1.00  0.00     0.130 C 
ATOM     25  C   UNL A   1      45.424  32.764  26.730  1.00  0.00     0.134 C 
ATOM     26  O   UNL A   1      44.897  35.034  26.127  1.00  0.00    -0.373 OA
ATOM     27  C   UNL A   1      43.971  35.133  27.225  1.00  0.00     0.130 C 
ATOM     28  C   UNL A   1      43.876  33.907  28.193  1.00  0.00     0.134 C 
ATOM     29  C   UNL A   1      42.624  35.622  26.702  1.00  0.00     0.040 C 
ENDBRANCH  19  22
ENDBRANCH  14  19
ENDBRANCH  11  13
ENDBRANCH   7  11
ENDBRANCH   3   6
ENDBRANCH   1   2
BRANCH   1  30
ATOM     30  C   UNL A   1      41.631  21.567  25.766  1.00  0.00     0.042 C 
BRANCH  30  31
ATOM     31  C   UNL A   1      40.319  21.379  26.531  1.00  0.00     0.118 C 
BRANCH  31  32
ATOM     32  N   UNL A   1      39.129  21.985  25.942  1.00  0.00    -0.352 N 
ATOM     33  C   UNL A   1      38.584  23.248  25.978  1.00  0.00     0.251 C 
ATOM     34  H   UNL A   1      38.603  21.352  25.401  1.00  0.00     0.163 HD
ATOM     35  O   UNL A   1      37.529  23.436  25.368  1.00  0.00    -0.269 OA
BRANCH  33  36
ATOM     36  C   UNL A   1      39.171  24.377  26.746  1.00  0.00     0.039 A 
ATOM     37  C   UNL A   1      38.838  24.505  28.107  1.00  0.00     0.014 A 
ATOM     38  C   UNL A   1      39.979  25.349  26.164  1.00  0.00     0.014 A 
ATOM     39  C   UNL A   1      39.365  25.544  28.887  1.00  0.00     0.010 A 
ATOM     40  C   UNL A   1      40.561  26.344  26.946  1.00  0.00     0.010 A 
ATOM     41  C   UNL A   1      40.241  26.464  28.307  1.00  0.00    -0.014 A 
BRANCH  41  42
ATOM     42  C   UNL A   1      40.666  27.704  28.994  1.00  0.00     0.031 A 
ATOM     43  C   UNL A   1      42.030  27.706  29.625  1.00  0.00     0.074 A 
ATOM     44  C   UNL A   1      39.824  28.736  29.175  1.00  0.00     0.049 A 
ATOM     45  N   UNL A   1      42.553  28.536  30.488  1.00  0.00    -0.248 NA
ATOM     46  C   UNL A   1      42.908  26.580  29.262  1.00  0.00     0.031 C 
ATOM     47  C   UNL A   1      38.477  28.841  28.619  1.00  0.00     0.029 A 
ATOM     48  N   UNL A   1      39.972  29.878  29.921  1.00  0.00    -0.354 N 
ATOM     49  C   UNL A   1      43.801  28.012  30.797  1.00  0.00     0.074 A 
ATOM     50  C   UNL A   1      43.942  26.776  30.061  1.00  0.00     0.031 C 
ATOM     51  C   UNL A   1      37.910  29.978  29.063  1.00  0.00     0.029 A 
ATOM     52  C   UNL A   1      38.844  30.661  29.958  1.00  0.00     0.049 A 
ATOM     53  H   UNL A   1      40.807  30.114  30.386  1.00  0.00     0.167 HD
ATOM     54  C   UNL A   1      44.750  28.522  31.615  1.00  0.00     0.037 A 
ATOM     55  C   UNL A   1      38.597  31.785  30.658  1.00  0.00     0.037 A 
ATOM     56  C   UNL A   1      44.607  29.759  32.331  1.00  0.00     0.049 A 
ATOM     57  C   UNL A   1      39.671  32.340  31.562  1.00  0.00     0.074 A 
ATOM     58  C   UNL A   1      45.512  30.385  33.168  1.00  0.00     0.029 A 
ATOM     59  N   UNL A   1      43.477  30.562  32.283  1.00  0.00    -0.354 N 
ATOM     60  N   UNL A   1      40.863  31.862  31.824  1.00  0.00    -0.248 NA
ATOM     61  C   UNL A   1      39.365  33.595  32.266  1.00  0.00     0.031 C 
ATOM     62  C   UNL A   1      44.916  31.556  33.650  1.00  0.00     0.029 A 
ATOM     63  C   UNL A   1      43.658  31.679  33.080  1.00  0.00     0.049 A 
ATOM     64  H   UNL A   1      42.666  30.366  31.762  1.00  0.00     0.167 HD
ATOM     65  C   UNL A   1      41.462  32.772  32.686  1.00  0.00     0.074 A 
ATOM     66  C   UNL A   1      40.502  33.835  32.902  1.00  0.00     0.031 C 
ATOM     67  C   UNL A   1      42.696  32.737  33.248  1.00  0.00     0.037 A 
BRANCH  54  68
ATOM     68  C   UNL A   1      46.010  27.726  31.776  1.00  0.00     0.064 A 
ATOM     69  C   UNL A   1      47.075  27.846  30.869  1.00  0.00     0.173 A 
ATOM     70  C   UNL A   1      46.146  26.813  32.831  1.00  0.00     0.173 A 
ATOM     71  F   UNL A   1      46.983  28.689  29.829  1.00  0.00    -0.203 F 
ATOM     72  C   UNL A   1      48.212  27.053  30.990  1.00  0.00     0.198 A 
ATOM     73  C   UNL A   1      47.299  26.043  32.967  1.00  0.00     0.198 A 
ATOM     74  F   UNL A   1      45.157  26.657  33.724  1.00  0.00    -0.203 F 
ATOM     75  F   UNL A   1      49.186  27.137  30.073  1.00  0.00    -0.200 F 
ATOM     76  C   UNL A   1      48.324  26.155  32.040  1.00  0.00     0.200 A 
ATOM     77  F   UNL A   1      47.409  25.180  33.986  1.00  0.00    -0.200 F 
ATOM     78  F   UNL A   1      49.417  25.387  32.151  1.00  0.00    -0.200 F 
ENDBRANCH  54  68
BRANCH  55  79
ATOM     79  C   UNL A   1      37.290  32.482  30.524  1.00  0.00     0.064 A 
ATOM     80  C   UNL A   1      36.258  32.248  31.445  1.00  0.00     0.173 A 
ATOM     81  C   UNL A   1      37.031  33.366  29.467  1.00  0.00     0.173 A 
ATOM     82  F   UNL A   1      36.448  31.391  32.458  1.00  0.00    -0.203 F 
ATOM     83  C   UNL A   1      35.011  32.852  31.301  1.00  0.00     0.198 A 
ATOM     84  C   UNL A   1      35.790  33.990  29.338  1.00  0.00     0.198 A 
ATOM     85  F   UNL A   1      37.982  33.624  28.558  1.00  0.00    -0.203 F 
ATOM     86  F   UNL A   1      34.029  32.571  32.169  1.00  0.00    -0.200 F 
ATOM     87  C   UNL A   1      34.779  33.727  30.250  1.00  0.00     0.200 A 
ATOM     88  F   UNL A   1      35.572  34.840  28.325  1.00  0.00    -0.200 F 
ATOM     89  F   UNL A   1      33.579  34.305  30.110  1.00  0.00    -0.200 F 
ENDBRANCH  55  79
BRANCH  67  90
ATOM     90  C   UNL A   1      43.105  33.906  34.093  1.00  0.00     0.064 A 
ATOM     91  C   UNL A   1      43.703  35.046  33.539  1.00  0.00     0.173 A 
ATOM     92  C   UNL A   1      42.832  33.907  35.470  1.00  0.00     0.173 A 
ATOM     93  F   UNL A   1      43.994  35.086  32.230  1.00  0.00    -0.203 F 
ATOM     94  C   UNL A   1      44.028  36.140  34.336  1.00  0.00     0.198 A 
ATOM     95  C   UNL A   1      43.135  35.011  36.259  1.00  0.00     0.198 A 
ATOM     96  F   UNL A   1      42.254  32.842  36.045  1.00  0.00    -0.203 F 
ATOM     97  F   UNL A   1      44.631  37.206  33.792  1.00  0.00    -0.200 F 
ATOM     98  C   UNL A   1      43.737  36.125  35.692  1.00  0.00     0.200 A 
ATOM     99  F   UNL A   1      42.841  35.001  37.567  1.00  0.00    -0.200 F 
ATOM    100  F   UNL A   1      44.040  37.185  36.455  1.00  0.00    -0.200 F 
ENDBRANCH  67  90
ENDBRANCH  41  42
ENDBRANCH  33  36
ENDBRANCH  31  32
ENDBRANCH  30  31
ENDBRANCH   1  30
TORSDOF 14
ENDMDL
MODEL 3
REMARK VINA RESULT:     -10.2      5.085     10.905
REMARK SMILES C[C@@H]1CN(S(=O)(=O)c2cccc(C(=O)N3CCC[C@@H]3C(=O)NCCCNC(=O)c3ccc(-c4c5nc(c(-c6c(F)c(F)c(F)c(F)c6F)c6ccc([nH]6)c(-c6c(F)c(F)c(F)c(F)c6F)c6nc(c(-c7c(F)c(F)c(F)c(F)c7F)c7ccc4[nH]7)C=C6)C=C5)cc3)c2)C[C@H](C)O1
REMARK SMILES IDX 23 1 22 2 20 3 21 4 19 6 15 7 16 8 17 9 18 10 13 11 14 12
REMARK SMILES IDX 12 13 8 14 9 15 92 16 10 17 11 18 5 19 6 20 7 21 4 22 1 23
REMARK SMILES IDX 2 24 3 25 96 26 94 27 93 28 95 29 24 30 25 31 26 32 27 33
REMARK SMILES IDX 28 35 29 36 30 37 91 38 31 39 90 40 32 41 33 42 34 43 84 44
REMARK SMILES IDX 35 45 89 46 83 47 85 48 36 49 88 50 82 51 81 52 37 54 69 55
REMARK SMILES IDX 49 56 68 57 50 58 53 59 67 60 86 61 51 62 52 63 66 65 87 66
REMARK SMILES IDX 54 67 38 68 39 69 47 70 40 71 41 72 45 73 48 74 42 75 43 76
REMARK SMILES IDX 46 77 44 78 70 79 71 80 79 81 72 82 73 83 77 84 80 85 74 86
REMARK SMILES IDX 75 87 78 88 76 89 55 90 56 91 64 92 57 93 58 94 62 95 65 96
REMARK SMILES IDX 59 97 60 98 63 99 61 100
REMARK H PARENT 22 5 26 34 85 53 53 64
REMARK Flexibility Score: inf
ROOT
ATOM      1  C   UNL A   1      33.884  29.412  26.425  1.00  0.00     0.117 C 
ENDROOT
BRANCH   1   2
ATOM      2  N   UNL A   1      33.934  29.341  24.988  1.00  0.00    -0.354 N 
ATOM      3  C   UNL A   1      33.031  28.821  24.111  1.00  0.00     0.242 C 
ATOM      4  O   UNL A   1      33.434  28.657  22.953  1.00  0.00    -0.273 OA
ATOM      5  H   UNL A   1      34.741  29.725  24.579  1.00  0.00     0.163 HD
BRANCH   3   6
ATOM      6  C   UNL A   1      31.663  28.239  24.540  1.00  0.00     0.174 C 
ATOM      7  N   UNL A   1      31.373  26.798  24.482  1.00  0.00    -0.327 N 
ATOM      8  C   UNL A   1      29.926  26.674  24.436  1.00  0.00     0.121 C 
ATOM      9  C   UNL A   1      29.534  27.737  23.435  1.00  0.00     0.024 C 
ATOM     10  C   UNL A   1      30.530  28.869  23.700  1.00  0.00     0.037 C 
BRANCH   7  11
ATOM     11  C   UNL A   1      32.204  25.918  25.172  1.00  0.00     0.254 C 
ATOM     12  O   UNL A   1      32.483  26.110  26.354  1.00  0.00    -0.269 OA
BRANCH  11  13
ATOM     13  C   UNL A   1      32.974  24.866  24.411  1.00  0.00     0.041 A 
ATOM     14  C   UNL A   1      34.249  22.785  24.225  1.00  0.00     0.083 A 
ATOM     15  C   UNL A   1      34.109  22.802  22.837  1.00  0.00     0.022 A 
ATOM     16  C   UNL A   1      33.714  23.832  24.992  1.00  0.00     0.035 A 
ATOM     17  C   UNL A   1      33.430  23.861  22.231  1.00  0.00     0.002 A 
ATOM     18  C   UNL A   1      32.863  24.878  23.011  1.00  0.00     0.014 A 
BRANCH  14  19
ATOM     19  S   UNL A   1      35.208  21.490  25.020  1.00  0.00     0.243 S 
ATOM     20  O   UNL A   1      35.185  21.753  26.442  1.00  0.00    -0.207 OA
ATOM     21  O   UNL A   1      36.453  21.372  24.290  1.00  0.00    -0.207 OA
BRANCH  19  22
ATOM     22  N   UNL A   1      34.321  20.075  24.742  1.00  0.00    -0.193 NA
ATOM     23  C   UNL A   1      32.194  19.430  23.068  1.00  0.00     0.040 C 
ATOM     24  C   UNL A   1      32.202  18.984  24.526  1.00  0.00     0.130 C 
ATOM     25  C   UNL A   1      32.993  19.955  25.388  1.00  0.00     0.134 C 
ATOM     26  O   UNL A   1      32.730  17.667  24.689  1.00  0.00    -0.373 OA
ATOM     27  C   UNL A   1      34.149  17.543  24.487  1.00  0.00     0.130 C 
ATOM     28  C   UNL A   1      35.038  18.770  24.882  1.00  0.00     0.134 C 
ATOM     29  C   UNL A   1      34.411  17.008  23.083  1.00  0.00     0.040 C 
ENDBRANCH  19  22
ENDBRANCH  14  19
ENDBRANCH  11  13
ENDBRANCH   7  11
ENDBRANCH   3   6
ENDBRANCH   1   2
BRANCH   1  30
ATOM     30  C   UNL A   1      33.787  30.854  26.915  1.00  0.00     0.042 C 
BRANCH  30  31
ATOM     31  C   UNL A   1      32.389  31.370  27.267  1.00  0.00     0.118 C 
BRANCH  31  32
ATOM     32  N   UNL A   1      32.248  32.814  27.422  1.00  0.00    -0.352 N 
ATOM     33  C   UNL A   1      32.979  33.779  28.078  1.00  0.00     0.251 C 
ATOM     34  H   UNL A   1      31.459  33.176  26.957  1.00  0.00     0.163 HD
ATOM     35  O   UNL A   1      32.571  34.941  28.027  1.00  0.00    -0.269 OA
BRANCH  33  36
ATOM     36  C   UNL A   1      34.198  33.488  28.876  1.00  0.00     0.039 A 
ATOM     37  C   UNL A   1      35.423  34.034  28.451  1.00  0.00     0.014 A 
ATOM     38  C   UNL A   1      34.194  32.645  29.984  1.00  0.00     0.014 A 
ATOM     39  C   UNL A   1      36.607  33.802  29.166  1.00  0.00     0.010 A 
ATOM     40  C   UNL A   1      35.351  32.464  30.738  1.00  0.00     0.010 A 
ATOM     41  C   UNL A   1      36.570  33.021  30.322  1.00  0.00    -0.014 A 
BRANCH  41  42
ATOM     42  C   UNL A   1      37.795  32.551  31.007  1.00  0.00     0.031 A 
ATOM     43  C   UNL A   1      38.552  31.424  30.364  1.00  0.00     0.074 A 
ATOM     44  C   UNL A   1      38.146  33.009  32.221  1.00  0.00     0.049 A 
ATOM     45  N   UNL A   1      39.491  30.657  30.853  1.00  0.00    -0.248 NA
ATOM     46  C   UNL A   1      38.154  31.086  28.986  1.00  0.00     0.031 C 
ATOM     47  C   UNL A   1      37.483  34.091  32.945  1.00  0.00     0.029 A 
ATOM     48  N   UNL A   1      39.130  32.582  33.078  1.00  0.00    -0.354 N 
ATOM     49  C   UNL A   1      39.766  29.728  29.858  1.00  0.00     0.074 A 
ATOM     50  C   UNL A   1      38.871  30.000  28.756  1.00  0.00     0.031 C 
ATOM     51  C   UNL A   1      38.066  34.229  34.151  1.00  0.00     0.029 A 
ATOM     52  C   UNL A   1      39.119  33.224  34.292  1.00  0.00     0.049 A 
ATOM     53  H   UNL A   1      39.781  31.881  32.844  1.00  0.00     0.167 HD
ATOM     54  C   UNL A   1      40.691  28.740  29.862  1.00  0.00     0.037 A 
ATOM     55  C   UNL A   1      39.863  33.001  35.392  1.00  0.00     0.037 A 
ATOM     56  C   UNL A   1      41.585  28.487  30.955  1.00  0.00     0.049 A 
ATOM     57  C   UNL A   1      40.892  31.896  35.373  1.00  0.00     0.074 A 
ATOM     58  C   UNL A   1      42.578  27.530  31.059  1.00  0.00     0.029 A 
ATOM     59  N   UNL A   1      41.594  29.208  32.140  1.00  0.00    -0.354 N 
ATOM     60  N   UNL A   1      41.174  31.042  34.419  1.00  0.00    -0.248 NA
ATOM     61  C   UNL A   1      41.708  31.727  36.584  1.00  0.00     0.031 C 
ATOM     62  C   UNL A   1      43.170  27.656  32.321  1.00  0.00     0.029 A 
ATOM     63  C   UNL A   1      42.574  28.717  32.985  1.00  0.00     0.049 A 
ATOM     64  H   UNL A   1      40.992  29.958  32.350  1.00  0.00     0.167 HD
ATOM     65  C   UNL A   1      42.222  30.265  34.896  1.00  0.00     0.074 A 
ATOM     66  C   UNL A   1      42.529  30.750  36.226  1.00  0.00     0.031 C 
ATOM     67  C   UNL A   1      42.877  29.244  34.290  1.00  0.00     0.037 A 
BRANCH  54  68
ATOM     68  C   UNL A   1      40.757  27.866  28.645  1.00  0.00     0.064 A 
ATOM     69  C   UNL A   1      41.526  28.223  27.526  1.00  0.00     0.173 A 
ATOM     70  C   UNL A   1      40.024  26.673  28.584  1.00  0.00     0.173 A 
ATOM     71  F   UNL A   1      42.226  29.368  27.527  1.00  0.00    -0.203 F 
ATOM     72  C   UNL A   1      41.526  27.438  26.377  1.00  0.00     0.198 A 
ATOM     73  C   UNL A   1      40.052  25.873  27.444  1.00  0.00     0.198 A 
ATOM     74  F   UNL A   1      39.271  26.287  29.625  1.00  0.00    -0.203 F 
ATOM     75  F   UNL A   1      42.213  27.835  25.297  1.00  0.00    -0.200 F 
ATOM     76  C   UNL A   1      40.792  26.263  26.338  1.00  0.00     0.200 A 
ATOM     77  F   UNL A   1      39.347  24.734  27.410  1.00  0.00    -0.200 F 
ATOM     78  F   UNL A   1      40.788  25.511  25.229  1.00  0.00    -0.200 F 
ENDBRANCH  54  68
BRANCH  55  79
ATOM     79  C   UNL A   1      39.687  33.846  36.603  1.00  0.00     0.064 A 
ATOM     80  C   UNL A   1      38.864  33.423  37.656  1.00  0.00     0.173 A 
ATOM     81  C   UNL A   1      40.306  35.098  36.724  1.00  0.00     0.173 A 
ATOM     82  F   UNL A   1      38.229  32.244  37.576  1.00  0.00    -0.203 F 
ATOM     83  C   UNL A   1      38.647  34.228  38.772  1.00  0.00     0.198 A 
ATOM     84  C   UNL A   1      40.108  35.893  37.853  1.00  0.00     0.198 A 
ATOM     85  F   UNL A   1      41.102  35.552  35.745  1.00  0.00    -0.203 F 
ATOM     86  F   UNL A   1      37.816  33.818  39.741  1.00  0.00    -0.200 F 
ATOM     87  C   UNL A   1      39.273  35.461  38.872  1.00  0.00     0.200 A 
ATOM     88  F   UNL A   1      40.721  37.081  37.949  1.00  0.00    -0.200 F 
ATOM     89  F   UNL A   1      39.062  36.237  39.944  1.00  0.00    -0.200 F 
ENDBRANCH  55  79
BRANCH  67  90
ATOM     90  C   UNL A   1      44.028  28.625  35.027  1.00  0.00     0.064 A 
ATOM     91  C   UNL A   1      43.852  27.536  35.891  1.00  0.00     0.173 A 
ATOM     92  C   UNL A   1      45.333  29.092  34.809  1.00  0.00     0.173 A 
ATOM     93  F   UNL A   1      42.622  27.063  36.139  1.00  0.00    -0.203 F 
ATOM     94  C   UNL A   1      44.943  26.946  36.524  1.00  0.00     0.198 A 
ATOM     95  C   UNL A   1      46.423  28.483  35.423  1.00  0.00     0.198 A 
ATOM     96  F   UNL A   1      45.552  30.127  33.984  1.00  0.00    -0.203 F 
ATOM     97  F   UNL A   1      44.750  25.927  37.374  1.00  0.00    -0.200 F 
ATOM     98  C   UNL A   1      46.227  27.414  36.284  1.00  0.00     0.200 A 
ATOM     99  F   UNL A   1      47.664  28.929  35.179  1.00  0.00    -0.200 F 
ATOM    100  F   UNL A   1      47.275  26.836  36.886  1.00  0.00    -0.200 F 
ENDBRANCH  67  90
ENDBRANCH  41  42
ENDBRANCH  33  36
ENDBRANCH  31  32
ENDBRANCH  30  31
ENDBRANCH   1  30
TORSDOF 14
ENDMDL
