MODEL 1
REMARK VINA RESULT:     -13.9      0.000      0.000
REMARK SMILES CCc1ccccc1C[N@@H+]1CC2(CCN(C(=O)C3CC3)CC2)C[C@H]1C(=O)NCCCNC(=O)c1ccc(-c2c3nc(c(-c4c(F)c(F)c(F)c(F)c4F)c4ccc([nH]4)c(-c4c(F)c(F)c(F)c(F)c4F)c4nc(c(-c5c(F)c(F)c(F)c(F)c5F)c5ccc2[nH]5)C=C4)C=C3)cc1
REMARK SMILES IDX 28 1 27 2 25 3 26 4 24 6 10 7 11 8 12 10 23 11 13 12 22 13
REMARK SMILES IDX 14 14 21 15 15 16 16 17 17 18 9 19 8 20 3 21 4 22 5 23 7 24
REMARK SMILES IDX 6 25 2 26 1 27 18 28 19 29 20 30 29 31 30 32 31 33 32 34
REMARK SMILES IDX 33 36 34 37 35 38 96 39 36 40 95 41 37 42 38 43 39 44 89 45
REMARK SMILES IDX 40 46 94 47 88 48 90 49 41 50 93 51 87 52 86 53 42 55 74 56
REMARK SMILES IDX 54 57 73 58 55 59 58 60 72 61 91 62 56 63 57 64 71 66 92 67
REMARK SMILES IDX 59 68 43 69 44 70 52 71 45 72 46 73 50 74 53 75 47 76 48 77
REMARK SMILES IDX 51 78 49 79 75 80 76 81 84 82 77 83 78 84 82 85 85 86 79 87
REMARK SMILES IDX 80 88 83 89 81 90 60 91 61 92 69 93 62 94 63 95 67 96 70 97
REMARK SMILES IDX 64 98 65 99 68 100 66 101
REMARK H PARENT 27 5 10 9 31 35 90 54 58 65
REMARK Flexibility Score: inf
ROOT
ATOM      1  C   UNL A   1      32.460  29.976  26.263  1.00  0.00     0.118 C 
ENDROOT
BRANCH   1   2
ATOM      2  N   UNL A   1      33.232  29.924  25.056  1.00  0.00    -0.351 N 
ATOM      3  C   UNL A   1      33.232  28.970  24.078  1.00  0.00     0.278 C 
ATOM      4  O   UNL A   1      33.882  29.244  23.060  1.00  0.00    -0.268 OA
ATOM      5  H   UNL A   1      33.848  30.680  24.913  1.00  0.00     0.163 HD
BRANCH   3   6
ATOM      6  C   UNL A   1      32.505  27.592  24.188  1.00  0.00     0.275 C 
ATOM      7  N   UNL A   1      32.519  26.892  22.899  1.00  0.00    -0.320 N 
ATOM      8  C   UNL A   1      33.288  25.659  23.040  1.00  0.00     0.270 C 
ATOM      9  H   UNL A   1      33.014  27.451  22.203  1.00  0.00     0.349 HD
ATOM     10  C   UNL A   1      33.425  25.309  24.545  1.00  0.00     0.029 C 
ATOM     11  C   UNL A   1      32.934  26.588  25.265  1.00  0.00     0.088 C 
ATOM     12  C   UNL A   1      34.848  24.916  25.028  1.00  0.00     0.034 C 
ATOM     13  C   UNL A   1      32.595  24.049  24.904  1.00  0.00     0.034 C 
ATOM     14  C   UNL A   1      35.391  23.729  24.258  1.00  0.00     0.120 C 
ATOM     15  C   UNL A   1      33.120  22.785  24.191  1.00  0.00     0.120 C 
ATOM     16  N   UNL A   1      34.547  22.569  24.458  1.00  0.00    -0.342 N 
ATOM     17  C   UNL A   1      34.993  21.260  24.621  1.00  0.00     0.225 C 
ATOM     18  O   UNL A   1      34.294  20.310  24.269  1.00  0.00    -0.275 OA
BRANCH   7  19
ATOM     19  C   UNL A   1      31.197  26.812  22.236  1.00  0.00     0.299 C 
BRANCH  19  20
ATOM     20  C   UNL A   1      30.164  27.872  22.608  1.00  0.00     0.009 A 
ATOM     21  C   UNL A   1      28.924  27.608  23.237  1.00  0.00    -0.039 A 
ATOM     22  C   UNL A   1      27.956  28.636  23.288  1.00  0.00     0.004 A 
ATOM     23  C   UNL A   1      28.234  29.922  22.829  1.00  0.00     0.000 A 
ATOM     24  C   UNL A   1      30.461  29.210  22.267  1.00  0.00     0.010 A 
ATOM     25  C   UNL A   1      29.507  30.224  22.371  1.00  0.00     0.001 A 
BRANCH  21  26
ATOM     26  C   UNL A   1      28.625  26.347  24.030  1.00  0.00     0.032 C 
ATOM     27  C   UNL A   1      29.497  26.087  25.253  1.00  0.00     0.009 C 
ENDBRANCH  21  26
ENDBRANCH  19  20
ENDBRANCH   7  19
BRANCH  17  28
ATOM     28  C   UNL A   1      36.256  20.911  25.350  1.00  0.00     0.079 C 
ATOM     29  C   UNL A   1      37.294  19.875  25.020  1.00  0.00     0.014 C 
ATOM     30  C   UNL A   1      37.619  21.338  24.864  1.00  0.00     0.014 C 
ENDBRANCH  17  28
ENDBRANCH   3   6
ENDBRANCH   1   2
BRANCH   1  31
ATOM     31  C   UNL A   1      31.920  31.344  26.636  1.00  0.00     0.042 C 
BRANCH  31  32
ATOM     32  C   UNL A   1      32.943  32.193  27.370  1.00  0.00     0.118 C 
BRANCH  32  33
ATOM     33  N   UNL A   1      32.523  33.586  27.540  1.00  0.00    -0.352 N 
ATOM     34  C   UNL A   1      33.014  34.559  28.388  1.00  0.00     0.251 C 
ATOM     35  H   UNL A   1      31.779  33.872  26.963  1.00  0.00     0.163 HD
ATOM     36  O   UNL A   1      32.454  35.640  28.474  1.00  0.00    -0.269 OA
BRANCH  34  37
ATOM     37  C   UNL A   1      34.199  34.263  29.226  1.00  0.00     0.039 A 
ATOM     38  C   UNL A   1      34.026  33.642  30.467  1.00  0.00     0.014 A 
ATOM     39  C   UNL A   1      35.480  34.542  28.754  1.00  0.00     0.014 A 
ATOM     40  C   UNL A   1      35.145  33.195  31.177  1.00  0.00     0.010 A 
ATOM     41  C   UNL A   1      36.579  33.998  29.401  1.00  0.00     0.010 A 
ATOM     42  C   UNL A   1      36.426  33.315  30.618  1.00  0.00    -0.014 A 
BRANCH  42  43
ATOM     43  C   UNL A   1      37.644  32.759  31.261  1.00  0.00     0.031 A 
ATOM     44  C   UNL A   1      38.366  31.622  30.593  1.00  0.00     0.074 A 
ATOM     45  C   UNL A   1      38.007  33.164  32.494  1.00  0.00     0.049 A 
ATOM     46  N   UNL A   1      39.276  30.815  31.075  1.00  0.00    -0.248 NA
ATOM     47  C   UNL A   1      37.967  31.319  29.209  1.00  0.00     0.031 C 
ATOM     48  C   UNL A   1      37.361  34.226  33.266  1.00  0.00     0.029 A 
ATOM     49  N   UNL A   1      38.994  32.701  33.330  1.00  0.00    -0.354 N 
ATOM     50  C   UNL A   1      39.515  29.882  30.075  1.00  0.00     0.074 A 
ATOM     51  C   UNL A   1      38.624  30.193  28.979  1.00  0.00     0.031 C 
ATOM     52  C   UNL A   1      37.973  34.341  34.455  1.00  0.00     0.029 A 
ATOM     53  C   UNL A   1      39.018  33.328  34.552  1.00  0.00     0.049 A 
ATOM     54  H   UNL A   1      39.623  31.989  33.077  1.00  0.00     0.167 HD
ATOM     55  C   UNL A   1      40.412  28.868  30.067  1.00  0.00     0.037 A 
ATOM     56  C   UNL A   1      39.783  33.093  35.637  1.00  0.00     0.037 A 
ATOM     57  C   UNL A   1      41.336  28.606  31.136  1.00  0.00     0.049 A 
ATOM     58  C   UNL A   1      40.797  31.983  35.591  1.00  0.00     0.074 A 
ATOM     59  C   UNL A   1      42.338  27.655  31.197  1.00  0.00     0.029 A 
ATOM     60  N   UNL A   1      41.376  29.312  32.331  1.00  0.00    -0.354 N 
ATOM     61  N   UNL A   1      41.049  31.133  34.625  1.00  0.00    -0.248 NA
ATOM     62  C   UNL A   1      41.635  31.797  36.785  1.00  0.00     0.031 C 
ATOM     63  C   UNL A   1      42.963  27.763  32.443  1.00  0.00     0.029 A 
ATOM     64  C   UNL A   1      42.381  28.812  33.138  1.00  0.00     0.049 A 
ATOM     65  H   UNL A   1      40.778  30.058  32.567  1.00  0.00     0.167 HD
ATOM     66  C   UNL A   1      42.093  30.339  35.075  1.00  0.00     0.074 A 
ATOM     67  C   UNL A   1      42.431  30.806  36.404  1.00  0.00     0.031 C 
ATOM     68  C   UNL A   1      42.719  29.316  34.445  1.00  0.00     0.037 A 
BRANCH  55  69
ATOM     69  C   UNL A   1      40.438  27.974  28.861  1.00  0.00     0.064 A 
ATOM     70  C   UNL A   1      41.191  28.294  27.721  1.00  0.00     0.173 A 
ATOM     71  C   UNL A   1      39.715  26.772  28.852  1.00  0.00     0.173 A 
ATOM     72  F   UNL A   1      41.889  29.439  27.672  1.00  0.00    -0.203 F 
ATOM     73  C   UNL A   1      41.191  27.463  26.604  1.00  0.00     0.198 A 
ATOM     74  C   UNL A   1      39.744  25.926  27.747  1.00  0.00     0.198 A 
ATOM     75  F   UNL A   1      38.982  26.414  29.918  1.00  0.00    -0.203 F 
ATOM     76  F   UNL A   1      41.869  27.820  25.505  1.00  0.00    -0.200 F 
ATOM     77  C   UNL A   1      40.473  26.277  26.620  1.00  0.00     0.200 A 
ATOM     78  F   UNL A   1      39.060  24.773  27.768  1.00  0.00    -0.200 F 
ATOM     79  F   UNL A   1      40.475  25.476  25.546  1.00  0.00    -0.200 F 
ENDBRANCH  55  69
BRANCH  56  80
ATOM     80  C   UNL A   1      39.634  33.942  36.847  1.00  0.00     0.064 A 
ATOM     81  C   UNL A   1      40.298  35.174  36.943  1.00  0.00     0.173 A 
ATOM     82  C   UNL A   1      38.826  33.553  37.925  1.00  0.00     0.173 A 
ATOM     83  F   UNL A   1      41.098  35.581  35.947  1.00  0.00    -0.203 F 
ATOM     84  C   UNL A   1      40.173  35.975  38.076  1.00  0.00     0.198 A 
ATOM     85  C   UNL A   1      38.680  34.367  39.047  1.00  0.00     0.198 A 
ATOM     86  F   UNL A   1      38.164  32.387  37.882  1.00  0.00    -0.203 F 
ATOM     87  F   UNL A   1      40.850  37.128  38.157  1.00  0.00    -0.200 F 
ATOM     88  C   UNL A   1      39.359  35.574  39.124  1.00  0.00     0.200 A 
ATOM     89  F   UNL A   1      37.882  33.983  40.053  1.00  0.00    -0.200 F 
ATOM     90  F   UNL A   1      39.234  36.347  40.212  1.00  0.00    -0.200 F 
ENDBRANCH  56  80
BRANCH  68  91
ATOM     91  C   UNL A   1      43.874  28.668  35.147  1.00  0.00     0.064 A 
ATOM     92  C   UNL A   1      43.695  27.583  36.015  1.00  0.00     0.173 A 
ATOM     93  C   UNL A   1      45.186  29.089  34.877  1.00  0.00     0.173 A 
ATOM     94  F   UNL A   1      42.460  27.154  36.313  1.00  0.00    -0.203 F 
ATOM     95  C   UNL A   1      44.789  26.945  36.593  1.00  0.00     0.198 A 
ATOM     96  C   UNL A   1      46.277  28.434  35.437  1.00  0.00     0.198 A 
ATOM     97  F   UNL A   1      45.407  30.120  34.047  1.00  0.00    -0.203 F 
ATOM     98  F   UNL A   1      44.596  25.924  37.441  1.00  0.00    -0.200 F 
ATOM     99  C   UNL A   1      46.078  27.363  36.296  1.00  0.00     0.200 A 
ATOM    100  F   UNL A   1      47.522  28.830  35.137  1.00  0.00    -0.200 F 
ATOM    101  F   UNL A   1      47.130  26.734  36.839  1.00  0.00    -0.200 F 
ENDBRANCH  68  91
ENDBRANCH  42  43
ENDBRANCH  34  37
ENDBRANCH  32  33
ENDBRANCH  31  32
ENDBRANCH   1  31
TORSDOF 14
ENDMDL
MODEL 2
REMARK VINA RESULT:     -13.6      5.184     11.134
REMARK SMILES CCc1ccccc1C[N@@H+]1CC2(CCN(C(=O)C3CC3)CC2)C[C@H]1C(=O)NCCCNC(=O)c1ccc(-c2c3nc(c(-c4c(F)c(F)c(F)c(F)c4F)c4ccc([nH]4)c(-c4c(F)c(F)c(F)c(F)c4F)c4nc(c(-c5c(F)c(F)c(F)c(F)c5F)c5ccc2[nH]5)C=C4)C=C3)cc1
REMARK SMILES IDX 28 1 27 2 25 3 26 4 24 6 10 7 11 8 12 10 23 11 13 12 22 13
REMARK SMILES IDX 14 14 21 15 15 16 16 17 17 18 9 19 8 20 3 21 4 22 5 23 7 24
REMARK SMILES IDX 6 25 2 26 1 27 18 28 19 29 20 30 29 31 30 32 31 33 32 34
REMARK SMILES IDX 33 36 34 37 35 38 96 39 36 40 95 41 37 42 38 43 39 44 89 45
REMARK SMILES IDX 40 46 94 47 88 48 90 49 41 50 93 51 87 52 86 53 42 55 74 56
REMARK SMILES IDX 54 57 73 58 55 59 58 60 72 61 91 62 56 63 57 64 71 66 92 67
REMARK SMILES IDX 59 68 43 69 44 70 52 71 45 72 46 73 50 74 53 75 47 76 48 77
REMARK SMILES IDX 51 78 49 79 75 80 76 81 84 82 77 83 78 84 82 85 85 86 79 87
REMARK SMILES IDX 80 88 83 89 81 90 60 91 61 92 69 93 62 94 63 95 67 96 70 97
REMARK SMILES IDX 64 98 65 99 68 100 66 101
REMARK H PARENT 27 5 10 9 31 35 90 54 58 65
REMARK Flexibility Score: inf
ROOT
ATOM      1  C   UNL A   1      36.926  21.587  25.098  1.00  0.00     0.118 C 
ENDROOT
BRANCH   1   2
ATOM      2  N   UNL A   1      36.177  21.587  26.320  1.00  0.00    -0.351 N 
ATOM      3  C   UNL A   1      34.869  21.927  26.524  1.00  0.00     0.278 C 
ATOM      4  O   UNL A   1      34.423  21.690  27.655  1.00  0.00    -0.268 OA
ATOM      5  H   UNL A   1      36.673  21.304  27.123  1.00  0.00     0.163 HD
BRANCH   3   6
ATOM      6  C   UNL A   1      33.955  22.602  25.454  1.00  0.00     0.275 C 
ATOM      7  N   UNL A   1      32.568  22.679  25.928  1.00  0.00    -0.320 N 
ATOM      8  C   UNL A   1      32.192  24.084  26.056  1.00  0.00     0.270 C 
ATOM      9  H   UNL A   1      32.497  22.286  26.867  1.00  0.00     0.349 HD
ATOM     10  C   UNL A   1      33.185  24.958  25.245  1.00  0.00     0.029 C 
ATOM     11  C   UNL A   1      34.329  23.978  24.889  1.00  0.00     0.088 C 
ATOM     12  C   UNL A   1      33.741  26.213  25.972  1.00  0.00     0.034 C 
ATOM     13  C   UNL A   1      32.499  25.575  23.999  1.00  0.00     0.034 C 
ATOM     14  C   UNL A   1      32.626  27.135  26.425  1.00  0.00     0.120 C 
ATOM     15  C   UNL A   1      31.379  26.566  24.382  1.00  0.00     0.120 C 
ATOM     16  N   UNL A   1      31.871  27.613  25.285  1.00  0.00    -0.342 N 
ATOM     17  C   UNL A   1      31.375  28.904  25.124  1.00  0.00     0.225 C 
ATOM     18  O   UNL A   1      30.358  29.108  24.461  1.00  0.00    -0.275 OA
BRANCH   7  19
ATOM     19  C   UNL A   1      31.633  21.773  25.224  1.00  0.00     0.299 C 
BRANCH  19  20
ATOM     20  C   UNL A   1      32.222  20.513  24.595  1.00  0.00     0.009 A 
ATOM     21  C   UNL A   1      32.163  20.193  23.217  1.00  0.00    -0.039 A 
ATOM     22  C   UNL A   1      32.512  18.886  22.809  1.00  0.00     0.004 A 
ATOM     23  C   UNL A   1      33.008  17.948  23.713  1.00  0.00     0.000 A 
ATOM     24  C   UNL A   1      32.842  19.588  25.463  1.00  0.00     0.010 A 
ATOM     25  C   UNL A   1      33.227  18.318  25.031  1.00  0.00     0.001 A 
BRANCH  21  26
ATOM     26  C   UNL A   1      31.927  21.213  22.117  1.00  0.00     0.032 C 
ATOM     27  C   UNL A   1      32.845  22.429  22.105  1.00  0.00     0.009 C 
ENDBRANCH  21  26
ENDBRANCH  19  20
ENDBRANCH   7  19
BRANCH  17  28
ATOM     28  C   UNL A   1      32.098  30.124  25.609  1.00  0.00     0.079 C 
ATOM     29  C   UNL A   1      31.543  31.401  26.175  1.00  0.00     0.014 C 
ATOM     30  C   UNL A   1      32.271  30.438  27.075  1.00  0.00     0.014 C 
ENDBRANCH  17  28
ENDBRANCH   3   6
ENDBRANCH   1   2
BRANCH   1  31
ATOM     31  C   UNL A   1      37.929  20.458  24.946  1.00  0.00     0.042 C 
BRANCH  31  32
ATOM     32  C   UNL A   1      39.156  20.647  25.821  1.00  0.00     0.118 C 
BRANCH  32  33
ATOM     33  N   UNL A   1      40.007  19.457  25.889  1.00  0.00    -0.352 N 
ATOM     34  C   UNL A   1      41.368  19.355  26.098  1.00  0.00     0.251 C 
ATOM     35  H   UNL A   1      39.538  18.600  25.768  1.00  0.00     0.163 HD
ATOM     36  O   UNL A   1      41.926  18.274  26.003  1.00  0.00    -0.269 OA
BRANCH  34  37
ATOM     37  C   UNL A   1      42.152  20.577  26.391  1.00  0.00     0.039 A 
ATOM     38  C   UNL A   1      42.464  21.461  25.353  1.00  0.00     0.014 A 
ATOM     39  C   UNL A   1      42.520  20.877  27.701  1.00  0.00     0.014 A 
ATOM     40  C   UNL A   1      43.039  22.699  25.650  1.00  0.00     0.010 A 
ATOM     41  C   UNL A   1      42.984  22.148  28.006  1.00  0.00     0.010 A 
ATOM     42  C   UNL A   1      43.246  23.077  26.985  1.00  0.00    -0.014 A 
BRANCH  42  43
ATOM     43  C   UNL A   1      43.744  24.420  27.379  1.00  0.00     0.031 A 
ATOM     44  C   UNL A   1      42.768  25.428  27.919  1.00  0.00     0.074 A 
ATOM     45  C   UNL A   1      45.015  24.777  27.115  1.00  0.00     0.049 A 
ATOM     46  N   UNL A   1      42.909  26.719  28.081  1.00  0.00    -0.248 NA
ATOM     47  C   UNL A   1      41.432  24.921  28.273  1.00  0.00     0.031 C 
ATOM     48  C   UNL A   1      46.046  23.904  26.552  1.00  0.00     0.029 A 
ATOM     49  N   UNL A   1      45.648  25.988  27.257  1.00  0.00    -0.354 N 
ATOM     50  C   UNL A   1      41.668  27.180  28.501  1.00  0.00     0.074 A 
ATOM     51  C   UNL A   1      40.776  26.042  28.525  1.00  0.00     0.031 C 
ATOM     52  C   UNL A   1      47.183  24.603  26.405  1.00  0.00     0.029 A 
ATOM     53  C   UNL A   1      46.949  25.984  26.813  1.00  0.00     0.049 A 
ATOM     54  H   UNL A   1      45.212  26.782  27.640  1.00  0.00     0.167 HD
ATOM     55  C   UNL A   1      41.312  28.437  28.854  1.00  0.00     0.037 A 
ATOM     56  C   UNL A   1      47.843  26.989  26.725  1.00  0.00     0.037 A 
ATOM     57  C   UNL A   1      42.223  29.549  28.886  1.00  0.00     0.049 A 
ATOM     58  C   UNL A   1      47.434  28.372  27.155  1.00  0.00     0.074 A 
ATOM     59  C   UNL A   1      41.987  30.846  29.302  1.00  0.00     0.029 A 
ATOM     60  N   UNL A   1      43.554  29.486  28.496  1.00  0.00    -0.354 N 
ATOM     61  N   UNL A   1      46.272  28.791  27.594  1.00  0.00    -0.248 NA
ATOM     62  C   UNL A   1      48.460  29.423  27.079  1.00  0.00     0.031 C 
ATOM     63  C   UNL A   1      43.166  31.578  29.133  1.00  0.00     0.029 A 
ATOM     64  C   UNL A   1      44.149  30.725  28.655  1.00  0.00     0.049 A 
ATOM     65  H   UNL A   1      44.007  28.679  28.158  1.00  0.00     0.167 HD
ATOM     66  C   UNL A   1      46.435  30.139  27.881  1.00  0.00     0.074 A 
ATOM     67  C   UNL A   1      47.809  30.470  27.566  1.00  0.00     0.031 C 
ATOM     68  C   UNL A   1      45.529  31.022  28.365  1.00  0.00     0.037 A 
BRANCH  55  69
ATOM     69  C   UNL A   1      39.880  28.672  29.237  1.00  0.00     0.064 A 
ATOM     70  C   UNL A   1      39.429  28.491  30.554  1.00  0.00     0.173 A 
ATOM     71  C   UNL A   1      38.950  29.102  28.280  1.00  0.00     0.173 A 
ATOM     72  F   UNL A   1      40.276  28.067  31.505  1.00  0.00    -0.203 F 
ATOM     73  C   UNL A   1      38.094  28.696  30.890  1.00  0.00     0.198 A 
ATOM     74  C   UNL A   1      37.622  29.340  28.626  1.00  0.00     0.198 A 
ATOM     75  F   UNL A   1      39.328  29.296  27.007  1.00  0.00    -0.203 F 
ATOM     76  F   UNL A   1      37.675  28.457  32.140  1.00  0.00    -0.200 F 
ATOM     77  C   UNL A   1      37.193  29.126  29.927  1.00  0.00     0.200 A 
ATOM     78  F   UNL A   1      36.755  29.768  27.698  1.00  0.00    -0.200 F 
ATOM     79  F   UNL A   1      35.908  29.326  30.252  1.00  0.00    -0.200 F 
ENDBRANCH  55  69
BRANCH  56  80
ATOM     80  C   UNL A   1      49.217  26.717  26.229  1.00  0.00     0.064 A 
ATOM     81  C   UNL A   1      50.201  26.212  27.092  1.00  0.00     0.173 A 
ATOM     82  C   UNL A   1      49.578  26.946  24.894  1.00  0.00     0.173 A 
ATOM     83  F   UNL A   1      49.911  25.995  28.383  1.00  0.00    -0.203 F 
ATOM     84  C   UNL A   1      51.495  25.961  26.641  1.00  0.00     0.198 A 
ATOM     85  C   UNL A   1      50.865  26.671  24.438  1.00  0.00     0.198 A 
ATOM     86  F   UNL A   1      48.673  27.424  24.026  1.00  0.00    -0.203 F 
ATOM     87  F   UNL A   1      52.425  25.516  27.496  1.00  0.00    -0.200 F 
ATOM     88  C   UNL A   1      51.825  26.185  25.313  1.00  0.00     0.200 A 
ATOM     89  F   UNL A   1      51.177  26.875  23.150  1.00  0.00    -0.200 F 
ATOM     90  F   UNL A   1      53.069  25.938  24.878  1.00  0.00    -0.200 F 
ENDBRANCH  56  80
BRANCH  68  91
ATOM     91  C   UNL A   1      45.999  32.417  28.647  1.00  0.00     0.064 A 
ATOM     92  C   UNL A   1      45.903  33.435  27.689  1.00  0.00     0.173 A 
ATOM     93  C   UNL A   1      46.471  32.754  29.925  1.00  0.00     0.173 A 
ATOM     94  F   UNL A   1      45.471  33.158  26.450  1.00  0.00    -0.203 F 
ATOM     95  C   UNL A   1      46.271  34.741  27.999  1.00  0.00     0.198 A 
ATOM     96  C   UNL A   1      46.813  34.065  30.239  1.00  0.00     0.198 A 
ATOM     97  F   UNL A   1      46.573  31.813  30.877  1.00  0.00    -0.203 F 
ATOM     98  F   UNL A   1      46.196  35.697  27.061  1.00  0.00    -0.200 F 
ATOM     99  C   UNL A   1      46.715  35.057  29.275  1.00  0.00     0.200 A 
ATOM    100  F   UNL A   1      47.228  34.371  31.476  1.00  0.00    -0.200 F 
ATOM    101  F   UNL A   1      47.049  36.320  29.576  1.00  0.00    -0.200 F 
ENDBRANCH  68  91
ENDBRANCH  42  43
ENDBRANCH  34  37
ENDBRANCH  32  33
ENDBRANCH  31  32
ENDBRANCH   1  31
TORSDOF 14
ENDMDL
MODEL 3
REMARK VINA RESULT:     -13.6      2.040      3.255
REMARK SMILES CCc1ccccc1C[N@@H+]1CC2(CCN(C(=O)C3CC3)CC2)C[C@H]1C(=O)NCCCNC(=O)c1ccc(-c2c3nc(c(-c4c(F)c(F)c(F)c(F)c4F)c4ccc([nH]4)c(-c4c(F)c(F)c(F)c(F)c4F)c4nc(c(-c5c(F)c(F)c(F)c(F)c5F)c5ccc2[nH]5)C=C4)C=C3)cc1
REMARK SMILES IDX 28 1 27 2 25 3 26 4 24 6 10 7 11 8 12 10 23 11 13 12 22 13
REMARK SMILES IDX 14 14 21 15 15 16 16 17 17 18 9 19 8 20 3 21 4 22 5 23 7 24
REMARK SMILES IDX 6 25 2 26 1 27 18 28 19 29 20 30 29 31 30 32 31 33 32 34
REMARK SMILES IDX 33 36 34 37 35 38 96 39 36 40 95 41 37 42 38 43 39 44 89 45
REMARK SMILES IDX 40 46 94 47 88 48 90 49 41 50 93 51 87 52 86 53 42 55 74 56
REMARK SMILES IDX 54 57 73 58 55 59 58 60 72 61 91 62 56 63 57 64 71 66 92 67
REMARK SMILES IDX 59 68 43 69 44 70 52 71 45 72 46 73 50 74 53 75 47 76 48 77
REMARK SMILES IDX 51 78 49 79 75 80 76 81 84 82 77 83 78 84 82 85 85 86 79 87
REMARK SMILES IDX 80 88 83 89 81 90 60 91 61 92 69 93 62 94 63 95 67 96 70 97
REMARK SMILES IDX 64 98 65 99 68 100 66 101
REMARK H PARENT 27 5 10 9 31 35 90 54 58 65
REMARK Flexibility Score: inf
ROOT
ATOM      1  C   UNL A   1      32.049  27.167  26.592  1.00  0.00     0.118 C 
ENDROOT
BRANCH   1   2
ATOM      2  N   UNL A   1      33.379  26.641  26.494  1.00  0.00    -0.351 N 
ATOM      3  C   UNL A   1      33.835  25.598  25.738  1.00  0.00     0.278 C 
ATOM      4  O   UNL A   1      35.063  25.446  25.718  1.00  0.00    -0.268 OA
ATOM      5  H   UNL A   1      34.056  27.093  27.048  1.00  0.00     0.163 HD
BRANCH   3   6
ATOM      6  C   UNL A   1      32.916  24.608  24.954  1.00  0.00     0.275 C 
ATOM      7  N   UNL A   1      33.533  24.225  23.679  1.00  0.00    -0.320 N 
ATOM      8  C   UNL A   1      33.805  22.791  23.698  1.00  0.00     0.270 C 
ATOM      9  H   UNL A   1      34.442  24.679  23.579  1.00  0.00     0.349 HD
ATOM     10  C   UNL A   1      32.966  22.124  24.821  1.00  0.00     0.029 C 
ATOM     11  C   UNL A   1      32.423  23.325  25.633  1.00  0.00     0.088 C 
ATOM     12  C   UNL A   1      33.726  21.133  25.744  1.00  0.00     0.034 C 
ATOM     13  C   UNL A   1      31.846  21.232  24.227  1.00  0.00     0.034 C 
ATOM     14  C   UNL A   1      34.358  20.006  24.951  1.00  0.00     0.120 C 
ATOM     15  C   UNL A   1      32.415  20.030  23.442  1.00  0.00     0.120 C 
ATOM     16  N   UNL A   1      33.340  19.239  24.263  1.00  0.00    -0.342 N 
ATOM     17  C   UNL A   1      33.329  17.854  24.114  1.00  0.00     0.225 C 
ATOM     18  O   UNL A   1      32.788  17.332  23.140  1.00  0.00    -0.275 OA
BRANCH   7  19
ATOM     19  C   UNL A   1      32.861  24.787  22.485  1.00  0.00     0.299 C 
BRANCH  19  20
ATOM     20  C   UNL A   1      32.413  26.244  22.556  1.00  0.00     0.009 A 
ATOM     21  C   UNL A   1      31.067  26.673  22.659  1.00  0.00    -0.039 A 
ATOM     22  C   UNL A   1      30.774  28.039  22.454  1.00  0.00     0.004 A 
ATOM     23  C   UNL A   1      31.782  28.981  22.259  1.00  0.00     0.000 A 
ATOM     24  C   UNL A   1      33.418  27.233  22.482  1.00  0.00     0.010 A 
ATOM     25  C   UNL A   1      33.109  28.585  22.330  1.00  0.00     0.001 A 
BRANCH  21  26
ATOM     26  C   UNL A   1      29.932  25.797  23.159  1.00  0.00     0.032 C 
ATOM     27  C   UNL A   1      29.141  26.319  24.352  1.00  0.00     0.009 C 
ENDBRANCH  21  26
ENDBRANCH  19  20
ENDBRANCH   7  19
BRANCH  17  28
ATOM     28  C   UNL A   1      33.828  16.915  25.170  1.00  0.00     0.079 C 
ATOM     29  C   UNL A   1      33.652  15.427  25.284  1.00  0.00     0.014 C 
ATOM     30  C   UNL A   1      35.005  15.997  24.949  1.00  0.00     0.014 C 
ENDBRANCH  17  28
ENDBRANCH   3   6
ENDBRANCH   1   2
BRANCH   1  31
ATOM     31  C   UNL A   1      31.806  28.472  25.857  1.00  0.00     0.042 C 
BRANCH  31  32
ATOM     32  C   UNL A   1      32.981  29.429  25.965  1.00  0.00     0.118 C 
BRANCH  32  33
ATOM     33  N   UNL A   1      32.597  30.768  26.417  1.00  0.00    -0.352 N 
ATOM     34  C   UNL A   1      33.264  31.645  27.249  1.00  0.00     0.251 C 
ATOM     35  H   UNL A   1      31.732  31.093  26.075  1.00  0.00     0.163 HD
ATOM     36  O   UNL A   1      32.728  32.680  27.610  1.00  0.00    -0.269 OA
BRANCH  34  37
ATOM     37  C   UNL A   1      34.619  31.296  27.736  1.00  0.00     0.039 A 
ATOM     38  C   UNL A   1      35.625  32.268  27.728  1.00  0.00     0.014 A 
ATOM     39  C   UNL A   1      34.872  30.029  28.257  1.00  0.00     0.014 A 
ATOM     40  C   UNL A   1      36.846  32.002  28.353  1.00  0.00     0.010 A 
ATOM     41  C   UNL A   1      36.037  29.807  28.975  1.00  0.00     0.010 A 
ATOM     42  C   UNL A   1      37.038  30.791  29.036  1.00  0.00    -0.014 A 
BRANCH  42  43
ATOM     43  C   UNL A   1      38.263  30.488  29.819  1.00  0.00     0.031 A 
ATOM     44  C   UNL A   1      39.262  29.514  29.260  1.00  0.00     0.074 A 
ATOM     45  C   UNL A   1      38.402  30.961  31.073  1.00  0.00     0.049 A 
ATOM     46  N   UNL A   1      40.254  28.903  29.856  1.00  0.00    -0.248 NA
ATOM     47  C   UNL A   1      39.084  29.133  27.849  1.00  0.00     0.031 C 
ATOM     48  C   UNL A   1      37.481  31.877  31.745  1.00  0.00     0.029 A 
ATOM     49  N   UNL A   1      39.363  30.704  32.020  1.00  0.00    -0.354 N 
ATOM     50  C   UNL A   1      40.779  28.032  28.911  1.00  0.00     0.074 A 
ATOM     51  C   UNL A   1      39.969  28.158  27.719  1.00  0.00     0.031 C 
ATOM     52  C   UNL A   1      37.924  32.114  32.990  1.00  0.00     0.029 A 
ATOM     53  C   UNL A   1      39.131  31.327  33.223  1.00  0.00     0.049 A 
ATOM     54  H   UNL A   1      40.144  30.129  31.854  1.00  0.00     0.167 HD
ATOM     55  C   UNL A   1      41.852  27.215  29.023  1.00  0.00     0.037 A 
ATOM     56  C   UNL A   1      39.803  31.251  34.388  1.00  0.00     0.037 A 
ATOM     57  C   UNL A   1      42.686  27.143  30.191  1.00  0.00     0.049 A 
ATOM     58  C   UNL A   1      41.014  30.362  34.478  1.00  0.00     0.074 A 
ATOM     59  C   UNL A   1      43.842  26.409  30.383  1.00  0.00     0.029 A 
ATOM     60  N   UNL A   1      42.456  27.847  31.366  1.00  0.00    -0.354 N 
ATOM     61  N   UNL A   1      41.531  29.575  33.566  1.00  0.00    -0.248 NA
ATOM     62  C   UNL A   1      41.736  30.349  35.759  1.00  0.00     0.031 C 
ATOM     63  C   UNL A   1      44.294  26.642  31.685  1.00  0.00     0.029 A 
ATOM     64  C   UNL A   1      43.446  27.557  32.288  1.00  0.00     0.049 A 
ATOM     65  H   UNL A   1      41.702  28.462  31.518  1.00  0.00     0.167 HD
ATOM     66  C   UNL A   1      42.655  29.004  34.145  1.00  0.00     0.074 A 
ATOM     67  C   UNL A   1      42.746  29.533  35.490  1.00  0.00     0.031 C 
ATOM     68  C   UNL A   1      43.534  28.123  33.611  1.00  0.00     0.037 A 
BRANCH  55  69
ATOM     69  C   UNL A   1      42.184  26.340  27.850  1.00  0.00     0.064 A 
ATOM     70  C   UNL A   1      41.561  25.098  27.654  1.00  0.00     0.173 A 
ATOM     71  C   UNL A   1      43.125  26.757  26.897  1.00  0.00     0.173 A 
ATOM     72  F   UNL A   1      40.663  24.646  28.544  1.00  0.00    -0.203 F 
ATOM     73  C   UNL A   1      41.893  24.290  26.570  1.00  0.00     0.198 A 
ATOM     74  C   UNL A   1      43.431  25.962  25.795  1.00  0.00     0.198 A 
ATOM     75  F   UNL A   1      43.748  27.938  27.031  1.00  0.00    -0.203 F 
ATOM     76  F   UNL A   1      41.329  23.082  26.439  1.00  0.00    -0.200 F 
ATOM     77  C   UNL A   1      42.823  24.726  25.638  1.00  0.00     0.200 A 
ATOM     78  F   UNL A   1      44.320  26.390  24.887  1.00  0.00    -0.200 F 
ATOM     79  F   UNL A   1      43.140  23.949  24.593  1.00  0.00    -0.200 F 
ENDBRANCH  55  69
BRANCH  56  80
ATOM     80  C   UNL A   1      39.359  32.058  35.555  1.00  0.00     0.064 A 
ATOM     81  C   UNL A   1      38.486  31.515  36.508  1.00  0.00     0.173 A 
ATOM     82  C   UNL A   1      39.796  33.376  35.748  1.00  0.00     0.173 A 
ATOM     83  F   UNL A   1      38.023  30.266  36.357  1.00  0.00    -0.203 F 
ATOM     84  C   UNL A   1      38.056  32.264  37.601  1.00  0.00     0.198 A 
ATOM     85  C   UNL A   1      39.386  34.116  36.855  1.00  0.00     0.198 A 
ATOM     86  F   UNL A   1      40.637  33.941  34.868  1.00  0.00    -0.203 F 
ATOM     87  F   UNL A   1      37.190  31.733  38.476  1.00  0.00    -0.200 F 
ATOM     88  C   UNL A   1      38.511  33.562  37.778  1.00  0.00     0.200 A 
ATOM     89  F   UNL A   1      39.839  35.365  37.031  1.00  0.00    -0.200 F 
ATOM     90  F   UNL A   1      38.101  34.281  38.833  1.00  0.00    -0.200 F 
ENDBRANCH  56  80
BRANCH  68  91
ATOM     91  C   UNL A   1      44.709  27.718  34.448  1.00  0.00     0.064 A 
ATOM     92  C   UNL A   1      44.677  26.577  35.260  1.00  0.00     0.173 A 
ATOM     93  C   UNL A   1      45.911  28.437  34.365  1.00  0.00     0.173 A 
ATOM     94  F   UNL A   1      43.546  25.865  35.381  1.00  0.00    -0.203 F 
ATOM     95  C   UNL A   1      45.806  26.173  35.967  1.00  0.00     0.198 A 
ATOM     96  C   UNL A   1      47.045  28.017  35.053  1.00  0.00     0.198 A 
ATOM     97  F   UNL A   1      45.991  29.532  33.594  1.00  0.00    -0.203 F 
ATOM     98  F   UNL A   1      45.749  25.093  36.760  1.00  0.00    -0.200 F 
ATOM     99  C   UNL A   1      46.991  26.887  35.855  1.00  0.00     0.200 A 
ATOM    100  F   UNL A   1      48.192  28.698  34.931  1.00  0.00    -0.200 F 
ATOM    101  F   UNL A   1      48.083  26.485  36.520  1.00  0.00    -0.200 F 
ENDBRANCH  68  91
ENDBRANCH  42  43
ENDBRANCH  34  37
ENDBRANCH  32  33
ENDBRANCH  31  32
ENDBRANCH   1  31
TORSDOF 14
ENDMDL
