MODEL 1
REMARK VINA RESULT:     -12.0      0.000      0.000
REMARK SMILES O=C(CCCC(=O)Nc1ccc(C(=O)N2CCOCC2)cc1)NCCCNC(=O)c1ccc(-c2c3nc(c(-c4c(F)c(F)c(F)c(F)c4F)c4ccc([nH]4)c(-c4c(F)c(F)c(F)c(F)c4F)c4nc(c(-c5c(F)c(F)c(F)c(F)c5F)c5ccc2[nH]5)C=C4)C=C3)cc1
REMARK SMILES IDX 1 1 2 2 23 3 3 5 4 6 5 7 6 8 7 9 8 10 9 12 10 13 22 14 11 15
REMARK SMILES IDX 21 16 12 17 13 18 14 19 15 20 16 21 20 22 17 23 19 24 18 25
REMARK SMILES IDX 24 26 25 27 26 28 27 29 28 30 29 32 30 33 31 34 92 35 32 36
REMARK SMILES IDX 91 37 33 38 34 39 35 40 85 41 36 42 90 43 84 44 86 45 37 46
REMARK SMILES IDX 89 47 83 48 82 49 38 51 70 52 50 53 69 54 51 55 54 56 68 57
REMARK SMILES IDX 87 58 52 59 53 60 67 62 88 63 55 64 39 65 40 66 48 67 41 68
REMARK SMILES IDX 42 69 46 70 49 71 43 72 44 73 47 74 45 75 71 76 72 77 80 78
REMARK SMILES IDX 73 79 74 80 78 81 81 82 75 83 76 84 79 85 77 86 56 87 57 88
REMARK SMILES IDX 65 89 58 90 59 91 63 92 66 93 60 94 61 95 64 96 62 97
REMARK H PARENT 23 4 8 11 27 31 86 50 54 61
REMARK Flexibility Score: inf
ROOT
ATOM      1  O   UNL A   1      33.556  28.559  25.758  1.00  0.00    -0.275 OA
ATOM      2  C   UNL A   1      33.001  29.217  24.883  1.00  0.00     0.220 C 
ATOM      3  N   UNL A   1      32.112  30.228  25.172  1.00  0.00    -0.356 N 
ATOM      4  H   UNL A   1      31.736  30.766  24.438  1.00  0.00     0.163 HD
ENDROOT
BRANCH   2   5
ATOM      5  C   UNL A   1      33.330  29.020  23.413  1.00  0.00     0.100 C 
BRANCH   5   6
ATOM      6  C   UNL A   1      33.473  27.598  22.846  1.00  0.00     0.020 C 
BRANCH   6   7
ATOM      7  C   UNL A   1      32.316  26.947  22.089  1.00  0.00     0.101 C 
BRANCH   7   8
ATOM      8  C   UNL A   1      30.859  27.220  22.497  1.00  0.00     0.224 C 
ATOM      9  O   UNL A   1      30.248  28.182  22.028  1.00  0.00    -0.275 OA
ATOM     10  N   UNL A   1      30.156  26.260  23.184  1.00  0.00    -0.326 N 
ATOM     11  H   UNL A   1      29.227  26.118  22.895  1.00  0.00     0.169 HD
BRANCH  10  12
ATOM     12  C   UNL A   1      30.595  25.461  24.241  1.00  0.00     0.041 A 
ATOM     13  C   UNL A   1      30.667  24.080  24.092  1.00  0.00     0.027 A 
ATOM     14  C   UNL A   1      30.956  26.031  25.452  1.00  0.00     0.027 A 
ATOM     15  C   UNL A   1      31.329  23.318  25.067  1.00  0.00     0.016 A 
ATOM     16  C   UNL A   1      31.609  25.270  26.426  1.00  0.00     0.016 A 
ATOM     17  C   UNL A   1      31.884  23.921  26.212  1.00  0.00     0.040 A 
BRANCH  17  18
ATOM     18  C   UNL A   1      32.928  23.144  26.967  1.00  0.00     0.254 C 
ATOM     19  O   UNL A   1      32.588  22.625  28.032  1.00  0.00    -0.269 OA
ATOM     20  N   UNL A   1      34.138  22.821  26.368  1.00  0.00    -0.334 N 
ATOM     21  C   UNL A   1      35.079  23.744  25.733  1.00  0.00     0.148 C 
ATOM     22  C   UNL A   1      34.730  21.507  26.641  1.00  0.00     0.148 C 
ATOM     23  C   UNL A   1      35.643  23.107  24.458  1.00  0.00     0.181 C 
ATOM     24  C   UNL A   1      35.352  20.931  25.359  1.00  0.00     0.181 C 
ATOM     25  O   UNL A   1      36.280  21.855  24.761  1.00  0.00    -0.378 OA
ENDBRANCH  17  18
ENDBRANCH  10  12
ENDBRANCH   7   8
ENDBRANCH   6   7
ENDBRANCH   5   6
ENDBRANCH   2   5
BRANCH   3  26
ATOM     26  C   UNL A   1      31.718  30.515  26.539  1.00  0.00     0.117 C 
BRANCH  26  27
ATOM     27  C   UNL A   1      31.449  31.992  26.820  1.00  0.00     0.042 C 
BRANCH  27  28
ATOM     28  C   UNL A   1      32.678  32.898  26.881  1.00  0.00     0.118 C 
BRANCH  28  29
ATOM     29  N   UNL A   1      32.443  34.145  27.586  1.00  0.00    -0.352 N 
ATOM     30  C   UNL A   1      33.064  34.704  28.677  1.00  0.00     0.251 C 
ATOM     31  H   UNL A   1      31.708  34.687  27.218  1.00  0.00     0.163 HD
ATOM     32  O   UNL A   1      32.592  35.725  29.170  1.00  0.00    -0.269 OA
BRANCH  30  33
ATOM     33  C   UNL A   1      34.272  34.102  29.296  1.00  0.00     0.039 A 
ATOM     34  C   UNL A   1      34.085  33.077  30.234  1.00  0.00     0.014 A 
ATOM     35  C   UNL A   1      35.566  34.566  29.043  1.00  0.00     0.014 A 
ATOM     36  C   UNL A   1      35.184  32.484  30.863  1.00  0.00     0.010 A 
ATOM     37  C   UNL A   1      36.669  33.934  29.631  1.00  0.00     0.010 A 
ATOM     38  C   UNL A   1      36.491  32.883  30.544  1.00  0.00    -0.014 A 
BRANCH  38  39
ATOM     39  C   UNL A   1      37.662  32.178  31.138  1.00  0.00     0.031 A 
ATOM     40  C   UNL A   1      38.164  32.521  32.514  1.00  0.00     0.074 A 
ATOM     41  C   UNL A   1      38.302  31.237  30.417  1.00  0.00     0.049 A 
ATOM     42  N   UNL A   1      39.175  32.013  33.177  1.00  0.00    -0.248 NA
ATOM     43  C   UNL A   1      37.451  33.585  33.234  1.00  0.00     0.031 C 
ATOM     44  C   UNL A   1      37.949  30.836  29.054  1.00  0.00     0.029 A 
ATOM     45  N   UNL A   1      39.385  30.449  30.725  1.00  0.00    -0.354 N 
ATOM     46  C   UNL A   1      39.225  32.697  34.384  1.00  0.00     0.074 A 
ATOM     47  C   UNL A   1      38.167  33.687  34.346  1.00  0.00     0.031 C 
ATOM     48  C   UNL A   1      38.782  29.863  28.653  1.00  0.00     0.029 A 
ATOM     49  C   UNL A   1      39.747  29.592  29.715  1.00  0.00     0.049 A 
ATOM     50  H   UNL A   1      39.856  30.496  31.588  1.00  0.00     0.167 HD
ATOM     51  C   UNL A   1      40.060  32.507  35.435  1.00  0.00     0.037 A 
ATOM     52  C   UNL A   1      40.744  28.688  29.647  1.00  0.00     0.037 A 
ATOM     53  C   UNL A   1      41.100  31.510  35.487  1.00  0.00     0.049 A 
ATOM     54  C   UNL A   1      41.652  28.493  30.830  1.00  0.00     0.074 A 
ATOM     55  C   UNL A   1      41.957  31.211  36.533  1.00  0.00     0.029 A 
ATOM     56  N   UNL A   1      41.426  30.651  34.449  1.00  0.00    -0.354 N 
ATOM     57  N   UNL A   1      41.644  29.103  31.989  1.00  0.00    -0.248 NA
ATOM     58  C   UNL A   1      42.703  27.473  30.696  1.00  0.00     0.031 C 
ATOM     59  C   UNL A   1      42.828  30.199  36.115  1.00  0.00     0.029 A 
ATOM     60  C   UNL A   1      42.484  29.835  34.824  1.00  0.00     0.049 A 
ATOM     61  H   UNL A   1      40.974  30.623  33.576  1.00  0.00     0.167 HD
ATOM     62  C   UNL A   1      42.668  28.527  32.729  1.00  0.00     0.074 A 
ATOM     63  C   UNL A   1      43.265  27.506  31.895  1.00  0.00     0.031 C 
ATOM     64  C   UNL A   1      43.073  28.819  33.990  1.00  0.00     0.037 A 
BRANCH  51  65
ATOM     65  C   UNL A   1      39.887  33.399  36.631  1.00  0.00     0.064 A 
ATOM     66  C   UNL A   1      40.576  34.616  36.743  1.00  0.00     0.173 A 
ATOM     67  C   UNL A   1      38.982  33.062  37.647  1.00  0.00     0.173 A 
ATOM     68  F   UNL A   1      41.459  34.982  35.802  1.00  0.00    -0.203 F 
ATOM     69  C   UNL A   1      40.385  35.449  37.843  1.00  0.00     0.198 A 
ATOM     70  C   UNL A   1      38.771  33.909  38.732  1.00  0.00     0.198 A 
ATOM     71  F   UNL A   1      38.290  31.914  37.584  1.00  0.00    -0.203 F 
ATOM     72  F   UNL A   1      41.084  36.587  37.949  1.00  0.00    -0.200 F 
ATOM     73  C   UNL A   1      39.478  35.099  38.832  1.00  0.00     0.200 A 
ATOM     74  F   UNL A   1      37.885  33.576  39.681  1.00  0.00    -0.200 F 
ATOM     75  F   UNL A   1      39.288  35.906  39.885  1.00  0.00    -0.200 F 
ENDBRANCH  51  65
BRANCH  52  76
ATOM     76  C   UNL A   1      40.917  27.871  28.419  1.00  0.00     0.064 A 
ATOM     77  C   UNL A   1      41.746  28.306  27.377  1.00  0.00     0.173 A 
ATOM     78  C   UNL A   1      40.255  26.645  28.261  1.00  0.00     0.173 A 
ATOM     79  F   UNL A   1      42.381  29.484  27.474  1.00  0.00    -0.203 F 
ATOM     80  C   UNL A   1      41.893  27.555  26.214  1.00  0.00     0.198 A 
ATOM     81  C   UNL A   1      40.424  25.881  27.108  1.00  0.00     0.198 A 
ATOM     82  F   UNL A   1      39.452  26.185  29.231  1.00  0.00    -0.203 F 
ATOM     83  F   UNL A   1      42.658  28.015  25.214  1.00  0.00    -0.200 F 
ATOM     84  C   UNL A   1      41.237  26.340  26.082  1.00  0.00     0.200 A 
ATOM     85  F   UNL A   1      39.797  24.703  26.990  1.00  0.00    -0.200 F 
ATOM     86  F   UNL A   1      41.382  25.616  24.965  1.00  0.00    -0.200 F 
ENDBRANCH  52  76
BRANCH  64  87
ATOM     87  C   UNL A   1      44.199  28.003  34.554  1.00  0.00     0.064 A 
ATOM     88  C   UNL A   1      43.973  26.769  35.182  1.00  0.00     0.173 A 
ATOM     89  C   UNL A   1      45.524  28.454  34.450  1.00  0.00     0.173 A 
ATOM     90  F   UNL A   1      42.722  26.302  35.320  1.00  0.00    -0.203 F 
ATOM     91  C   UNL A   1      45.028  26.031  35.712  1.00  0.00     0.198 A 
ATOM     92  C   UNL A   1      46.579  27.700  34.958  1.00  0.00     0.198 A 
ATOM     93  F   UNL A   1      45.795  29.625  33.855  1.00  0.00    -0.203 F 
ATOM     94  F   UNL A   1      44.783  24.881  36.354  1.00  0.00    -0.200 F 
ATOM     95  C   UNL A   1      46.331  26.495  35.596  1.00  0.00     0.200 A 
ATOM     96  F   UNL A   1      47.838  28.145  34.836  1.00  0.00    -0.200 F 
ATOM     97  F   UNL A   1      47.344  25.784  36.108  1.00  0.00    -0.200 F 
ENDBRANCH  64  87
ENDBRANCH  38  39
ENDBRANCH  30  33
ENDBRANCH  28  29
ENDBRANCH  27  28
ENDBRANCH  26  27
ENDBRANCH   3  26
TORSDOF 15
ENDMDL
MODEL 2
REMARK VINA RESULT:     -11.9      0.427      7.351
REMARK SMILES O=C(CCCC(=O)Nc1ccc(C(=O)N2CCOCC2)cc1)NCCCNC(=O)c1ccc(-c2c3nc(c(-c4c(F)c(F)c(F)c(F)c4F)c4ccc([nH]4)c(-c4c(F)c(F)c(F)c(F)c4F)c4nc(c(-c5c(F)c(F)c(F)c(F)c5F)c5ccc2[nH]5)C=C4)C=C3)cc1
REMARK SMILES IDX 1 1 2 2 23 3 3 5 4 6 5 7 6 8 7 9 8 10 9 12 10 13 22 14 11 15
REMARK SMILES IDX 21 16 12 17 13 18 14 19 15 20 16 21 20 22 17 23 19 24 18 25
REMARK SMILES IDX 24 26 25 27 26 28 27 29 28 30 29 32 30 33 31 34 92 35 32 36
REMARK SMILES IDX 91 37 33 38 34 39 35 40 85 41 36 42 90 43 84 44 86 45 37 46
REMARK SMILES IDX 89 47 83 48 82 49 38 51 70 52 50 53 69 54 51 55 54 56 68 57
REMARK SMILES IDX 87 58 52 59 53 60 67 62 88 63 55 64 39 65 40 66 48 67 41 68
REMARK SMILES IDX 42 69 46 70 49 71 43 72 44 73 47 74 45 75 71 76 72 77 80 78
REMARK SMILES IDX 73 79 74 80 78 81 81 82 75 83 76 84 79 85 77 86 56 87 57 88
REMARK SMILES IDX 65 89 58 90 59 91 63 92 66 93 60 94 61 95 64 96 62 97
REMARK H PARENT 23 4 8 11 27 31 86 50 54 61
REMARK Flexibility Score: inf
ROOT
ATOM      1  O   UNL A   1      33.554  28.555  25.764  1.00  0.00    -0.275 OA
ATOM      2  C   UNL A   1      32.997  29.211  24.890  1.00  0.00     0.220 C 
ATOM      3  N   UNL A   1      32.103  30.218  25.178  1.00  0.00    -0.356 N 
ATOM      4  H   UNL A   1      31.726  30.755  24.444  1.00  0.00     0.163 HD
ENDROOT
BRANCH   2   5
ATOM      5  C   UNL A   1      33.329  29.017  23.419  1.00  0.00     0.100 C 
BRANCH   5   6
ATOM      6  C   UNL A   1      33.471  27.595  22.850  1.00  0.00     0.020 C 
BRANCH   6   7
ATOM      7  C   UNL A   1      32.313  26.945  22.096  1.00  0.00     0.101 C 
BRANCH   7   8
ATOM      8  C   UNL A   1      30.857  27.220  22.506  1.00  0.00     0.224 C 
ATOM      9  O   UNL A   1      30.246  28.182  22.036  1.00  0.00    -0.275 OA
ATOM     10  N   UNL A   1      30.155  26.261  23.196  1.00  0.00    -0.326 N 
ATOM     11  H   UNL A   1      29.224  26.120  22.909  1.00  0.00     0.169 HD
BRANCH  10  12
ATOM     12  C   UNL A   1      30.595  25.464  24.253  1.00  0.00     0.041 A 
ATOM     13  C   UNL A   1      30.673  24.084  24.104  1.00  0.00     0.027 A 
ATOM     14  C   UNL A   1      30.951  26.035  25.466  1.00  0.00     0.027 A 
ATOM     15  C   UNL A   1      31.336  23.324  25.080  1.00  0.00     0.016 A 
ATOM     16  C   UNL A   1      31.605  25.277  26.441  1.00  0.00     0.016 A 
ATOM     17  C   UNL A   1      31.887  23.929  26.226  1.00  0.00     0.040 A 
BRANCH  17  18
ATOM     18  C   UNL A   1      32.933  23.156  26.983  1.00  0.00     0.254 C 
ATOM     19  O   UNL A   1      32.589  22.621  28.038  1.00  0.00    -0.269 OA
ATOM     20  N   UNL A   1      34.152  22.854  26.393  1.00  0.00    -0.334 N 
ATOM     21  C   UNL A   1      35.089  23.796  25.777  1.00  0.00     0.148 C 
ATOM     22  C   UNL A   1      34.757  21.545  26.657  1.00  0.00     0.148 C 
ATOM     23  C   UNL A   1      35.673  23.180  24.501  1.00  0.00     0.181 C 
ATOM     24  C   UNL A   1      35.399  20.991  25.375  1.00  0.00     0.181 C 
ATOM     25  O   UNL A   1      36.322  21.932  24.797  1.00  0.00    -0.378 OA
ENDBRANCH  17  18
ENDBRANCH  10  12
ENDBRANCH   7   8
ENDBRANCH   6   7
ENDBRANCH   5   6
ENDBRANCH   2   5
BRANCH   3  26
ATOM     26  C   UNL A   1      31.706  30.501  26.544  1.00  0.00     0.117 C 
BRANCH  26  27
ATOM     27  C   UNL A   1      31.452  31.980  26.832  1.00  0.00     0.042 C 
BRANCH  27  28
ATOM     28  C   UNL A   1      32.691  32.871  26.904  1.00  0.00     0.118 C 
BRANCH  28  29
ATOM     29  N   UNL A   1      32.451  34.145  27.558  1.00  0.00    -0.352 N 
ATOM     30  C   UNL A   1      33.058  34.744  28.635  1.00  0.00     0.251 C 
ATOM     31  H   UNL A   1      31.723  34.674  27.158  1.00  0.00     0.163 HD
ATOM     32  O   UNL A   1      32.582  35.784  29.082  1.00  0.00    -0.269 OA
BRANCH  30  33
ATOM     33  C   UNL A   1      34.254  34.162  29.295  1.00  0.00     0.039 A 
ATOM     34  C   UNL A   1      34.048  33.284  30.368  1.00  0.00     0.014 A 
ATOM     35  C   UNL A   1      35.561  34.513  28.943  1.00  0.00     0.014 A 
ATOM     36  C   UNL A   1      35.137  32.719  31.039  1.00  0.00     0.010 A 
ATOM     37  C   UNL A   1      36.650  33.905  29.579  1.00  0.00     0.010 A 
ATOM     38  C   UNL A   1      36.451  32.996  30.631  1.00  0.00    -0.014 A 
BRANCH  38  39
ATOM     39  C   UNL A   1      37.604  32.312  31.280  1.00  0.00     0.031 A 
ATOM     40  C   UNL A   1      38.358  31.216  30.577  1.00  0.00     0.074 A 
ATOM     41  C   UNL A   1      37.959  32.660  32.532  1.00  0.00     0.049 A 
ATOM     42  N   UNL A   1      39.378  30.510  31.001  1.00  0.00    -0.248 NA
ATOM     43  C   UNL A   1      37.897  30.852  29.231  1.00  0.00     0.031 C 
ATOM     44  C   UNL A   1      37.289  33.676  33.346  1.00  0.00     0.029 A 
ATOM     45  N   UNL A   1      38.968  32.198  33.342  1.00  0.00    -0.354 N 
ATOM     46  C   UNL A   1      39.676  29.616  29.981  1.00  0.00     0.074 A 
ATOM     47  C   UNL A   1      38.701  29.840  28.933  1.00  0.00     0.031 C 
ATOM     48  C   UNL A   1      37.918  33.776  34.528  1.00  0.00     0.029 A 
ATOM     49  C   UNL A   1      39.015  32.813  34.570  1.00  0.00     0.049 A 
ATOM     50  H   UNL A   1      39.598  31.492  33.069  1.00  0.00     0.167 HD
ATOM     51  C   UNL A   1      40.679  28.706  29.914  1.00  0.00     0.037 A 
ATOM     52  C   UNL A   1      39.845  32.626  35.613  1.00  0.00     0.037 A 
ATOM     53  C   UNL A   1      41.664  28.493  30.944  1.00  0.00     0.049 A 
ATOM     54  C   UNL A   1      40.953  31.615  35.510  1.00  0.00     0.074 A 
ATOM     55  C   UNL A   1      42.748  27.630  30.937  1.00  0.00     0.029 A 
ATOM     56  N   UNL A   1      41.686  29.146  32.166  1.00  0.00    -0.354 N 
ATOM     57  N   UNL A   1      41.260  30.823  34.513  1.00  0.00    -0.248 NA
ATOM     58  C   UNL A   1      41.837  31.480  36.677  1.00  0.00     0.031 C 
ATOM     59  C   UNL A   1      43.402  27.733  32.170  1.00  0.00     0.029 A 
ATOM     60  C   UNL A   1      42.753  28.692  32.928  1.00  0.00     0.049 A 
ATOM     61  H   UNL A   1      41.040  29.832  32.452  1.00  0.00     0.167 HD
ATOM     62  C   UNL A   1      42.384  30.116  34.920  1.00  0.00     0.074 A 
ATOM     63  C   UNL A   1      42.714  30.584  36.250  1.00  0.00     0.031 C 
ATOM     64  C   UNL A   1      43.078  29.164  34.250  1.00  0.00     0.037 A 
BRANCH  51  65
ATOM     65  C   UNL A   1      40.769  27.861  28.676  1.00  0.00     0.064 A 
ATOM     66  C   UNL A   1      40.041  26.667  28.548  1.00  0.00     0.173 A 
ATOM     67  C   UNL A   1      41.545  28.275  27.584  1.00  0.00     0.173 A 
ATOM     68  F   UNL A   1      39.290  26.223  29.566  1.00  0.00    -0.203 F 
ATOM     69  C   UNL A   1      40.111  25.907  27.383  1.00  0.00     0.198 A 
ATOM     70  C   UNL A   1      41.590  27.528  26.410  1.00  0.00     0.198 A 
ATOM     71  F   UNL A   1      42.252  29.414  27.651  1.00  0.00    -0.203 F 
ATOM     72  F   UNL A   1      39.440  24.750  27.299  1.00  0.00    -0.200 F 
ATOM     73  C   UNL A   1      40.878  26.342  26.313  1.00  0.00     0.200 A 
ATOM     74  F   UNL A   1      42.322  27.956  25.371  1.00  0.00    -0.200 F 
ATOM     75  F   UNL A   1      40.936  25.614  25.189  1.00  0.00    -0.200 F 
ENDBRANCH  51  65
BRANCH  52  76
ATOM     76  C   UNL A   1      39.679  33.442  36.844  1.00  0.00     0.064 A 
ATOM     77  C   UNL A   1      38.831  33.021  37.876  1.00  0.00     0.173 A 
ATOM     78  C   UNL A   1      40.360  34.656  37.009  1.00  0.00     0.173 A 
ATOM     79  F   UNL A   1      38.142  31.877  37.751  1.00  0.00    -0.203 F 
ATOM     80  C   UNL A   1      38.654  33.793  39.021  1.00  0.00     0.198 A 
ATOM     81  C   UNL A   1      40.203  35.415  38.167  1.00  0.00     0.198 A 
ATOM     82  F   UNL A   1      41.184  35.100  36.050  1.00  0.00    -0.203 F 
ATOM     83  F   UNL A   1      37.803  33.390  39.974  1.00  0.00    -0.200 F 
ATOM     84  C   UNL A   1      39.345  34.987  39.169  1.00  0.00     0.200 A 
ATOM     85  F   UNL A   1      40.881  36.563  38.310  1.00  0.00    -0.200 F 
ATOM     86  F   UNL A   1      39.177  35.727  40.272  1.00  0.00    -0.200 F 
ENDBRANCH  52  76
BRANCH  64  87
ATOM     87  C   UNL A   1      44.284  28.587  34.932  1.00  0.00     0.064 A 
ATOM     88  C   UNL A   1      45.555  29.166  34.798  1.00  0.00     0.173 A 
ATOM     89  C   UNL A   1      44.163  27.449  35.744  1.00  0.00     0.173 A 
ATOM     90  F   UNL A   1      45.726  30.245  34.020  1.00  0.00    -0.203 F 
ATOM     91  C   UNL A   1      46.665  28.608  35.428  1.00  0.00     0.198 A 
ATOM     92  C   UNL A   1      45.271  26.910  36.393  1.00  0.00     0.198 A 
ATOM     93  F   UNL A   1      42.969  26.859  35.909  1.00  0.00    -0.203 F 
ATOM     94  F   UNL A   1      47.878  29.147  35.243  1.00  0.00    -0.200 F 
ATOM     95  C   UNL A   1      46.522  27.484  36.228  1.00  0.00     0.200 A 
ATOM     96  F   UNL A   1      45.129  25.830  37.175  1.00  0.00    -0.200 F 
ATOM     97  F   UNL A   1      47.592  26.950  36.831  1.00  0.00    -0.200 F 
ENDBRANCH  64  87
ENDBRANCH  38  39
ENDBRANCH  30  33
ENDBRANCH  28  29
ENDBRANCH  27  28
ENDBRANCH  26  27
ENDBRANCH   3  26
TORSDOF 15
ENDMDL
MODEL 3
REMARK VINA RESULT:     -11.8      1.064      2.122
REMARK SMILES O=C(CCCC(=O)Nc1ccc(C(=O)N2CCOCC2)cc1)NCCCNC(=O)c1ccc(-c2c3nc(c(-c4c(F)c(F)c(F)c(F)c4F)c4ccc([nH]4)c(-c4c(F)c(F)c(F)c(F)c4F)c4nc(c(-c5c(F)c(F)c(F)c(F)c5F)c5ccc2[nH]5)C=C4)C=C3)cc1
REMARK SMILES IDX 1 1 2 2 23 3 3 5 4 6 5 7 6 8 7 9 8 10 9 12 10 13 22 14 11 15
REMARK SMILES IDX 21 16 12 17 13 18 14 19 15 20 16 21 20 22 17 23 19 24 18 25
REMARK SMILES IDX 24 26 25 27 26 28 27 29 28 30 29 32 30 33 31 34 92 35 32 36
REMARK SMILES IDX 91 37 33 38 34 39 35 40 85 41 36 42 90 43 84 44 86 45 37 46
REMARK SMILES IDX 89 47 83 48 82 49 38 51 70 52 50 53 69 54 51 55 54 56 68 57
REMARK SMILES IDX 87 58 52 59 53 60 67 62 88 63 55 64 39 65 40 66 48 67 41 68
REMARK SMILES IDX 42 69 46 70 49 71 43 72 44 73 47 74 45 75 71 76 72 77 80 78
REMARK SMILES IDX 73 79 74 80 78 81 81 82 75 83 76 84 79 85 77 86 56 87 57 88
REMARK SMILES IDX 65 89 58 90 59 91 63 92 66 93 60 94 61 95 64 96 62 97
REMARK H PARENT 23 4 8 11 27 31 86 50 54 61
REMARK Flexibility Score: inf
ROOT
ATOM      1  O   UNL A   1      31.570  28.843  27.426  1.00  0.00    -0.275 OA
ATOM      2  C   UNL A   1      32.379  29.073  26.532  1.00  0.00     0.220 C 
ATOM      3  N   UNL A   1      32.277  30.173  25.709  1.00  0.00    -0.356 N 
ATOM      4  H   UNL A   1      32.983  30.346  25.045  1.00  0.00     0.163 HD
ENDROOT
BRANCH   2   5
ATOM      5  C   UNL A   1      33.608  28.203  26.331  1.00  0.00     0.100 C 
BRANCH   5   6
ATOM      6  C   UNL A   1      33.622  27.147  25.212  1.00  0.00     0.020 C 
BRANCH   6   7
ATOM      7  C   UNL A   1      33.651  27.575  23.745  1.00  0.00     0.101 C 
BRANCH   7   8
ATOM      8  C   UNL A   1      32.346  27.752  22.953  1.00  0.00     0.224 C 
ATOM      9  O   UNL A   1      31.798  28.853  22.888  1.00  0.00    -0.275 OA
ATOM     10  N   UNL A   1      31.922  26.749  22.114  1.00  0.00    -0.326 N 
ATOM     11  H   UNL A   1      31.574  27.038  21.241  1.00  0.00     0.169 HD
BRANCH  10  12
ATOM     12  C   UNL A   1      31.923  25.373  22.345  1.00  0.00     0.041 A 
ATOM     13  C   UNL A   1      32.911  24.570  21.787  1.00  0.00     0.027 A 
ATOM     14  C   UNL A   1      30.937  24.789  23.126  1.00  0.00     0.027 A 
ATOM     15  C   UNL A   1      33.039  23.240  22.217  1.00  0.00     0.016 A 
ATOM     16  C   UNL A   1      31.061  23.462  23.548  1.00  0.00     0.016 A 
ATOM     17  C   UNL A   1      32.161  22.693  23.171  1.00  0.00     0.040 A 
BRANCH  17  18
ATOM     18  C   UNL A   1      32.607  21.451  23.894  1.00  0.00     0.254 C 
ATOM     19  O   UNL A   1      32.153  20.375  23.503  1.00  0.00    -0.269 OA
ATOM     20  N   UNL A   1      33.668  21.498  24.788  1.00  0.00    -0.334 N 
ATOM     21  C   UNL A   1      33.809  22.391  25.939  1.00  0.00     0.148 C 
ATOM     22  C   UNL A   1      34.607  20.372  24.825  1.00  0.00     0.148 C 
ATOM     23  C   UNL A   1      35.261  22.874  26.040  1.00  0.00     0.181 C 
ATOM     24  C   UNL A   1      36.043  20.888  25.003  1.00  0.00     0.181 C 
ATOM     25  O   UNL A   1      36.156  21.754  26.147  1.00  0.00    -0.378 OA
ENDBRANCH  17  18
ENDBRANCH  10  12
ENDBRANCH   7   8
ENDBRANCH   6   7
ENDBRANCH   5   6
ENDBRANCH   2   5
BRANCH   3  26
ATOM     26  C   UNL A   1      31.150  31.080  25.804  1.00  0.00     0.117 C 
BRANCH  26  27
ATOM     27  C   UNL A   1      31.298  32.159  26.876  1.00  0.00     0.042 C 
BRANCH  27  28
ATOM     28  C   UNL A   1      32.629  32.910  26.892  1.00  0.00     0.118 C 
BRANCH  28  29
ATOM     29  N   UNL A   1      32.575  34.168  27.615  1.00  0.00    -0.352 N 
ATOM     30  C   UNL A   1      33.278  34.621  28.705  1.00  0.00     0.251 C 
ATOM     31  H   UNL A   1      31.918  34.811  27.262  1.00  0.00     0.163 HD
ATOM     32  O   UNL A   1      32.956  35.690  29.216  1.00  0.00    -0.269 OA
BRANCH  30  33
ATOM     33  C   UNL A   1      34.398  33.850  29.302  1.00  0.00     0.039 A 
ATOM     34  C   UNL A   1      35.706  34.254  29.001  1.00  0.00     0.014 A 
ATOM     35  C   UNL A   1      34.201  32.704  30.078  1.00  0.00     0.014 A 
ATOM     36  C   UNL A   1      36.800  33.556  29.519  1.00  0.00     0.010 A 
ATOM     37  C   UNL A   1      35.296  32.037  30.642  1.00  0.00     0.010 A 
ATOM     38  C   UNL A   1      36.608  32.459  30.374  1.00  0.00    -0.014 A 
BRANCH  38  39
ATOM     39  C   UNL A   1      37.774  31.782  31.008  1.00  0.00     0.031 A 
ATOM     40  C   UNL A   1      38.217  32.133  32.402  1.00  0.00     0.074 A 
ATOM     41  C   UNL A   1      38.464  30.861  30.308  1.00  0.00     0.049 A 
ATOM     42  N   UNL A   1      39.216  31.648  33.101  1.00  0.00    -0.248 NA
ATOM     43  C   UNL A   1      37.451  33.176  33.099  1.00  0.00     0.031 C 
ATOM     44  C   UNL A   1      38.171  30.455  28.932  1.00  0.00     0.029 A 
ATOM     45  N   UNL A   1      39.555  30.100  30.653  1.00  0.00    -0.354 N 
ATOM     46  C   UNL A   1      39.204  32.329  34.311  1.00  0.00     0.074 A 
ATOM     47  C   UNL A   1      38.123  33.292  34.237  1.00  0.00     0.031 C 
ATOM     48  C   UNL A   1      39.044  29.505  28.560  1.00  0.00     0.029 A 
ATOM     49  C   UNL A   1      39.976  29.255  29.655  1.00  0.00     0.049 A 
ATOM     50  H   UNL A   1      39.993  30.155  31.533  1.00  0.00     0.167 HD
ATOM     51  C   UNL A   1      40.005  32.157  35.391  1.00  0.00     0.037 A 
ATOM     52  C   UNL A   1      40.997  28.378  29.622  1.00  0.00     0.037 A 
ATOM     53  C   UNL A   1      41.068  31.187  35.478  1.00  0.00     0.049 A 
ATOM     54  C   UNL A   1      41.866  28.202  30.836  1.00  0.00     0.074 A 
ATOM     55  C   UNL A   1      41.894  30.906  36.554  1.00  0.00     0.029 A 
ATOM     56  N   UNL A   1      41.454  30.340  34.451  1.00  0.00    -0.354 N 
ATOM     57  N   UNL A   1      41.801  28.808  31.995  1.00  0.00    -0.248 NA
ATOM     58  C   UNL A   1      42.947  27.210  30.738  1.00  0.00     0.031 C 
ATOM     59  C   UNL A   1      42.805  29.918  36.165  1.00  0.00     0.029 A 
ATOM     60  C   UNL A   1      42.518  29.550  34.861  1.00  0.00     0.049 A 
ATOM     61  H   UNL A   1      41.035  30.304  33.561  1.00  0.00     0.167 HD
ATOM     62  C   UNL A   1      42.811  28.255  32.771  1.00  0.00     0.074 A 
ATOM     63  C   UNL A   1      43.465  27.253  31.957  1.00  0.00     0.031 C 
ATOM     64  C   UNL A   1      43.162  28.553  34.046  1.00  0.00     0.037 A 
BRANCH  51  65
ATOM     65  C   UNL A   1      39.766  33.040  36.582  1.00  0.00     0.064 A 
ATOM     66  C   UNL A   1      40.469  34.242  36.757  1.00  0.00     0.173 A 
ATOM     67  C   UNL A   1      38.785  32.711  37.528  1.00  0.00     0.173 A 
ATOM     68  F   UNL A   1      41.424  34.598  35.884  1.00  0.00    -0.203 F 
ATOM     69  C   UNL A   1      40.217  35.067  37.850  1.00  0.00     0.198 A 
ATOM     70  C   UNL A   1      38.515  33.551  38.605  1.00  0.00     0.198 A 
ATOM     71  F   UNL A   1      38.076  31.578  37.402  1.00  0.00    -0.203 F 
ATOM     72  F   UNL A   1      40.930  36.189  38.019  1.00  0.00    -0.200 F 
ATOM     73  C   UNL A   1      39.236  34.725  38.768  1.00  0.00     0.200 A 
ATOM     74  F   UNL A   1      37.557  33.227  39.485  1.00  0.00    -0.200 F 
ATOM     75  F   UNL A   1      38.988  35.525  39.815  1.00  0.00    -0.200 F 
ENDBRANCH  51  65
BRANCH  52  76
ATOM     76  C   UNL A   1      41.236  27.570  28.398  1.00  0.00     0.064 A 
ATOM     77  C   UNL A   1      40.567  26.355  28.197  1.00  0.00     0.173 A 
ATOM     78  C   UNL A   1      42.138  27.993  27.412  1.00  0.00     0.173 A 
ATOM     79  F   UNL A   1      39.712  25.900  29.124  1.00  0.00    -0.203 F 
ATOM     80  C   UNL A   1      40.805  25.583  27.062  1.00  0.00     0.198 A 
ATOM     81  C   UNL A   1      42.355  27.233  26.264  1.00  0.00     0.198 A 
ATOM     82  F   UNL A   1      42.800  29.149  27.558  1.00  0.00    -0.203 F 
ATOM     83  F   UNL A   1      40.185  24.405  26.914  1.00  0.00    -0.200 F 
ATOM     84  C   UNL A   1      41.693  26.025  26.093  1.00  0.00     0.200 A 
ATOM     85  F   UNL A   1      43.206  27.669  25.326  1.00  0.00    -0.200 F 
ATOM     86  F   UNL A   1      41.919  25.285  25.001  1.00  0.00    -0.200 F 
ENDBRANCH  52  76
BRANCH  64  87
ATOM     87  C   UNL A   1      44.288  27.763  34.649  1.00  0.00     0.064 A 
ATOM     88  C   UNL A   1      45.618  28.207  34.583  1.00  0.00     0.173 A 
ATOM     89  C   UNL A   1      44.032  26.556  35.315  1.00  0.00     0.173 A 
ATOM     90  F   UNL A   1      45.917  29.348  33.942  1.00  0.00    -0.203 F 
ATOM     91  C   UNL A   1      46.651  27.456  35.135  1.00  0.00     0.198 A 
ATOM     92  C   UNL A   1      45.065  25.820  35.890  1.00  0.00     0.198 A 
ATOM     93  F   UNL A   1      42.778  26.089  35.411  1.00  0.00    -0.203 F 
ATOM     94  F   UNL A   1      47.920  27.873  35.013  1.00  0.00    -0.200 F 
ATOM     95  C   UNL A   1      46.375  26.266  35.792  1.00  0.00     0.200 A 
ATOM     96  F   UNL A   1      44.795  24.676  36.534  1.00  0.00    -0.200 F 
ATOM     97  F   UNL A   1      47.371  25.544  36.321  1.00  0.00    -0.200 F 
ENDBRANCH  64  87
ENDBRANCH  38  39
ENDBRANCH  30  33
ENDBRANCH  28  29
ENDBRANCH  27  28
ENDBRANCH  26  27
ENDBRANCH   3  26
TORSDOF 15
ENDMDL
