MODEL 1
REMARK VINA RESULT:     -12.9      0.000      0.000
REMARK SMILES COc1ccc(/C(=C/C(=O)NCCCNC(=O)c2ccc(-c3c4nc(c(-c5c(F)c(F)c(F)c(F)c5F)c5ccc([nH]5)c(-c5c(F)c(F)c(F)c(F)c5F)c5nc(c(-c6c(F)c(F)c(F)c(F)c6F)c6ccc3[nH]6)C=C5)C=C4)cc2)C(C)C)cc1C
REMARK SMILES IDX 13 1 12 2 11 3 9 4 10 5 8 7 7 8 6 9 3 10 4 11 85 12 5 13
REMARK SMILES IDX 84 14 86 15 2 16 1 17 81 18 82 19 83 20 14 21 15 22 16 23
REMARK SMILES IDX 17 25 18 26 19 27 80 28 20 29 79 30 21 31 22 32 23 33 73 34
REMARK SMILES IDX 24 35 78 36 72 37 74 38 25 39 77 40 71 41 70 42 26 44 58 45
REMARK SMILES IDX 38 46 57 47 39 48 42 49 56 50 75 51 40 52 41 53 55 55 76 56
REMARK SMILES IDX 43 57 27 58 28 59 36 60 29 61 30 62 34 63 37 64 31 65 32 66
REMARK SMILES IDX 35 67 33 68 59 69 60 70 68 71 61 72 62 73 66 74 69 75 63 76
REMARK SMILES IDX 64 77 67 78 65 79 44 80 45 81 53 82 46 83 47 84 51 85 54 86
REMARK SMILES IDX 48 87 49 88 52 89 50 90
REMARK H PARENT 11 6 15 24 74 43 42 54
REMARK Flexibility Score: inf
ROOT
ATOM      1  C   UNL A   1      38.047  21.517  25.450  1.00  0.00     0.042 C 
ENDROOT
BRANCH   1   2
ATOM      2  C   UNL A   1      36.578  21.399  25.023  1.00  0.00     0.118 C 
BRANCH   2   3
ATOM      3  N   UNL A   1      35.682  21.347  26.179  1.00  0.00    -0.352 N 
ATOM      4  C   UNL A   1      34.733  22.115  26.759  1.00  0.00     0.244 C 
ATOM      5  O   UNL A   1      34.157  21.584  27.719  1.00  0.00    -0.270 OA
ATOM      6  H   UNL A   1      35.806  20.509  26.679  1.00  0.00     0.163 HD
BRANCH   4   7
ATOM      7  C   UNL A   1      34.243  23.488  26.393  1.00  0.00     0.075 C 
ATOM      8  C   UNL A   1      33.634  24.092  25.340  1.00  0.00    -0.033 C 
BRANCH   8   9
ATOM      9  C   UNL A   1      33.483  25.592  25.277  1.00  0.00    -0.021 A 
ATOM     10  C   UNL A   1      33.160  28.431  25.207  1.00  0.00     0.121 A 
ATOM     11  C   UNL A   1      32.752  27.698  26.312  1.00  0.00     0.047 A 
ATOM     12  C   UNL A   1      33.661  27.756  24.090  1.00  0.00    -0.008 A 
ATOM     13  C   UNL A   1      32.927  26.315  26.343  1.00  0.00     0.012 A 
ATOM     14  C   UNL A   1      33.817  26.351  24.139  1.00  0.00     0.015 A 
ATOM     15  C   UNL A   1      34.079  28.484  22.843  1.00  0.00     0.048 C 
BRANCH  10  16
ATOM     16  O   UNL A   1      33.046  29.794  25.154  1.00  0.00    -0.496 OA
ATOM     17  C   UNL A   1      31.874  30.299  25.790  1.00  0.00     0.278 C 
ENDBRANCH  10  16
ENDBRANCH   8   9
BRANCH   8  18
ATOM     18  C   UNL A   1      33.094  23.283  24.186  1.00  0.00     0.014 C 
ATOM     19  C   UNL A   1      34.157  22.974  23.115  1.00  0.00     0.012 C 
ATOM     20  C   UNL A   1      32.156  22.108  24.479  1.00  0.00     0.012 C 
ENDBRANCH   8  18
ENDBRANCH   4   7
ENDBRANCH   2   3
ENDBRANCH   1   2
BRANCH   1  21
ATOM     21  C   UNL A   1      38.506  22.874  25.938  1.00  0.00     0.118 C 
BRANCH  21  22
ATOM     22  N   UNL A   1      39.940  22.910  26.254  1.00  0.00    -0.352 N 
ATOM     23  C   UNL A   1      40.681  23.964  26.764  1.00  0.00     0.251 C 
ATOM     24  H   UNL A   1      40.439  22.080  26.080  1.00  0.00     0.163 HD
ATOM     25  O   UNL A   1      41.867  23.849  27.039  1.00  0.00    -0.269 OA
BRANCH  23  26
ATOM     26  C   UNL A   1      39.948  25.208  27.069  1.00  0.00     0.039 A 
ATOM     27  C   UNL A   1      40.371  26.360  26.400  1.00  0.00     0.014 A 
ATOM     28  C   UNL A   1      39.261  25.274  28.276  1.00  0.00     0.014 A 
ATOM     29  C   UNL A   1      40.360  27.567  27.089  1.00  0.00     0.010 A 
ATOM     30  C   UNL A   1      39.364  26.450  28.997  1.00  0.00     0.010 A 
ATOM     31  C   UNL A   1      39.989  27.574  28.434  1.00  0.00    -0.014 A 
BRANCH  31  32
ATOM     32  C   UNL A   1      40.381  28.647  29.349  1.00  0.00     0.031 A 
ATOM     33  C   UNL A   1      39.404  29.686  29.746  1.00  0.00     0.074 A 
ATOM     34  C   UNL A   1      41.627  28.684  29.883  1.00  0.00     0.049 A 
ATOM     35  N   UNL A   1      39.736  30.874  30.132  1.00  0.00    -0.248 NA
ATOM     36  C   UNL A   1      37.962  29.485  29.702  1.00  0.00     0.031 C 
ATOM     37  C   UNL A   1      42.075  29.517  31.000  1.00  0.00     0.029 A 
ATOM     38  N   UNL A   1      42.812  28.099  29.394  1.00  0.00    -0.354 N 
ATOM     39  C   UNL A   1      38.610  31.491  30.622  1.00  0.00     0.074 A 
ATOM     40  C   UNL A   1      37.523  30.599  30.294  1.00  0.00     0.031 C 
ATOM     41  C   UNL A   1      43.408  29.652  30.938  1.00  0.00     0.029 A 
ATOM     42  C   UNL A   1      43.850  29.007  29.717  1.00  0.00     0.049 A 
ATOM     43  H   UNL A   1      42.899  27.238  28.926  1.00  0.00     0.167 HD
ATOM     44  C   UNL A   1      38.734  32.634  31.355  1.00  0.00     0.037 A 
ATOM     45  C   UNL A   1      44.648  29.582  28.774  1.00  0.00     0.037 A 
ATOM     46  C   UNL A   1      40.123  33.062  31.454  1.00  0.00     0.049 A 
ATOM     47  C   UNL A   1      44.642  31.090  28.784  1.00  0.00     0.074 A 
ATOM     48  C   UNL A   1      41.086  32.913  32.440  1.00  0.00     0.029 A 
ATOM     49  N   UNL A   1      40.790  33.498  30.316  1.00  0.00    -0.354 N 
ATOM     50  N   UNL A   1      43.731  31.804  29.382  1.00  0.00    -0.248 NA
ATOM     51  C   UNL A   1      45.618  31.913  28.075  1.00  0.00     0.031 C 
ATOM     52  C   UNL A   1      42.341  33.263  31.889  1.00  0.00     0.029 A 
ATOM     53  C   UNL A   1      42.142  33.624  30.568  1.00  0.00     0.049 A 
ATOM     54  H   UNL A   1      40.360  33.690  29.451  1.00  0.00     0.167 HD
ATOM     55  C   UNL A   1      43.937  33.132  29.107  1.00  0.00     0.074 A 
ATOM     56  C   UNL A   1      45.150  33.151  28.316  1.00  0.00     0.031 C 
ATOM     57  C   UNL A   1      43.058  34.087  29.537  1.00  0.00     0.037 A 
BRANCH  44  58
ATOM     58  C   UNL A   1      37.624  33.205  32.210  1.00  0.00     0.064 A 
ATOM     59  C   UNL A   1      36.576  33.958  31.638  1.00  0.00     0.173 A 
ATOM     60  C   UNL A   1      37.564  33.083  33.609  1.00  0.00     0.173 A 
ATOM     61  F   UNL A   1      36.428  34.063  30.311  1.00  0.00    -0.203 F 
ATOM     62  C   UNL A   1      35.635  34.642  32.409  1.00  0.00     0.198 A 
ATOM     63  C   UNL A   1      36.662  33.817  34.386  1.00  0.00     0.198 A 
ATOM     64  F   UNL A   1      38.343  32.211  34.263  1.00  0.00    -0.203 F 
ATOM     65  F   UNL A   1      34.668  35.350  31.806  1.00  0.00    -0.200 F 
ATOM     66  C   UNL A   1      35.705  34.608  33.786  1.00  0.00     0.200 A 
ATOM     67  F   UNL A   1      36.728  33.749  35.724  1.00  0.00    -0.200 F 
ATOM     68  F   UNL A   1      34.838  35.310  34.527  1.00  0.00    -0.200 F 
ENDBRANCH  44  58
BRANCH  45  69
ATOM     69  C   UNL A   1      44.830  28.743  27.564  1.00  0.00     0.064 A 
ATOM     70  C   UNL A   1      45.718  27.655  27.635  1.00  0.00     0.173 A 
ATOM     71  C   UNL A   1      43.895  28.756  26.524  1.00  0.00     0.173 A 
ATOM     72  F   UNL A   1      46.630  27.597  28.619  1.00  0.00    -0.203 F 
ATOM     73  C   UNL A   1      45.596  26.567  26.775  1.00  0.00     0.198 A 
ATOM     74  C   UNL A   1      43.781  27.667  25.658  1.00  0.00     0.198 A 
ATOM     75  F   UNL A   1      43.009  29.756  26.422  1.00  0.00    -0.203 F 
ATOM     76  F   UNL A   1      46.379  25.492  26.941  1.00  0.00    -0.200 F 
ATOM     77  C   UNL A   1      44.607  26.562  25.806  1.00  0.00     0.200 A 
ATOM     78  F   UNL A   1      42.799  27.643  24.745  1.00  0.00    -0.200 F 
ATOM     79  F   UNL A   1      44.415  25.473  25.049  1.00  0.00    -0.200 F 
ENDBRANCH  45  69
BRANCH  57  80
ATOM     80  C   UNL A   1      43.003  35.540  29.116  1.00  0.00     0.064 A 
ATOM     81  C   UNL A   1      42.289  36.018  28.006  1.00  0.00     0.173 A 
ATOM     82  C   UNL A   1      43.575  36.544  29.940  1.00  0.00     0.173 A 
ATOM     83  F   UNL A   1      41.598  35.193  27.209  1.00  0.00    -0.203 F 
ATOM     84  C   UNL A   1      42.202  37.384  27.710  1.00  0.00     0.198 A 
ATOM     85  C   UNL A   1      43.436  37.906  29.675  1.00  0.00     0.198 A 
ATOM     86  F   UNL A   1      44.263  36.236  31.050  1.00  0.00    -0.203 F 
ATOM     87  F   UNL A   1      41.539  37.783  26.615  1.00  0.00    -0.200 F 
ATOM     88  C   UNL A   1      42.764  38.327  28.549  1.00  0.00     0.200 A 
ATOM     89  F   UNL A   1      43.940  38.806  30.531  1.00  0.00    -0.200 F 
ATOM     90  F   UNL A   1      42.634  39.634  28.287  1.00  0.00    -0.200 F 
ENDBRANCH  57  80
ENDBRANCH  31  32
ENDBRANCH  23  26
ENDBRANCH  21  22
ENDBRANCH   1  21
TORSDOF 13
ENDMDL
MODEL 2
REMARK VINA RESULT:     -12.9      3.776     10.204
REMARK SMILES COc1ccc(/C(=C/C(=O)NCCCNC(=O)c2ccc(-c3c4nc(c(-c5c(F)c(F)c(F)c(F)c5F)c5ccc([nH]5)c(-c5c(F)c(F)c(F)c(F)c5F)c5nc(c(-c6c(F)c(F)c(F)c(F)c6F)c6ccc3[nH]6)C=C5)C=C4)cc2)C(C)C)cc1C
REMARK SMILES IDX 13 1 12 2 11 3 9 4 10 5 8 7 7 8 6 9 3 10 4 11 85 12 5 13
REMARK SMILES IDX 84 14 86 15 2 16 1 17 81 18 82 19 83 20 14 21 15 22 16 23
REMARK SMILES IDX 17 25 18 26 19 27 80 28 20 29 79 30 21 31 22 32 23 33 73 34
REMARK SMILES IDX 24 35 78 36 72 37 74 38 25 39 77 40 71 41 70 42 26 44 58 45
REMARK SMILES IDX 38 46 57 47 39 48 42 49 56 50 75 51 40 52 41 53 55 55 76 56
REMARK SMILES IDX 43 57 27 58 28 59 36 60 29 61 30 62 34 63 37 64 31 65 32 66
REMARK SMILES IDX 35 67 33 68 59 69 60 70 68 71 61 72 62 73 66 74 69 75 63 76
REMARK SMILES IDX 64 77 67 78 65 79 44 80 45 81 53 82 46 83 47 84 51 85 54 86
REMARK SMILES IDX 48 87 49 88 52 89 50 90
REMARK H PARENT 11 6 15 24 74 43 42 54
REMARK Flexibility Score: inf
ROOT
ATOM      1  C   UNL A   1      32.786  30.712  27.013  1.00  0.00     0.042 C 
ENDROOT
BRANCH   1   2
ATOM      2  C   UNL A   1      32.061  29.757  26.054  1.00  0.00     0.118 C 
BRANCH   2   3
ATOM      3  N   UNL A   1      32.697  29.730  24.736  1.00  0.00    -0.352 N 
ATOM      4  C   UNL A   1      33.342  28.847  23.942  1.00  0.00     0.244 C 
ATOM      5  O   UNL A   1      33.634  29.283  22.819  1.00  0.00    -0.270 OA
ATOM      6  H   UNL A   1      32.639  30.611  24.302  1.00  0.00     0.163 HD
BRANCH   4   7
ATOM      7  C   UNL A   1      33.716  27.413  24.193  1.00  0.00     0.075 C 
ATOM      8  C   UNL A   1      33.107  26.200  24.198  1.00  0.00    -0.033 C 
BRANCH   8   9
ATOM      9  C   UNL A   1      33.811  24.971  24.718  1.00  0.00    -0.021 A 
ATOM     10  C   UNL A   1      35.168  22.633  25.646  1.00  0.00     0.121 A 
ATOM     11  C   UNL A   1      35.444  23.163  24.395  1.00  0.00     0.047 A 
ATOM     12  C   UNL A   1      34.158  23.209  26.421  1.00  0.00    -0.008 A 
ATOM     13  C   UNL A   1      34.788  24.312  23.957  1.00  0.00     0.012 A 
ATOM     14  C   UNL A   1      33.496  24.367  25.951  1.00  0.00     0.015 A 
ATOM     15  C   UNL A   1      33.777  22.659  27.767  1.00  0.00     0.048 C 
BRANCH  10  16
ATOM     16  O   UNL A   1      35.820  21.532  26.132  1.00  0.00    -0.496 OA
ATOM     17  C   UNL A   1      36.217  20.605  25.122  1.00  0.00     0.278 C 
ENDBRANCH  10  16
ENDBRANCH   8   9
BRANCH   8  18
ATOM     18  C   UNL A   1      31.694  26.037  23.692  1.00  0.00     0.014 C 
ATOM     19  C   UNL A   1      30.635  26.564  24.678  1.00  0.00     0.012 C 
ATOM     20  C   UNL A   1      31.389  26.366  22.228  1.00  0.00     0.012 C 
ENDBRANCH   8  18
ENDBRANCH   4   7
ENDBRANCH   2   3
ENDBRANCH   1   2
BRANCH   1  21
ATOM     21  C   UNL A   1      33.942  30.135  27.800  1.00  0.00     0.118 C 
BRANCH  21  22
ATOM     22  N   UNL A   1      34.697  31.159  28.536  1.00  0.00    -0.352 N 
ATOM     23  C   UNL A   1      35.986  31.081  29.037  1.00  0.00     0.251 C 
ATOM     24  H   UNL A   1      34.226  32.008  28.694  1.00  0.00     0.163 HD
ATOM     25  O   UNL A   1      36.526  32.031  29.587  1.00  0.00    -0.269 OA
BRANCH  23  26
ATOM     26  C   UNL A   1      36.726  29.830  28.782  1.00  0.00     0.039 A 
ATOM     27  C   UNL A   1      37.033  29.048  29.899  1.00  0.00     0.014 A 
ATOM     28  C   UNL A   1      37.462  29.745  27.605  1.00  0.00     0.014 A 
ATOM     29  C   UNL A   1      38.257  28.392  29.932  1.00  0.00     0.010 A 
ATOM     30  C   UNL A   1      38.727  29.191  27.691  1.00  0.00     0.010 A 
ATOM     31  C   UNL A   1      39.156  28.587  28.883  1.00  0.00    -0.014 A 
BRANCH  31  32
ATOM     32  C   UNL A   1      40.593  28.347  29.029  1.00  0.00     0.031 A 
ATOM     33  C   UNL A   1      41.216  27.144  28.431  1.00  0.00     0.074 A 
ATOM     34  C   UNL A   1      41.385  29.241  29.671  1.00  0.00     0.049 A 
ATOM     35  N   UNL A   1      42.305  26.605  28.871  1.00  0.00    -0.248 NA
ATOM     36  C   UNL A   1      40.637  26.420  27.307  1.00  0.00     0.031 C 
ATOM     37  C   UNL A   1      42.848  29.278  29.662  1.00  0.00     0.029 A 
ATOM     38  N   UNL A   1      41.023  30.205  30.633  1.00  0.00    -0.354 N 
ATOM     39  C   UNL A   1      42.703  25.653  27.964  1.00  0.00     0.074 A 
ATOM     40  C   UNL A   1      41.609  25.547  27.028  1.00  0.00     0.031 C 
ATOM     41  C   UNL A   1      43.275  29.950  30.741  1.00  0.00     0.029 A 
ATOM     42  C   UNL A   1      42.109  30.268  31.541  1.00  0.00     0.049 A 
ATOM     43  H   UNL A   1      40.189  30.726  30.667  1.00  0.00     0.167 HD
ATOM     44  C   UNL A   1      43.965  25.141  28.036  1.00  0.00     0.037 A 
ATOM     45  C   UNL A   1      41.976  30.002  32.871  1.00  0.00     0.037 A 
ATOM     46  C   UNL A   1      44.703  25.687  29.167  1.00  0.00     0.049 A 
ATOM     47  C   UNL A   1      42.873  28.901  33.381  1.00  0.00     0.074 A 
ATOM     48  C   UNL A   1      45.641  26.702  29.278  1.00  0.00     0.029 A 
ATOM     49  N   UNL A   1      44.303  25.378  30.462  1.00  0.00    -0.354 N 
ATOM     50  N   UNL A   1      43.473  28.042  32.607  1.00  0.00    -0.248 NA
ATOM     51  C   UNL A   1      43.114  28.639  34.797  1.00  0.00     0.031 C 
ATOM     52  C   UNL A   1      45.805  27.005  30.650  1.00  0.00     0.029 A 
ATOM     53  C   UNL A   1      44.967  26.174  31.374  1.00  0.00     0.049 A 
ATOM     54  H   UNL A   1      43.640  24.690  30.696  1.00  0.00     0.167 HD
ATOM     55  C   UNL A   1      44.111  27.101  33.375  1.00  0.00     0.074 A 
ATOM     56  C   UNL A   1      43.888  27.540  34.737  1.00  0.00     0.031 C 
ATOM     57  C   UNL A   1      44.738  26.030  32.803  1.00  0.00     0.037 A 
BRANCH  44  58
ATOM     58  C   UNL A   1      44.615  24.357  26.918  1.00  0.00     0.064 A 
ATOM     59  C   UNL A   1      44.317  22.992  26.715  1.00  0.00     0.173 A 
ATOM     60  C   UNL A   1      45.580  24.884  26.040  1.00  0.00     0.173 A 
ATOM     61  F   UNL A   1      43.337  22.379  27.390  1.00  0.00    -0.203 F 
ATOM     62  C   UNL A   1      45.022  22.196  25.810  1.00  0.00     0.198 A 
ATOM     63  C   UNL A   1      46.329  24.077  25.179  1.00  0.00     0.198 A 
ATOM     64  F   UNL A   1      45.790  26.204  25.955  1.00  0.00    -0.203 F 
ATOM     65  F   UNL A   1      44.698  20.902  25.670  1.00  0.00    -0.200 F 
ATOM     66  C   UNL A   1      46.059  22.728  25.073  1.00  0.00     0.200 A 
ATOM     67  F   UNL A   1      47.315  24.619  24.450  1.00  0.00    -0.200 F 
ATOM     68  F   UNL A   1      46.773  21.953  24.247  1.00  0.00    -0.200 F 
ENDBRANCH  44  58
BRANCH  45  69
ATOM     69  C   UNL A   1      40.627  30.311  33.402  1.00  0.00     0.064 A 
ATOM     70  C   UNL A   1      40.288  31.659  33.620  1.00  0.00     0.173 A 
ATOM     71  C   UNL A   1      39.585  29.380  33.325  1.00  0.00     0.173 A 
ATOM     72  F   UNL A   1      41.255  32.588  33.696  1.00  0.00    -0.203 F 
ATOM     73  C   UNL A   1      38.960  32.075  33.638  1.00  0.00     0.198 A 
ATOM     74  C   UNL A   1      38.254  29.801  33.351  1.00  0.00     0.198 A 
ATOM     75  F   UNL A   1      39.847  28.086  33.095  1.00  0.00    -0.203 F 
ATOM     76  F   UNL A   1      38.670  33.381  33.727  1.00  0.00    -0.200 F 
ATOM     77  C   UNL A   1      37.945  31.149  33.472  1.00  0.00     0.200 A 
ATOM     78  F   UNL A   1      37.271  28.911  33.153  1.00  0.00    -0.200 F 
ATOM     79  F   UNL A   1      36.672  31.558  33.379  1.00  0.00    -0.200 F 
ENDBRANCH  45  69
BRANCH  57  80
ATOM     80  C   UNL A   1      45.263  24.794  33.501  1.00  0.00     0.064 A 
ATOM     81  C   UNL A   1      44.515  23.625  33.717  1.00  0.00     0.173 A 
ATOM     82  C   UNL A   1      46.634  24.703  33.856  1.00  0.00     0.173 A 
ATOM     83  F   UNL A   1      43.240  23.527  33.320  1.00  0.00    -0.203 F 
ATOM     84  C   UNL A   1      45.075  22.479  34.294  1.00  0.00     0.198 A 
ATOM     85  C   UNL A   1      47.203  23.540  34.375  1.00  0.00     0.198 A 
ATOM     86  F   UNL A   1      47.476  25.733  33.681  1.00  0.00    -0.203 F 
ATOM     87  F   UNL A   1      44.305  21.404  34.512  1.00  0.00    -0.200 F 
ATOM     88  C   UNL A   1      46.419  22.432  34.610  1.00  0.00     0.200 A 
ATOM     89  F   UNL A   1      48.520  23.496  34.624  1.00  0.00    -0.200 F 
ATOM     90  F   UNL A   1      46.961  21.315  35.115  1.00  0.00    -0.200 F 
ENDBRANCH  57  80
ENDBRANCH  31  32
ENDBRANCH  23  26
ENDBRANCH  21  22
ENDBRANCH   1  21
TORSDOF 13
ENDMDL
MODEL 3
REMARK VINA RESULT:     -12.8      4.520     10.735
REMARK SMILES COc1ccc(/C(=C/C(=O)NCCCNC(=O)c2ccc(-c3c4nc(c(-c5c(F)c(F)c(F)c(F)c5F)c5ccc([nH]5)c(-c5c(F)c(F)c(F)c(F)c5F)c5nc(c(-c6c(F)c(F)c(F)c(F)c6F)c6ccc3[nH]6)C=C5)C=C4)cc2)C(C)C)cc1C
REMARK SMILES IDX 13 1 12 2 11 3 9 4 10 5 8 7 7 8 6 9 3 10 4 11 85 12 5 13
REMARK SMILES IDX 84 14 86 15 2 16 1 17 81 18 82 19 83 20 14 21 15 22 16 23
REMARK SMILES IDX 17 25 18 26 19 27 80 28 20 29 79 30 21 31 22 32 23 33 73 34
REMARK SMILES IDX 24 35 78 36 72 37 74 38 25 39 77 40 71 41 70 42 26 44 58 45
REMARK SMILES IDX 38 46 57 47 39 48 42 49 56 50 75 51 40 52 41 53 55 55 76 56
REMARK SMILES IDX 43 57 27 58 28 59 36 60 29 61 30 62 34 63 37 64 31 65 32 66
REMARK SMILES IDX 35 67 33 68 59 69 60 70 68 71 61 72 62 73 66 74 69 75 63 76
REMARK SMILES IDX 64 77 67 78 65 79 44 80 45 81 53 82 46 83 47 84 51 85 54 86
REMARK SMILES IDX 48 87 49 88 52 89 50 90
REMARK H PARENT 11 6 15 24 74 43 42 54
REMARK Flexibility Score: inf
ROOT
ATOM      1  C   UNL A   1      33.360  37.406  32.321  1.00  0.00     0.042 C 
ENDROOT
BRANCH   1   2
ATOM      2  C   UNL A   1      32.697  36.654  31.159  1.00  0.00     0.118 C 
BRANCH   2   3
ATOM      3  N   UNL A   1      33.412  36.868  29.900  1.00  0.00    -0.352 N 
ATOM      4  C   UNL A   1      33.679  36.192  28.760  1.00  0.00     0.244 C 
ATOM      5  O   UNL A   1      34.278  36.852  27.899  1.00  0.00    -0.270 OA
ATOM      6  H   UNL A   1      33.817  37.764  29.877  1.00  0.00     0.163 HD
BRANCH   4   7
ATOM      7  C   UNL A   1      33.323  34.788  28.363  1.00  0.00     0.075 C 
ATOM      8  C   UNL A   1      33.888  33.553  28.413  1.00  0.00    -0.033 C 
BRANCH   8   9
ATOM      9  C   UNL A   1      33.268  32.378  27.698  1.00  0.00    -0.021 A 
ATOM     10  C   UNL A   1      32.039  30.182  26.342  1.00  0.00     0.121 A 
ATOM     11  C   UNL A   1      31.393  31.406  26.440  1.00  0.00     0.047 A 
ATOM     12  C   UNL A   1      33.268  30.009  26.983  1.00  0.00    -0.008 A 
ATOM     13  C   UNL A   1      32.007  32.475  27.091  1.00  0.00     0.012 A 
ATOM     14  C   UNL A   1      33.866  31.104  27.649  1.00  0.00     0.015 A 
ATOM     15  C   UNL A   1      34.002  28.697  26.955  1.00  0.00     0.048 C 
BRANCH  10  16
ATOM     16  O   UNL A   1      31.491  29.120  25.676  1.00  0.00    -0.496 OA
ATOM     17  C   UNL A   1      31.408  29.306  24.263  1.00  0.00     0.278 C 
ENDBRANCH  10  16
ENDBRANCH   8   9
BRANCH   8  18
ATOM     18  C   UNL A   1      35.166  33.314  29.179  1.00  0.00     0.014 C 
ATOM     19  C   UNL A   1      35.020  32.248  30.280  1.00  0.00     0.012 C 
ATOM     20  C   UNL A   1      36.487  33.225  28.408  1.00  0.00     0.012 C 
ENDBRANCH   8  18
ENDBRANCH   4   7
ENDBRANCH   2   3
ENDBRANCH   1   2
BRANCH   1  21
ATOM     21  C   UNL A   1      33.900  36.562  33.455  1.00  0.00     0.118 C 
BRANCH  21  22
ATOM     22  N   UNL A   1      33.533  35.144  33.334  1.00  0.00    -0.352 N 
ATOM     23  C   UNL A   1      34.362  34.035  33.378  1.00  0.00     0.251 C 
ATOM     24  H   UNL A   1      32.575  34.959  33.205  1.00  0.00     0.163 HD
ATOM     25  O   UNL A   1      33.923  32.895  33.321  1.00  0.00    -0.269 OA
BRANCH  23  26
ATOM     26  C   UNL A   1      35.798  34.285  33.608  1.00  0.00     0.039 A 
ATOM     27  C   UNL A   1      36.505  34.872  32.556  1.00  0.00     0.014 A 
ATOM     28  C   UNL A   1      36.436  33.530  34.586  1.00  0.00     0.014 A 
ATOM     29  C   UNL A   1      37.811  34.460  32.324  1.00  0.00     0.010 A 
ATOM     30  C   UNL A   1      37.690  33.033  34.281  1.00  0.00     0.010 A 
ATOM     31  C   UNL A   1      38.344  33.434  33.106  1.00  0.00    -0.014 A 
BRANCH  31  32
ATOM     32  C   UNL A   1      39.480  32.623  32.664  1.00  0.00     0.031 A 
ATOM     33  C   UNL A   1      39.258  31.405  31.851  1.00  0.00     0.074 A 
ATOM     34  C   UNL A   1      40.752  32.995  32.950  1.00  0.00     0.049 A 
ATOM     35  N   UNL A   1      40.080  30.408  31.813  1.00  0.00    -0.248 NA
ATOM     36  C   UNL A   1      38.067  31.192  31.041  1.00  0.00     0.031 C 
ATOM     37  C   UNL A   1      41.976  32.451  32.359  1.00  0.00     0.029 A 
ATOM     38  N   UNL A   1      41.214  33.826  33.990  1.00  0.00    -0.354 N 
ATOM     39  C   UNL A   1      39.673  29.563  30.809  1.00  0.00     0.074 A 
ATOM     40  C   UNL A   1      38.391  30.074  30.385  1.00  0.00     0.031 C 
ATOM     41  C   UNL A   1      43.004  32.685  33.188  1.00  0.00     0.029 A 
ATOM     42  C   UNL A   1      42.460  33.284  34.390  1.00  0.00     0.049 A 
ATOM     43  H   UNL A   1      40.763  34.619  34.360  1.00  0.00     0.167 HD
ATOM     44  C   UNL A   1      40.519  28.589  30.365  1.00  0.00     0.037 A 
ATOM     45  C   UNL A   1      42.703  32.851  35.659  1.00  0.00     0.037 A 
ATOM     46  C   UNL A   1      41.768  28.579  31.116  1.00  0.00     0.049 A 
ATOM     47  C   UNL A   1      43.144  31.412  35.755  1.00  0.00     0.074 A 
ATOM     48  C   UNL A   1      43.026  29.100  30.858  1.00  0.00     0.029 A 
ATOM     49  N   UNL A   1      41.759  28.219  32.458  1.00  0.00    -0.354 N 
ATOM     50  N   UNL A   1      42.992  30.545  34.794  1.00  0.00    -0.248 NA
ATOM     51  C   UNL A   1      43.729  30.818  36.953  1.00  0.00     0.031 C 
ATOM     52  C   UNL A   1      43.778  29.052  32.056  1.00  0.00     0.029 A 
ATOM     53  C   UNL A   1      42.977  28.502  33.041  1.00  0.00     0.049 A 
ATOM     54  H   UNL A   1      40.991  27.818  32.928  1.00  0.00     0.167 HD
ATOM     55  C   UNL A   1      43.380  29.304  35.231  1.00  0.00     0.074 A 
ATOM     56  C   UNL A   1      43.867  29.534  36.575  1.00  0.00     0.031 C 
ATOM     57  C   UNL A   1      43.229  28.198  34.441  1.00  0.00     0.037 A 
BRANCH  44  58
ATOM     58  C   UNL A   1      40.320  27.834  29.070  1.00  0.00     0.064 A 
ATOM     59  C   UNL A   1      39.566  26.642  29.029  1.00  0.00     0.173 A 
ATOM     60  C   UNL A   1      40.890  28.211  27.841  1.00  0.00     0.173 A 
ATOM     61  F   UNL A   1      38.864  26.217  30.087  1.00  0.00    -0.203 F 
ATOM     62  C   UNL A   1      39.505  25.830  27.895  1.00  0.00     0.198 A 
ATOM     63  C   UNL A   1      40.883  27.370  26.723  1.00  0.00     0.198 A 
ATOM     64  F   UNL A   1      41.427  29.427  27.669  1.00  0.00    -0.203 F 
ATOM     65  F   UNL A   1      38.779  24.702  27.922  1.00  0.00    -0.200 F 
ATOM     66  C   UNL A   1      40.201  26.171  26.755  1.00  0.00     0.200 A 
ATOM     67  F   UNL A   1      41.543  27.733  25.614  1.00  0.00    -0.200 F 
ATOM     68  F   UNL A   1      40.191  25.365  25.685  1.00  0.00    -0.200 F 
ENDBRANCH  44  58
BRANCH  45  69
ATOM     69  C   UNL A   1      41.909  33.564  36.689  1.00  0.00     0.064 A 
ATOM     70  C   UNL A   1      42.379  34.806  37.152  1.00  0.00     0.173 A 
ATOM     71  C   UNL A   1      40.565  33.249  36.917  1.00  0.00     0.173 A 
ATOM     72  F   UNL A   1      43.661  35.154  36.951  1.00  0.00    -0.203 F 
ATOM     73  C   UNL A   1      41.515  35.743  37.711  1.00  0.00     0.198 A 
ATOM     74  C   UNL A   1      39.703  34.188  37.486  1.00  0.00     0.198 A 
ATOM     75  F   UNL A   1      40.056  32.090  36.477  1.00  0.00    -0.203 F 
ATOM     76  F   UNL A   1      41.968  36.962  38.034  1.00  0.00    -0.200 F 
ATOM     77  C   UNL A   1      40.170  35.443  37.849  1.00  0.00     0.200 A 
ATOM     78  F   UNL A   1      38.394  33.914  37.585  1.00  0.00    -0.200 F 
ATOM     79  F   UNL A   1      39.316  36.379  38.284  1.00  0.00    -0.200 F 
ENDBRANCH  45  69
BRANCH  57  80
ATOM     80  C   UNL A   1      43.370  26.749  34.855  1.00  0.00     0.064 A 
ATOM     81  C   UNL A   1      42.291  25.887  35.107  1.00  0.00     0.173 A 
ATOM     82  C   UNL A   1      44.648  26.132  34.869  1.00  0.00     0.173 A 
ATOM     83  F   UNL A   1      41.022  26.304  35.009  1.00  0.00    -0.203 F 
ATOM     84  C   UNL A   1      42.476  24.531  35.405  1.00  0.00     0.198 A 
ATOM     85  C   UNL A   1      44.824  24.769  35.107  1.00  0.00     0.198 A 
ATOM     86  F   UNL A   1      45.768  26.827  34.620  1.00  0.00    -0.203 F 
ATOM     87  F   UNL A   1      41.412  23.762  35.675  1.00  0.00    -0.200 F 
ATOM     88  C   UNL A   1      43.739  23.971  35.393  1.00  0.00     0.200 A 
ATOM     89  F   UNL A   1      46.051  24.234  35.037  1.00  0.00    -0.200 F 
ATOM     90  F   UNL A   1      43.905  22.662  35.630  1.00  0.00    -0.200 F 
ENDBRANCH  57  80
ENDBRANCH  31  32
ENDBRANCH  23  26
ENDBRANCH  21  22
ENDBRANCH   1  21
TORSDOF 13
ENDMDL
