MODEL 1
REMARK VINA RESULT:     -13.1      0.000      0.000
REMARK SMILES Cc1nn(C)c(=O)c(C(=O)N2CC[C@@H](C(=O)NCCCNC(=O)c3ccc(-c4c5nc(c(-c6c(F)c(F)c(F)c(F)c6F)c6ccc([nH]6)c(-c6c(F)c(F)c(F)c(F)c6F)c6nc(c(-c7c(F)c(F)c(F)c(F)c7F)c7ccc4[nH]7)C=C6)C=C5)cc3)[C@@H]2C)c1C
REMARK SMILES IDX 19 1 18 2 17 3 15 4 16 5 14 7 11 8 12 9 87 10 13 11 88 12
REMARK SMILES IDX 9 13 10 14 8 15 1 16 2 17 3 18 89 19 4 20 90 21 5 22 6 23
REMARK SMILES IDX 7 24 20 25 21 26 22 27 23 29 24 30 25 31 86 32 26 33 85 34
REMARK SMILES IDX 27 35 28 36 29 37 79 38 30 39 84 40 78 41 80 42 31 43 83 44
REMARK SMILES IDX 77 45 76 46 32 48 64 49 44 50 63 51 45 52 48 53 62 54 81 55
REMARK SMILES IDX 46 56 47 57 61 59 82 60 49 61 33 62 34 63 42 64 35 65 36 66
REMARK SMILES IDX 40 67 43 68 37 69 38 70 41 71 39 72 65 73 66 74 74 75 67 76
REMARK SMILES IDX 68 77 72 78 75 79 69 80 70 81 73 82 71 83 50 84 51 85 59 86
REMARK SMILES IDX 52 87 53 88 57 89 60 90 54 91 55 92 58 93 56 94
REMARK H PARENT 17 6 21 28 80 47 48 58
REMARK Flexibility Score: inf
ROOT
ATOM      1  C   UNL A   1      30.979  30.882  25.625  1.00  0.00     0.042 C 
ENDROOT
BRANCH   1   2
ATOM      2  C   UNL A   1      31.060  29.717  24.638  1.00  0.00     0.117 C 
BRANCH   2   3
ATOM      3  N   UNL A   1      32.417  29.463  24.179  1.00  0.00    -0.356 N 
ATOM      4  C   UNL A   1      33.191  28.350  24.138  1.00  0.00     0.225 C 
ATOM      5  O   UNL A   1      34.303  28.494  23.615  1.00  0.00    -0.275 OA
ATOM      6  H   UNL A   1      32.866  30.263  23.824  1.00  0.00     0.163 HD
BRANCH   4   7
ATOM      7  C   UNL A   1      32.841  27.004  24.761  1.00  0.00     0.102 C 
ATOM      8  N   UNL A   1      33.775  25.063  23.780  1.00  0.00    -0.335 N 
ATOM      9  C   UNL A   1      34.238  25.048  25.158  1.00  0.00     0.121 C 
ATOM     10  C   UNL A   1      32.612  25.943  23.678  1.00  0.00     0.094 C 
ATOM     11  C   UNL A   1      33.815  26.386  25.762  1.00  0.00     0.037 C 
ATOM     12  C   UNL A   1      31.272  25.229  23.878  1.00  0.00     0.032 C 
BRANCH   8  13
ATOM     13  C   UNL A   1      33.865  23.887  23.043  1.00  0.00     0.260 C 
ATOM     14  O   UNL A   1      33.627  23.811  21.845  1.00  0.00    -0.269 OA
BRANCH  13  15
ATOM     15  C   UNL A   1      34.340  22.709  23.818  1.00  0.00     0.111 A 
ATOM     16  C   UNL A   1      37.389  21.173  25.329  1.00  0.00     0.069 C 
ATOM     17  C   UNL A   1      36.011  21.247  24.710  1.00  0.00     0.062 A 
ATOM     18  N   UNL A   1      35.187  20.302  25.027  1.00  0.00    -0.175 NA
ATOM     19  C   UNL A   1      35.652  22.412  23.863  1.00  0.00    -0.010 A 
ATOM     20  N   UNL A   1      33.877  20.472  24.660  1.00  0.00    -0.232 N 
ATOM     21  C   UNL A   1      36.720  23.036  23.022  1.00  0.00     0.047 C 
ATOM     22  C   UNL A   1      33.016  19.317  24.839  1.00  0.00     0.178 C 
ATOM     23  C   UNL A   1      33.345  21.708  24.298  1.00  0.00     0.279 A 
ATOM     24  O   UNL A   1      32.144  21.964  24.310  1.00  0.00    -0.267 OA
ENDBRANCH  13  15
ENDBRANCH   8  13
ENDBRANCH   4   7
ENDBRANCH   2   3
ENDBRANCH   1   2
BRANCH   1  25
ATOM     25  C   UNL A   1      32.226  31.075  26.484  1.00  0.00     0.118 C 
BRANCH  25  26
ATOM     26  N   UNL A   1      32.402  32.451  26.907  1.00  0.00    -0.352 N 
ATOM     27  C   UNL A   1      33.373  33.088  27.638  1.00  0.00     0.251 C 
ATOM     28  H   UNL A   1      31.679  33.049  26.610  1.00  0.00     0.163 HD
ATOM     29  O   UNL A   1      33.151  34.250  27.979  1.00  0.00    -0.269 OA
BRANCH  27  30
ATOM     30  C   UNL A   1      34.661  32.462  28.050  1.00  0.00     0.039 A 
ATOM     31  C   UNL A   1      34.606  31.137  28.511  1.00  0.00     0.014 A 
ATOM     32  C   UNL A   1      35.870  33.151  28.156  1.00  0.00     0.014 A 
ATOM     33  C   UNL A   1      35.728  30.520  29.078  1.00  0.00     0.010 A 
ATOM     34  C   UNL A   1      37.013  32.515  28.667  1.00  0.00     0.010 A 
ATOM     35  C   UNL A   1      36.946  31.205  29.169  1.00  0.00    -0.014 A 
BRANCH  35  36
ATOM     36  C   UNL A   1      38.108  30.611  29.890  1.00  0.00     0.031 A 
ATOM     37  C   UNL A   1      38.385  30.998  31.322  1.00  0.00     0.074 A 
ATOM     38  C   UNL A   1      38.912  29.712  29.290  1.00  0.00     0.049 A 
ATOM     39  N   UNL A   1      39.386  30.658  32.098  1.00  0.00    -0.248 NA
ATOM     40  C   UNL A   1      37.410  31.894  31.961  1.00  0.00     0.031 C 
ATOM     41  C   UNL A   1      38.755  29.212  27.926  1.00  0.00     0.029 A 
ATOM     42  N   UNL A   1      40.021  29.053  29.764  1.00  0.00    -0.354 N 
ATOM     43  C   UNL A   1      39.171  31.313  33.304  1.00  0.00     0.074 A 
ATOM     44  C   UNL A   1      37.963  32.096  33.147  1.00  0.00     0.031 C 
ATOM     45  C   UNL A   1      39.715  28.305  27.681  1.00  0.00     0.029 A 
ATOM     46  C   UNL A   1      40.576  28.186  28.855  1.00  0.00     0.049 A 
ATOM     47  H   UNL A   1      40.384  29.189  30.669  1.00  0.00     0.167 HD
ATOM     48  C   UNL A   1      39.897  31.258  34.447  1.00  0.00     0.037 A 
ATOM     49  C   UNL A   1      41.658  27.389  28.954  1.00  0.00     0.037 A 
ATOM     50  C   UNL A   1      41.078  30.457  34.636  1.00  0.00     0.049 A 
ATOM     51  C   UNL A   1      42.476  27.376  30.216  1.00  0.00     0.074 A 
ATOM     52  C   UNL A   1      41.866  30.333  35.767  1.00  0.00     0.029 A 
ATOM     53  N   UNL A   1      41.633  29.632  33.670  1.00  0.00    -0.354 N 
ATOM     54  N   UNL A   1      42.281  28.027  31.335  1.00  0.00    -0.248 NA
ATOM     55  C   UNL A   1      43.675  26.523  30.220  1.00  0.00     0.031 C 
ATOM     56  C   UNL A   1      42.914  29.451  35.479  1.00  0.00     0.029 A 
ATOM     57  C   UNL A   1      42.761  29.004  34.177  1.00  0.00     0.049 A 
ATOM     58  H   UNL A   1      41.279  29.510  32.760  1.00  0.00     0.167 HD
ATOM     59  C   UNL A   1      43.323  27.660  32.177  1.00  0.00     0.074 A 
ATOM     60  C   UNL A   1      44.140  26.714  31.447  1.00  0.00     0.031 C 
ATOM     61  C   UNL A   1      43.577  28.075  33.442  1.00  0.00     0.037 A 
BRANCH  48  62
ATOM     62  C   UNL A   1      39.431  32.102  35.594  1.00  0.00     0.064 A 
ATOM     63  C   UNL A   1      39.867  33.427  35.753  1.00  0.00     0.173 A 
ATOM     64  C   UNL A   1      38.524  31.590  36.534  1.00  0.00     0.173 A 
ATOM     65  F   UNL A   1      40.745  33.955  34.888  1.00  0.00    -0.203 F 
ATOM     66  C   UNL A   1      39.429  34.199  36.825  1.00  0.00     0.198 A 
ATOM     67  C   UNL A   1      38.072  32.373  37.592  1.00  0.00     0.198 A 
ATOM     68  F   UNL A   1      38.075  30.330  36.422  1.00  0.00    -0.203 F 
ATOM     69  F   UNL A   1      39.892  35.446  36.983  1.00  0.00    -0.200 F 
ATOM     70  C   UNL A   1      38.530  33.673  37.741  1.00  0.00     0.200 A 
ATOM     71  F   UNL A   1      37.197  31.866  38.472  1.00  0.00    -0.200 F 
ATOM     72  F   UNL A   1      38.111  34.417  38.774  1.00  0.00    -0.200 F 
ENDBRANCH  48  62
BRANCH  49  73
ATOM     73  C   UNL A   1      42.028  26.517  27.813  1.00  0.00     0.064 A 
ATOM     74  C   UNL A   1      42.981  26.936  26.875  1.00  0.00     0.173 A 
ATOM     75  C   UNL A   1      41.447  25.253  27.641  1.00  0.00     0.173 A 
ATOM     76  F   UNL A   1      43.541  28.149  26.986  1.00  0.00    -0.203 F 
ATOM     77  C   UNL A   1      43.342  26.119  25.805  1.00  0.00     0.198 A 
ATOM     78  C   UNL A   1      41.821  24.431  26.581  1.00  0.00     0.198 A 
ATOM     79  F   UNL A   1      40.524  24.816  28.509  1.00  0.00    -0.203 F 
ATOM     80  F   UNL A   1      44.238  26.552  24.908  1.00  0.00    -0.200 F 
ATOM     81  C   UNL A   1      42.767  24.865  25.663  1.00  0.00     0.200 A 
ATOM     82  F   UNL A   1      41.267  23.218  26.448  1.00  0.00    -0.200 F 
ATOM     83  F   UNL A   1      43.119  24.078  24.638  1.00  0.00    -0.200 F 
ENDBRANCH  49  73
BRANCH  61  84
ATOM     84  C   UNL A   1      44.790  27.513  34.121  1.00  0.00     0.064 A 
ATOM     85  C   UNL A   1      44.728  26.312  34.843  1.00  0.00     0.173 A 
ATOM     86  C   UNL A   1      46.032  28.156  34.016  1.00  0.00     0.173 A 
ATOM     87  F   UNL A   1      43.560  25.669  34.983  1.00  0.00    -0.203 F 
ATOM     88  C   UNL A   1      45.866  25.782  35.448  1.00  0.00     0.198 A 
ATOM     89  C   UNL A   1      47.171  27.613  34.606  1.00  0.00     0.198 A 
ATOM     90  F   UNL A   1      46.143  29.305  33.334  1.00  0.00    -0.203 F 
ATOM     91  F   UNL A   1      45.778  24.650  36.158  1.00  0.00    -0.200 F 
ATOM     92  C   UNL A   1      47.086  26.429  35.324  1.00  0.00     0.200 A 
ATOM     93  F   UNL A   1      48.352  28.235  34.479  1.00  0.00    -0.200 F 
ATOM     94  F   UNL A   1      48.180  25.916  35.902  1.00  0.00    -0.200 F 
ENDBRANCH  61  84
ENDBRANCH  35  36
ENDBRANCH  27  30
ENDBRANCH  25  26
ENDBRANCH   1  25
TORSDOF 12
ENDMDL
MODEL 2
REMARK VINA RESULT:     -13.0      0.181      1.947
REMARK SMILES Cc1nn(C)c(=O)c(C(=O)N2CC[C@@H](C(=O)NCCCNC(=O)c3ccc(-c4c5nc(c(-c6c(F)c(F)c(F)c(F)c6F)c6ccc([nH]6)c(-c6c(F)c(F)c(F)c(F)c6F)c6nc(c(-c7c(F)c(F)c(F)c(F)c7F)c7ccc4[nH]7)C=C6)C=C5)cc3)[C@@H]2C)c1C
REMARK SMILES IDX 19 1 18 2 17 3 15 4 16 5 14 7 11 8 12 9 87 10 13 11 88 12
REMARK SMILES IDX 9 13 10 14 8 15 1 16 2 17 3 18 89 19 4 20 90 21 5 22 6 23
REMARK SMILES IDX 7 24 20 25 21 26 22 27 23 29 24 30 25 31 86 32 26 33 85 34
REMARK SMILES IDX 27 35 28 36 29 37 79 38 30 39 84 40 78 41 80 42 31 43 83 44
REMARK SMILES IDX 77 45 76 46 32 48 64 49 44 50 63 51 45 52 48 53 62 54 81 55
REMARK SMILES IDX 46 56 47 57 61 59 82 60 49 61 33 62 34 63 42 64 35 65 36 66
REMARK SMILES IDX 40 67 43 68 37 69 38 70 41 71 39 72 65 73 66 74 74 75 67 76
REMARK SMILES IDX 68 77 72 78 75 79 69 80 70 81 73 82 71 83 50 84 51 85 59 86
REMARK SMILES IDX 52 87 53 88 57 89 60 90 54 91 55 92 58 93 56 94
REMARK H PARENT 17 6 21 28 80 47 48 58
REMARK Flexibility Score: inf
ROOT
ATOM      1  C   UNL A   1      31.012  30.797  25.749  1.00  0.00     0.042 C 
ENDROOT
BRANCH   1   2
ATOM      2  C   UNL A   1      31.064  29.759  24.627  1.00  0.00     0.117 C 
BRANCH   2   3
ATOM      3  N   UNL A   1      32.422  29.470  24.191  1.00  0.00    -0.356 N 
ATOM      4  C   UNL A   1      33.159  28.333  24.141  1.00  0.00     0.225 C 
ATOM      5  O   UNL A   1      34.286  28.452  23.645  1.00  0.00    -0.275 OA
ATOM      6  H   UNL A   1      32.905  30.263  23.867  1.00  0.00     0.163 HD
BRANCH   4   7
ATOM      7  C   UNL A   1      32.750  26.986  24.722  1.00  0.00     0.102 C 
ATOM      8  N   UNL A   1      33.707  25.041  23.769  1.00  0.00    -0.335 N 
ATOM      9  C   UNL A   1      34.088  24.999  25.171  1.00  0.00     0.121 C 
ATOM     10  C   UNL A   1      32.567  25.944  23.613  1.00  0.00     0.094 C 
ATOM     11  C   UNL A   1      33.653  26.336  25.769  1.00  0.00     0.037 C 
ATOM     12  C   UNL A   1      31.206  25.251  23.724  1.00  0.00     0.032 C 
BRANCH   8  13
ATOM     13  C   UNL A   1      33.820  23.874  23.022  1.00  0.00     0.260 C 
ATOM     14  O   UNL A   1      33.636  23.816  21.813  1.00  0.00    -0.269 OA
BRANCH  13  15
ATOM     15  C   UNL A   1      34.247  22.681  23.802  1.00  0.00     0.111 A 
ATOM     16  C   UNL A   1      37.221  21.065  25.377  1.00  0.00     0.069 C 
ATOM     17  C   UNL A   1      35.860  21.175  24.726  1.00  0.00     0.062 A 
ATOM     18  N   UNL A   1      35.006  20.249  25.019  1.00  0.00    -0.175 NA
ATOM     19  C   UNL A   1      35.550  22.352  23.876  1.00  0.00    -0.010 A 
ATOM     20  N   UNL A   1      33.710  20.453  24.622  1.00  0.00    -0.232 N 
ATOM     21  C   UNL A   1      36.653  22.953  23.063  1.00  0.00     0.047 C 
ATOM     22  C   UNL A   1      32.817  19.319  24.775  1.00  0.00     0.178 C 
ATOM     23  C   UNL A   1      33.217  21.704  24.254  1.00  0.00     0.279 A 
ATOM     24  O   UNL A   1      32.022  21.989  24.238  1.00  0.00    -0.267 OA
ENDBRANCH  13  15
ENDBRANCH   8  13
ENDBRANCH   4   7
ENDBRANCH   2   3
ENDBRANCH   1   2
BRANCH   1  25
ATOM     25  C   UNL A   1      32.341  31.031  26.461  1.00  0.00     0.118 C 
BRANCH  25  26
ATOM     26  N   UNL A   1      32.503  32.403  26.900  1.00  0.00    -0.352 N 
ATOM     27  C   UNL A   1      33.459  33.039  27.653  1.00  0.00     0.251 C 
ATOM     28  H   UNL A   1      31.782  33.000  26.597  1.00  0.00     0.163 HD
ATOM     29  O   UNL A   1      33.226  34.195  28.001  1.00  0.00    -0.269 OA
BRANCH  27  30
ATOM     30  C   UNL A   1      34.744  32.415  28.079  1.00  0.00     0.039 A 
ATOM     31  C   UNL A   1      34.698  31.070  28.479  1.00  0.00     0.014 A 
ATOM     32  C   UNL A   1      35.937  33.118  28.254  1.00  0.00     0.014 A 
ATOM     33  C   UNL A   1      35.811  30.446  29.055  1.00  0.00     0.010 A 
ATOM     34  C   UNL A   1      37.074  32.478  28.774  1.00  0.00     0.010 A 
ATOM     35  C   UNL A   1      37.013  31.146  29.216  1.00  0.00    -0.014 A 
BRANCH  35  36
ATOM     36  C   UNL A   1      38.162  30.539  29.947  1.00  0.00     0.031 A 
ATOM     37  C   UNL A   1      38.409  30.896  31.393  1.00  0.00     0.074 A 
ATOM     38  C   UNL A   1      38.980  29.654  29.345  1.00  0.00     0.049 A 
ATOM     39  N   UNL A   1      39.394  30.542  32.182  1.00  0.00    -0.248 NA
ATOM     40  C   UNL A   1      37.419  31.777  32.030  1.00  0.00     0.031 C 
ATOM     41  C   UNL A   1      38.852  29.183  27.969  1.00  0.00     0.029 A 
ATOM     42  N   UNL A   1      40.080  28.987  29.828  1.00  0.00    -0.354 N 
ATOM     43  C   UNL A   1      39.153  31.171  33.396  1.00  0.00     0.074 A 
ATOM     44  C   UNL A   1      37.947  31.955  33.232  1.00  0.00     0.031 C 
ATOM     45  C   UNL A   1      39.818  28.282  27.724  1.00  0.00     0.029 A 
ATOM     46  C   UNL A   1      40.656  28.140  28.913  1.00  0.00     0.049 A 
ATOM     47  H   UNL A   1      40.424  29.105  30.743  1.00  0.00     0.167 HD
ATOM     48  C   UNL A   1      39.856  31.093  34.552  1.00  0.00     0.037 A 
ATOM     49  C   UNL A   1      41.737  27.344  29.017  1.00  0.00     0.037 A 
ATOM     50  C   UNL A   1      41.035  30.290  34.749  1.00  0.00     0.049 A 
ATOM     51  C   UNL A   1      42.529  27.305  30.295  1.00  0.00     0.074 A 
ATOM     52  C   UNL A   1      41.800  30.144  35.893  1.00  0.00     0.029 A 
ATOM     53  N   UNL A   1      41.611  29.487  33.778  1.00  0.00    -0.354 N 
ATOM     54  N   UNL A   1      42.310  27.932  31.423  1.00  0.00    -0.248 NA
ATOM     55  C   UNL A   1      43.730  26.454  30.305  1.00  0.00     0.031 C 
ATOM     56  C   UNL A   1      42.855  29.270  35.608  1.00  0.00     0.029 A 
ATOM     57  C   UNL A   1      42.730  28.850  34.294  1.00  0.00     0.049 A 
ATOM     58  H   UNL A   1      41.276  29.383  32.858  1.00  0.00     0.167 HD
ATOM     59  C   UNL A   1      43.335  27.550  32.278  1.00  0.00     0.074 A 
ATOM     60  C   UNL A   1      44.169  26.621  31.545  1.00  0.00     0.031 C 
ATOM     61  C   UNL A   1      43.563  27.938  33.556  1.00  0.00     0.037 A 
BRANCH  48  62
ATOM     62  C   UNL A   1      39.366  31.913  35.708  1.00  0.00     0.064 A 
ATOM     63  C   UNL A   1      38.418  31.411  36.612  1.00  0.00     0.173 A 
ATOM     64  C   UNL A   1      39.865  33.206  35.926  1.00  0.00     0.173 A 
ATOM     65  F   UNL A   1      37.902  30.185  36.436  1.00  0.00    -0.203 F 
ATOM     66  C   UNL A   1      37.969  32.185  37.679  1.00  0.00     0.198 A 
ATOM     67  C   UNL A   1      39.429  33.967  37.006  1.00  0.00     0.198 A 
ATOM     68  F   UNL A   1      40.776  33.728  35.091  1.00  0.00    -0.203 F 
ATOM     69  F   UNL A   1      37.029  31.703  38.504  1.00  0.00    -0.200 F 
ATOM     70  C   UNL A   1      38.477  33.460  37.877  1.00  0.00     0.200 A 
ATOM     71  F   UNL A   1      39.927  35.197  37.201  1.00  0.00    -0.200 F 
ATOM     72  F   UNL A   1      38.042  34.203  38.903  1.00  0.00    -0.200 F 
ENDBRANCH  48  62
BRANCH  49  73
ATOM     73  C   UNL A   1      42.132  26.496  27.866  1.00  0.00     0.064 A 
ATOM     74  C   UNL A   1      41.519  25.255  27.651  1.00  0.00     0.173 A 
ATOM     75  C   UNL A   1      43.118  26.909  26.959  1.00  0.00     0.173 A 
ATOM     76  F   UNL A   1      40.591  24.809  28.510  1.00  0.00    -0.203 F 
ATOM     77  C   UNL A   1      41.876  24.456  26.567  1.00  0.00     0.198 A 
ATOM     78  C   UNL A   1      43.462  26.117  25.866  1.00  0.00     0.198 A 
ATOM     79  F   UNL A   1      43.738  28.085  27.131  1.00  0.00    -0.203 F 
ATOM     80  F   UNL A   1      41.293  23.262  26.396  1.00  0.00    -0.200 F 
ATOM     81  C   UNL A   1      42.843  24.891  25.672  1.00  0.00     0.200 A 
ATOM     82  F   UNL A   1      44.393  26.541  25.000  1.00  0.00    -0.200 F 
ATOM     83  F   UNL A   1      43.181  24.125  24.626  1.00  0.00    -0.200 F 
ENDBRANCH  49  73
BRANCH  61  84
ATOM     84  C   UNL A   1      44.763  27.365  34.249  1.00  0.00     0.064 A 
ATOM     85  C   UNL A   1      45.998  28.028  34.233  1.00  0.00     0.173 A 
ATOM     86  C   UNL A   1      44.668  26.165  34.971  1.00  0.00     0.173 A 
ATOM     87  F   UNL A   1      46.141  29.170  33.545  1.00  0.00    -0.203 F 
ATOM     88  C   UNL A   1      47.101  27.503  34.902  1.00  0.00     0.198 A 
ATOM     89  C   UNL A   1      45.768  25.653  35.654  1.00  0.00     0.198 A 
ATOM     90  F   UNL A   1      43.507  25.496  35.019  1.00  0.00    -0.203 F 
ATOM     91  F   UNL A   1      48.280  28.137  34.848  1.00  0.00    -0.200 F 
ATOM     92  C   UNL A   1      46.983  26.320  35.617  1.00  0.00     0.200 A 
ATOM     93  F   UNL A   1      45.651  24.514  36.351  1.00  0.00    -0.200 F 
ATOM     94  F   UNL A   1      48.043  25.818  36.265  1.00  0.00    -0.200 F 
ENDBRANCH  61  84
ENDBRANCH  35  36
ENDBRANCH  27  30
ENDBRANCH  25  26
ENDBRANCH   1  25
TORSDOF 12
ENDMDL
MODEL 3
REMARK VINA RESULT:     -12.9      2.775      3.738
REMARK SMILES Cc1nn(C)c(=O)c(C(=O)N2CC[C@@H](C(=O)NCCCNC(=O)c3ccc(-c4c5nc(c(-c6c(F)c(F)c(F)c(F)c6F)c6ccc([nH]6)c(-c6c(F)c(F)c(F)c(F)c6F)c6nc(c(-c7c(F)c(F)c(F)c(F)c7F)c7ccc4[nH]7)C=C6)C=C5)cc3)[C@@H]2C)c1C
REMARK SMILES IDX 19 1 18 2 17 3 15 4 16 5 14 7 11 8 12 9 87 10 13 11 88 12
REMARK SMILES IDX 9 13 10 14 8 15 1 16 2 17 3 18 89 19 4 20 90 21 5 22 6 23
REMARK SMILES IDX 7 24 20 25 21 26 22 27 23 29 24 30 25 31 86 32 26 33 85 34
REMARK SMILES IDX 27 35 28 36 29 37 79 38 30 39 84 40 78 41 80 42 31 43 83 44
REMARK SMILES IDX 77 45 76 46 32 48 64 49 44 50 63 51 45 52 48 53 62 54 81 55
REMARK SMILES IDX 46 56 47 57 61 59 82 60 49 61 33 62 34 63 42 64 35 65 36 66
REMARK SMILES IDX 40 67 43 68 37 69 38 70 41 71 39 72 65 73 66 74 74 75 67 76
REMARK SMILES IDX 68 77 72 78 75 79 69 80 70 81 73 82 71 83 50 84 51 85 59 86
REMARK SMILES IDX 52 87 53 88 57 89 60 90 54 91 55 92 58 93 56 94
REMARK H PARENT 17 6 21 28 80 47 48 58
REMARK Flexibility Score: inf
ROOT
ATOM      1  C   UNL A   1      33.281  28.271  26.873  1.00  0.00     0.042 C 
ENDROOT
BRANCH   1   2
ATOM      2  C   UNL A   1      31.790  28.113  27.173  1.00  0.00     0.117 C 
BRANCH   2   3
ATOM      3  N   UNL A   1      31.375  26.720  27.241  1.00  0.00    -0.356 N 
ATOM      4  C   UNL A   1      31.297  25.728  26.321  1.00  0.00     0.225 C 
ATOM      5  O   UNL A   1      30.948  24.624  26.756  1.00  0.00    -0.275 OA
ATOM      6  H   UNL A   1      31.093  26.440  28.141  1.00  0.00     0.163 HD
BRANCH   4   7
ATOM      7  C   UNL A   1      31.505  25.892  24.821  1.00  0.00     0.102 C 
ATOM      8  N   UNL A   1      32.348  24.037  23.616  1.00  0.00    -0.335 N 
ATOM      9  C   UNL A   1      31.069  24.338  22.995  1.00  0.00     0.121 C 
ATOM     10  C   UNL A   1      32.800  25.207  24.368  1.00  0.00     0.094 C 
ATOM     11  C   UNL A   1      30.412  25.403  23.872  1.00  0.00     0.037 C 
ATOM     12  C   UNL A   1      33.679  26.165  23.559  1.00  0.00     0.032 C 
BRANCH   8  13
ATOM     13  C   UNL A   1      33.241  23.228  22.922  1.00  0.00     0.260 C 
ATOM     14  O   UNL A   1      33.469  23.332  21.724  1.00  0.00    -0.269 OA
BRANCH  13  15
ATOM     15  C   UNL A   1      33.963  22.240  23.769  1.00  0.00     0.111 A 
ATOM     16  C   UNL A   1      37.140  21.696  25.655  1.00  0.00     0.069 C 
ATOM     17  C   UNL A   1      35.889  21.351  24.877  1.00  0.00     0.062 A 
ATOM     18  N   UNL A   1      35.367  20.191  25.112  1.00  0.00    -0.175 NA
ATOM     19  C   UNL A   1      35.288  22.364  23.973  1.00  0.00    -0.010 A 
ATOM     20  N   UNL A   1      34.121  19.954  24.591  1.00  0.00    -0.232 N 
ATOM     21  C   UNL A   1      36.202  23.304  23.252  1.00  0.00     0.047 C 
ATOM     22  C   UNL A   1      33.646  18.586  24.689  1.00  0.00     0.178 C 
ATOM     23  C   UNL A   1      33.279  20.972  24.147  1.00  0.00     0.279 A 
ATOM     24  O   UNL A   1      32.065  20.842  24.013  1.00  0.00    -0.267 OA
ENDBRANCH  13  15
ENDBRANCH   8  13
ENDBRANCH   4   7
ENDBRANCH   2   3
ENDBRANCH   1   2
BRANCH   1  25
ATOM     25  C   UNL A   1      33.668  29.613  26.259  1.00  0.00     0.118 C 
BRANCH  25  26
ATOM     26  N   UNL A   1      33.762  30.671  27.246  1.00  0.00    -0.352 N 
ATOM     27  C   UNL A   1      34.688  30.968  28.214  1.00  0.00     0.251 C 
ATOM     28  H   UNL A   1      33.009  31.304  27.215  1.00  0.00     0.163 HD
ATOM     29  O   UNL A   1      34.398  31.851  29.020  1.00  0.00    -0.269 OA
BRANCH  27  30
ATOM     30  C   UNL A   1      36.006  30.287  28.353  1.00  0.00     0.039 A 
ATOM     31  C   UNL A   1      36.277  29.670  29.586  1.00  0.00     0.014 A 
ATOM     32  C   UNL A   1      37.032  30.359  27.409  1.00  0.00     0.014 A 
ATOM     33  C   UNL A   1      37.546  29.154  29.874  1.00  0.00     0.010 A 
ATOM     34  C   UNL A   1      38.287  29.787  27.672  1.00  0.00     0.010 A 
ATOM     35  C   UNL A   1      38.570  29.212  28.921  1.00  0.00    -0.014 A 
BRANCH  35  36
ATOM     36  C   UNL A   1      39.959  28.788  29.260  1.00  0.00     0.031 A 
ATOM     37  C   UNL A   1      40.798  29.630  30.191  1.00  0.00     0.074 A 
ATOM     38  C   UNL A   1      40.479  27.649  28.766  1.00  0.00     0.049 A 
ATOM     39  N   UNL A   1      42.050  29.481  30.549  1.00  0.00    -0.248 NA
ATOM     40  C   UNL A   1      40.141  30.801  30.790  1.00  0.00     0.031 C 
ATOM     41  C   UNL A   1      39.784  26.713  27.885  1.00  0.00     0.029 A 
ATOM     42  N   UNL A   1      41.718  27.082  28.948  1.00  0.00    -0.354 N 
ATOM     43  C   UNL A   1      42.333  30.545  31.394  1.00  0.00     0.074 A 
ATOM     44  C   UNL A   1      41.133  31.353  31.471  1.00  0.00     0.031 C 
ATOM     45  C   UNL A   1      40.596  25.675  27.624  1.00  0.00     0.029 A 
ATOM     46  C   UNL A   1      41.880  25.889  28.288  1.00  0.00     0.049 A 
ATOM     47  H   UNL A   1      42.423  27.493  29.498  1.00  0.00     0.167 HD
ATOM     48  C   UNL A   1      43.479  30.823  32.064  1.00  0.00     0.037 A 
ATOM     49  C   UNL A   1      42.942  25.064  28.220  1.00  0.00     0.037 A 
ATOM     50  C   UNL A   1      44.669  30.014  32.032  1.00  0.00     0.049 A 
ATOM     51  C   UNL A   1      44.219  25.412  28.935  1.00  0.00     0.074 A 
ATOM     52  C   UNL A   1      45.869  30.217  32.692  1.00  0.00     0.029 A 
ATOM     53  N   UNL A   1      44.805  28.840  31.309  1.00  0.00    -0.354 N 
ATOM     54  N   UNL A   1      44.483  26.440  29.702  1.00  0.00    -0.248 NA
ATOM     55  C   UNL A   1      45.350  24.487  28.761  1.00  0.00     0.031 C 
ATOM     56  C   UNL A   1      46.741  29.177  32.349  1.00  0.00     0.029 A 
ATOM     57  C   UNL A   1      46.073  28.312  31.498  1.00  0.00     0.049 A 
ATOM     58  H   UNL A   1      44.104  28.440  30.745  1.00  0.00     0.167 HD
ATOM     59  C   UNL A   1      45.802  26.284  30.107  1.00  0.00     0.074 A 
ATOM     60  C   UNL A   1      46.282  25.052  29.516  1.00  0.00     0.031 C 
ATOM     61  C   UNL A   1      46.548  27.094  30.897  1.00  0.00     0.037 A 
BRANCH  48  62
ATOM     62  C   UNL A   1      43.501  32.071  32.894  1.00  0.00     0.064 A 
ATOM     63  C   UNL A   1      43.890  33.305  32.351  1.00  0.00     0.173 A 
ATOM     64  C   UNL A   1      43.108  32.038  34.241  1.00  0.00     0.173 A 
ATOM     65  F   UNL A   1      44.288  33.383  31.072  1.00  0.00    -0.203 F 
ATOM     66  C   UNL A   1      43.909  34.456  33.134  1.00  0.00     0.198 A 
ATOM     67  C   UNL A   1      43.107  33.195  35.013  1.00  0.00     0.198 A 
ATOM     68  F   UNL A   1      42.723  30.883  34.804  1.00  0.00    -0.203 F 
ATOM     69  F   UNL A   1      44.328  35.615  32.608  1.00  0.00    -0.200 F 
ATOM     70  C   UNL A   1      43.514  34.401  34.463  1.00  0.00     0.200 A 
ATOM     71  F   UNL A   1      42.718  33.142  36.295  1.00  0.00    -0.200 F 
ATOM     72  F   UNL A   1      43.535  35.509  35.215  1.00  0.00    -0.200 F 
ENDBRANCH  48  62
BRANCH  49  73
ATOM     73  C   UNL A   1      42.838  23.803  27.445  1.00  0.00     0.064 A 
ATOM     74  C   UNL A   1      43.219  23.761  26.098  1.00  0.00     0.173 A 
ATOM     75  C   UNL A   1      42.367  22.621  28.033  1.00  0.00     0.173 A 
ATOM     76  F   UNL A   1      43.648  24.876  25.489  1.00  0.00    -0.203 F 
ATOM     77  C   UNL A   1      43.134  22.579  25.364  1.00  0.00     0.198 A 
ATOM     78  C   UNL A   1      42.299  21.437  27.304  1.00  0.00     0.198 A 
ATOM     79  F   UNL A   1      41.983  22.617  29.317  1.00  0.00    -0.203 F 
ATOM     80  F   UNL A   1      43.481  22.570  24.070  1.00  0.00    -0.200 F 
ATOM     81  C   UNL A   1      42.680  21.417  25.970  1.00  0.00     0.200 A 
ATOM     82  F   UNL A   1      41.864  20.313  27.892  1.00  0.00    -0.200 F 
ATOM     83  F   UNL A   1      42.605  20.279  25.266  1.00  0.00    -0.200 F 
ENDBRANCH  49  73
BRANCH  61  84
ATOM     84  C   UNL A   1      47.963  26.680  31.170  1.00  0.00     0.064 A 
ATOM     85  C   UNL A   1      48.276  25.812  32.226  1.00  0.00     0.173 A 
ATOM     86  C   UNL A   1      49.009  27.119  30.346  1.00  0.00     0.173 A 
ATOM     87  F   UNL A   1      47.311  25.377  33.050  1.00  0.00    -0.203 F 
ATOM     88  C   UNL A   1      49.590  25.410  32.456  1.00  0.00     0.198 A 
ATOM     89  C   UNL A   1      50.319  26.700  30.567  1.00  0.00     0.198 A 
ATOM     90  F   UNL A   1      48.760  27.948  29.321  1.00  0.00    -0.203 F 
ATOM     91  F   UNL A   1      49.871  24.605  33.489  1.00  0.00    -0.200 F 
ATOM     92  C   UNL A   1      50.608  25.849  31.623  1.00  0.00     0.200 A 
ATOM     93  F   UNL A   1      51.302  27.119  29.757  1.00  0.00    -0.200 F 
ATOM     94  F   UNL A   1      51.871  25.457  31.842  1.00  0.00    -0.200 F 
ENDBRANCH  61  84
ENDBRANCH  35  36
ENDBRANCH  27  30
ENDBRANCH  25  26
ENDBRANCH   1  25
TORSDOF 12
ENDMDL
