MODEL 1
REMARK VINA RESULT:     -12.0      0.000      0.000
REMARK SMILES Cc1ccc(O)c(C[C@H](NC=O)C(=O)NCCCNC(=O)c2ccc(-c3c4nc(c(-c5c(F)c(F)c(F)c(F)c5F)c5ccc([nH]5)c(-c5c(F)c(F)c(F)c(F)c5F)c5nc(c(-c6c(F)c(F)c(F)c(F)c6F)c6ccc3[nH]6)C=C5)C=C4)cc2)n1
REMARK SMILES IDX 16 1 15 2 13 3 14 4 9 6 8 7 7 8 1 9 2 10 3 11 85 12 4 13
REMARK SMILES IDX 5 14 6 15 10 17 11 18 12 20 17 21 18 22 19 23 20 24 21 26
REMARK SMILES IDX 22 27 23 28 84 29 24 30 83 31 25 32 26 33 27 34 77 35 28 36
REMARK SMILES IDX 82 37 76 38 78 39 29 40 81 41 75 42 74 43 30 45 62 46 42 47
REMARK SMILES IDX 61 48 43 49 46 50 60 51 79 52 44 53 45 54 59 56 80 57 47 58
REMARK SMILES IDX 31 59 32 60 40 61 33 62 34 63 38 64 41 65 35 66 36 67 39 68
REMARK SMILES IDX 37 69 63 70 64 71 72 72 65 73 66 74 70 75 73 76 67 77 68 78
REMARK SMILES IDX 71 79 69 80 48 81 49 82 57 83 50 84 51 85 55 86 58 87 52 88
REMARK SMILES IDX 53 89 56 90 54 91
REMARK H PARENT 15 5 6 16 10 19 19 25 78 44 46 55
REMARK Flexibility Score: inf
ROOT
ATOM      1  C   UNL A   1      37.289  21.344  24.741  1.00  0.00     0.117 C 
ENDROOT
BRANCH   1   2
ATOM      2  N   UNL A   1      36.463  21.703  25.884  1.00  0.00    -0.354 N 
ATOM      3  C   UNL A   1      35.171  21.341  26.150  1.00  0.00     0.242 C 
ATOM      4  O   UNL A   1      34.736  21.537  27.288  1.00  0.00    -0.273 OA
ATOM      5  H   UNL A   1      36.891  22.283  26.553  1.00  0.00     0.163 HD
BRANCH   3   6
ATOM      6  C   UNL A   1      34.281  20.739  25.047  1.00  0.00     0.177 C 
BRANCH   6   7
ATOM      7  C   UNL A   1      33.416  21.742  24.259  1.00  0.00     0.095 C 
BRANCH   7   8
ATOM      8  C   UNL A   1      32.813  22.860  25.075  1.00  0.00     0.085 A 
ATOM      9  C   UNL A   1      33.761  26.386  25.564  1.00  0.00     0.067 C 
ATOM     10  C   UNL A   1      33.010  25.100  25.730  1.00  0.00     0.038 A 
ATOM     11  C   UNL A   1      31.871  25.012  26.513  1.00  0.00     0.027 A 
ATOM     12  N   UNL A   1      33.491  24.036  25.049  1.00  0.00    -0.254 NA
ATOM     13  C   UNL A   1      31.200  23.791  26.581  1.00  0.00     0.050 A 
ATOM     14  C   UNL A   1      31.672  22.704  25.849  1.00  0.00     0.137 A 
BRANCH  14  15
ATOM     15  O   UNL A   1      31.030  21.503  25.899  1.00  0.00    -0.506 OA
ATOM     16  H   UNL A   1      30.684  21.191  26.712  1.00  0.00     0.293 HD
ENDBRANCH  14  15
ENDBRANCH   7   8
ENDBRANCH   6   7
BRANCH   6  17
ATOM     17  N   UNL A   1      33.490  19.679  25.691  1.00  0.00    -0.347 N 
ATOM     18  C   UNL A   1      32.817  18.687  25.060  1.00  0.00     0.337 C 
ATOM     19  H   UNL A   1      33.445  19.692  26.674  1.00  0.00     0.164 HD
ATOM     20  O   UNL A   1      32.180  17.839  25.672  1.00  0.00    -0.279 OA
ENDBRANCH   6  17
ENDBRANCH   3   6
ENDBRANCH   1   2
BRANCH   1  21
ATOM     21  C   UNL A   1      38.092  20.085  24.989  1.00  0.00     0.042 C 
BRANCH  21  22
ATOM     22  C   UNL A   1      39.230  20.289  25.975  1.00  0.00     0.118 C 
BRANCH  22  23
ATOM     23  N   UNL A   1      40.199  19.199  25.965  1.00  0.00    -0.352 N 
ATOM     24  C   UNL A   1      41.567  19.246  26.077  1.00  0.00     0.251 C 
ATOM     25  H   UNL A   1      39.816  18.297  25.864  1.00  0.00     0.163 HD
ATOM     26  O   UNL A   1      42.240  18.235  25.899  1.00  0.00    -0.269 OA
BRANCH  24  27
ATOM     27  C   UNL A   1      42.227  20.532  26.378  1.00  0.00     0.039 A 
ATOM     28  C   UNL A   1      42.707  21.313  25.325  1.00  0.00     0.014 A 
ATOM     29  C   UNL A   1      42.329  20.985  27.696  1.00  0.00     0.014 A 
ATOM     30  C   UNL A   1      43.214  22.585  25.590  1.00  0.00     0.010 A 
ATOM     31  C   UNL A   1      42.730  22.291  27.944  1.00  0.00     0.010 A 
ATOM     32  C   UNL A   1      43.186  23.104  26.895  1.00  0.00    -0.014 A 
BRANCH  32  33
ATOM     33  C   UNL A   1      43.633  24.488  27.189  1.00  0.00     0.031 A 
ATOM     34  C   UNL A   1      42.650  25.501  27.707  1.00  0.00     0.074 A 
ATOM     35  C   UNL A   1      44.903  24.852  26.921  1.00  0.00     0.049 A 
ATOM     36  N   UNL A   1      42.826  26.774  27.958  1.00  0.00    -0.248 NA
ATOM     37  C   UNL A   1      41.275  25.030  27.947  1.00  0.00     0.031 C 
ATOM     38  C   UNL A   1      45.933  23.976  26.357  1.00  0.00     0.029 A 
ATOM     39  N   UNL A   1      45.541  26.057  27.075  1.00  0.00    -0.354 N 
ATOM     40  C   UNL A   1      41.586  27.253  28.360  1.00  0.00     0.074 A 
ATOM     41  C   UNL A   1      40.653  26.154  28.265  1.00  0.00     0.031 C 
ATOM     42  C   UNL A   1      47.079  24.666  26.237  1.00  0.00     0.029 A 
ATOM     43  C   UNL A   1      46.855  26.041  26.673  1.00  0.00     0.049 A 
ATOM     44  H   UNL A   1      45.100  26.858  27.439  1.00  0.00     0.167 HD
ATOM     45  C   UNL A   1      41.263  28.493  28.798  1.00  0.00     0.037 A 
ATOM     46  C   UNL A   1      47.772  27.026  26.650  1.00  0.00     0.037 A 
ATOM     47  C   UNL A   1      42.203  29.575  28.921  1.00  0.00     0.049 A 
ATOM     48  C   UNL A   1      47.386  28.395  27.145  1.00  0.00     0.074 A 
ATOM     49  C   UNL A   1      41.992  30.846  29.424  1.00  0.00     0.029 A 
ATOM     50  N   UNL A   1      43.533  29.513  28.529  1.00  0.00    -0.354 N 
ATOM     51  N   UNL A   1      46.233  28.814  27.608  1.00  0.00    -0.248 NA
ATOM     52  C   UNL A   1      48.432  29.426  27.124  1.00  0.00     0.031 C 
ATOM     53  C   UNL A   1      43.178  31.573  29.282  1.00  0.00     0.029 A 
ATOM     54  C   UNL A   1      44.147  30.735  28.752  1.00  0.00     0.049 A 
ATOM     55  H   UNL A   1      43.974  28.719  28.149  1.00  0.00     0.167 HD
ATOM     56  C   UNL A   1      46.422  30.144  27.958  1.00  0.00     0.074 A 
ATOM     57  C   UNL A   1      47.806  30.457  27.674  1.00  0.00     0.031 C 
ATOM     58  C   UNL A   1      45.529  31.027  28.470  1.00  0.00     0.037 A 
BRANCH  45  59
ATOM     59  C   UNL A   1      39.832  28.747  29.178  1.00  0.00     0.064 A 
ATOM     60  C   UNL A   1      39.368  28.554  30.488  1.00  0.00     0.173 A 
ATOM     61  C   UNL A   1      38.921  29.233  28.227  1.00  0.00     0.173 A 
ATOM     62  F   UNL A   1      40.193  28.079  31.433  1.00  0.00    -0.203 F 
ATOM     63  C   UNL A   1      38.041  28.806  30.825  1.00  0.00     0.198 A 
ATOM     64  C   UNL A   1      37.602  29.518  28.576  1.00  0.00     0.198 A 
ATOM     65  F   UNL A   1      39.310  29.441  26.961  1.00  0.00    -0.203 F 
ATOM     66  F   UNL A   1      37.609  28.562  32.070  1.00  0.00    -0.200 F 
ATOM     67  C   UNL A   1      37.162  29.297  29.871  1.00  0.00     0.200 A 
ATOM     68  F   UNL A   1      36.759  30.007  27.657  1.00  0.00    -0.200 F 
ATOM     69  F   UNL A   1      35.888  29.551  30.200  1.00  0.00    -0.200 F 
ENDBRANCH  45  59
BRANCH  46  70
ATOM     70  C   UNL A   1      49.148  26.755  26.156  1.00  0.00     0.064 A 
ATOM     71  C   UNL A   1      49.513  27.049  24.834  1.00  0.00     0.173 A 
ATOM     72  C   UNL A   1      50.123  26.183  26.988  1.00  0.00     0.173 A 
ATOM     73  F   UNL A   1      48.613  27.578  23.993  1.00  0.00    -0.203 F 
ATOM     74  C   UNL A   1      50.790  26.756  24.357  1.00  0.00     0.198 A 
ATOM     75  C   UNL A   1      51.408  25.922  26.518  1.00  0.00     0.198 A 
ATOM     76  F   UNL A   1      49.829  25.888  28.262  1.00  0.00    -0.203 F 
ATOM     77  F   UNL A   1      51.093  26.998  23.074  1.00  0.00    -0.200 F 
ATOM     78  C   UNL A   1      51.738  26.198  25.200  1.00  0.00     0.200 A 
ATOM     79  F   UNL A   1      52.326  25.397  27.342  1.00  0.00    -0.200 F 
ATOM     80  F   UNL A   1      52.965  25.918  24.741  1.00  0.00    -0.200 F 
ENDBRANCH  46  70
BRANCH  58  81
ATOM     81  C   UNL A   1      46.032  32.406  28.793  1.00  0.00     0.064 A 
ATOM     82  C   UNL A   1      45.938  33.462  27.875  1.00  0.00     0.173 A 
ATOM     83  C   UNL A   1      46.577  32.681  30.057  1.00  0.00     0.173 A 
ATOM     84  F   UNL A   1      45.437  33.249  26.650  1.00  0.00    -0.203 F 
ATOM     85  C   UNL A   1      46.401  34.734  28.200  1.00  0.00     0.198 A 
ATOM     86  C   UNL A   1      47.005  33.963  30.390  1.00  0.00     0.198 A 
ATOM     87  F   UNL A   1      46.682  31.708  30.976  1.00  0.00    -0.203 F 
ATOM     88  F   UNL A   1      46.351  35.715  27.288  1.00  0.00    -0.200 F 
ATOM     89  C   UNL A   1      46.925  34.986  29.458  1.00  0.00     0.200 A 
ATOM     90  F   UNL A   1      47.495  34.206  31.613  1.00  0.00    -0.200 F 
ATOM     91  F   UNL A   1      47.361  36.213  29.772  1.00  0.00    -0.200 F 
ENDBRANCH  58  81
ENDBRANCH  32  33
ENDBRANCH  24  27
ENDBRANCH  22  23
ENDBRANCH  21  22
ENDBRANCH   1  21
TORSDOF 14
ENDMDL
MODEL 2
REMARK VINA RESULT:     -12.0      6.179     11.550
REMARK SMILES Cc1ccc(O)c(C[C@H](NC=O)C(=O)NCCCNC(=O)c2ccc(-c3c4nc(c(-c5c(F)c(F)c(F)c(F)c5F)c5ccc([nH]5)c(-c5c(F)c(F)c(F)c(F)c5F)c5nc(c(-c6c(F)c(F)c(F)c(F)c6F)c6ccc3[nH]6)C=C5)C=C4)cc2)n1
REMARK SMILES IDX 16 1 15 2 13 3 14 4 9 6 8 7 7 8 1 9 2 10 3 11 85 12 4 13
REMARK SMILES IDX 5 14 6 15 10 17 11 18 12 20 17 21 18 22 19 23 20 24 21 26
REMARK SMILES IDX 22 27 23 28 84 29 24 30 83 31 25 32 26 33 27 34 77 35 28 36
REMARK SMILES IDX 82 37 76 38 78 39 29 40 81 41 75 42 74 43 30 45 62 46 42 47
REMARK SMILES IDX 61 48 43 49 46 50 60 51 79 52 44 53 45 54 59 56 80 57 47 58
REMARK SMILES IDX 31 59 32 60 40 61 33 62 34 63 38 64 41 65 35 66 36 67 39 68
REMARK SMILES IDX 37 69 63 70 64 71 72 72 65 73 66 74 70 75 73 76 67 77 68 78
REMARK SMILES IDX 71 79 69 80 48 81 49 82 57 83 50 84 51 85 55 86 58 87 52 88
REMARK SMILES IDX 53 89 56 90 54 91
REMARK H PARENT 15 5 6 16 10 19 19 25 78 44 46 55
REMARK Flexibility Score: inf
ROOT
ATOM      1  C   UNL A   1      31.772  30.507  26.737  1.00  0.00     0.117 C 
ENDROOT
BRANCH   1   2
ATOM      2  N   UNL A   1      32.697  30.007  25.732  1.00  0.00    -0.354 N 
ATOM      3  C   UNL A   1      32.417  29.479  24.502  1.00  0.00     0.242 C 
ATOM      4  O   UNL A   1      33.347  29.350  23.700  1.00  0.00    -0.273 OA
ATOM      5  H   UNL A   1      33.651  30.054  25.970  1.00  0.00     0.163 HD
BRANCH   3   6
ATOM      6  C   UNL A   1      30.988  29.030  24.147  1.00  0.00     0.177 C 
BRANCH   6   7
ATOM      7  C   UNL A   1      30.710  27.518  24.264  1.00  0.00     0.095 C 
BRANCH   7   8
ATOM      8  C   UNL A   1      31.812  26.615  23.766  1.00  0.00     0.085 A 
ATOM      9  C   UNL A   1      34.428  24.680  25.494  1.00  0.00     0.067 C 
ATOM     10  C   UNL A   1      33.635  25.272  24.369  1.00  0.00     0.038 A 
ATOM     11  C   UNL A   1      33.890  24.957  23.046  1.00  0.00     0.027 A 
ATOM     12  N   UNL A   1      32.635  26.111  24.722  1.00  0.00    -0.254 NA
ATOM     13  C   UNL A   1      33.078  25.512  22.057  1.00  0.00     0.050 A 
ATOM     14  C   UNL A   1      32.023  26.345  22.421  1.00  0.00     0.137 A 
BRANCH  14  15
ATOM     15  O   UNL A   1      31.215  26.896  21.472  1.00  0.00    -0.506 OA
ATOM     16  H   UNL A   1      31.195  26.535  20.608  1.00  0.00     0.293 HD
ENDBRANCH  14  15
ENDBRANCH   7   8
ENDBRANCH   6   7
BRANCH   6  17
ATOM     17  N   UNL A   1      30.711  29.563  22.805  1.00  0.00    -0.347 N 
ATOM     18  C   UNL A   1      29.487  29.796  22.272  1.00  0.00     0.337 C 
ATOM     19  H   UNL A   1      31.489  29.769  22.238  1.00  0.00     0.164 HD
ATOM     20  O   UNL A   1      29.342  30.244  21.141  1.00  0.00    -0.279 OA
ENDBRANCH   6  17
ENDBRANCH   3   6
ENDBRANCH   1   2
BRANCH   1  21
ATOM     21  C   UNL A   1      31.615  32.011  26.671  1.00  0.00     0.042 C 
BRANCH  21  22
ATOM     22  C   UNL A   1      32.759  32.759  27.333  1.00  0.00     0.118 C 
BRANCH  22  23
ATOM     23  N   UNL A   1      32.433  34.145  27.646  1.00  0.00    -0.352 N 
ATOM     24  C   UNL A   1      32.973  34.977  28.598  1.00  0.00     0.251 C 
ATOM     25  H   UNL A   1      31.721  34.544  27.096  1.00  0.00     0.163 HD
ATOM     26  O   UNL A   1      32.472  36.074  28.821  1.00  0.00    -0.269 OA
BRANCH  24  27
ATOM     27  C   UNL A   1      34.144  34.524  29.376  1.00  0.00     0.039 A 
ATOM     28  C   UNL A   1      33.945  33.963  30.639  1.00  0.00     0.014 A 
ATOM     29  C   UNL A   1      35.430  34.612  28.839  1.00  0.00     0.014 A 
ATOM     30  C   UNL A   1      35.028  33.416  31.326  1.00  0.00     0.010 A 
ATOM     31  C   UNL A   1      36.485  33.969  29.473  1.00  0.00     0.010 A 
ATOM     32  C   UNL A   1      36.299  33.371  30.728  1.00  0.00    -0.014 A 
BRANCH  32  33
ATOM     33  C   UNL A   1      37.448  32.713  31.398  1.00  0.00     0.031 A 
ATOM     34  C   UNL A   1      38.144  31.557  30.732  1.00  0.00     0.074 A 
ATOM     35  C   UNL A   1      37.817  33.105  32.634  1.00  0.00     0.049 A 
ATOM     36  N   UNL A   1      39.117  30.806  31.181  1.00  0.00    -0.248 NA
ATOM     37  C   UNL A   1      37.661  31.172  29.396  1.00  0.00     0.031 C 
ATOM     38  C   UNL A   1      37.178  34.171  33.409  1.00  0.00     0.029 A 
ATOM     39  N   UNL A   1      38.811  32.645  33.460  1.00  0.00    -0.354 N 
ATOM     40  C   UNL A   1      39.344  29.855  30.196  1.00  0.00     0.074 A 
ATOM     41  C   UNL A   1      38.371  30.083  29.152  1.00  0.00     0.031 C 
ATOM     42  C   UNL A   1      37.812  34.300  34.585  1.00  0.00     0.029 A 
ATOM     43  C   UNL A   1      38.872  33.299  34.667  1.00  0.00     0.049 A 
ATOM     44  H   UNL A   1      39.422  31.914  33.212  1.00  0.00     0.167 HD
ATOM     45  C   UNL A   1      40.298  28.895  30.153  1.00  0.00     0.037 A 
ATOM     46  C   UNL A   1      39.684  33.106  35.723  1.00  0.00     0.037 A 
ATOM     47  C   UNL A   1      41.284  28.693  31.181  1.00  0.00     0.049 A 
ATOM     48  C   UNL A   1      40.739  32.034  35.648  1.00  0.00     0.074 A 
ATOM     49  C   UNL A   1      42.339  27.799  31.199  1.00  0.00     0.029 A 
ATOM     50  N   UNL A   1      41.331  29.394  32.378  1.00  0.00    -0.354 N 
ATOM     51  N   UNL A   1      41.001  31.198  34.672  1.00  0.00    -0.248 NA
ATOM     52  C   UNL A   1      41.615  31.885  36.817  1.00  0.00     0.031 C 
ATOM     53  C   UNL A   1      42.989  27.916  32.431  1.00  0.00     0.029 A 
ATOM     54  C   UNL A   1      42.381  28.930  33.155  1.00  0.00     0.049 A 
ATOM     55  H   UNL A   1      40.712  30.114  32.637  1.00  0.00     0.167 HD
ATOM     56  C   UNL A   1      42.088  30.445  35.097  1.00  0.00     0.074 A 
ATOM     57  C   UNL A   1      42.448  30.937  36.409  1.00  0.00     0.031 C 
ATOM     58  C   UNL A   1      42.731  29.437  34.457  1.00  0.00     0.037 A 
BRANCH  45  59
ATOM     59  C   UNL A   1      40.323  27.989  28.955  1.00  0.00     0.064 A 
ATOM     60  C   UNL A   1      41.068  28.300  27.807  1.00  0.00     0.173 A 
ATOM     61  C   UNL A   1      39.626  26.771  28.972  1.00  0.00     0.173 A 
ATOM     62  F   UNL A   1      41.743  29.457  27.733  1.00  0.00    -0.203 F 
ATOM     63  C   UNL A   1      41.089  27.442  26.711  1.00  0.00     0.198 A 
ATOM     64  C   UNL A   1      39.678  25.898  27.887  1.00  0.00     0.198 A 
ATOM     65  F   UNL A   1      38.902  26.420  30.045  1.00  0.00    -0.203 F 
ATOM     66  F   UNL A   1      41.765  27.787  25.605  1.00  0.00    -0.200 F 
ATOM     67  C   UNL A   1      40.403  26.239  26.756  1.00  0.00     0.200 A 
ATOM     68  F   UNL A   1      39.026  24.729  27.938  1.00  0.00    -0.200 F 
ATOM     69  F   UNL A   1      40.434  25.409  25.704  1.00  0.00    -0.200 F 
ENDBRANCH  45  59
BRANCH  46  70
ATOM     70  C   UNL A   1      39.546  33.955  36.936  1.00  0.00     0.064 A 
ATOM     71  C   UNL A   1      38.791  33.526  38.037  1.00  0.00     0.173 A 
ATOM     72  C   UNL A   1      40.152  35.218  37.017  1.00  0.00     0.173 A 
ATOM     73  F   UNL A   1      38.175  32.335  38.003  1.00  0.00    -0.203 F 
ATOM     74  C   UNL A   1      38.625  34.337  39.159  1.00  0.00     0.198 A 
ATOM     75  C   UNL A   1      40.012  36.014  38.152  1.00  0.00     0.198 A 
ATOM     76  F   UNL A   1      40.890  35.674  35.995  1.00  0.00    -0.203 F 
ATOM     77  F   UNL A   1      37.852  33.923  40.172  1.00  0.00    -0.200 F 
ATOM     78  C   UNL A   1      39.240  35.578  39.218  1.00  0.00     0.200 A 
ATOM     79  F   UNL A   1      40.622  37.205  38.211  1.00  0.00    -0.200 F 
ATOM     80  F   UNL A   1      39.081  36.357  40.296  1.00  0.00    -0.200 F 
ENDBRANCH  46  70
BRANCH  58  81
ATOM     81  C   UNL A   1      43.915  28.825  35.150  1.00  0.00     0.064 A 
ATOM     82  C   UNL A   1      43.778  27.744  36.033  1.00  0.00     0.173 A 
ATOM     83  C   UNL A   1      45.209  29.302  34.892  1.00  0.00     0.173 A 
ATOM     84  F   UNL A   1      42.562  27.259  36.324  1.00  0.00    -0.203 F 
ATOM     85  C   UNL A   1      44.890  27.185  36.656  1.00  0.00     0.198 A 
ATOM     86  C   UNL A   1      46.322  28.717  35.489  1.00  0.00     0.198 A 
ATOM     87  F   UNL A   1      45.397  30.328  34.048  1.00  0.00    -0.203 F 
ATOM     88  F   UNL A   1      44.731  26.189  37.539  1.00  0.00    -0.200 F 
ATOM     89  C   UNL A   1      46.161  27.665  36.378  1.00  0.00     0.200 A 
ATOM     90  F   UNL A   1      47.549  29.172  35.205  1.00  0.00    -0.200 F 
ATOM     91  F   UNL A   1      47.231  27.120  36.972  1.00  0.00    -0.200 F 
ENDBRANCH  58  81
ENDBRANCH  32  33
ENDBRANCH  24  27
ENDBRANCH  22  23
ENDBRANCH  21  22
ENDBRANCH   1  21
TORSDOF 14
ENDMDL
MODEL 3
REMARK VINA RESULT:     -12.0      0.214      1.642
REMARK SMILES Cc1ccc(O)c(C[C@H](NC=O)C(=O)NCCCNC(=O)c2ccc(-c3c4nc(c(-c5c(F)c(F)c(F)c(F)c5F)c5ccc([nH]5)c(-c5c(F)c(F)c(F)c(F)c5F)c5nc(c(-c6c(F)c(F)c(F)c(F)c6F)c6ccc3[nH]6)C=C5)C=C4)cc2)n1
REMARK SMILES IDX 16 1 15 2 13 3 14 4 9 6 8 7 7 8 1 9 2 10 3 11 85 12 4 13
REMARK SMILES IDX 5 14 6 15 10 17 11 18 12 20 17 21 18 22 19 23 20 24 21 26
REMARK SMILES IDX 22 27 23 28 84 29 24 30 83 31 25 32 26 33 27 34 77 35 28 36
REMARK SMILES IDX 82 37 76 38 78 39 29 40 81 41 75 42 74 43 30 45 62 46 42 47
REMARK SMILES IDX 61 48 43 49 46 50 60 51 79 52 44 53 45 54 59 56 80 57 47 58
REMARK SMILES IDX 31 59 32 60 40 61 33 62 34 63 38 64 41 65 35 66 36 67 39 68
REMARK SMILES IDX 37 69 63 70 64 71 72 72 65 73 66 74 70 75 73 76 67 77 68 78
REMARK SMILES IDX 71 79 69 80 48 81 49 82 57 83 50 84 51 85 55 86 58 87 52 88
REMARK SMILES IDX 53 89 56 90 54 91
REMARK H PARENT 15 5 6 16 10 19 19 25 78 44 46 55
REMARK Flexibility Score: inf
ROOT
ATOM      1  C   UNL A   1      37.314  21.434  24.773  1.00  0.00     0.117 C 
ENDROOT
BRANCH   1   2
ATOM      2  N   UNL A   1      36.471  21.789  25.903  1.00  0.00    -0.354 N 
ATOM      3  C   UNL A   1      35.177  21.421  26.151  1.00  0.00     0.242 C 
ATOM      4  O   UNL A   1      34.725  21.615  27.283  1.00  0.00    -0.273 OA
ATOM      5  H   UNL A   1      36.887  22.371  26.579  1.00  0.00     0.163 HD
BRANCH   3   6
ATOM      6  C   UNL A   1      34.306  20.815  25.036  1.00  0.00     0.177 C 
BRANCH   6   7
ATOM      7  C   UNL A   1      33.459  21.816  24.225  1.00  0.00     0.095 C 
BRANCH   7   8
ATOM      8  C   UNL A   1      32.791  22.903  25.030  1.00  0.00     0.085 A 
ATOM      9  C   UNL A   1      33.569  26.468  25.542  1.00  0.00     0.067 C 
ATOM     10  C   UNL A   1      32.874  25.149  25.692  1.00  0.00     0.038 A 
ATOM     11  C   UNL A   1      31.726  25.007  26.454  1.00  0.00     0.027 A 
ATOM     12  N   UNL A   1      33.415  24.109  25.019  1.00  0.00    -0.254 NA
ATOM     13  C   UNL A   1      31.110  23.757  26.508  1.00  0.00     0.050 A 
ATOM     14  C   UNL A   1      31.644  22.694  25.783  1.00  0.00     0.137 A 
BRANCH  14  15
ATOM     15  O   UNL A   1      31.057  21.465  25.820  1.00  0.00    -0.506 OA
ATOM     16  H   UNL A   1      30.698  21.095  25.038  1.00  0.00     0.293 HD
ENDBRANCH  14  15
ENDBRANCH   7   8
ENDBRANCH   6   7
BRANCH   6  17
ATOM     17  N   UNL A   1      33.499  19.763  25.673  1.00  0.00    -0.347 N 
ATOM     18  C   UNL A   1      32.981  18.670  25.061  1.00  0.00     0.337 C 
ATOM     19  H   UNL A   1      33.315  19.862  26.635  1.00  0.00     0.164 HD
ATOM     20  O   UNL A   1      32.317  17.837  25.665  1.00  0.00    -0.279 OA
ENDBRANCH   6  17
ENDBRANCH   3   6
ENDBRANCH   1   2
BRANCH   1  21
ATOM     21  C   UNL A   1      38.097  20.161  25.020  1.00  0.00     0.042 C 
BRANCH  21  22
ATOM     22  C   UNL A   1      39.199  20.331  26.052  1.00  0.00     0.118 C 
BRANCH  22  23
ATOM     23  N   UNL A   1      40.165  19.239  26.042  1.00  0.00    -0.352 N 
ATOM     24  C   UNL A   1      41.536  19.285  26.123  1.00  0.00     0.251 C 
ATOM     25  H   UNL A   1      39.779  18.336  25.968  1.00  0.00     0.163 HD
ATOM     26  O   UNL A   1      42.202  18.269  25.951  1.00  0.00    -0.269 OA
BRANCH  24  27
ATOM     27  C   UNL A   1      42.204  20.575  26.383  1.00  0.00     0.039 A 
ATOM     28  C   UNL A   1      42.654  21.338  25.303  1.00  0.00     0.014 A 
ATOM     29  C   UNL A   1      42.346  21.051  27.689  1.00  0.00     0.014 A 
ATOM     30  C   UNL A   1      43.169  22.614  25.531  1.00  0.00     0.010 A 
ATOM     31  C   UNL A   1      42.754  22.360  27.903  1.00  0.00     0.010 A 
ATOM     32  C   UNL A   1      43.179  23.155  26.828  1.00  0.00    -0.014 A 
BRANCH  32  33
ATOM     33  C   UNL A   1      43.636  24.543  27.085  1.00  0.00     0.031 A 
ATOM     34  C   UNL A   1      42.659  25.575  27.578  1.00  0.00     0.074 A 
ATOM     35  C   UNL A   1      44.907  24.892  26.805  1.00  0.00     0.049 A 
ATOM     36  N   UNL A   1      42.843  26.854  27.795  1.00  0.00    -0.248 NA
ATOM     37  C   UNL A   1      41.282  25.119  27.832  1.00  0.00     0.031 C 
ATOM     38  C   UNL A   1      45.931  23.996  26.262  1.00  0.00     0.029 A 
ATOM     39  N   UNL A   1      45.553  26.097  26.927  1.00  0.00    -0.354 N 
ATOM     40  C   UNL A   1      41.607  27.351  28.187  1.00  0.00     0.074 A 
ATOM     41  C   UNL A   1      40.667  26.255  28.121  1.00  0.00     0.031 C 
ATOM     42  C   UNL A   1      47.081  24.675  26.123  1.00  0.00     0.029 A 
ATOM     43  C   UNL A   1      46.866  26.062  26.523  1.00  0.00     0.049 A 
ATOM     44  H   UNL A   1      45.117  26.910  27.270  1.00  0.00     0.167 HD
ATOM     45  C   UNL A   1      41.292  28.603  28.592  1.00  0.00     0.037 A 
ATOM     46  C   UNL A   1      47.789  27.041  26.474  1.00  0.00     0.037 A 
ATOM     47  C   UNL A   1      42.239  29.683  28.686  1.00  0.00     0.049 A 
ATOM     48  C   UNL A   1      47.412  28.425  26.933  1.00  0.00     0.074 A 
ATOM     49  C   UNL A   1      42.037  30.967  29.156  1.00  0.00     0.029 A 
ATOM     50  N   UNL A   1      43.568  29.602  28.294  1.00  0.00    -0.354 N 
ATOM     51  N   UNL A   1      46.262  28.863  27.387  1.00  0.00    -0.248 NA
ATOM     52  C   UNL A   1      48.464  29.448  26.884  1.00  0.00     0.031 C 
ATOM     53  C   UNL A   1      43.227  31.683  28.993  1.00  0.00     0.029 A 
ATOM     54  C   UNL A   1      44.190  30.826  28.484  1.00  0.00     0.049 A 
ATOM     55  H   UNL A   1      44.004  28.796  27.934  1.00  0.00     0.167 HD
ATOM     56  C   UNL A   1      46.460  30.200  27.702  1.00  0.00     0.074 A 
ATOM     57  C   UNL A   1      47.845  30.497  27.408  1.00  0.00     0.031 C 
ATOM     58  C   UNL A   1      45.573  31.102  28.193  1.00  0.00     0.037 A 
BRANCH  45  59
ATOM     59  C   UNL A   1      39.863  28.876  28.968  1.00  0.00     0.064 A 
ATOM     60  C   UNL A   1      38.920  29.313  28.024  1.00  0.00     0.173 A 
ATOM     61  C   UNL A   1      39.420  28.656  30.281  1.00  0.00     0.173 A 
ATOM     62  F   UNL A   1      39.293  29.551  26.757  1.00  0.00    -0.203 F 
ATOM     63  C   UNL A   1      37.597  29.549  28.387  1.00  0.00     0.198 A 
ATOM     64  C   UNL A   1      38.087  28.858  30.633  1.00  0.00     0.198 A 
ATOM     65  F   UNL A   1      40.277  28.233  31.223  1.00  0.00    -0.203 F 
ATOM     66  F   UNL A   1      36.728  30.017  27.480  1.00  0.00    -0.200 F 
ATOM     67  C   UNL A   1      37.180  29.312  29.688  1.00  0.00     0.200 A 
ATOM     68  F   UNL A   1      37.683  28.615  31.886  1.00  0.00    -0.200 F 
ATOM     69  F   UNL A   1      35.903  29.528  30.033  1.00  0.00    -0.200 F 
ENDBRANCH  45  59
BRANCH  46  70
ATOM     70  C   UNL A   1      49.162  26.748  25.985  1.00  0.00     0.064 A 
ATOM     71  C   UNL A   1      50.149  26.257  26.851  1.00  0.00     0.173 A 
ATOM     72  C   UNL A   1      49.523  26.967  24.646  1.00  0.00     0.173 A 
ATOM     73  F   UNL A   1      49.861  26.049  28.144  1.00  0.00    -0.203 F 
ATOM     74  C   UNL A   1      51.448  26.022  26.405  1.00  0.00     0.198 A 
ATOM     75  C   UNL A   1      50.814  26.701  24.195  1.00  0.00     0.198 A 
ATOM     76  F   UNL A   1      48.616  27.431  23.774  1.00  0.00    -0.203 F 
ATOM     77  F   UNL A   1      52.385  25.604  27.269  1.00  0.00    -0.200 F 
ATOM     78  C   UNL A   1      51.779  26.238  25.076  1.00  0.00     0.200 A 
ATOM     79  F   UNL A   1      51.123  26.896  22.906  1.00  0.00    -0.200 F 
ATOM     80  F   UNL A   1      53.028  26.011  24.648  1.00  0.00    -0.200 F 
ENDBRANCH  46  70
BRANCH  58  81
ATOM     81  C   UNL A   1      46.085  32.485  28.479  1.00  0.00     0.064 A 
ATOM     82  C   UNL A   1      46.025  33.509  27.523  1.00  0.00     0.173 A 
ATOM     83  C   UNL A   1      46.604  32.799  29.745  1.00  0.00     0.173 A 
ATOM     84  F   UNL A   1      45.550  33.259  26.293  1.00  0.00    -0.203 F 
ATOM     85  C   UNL A   1      46.495  34.787  27.813  1.00  0.00     0.198 A 
ATOM     86  C   UNL A   1      47.039  34.087  30.043  1.00  0.00     0.198 A 
ATOM     87  F   UNL A   1      46.675  31.858  30.699  1.00  0.00    -0.203 F 
ATOM     88  F   UNL A   1      46.479  35.736  26.866  1.00  0.00    -0.200 F 
ATOM     89  C   UNL A   1      46.993  35.077  29.074  1.00  0.00     0.200 A 
ATOM     90  F   UNL A   1      47.504  34.368  31.268  1.00  0.00    -0.200 F 
ATOM     91  F   UNL A   1      47.437  36.310  29.354  1.00  0.00    -0.200 F 
ENDBRANCH  58  81
ENDBRANCH  32  33
ENDBRANCH  24  27
ENDBRANCH  22  23
ENDBRANCH  21  22
ENDBRANCH   1  21
TORSDOF 14
ENDMDL
