MODEL 1
REMARK VINA RESULT:     -12.2      0.000      0.000
REMARK SMILES O=C(CCNC(=O)CSc1nc2[nH]cnc2c(=O)[nH]1)NCCCNC(=O)c1ccc(-c2c3nc(c(-c4c(F)c(F)c(F)c(F)c4F)c4ccc([nH]4)c(-c4c(F)c(F)c(F)c(F)c4F)c4nc(c(-c5c(F)c(F)c(F)c(F)c5F)c5ccc2[nH]5)C=C4)C=C3)cc1
REMARK SMILES IDX 1 1 2 2 20 3 3 5 4 6 5 7 6 8 7 10 8 11 9 12 10 13 11 14
REMARK SMILES IDX 19 15 12 16 17 17 13 19 16 20 18 21 14 22 15 24 21 25 22 26
REMARK SMILES IDX 23 27 24 28 25 29 26 31 27 32 28 33 89 34 29 35 88 36 30 37
REMARK SMILES IDX 31 38 32 39 82 40 33 41 87 42 81 43 83 44 34 45 86 46 80 47
REMARK SMILES IDX 79 48 35 50 67 51 47 52 66 53 48 54 51 55 65 56 84 57 49 58
REMARK SMILES IDX 50 59 64 61 85 62 52 63 36 64 37 65 45 66 38 67 39 68 43 69
REMARK SMILES IDX 46 70 40 71 41 72 44 73 42 74 68 75 69 76 77 77 70 78 71 79
REMARK SMILES IDX 75 80 78 81 72 82 73 83 76 84 74 85 53 86 54 87 62 88 55 89
REMARK SMILES IDX 56 90 60 91 63 92 57 93 58 94 61 95 59 96
REMARK H PARENT 20 4 5 9 19 18 13 23 24 30 83 49 51 60
REMARK Flexibility Score: inf
ROOT
ATOM      1  O   UNL A   1      31.823  28.275  25.013  1.00  0.00    -0.275 OA
ATOM      2  C   UNL A   1      31.163  29.162  24.482  1.00  0.00     0.221 C 
ATOM      3  N   UNL A   1      31.043  30.439  24.985  1.00  0.00    -0.356 N 
ATOM      4  H   UNL A   1      30.567  31.114  24.451  1.00  0.00     0.163 HD
ENDROOT
BRANCH   2   5
ATOM      5  C   UNL A   1      30.367  28.927  23.218  1.00  0.00     0.121 C 
BRANCH   5   6
ATOM      6  C   UNL A   1      30.563  27.494  22.723  1.00  0.00     0.125 C 
BRANCH   6   7
ATOM      7  N   UNL A   1      31.763  27.369  21.904  1.00  0.00    -0.355 N 
ATOM      8  C   UNL A   1      32.889  26.631  22.129  1.00  0.00     0.230 C 
ATOM      9  H   UNL A   1      31.761  27.891  21.069  1.00  0.00     0.163 HD
ATOM     10  O   UNL A   1      33.901  26.899  21.480  1.00  0.00    -0.274 OA
BRANCH   8  11
ATOM     11  C   UNL A   1      32.861  25.466  23.095  1.00  0.00     0.178 C 
BRANCH  11  12
ATOM     12  S   UNL A   1      32.776  23.853  22.295  1.00  0.00    -0.078 SA
BRANCH  12  13
ATOM     13  C   UNL A   1      34.011  22.985  23.148  1.00  0.00     0.170 A 
ATOM     14  N   UNL A   1      35.244  23.397  23.112  1.00  0.00    -0.204 NA
ATOM     15  N   UNL A   1      33.535  21.924  23.885  1.00  0.00    -0.299 N 
ATOM     16  C   UNL A   1      36.041  22.669  23.927  1.00  0.00     0.165 A 
ATOM     17  C   UNL A   1      34.331  21.146  24.710  1.00  0.00     0.279 A 
ATOM     18  H   UNL A   1      32.576  21.706  23.823  1.00  0.00     0.172 HD
ATOM     19  N   UNL A   1      37.356  22.914  24.188  1.00  0.00    -0.329 N 
ATOM     20  C   UNL A   1      35.710  21.593  24.719  1.00  0.00     0.172 A 
ATOM     21  O   UNL A   1      33.874  20.213  25.362  1.00  0.00    -0.267 OA
ATOM     22  C   UNL A   1      37.763  21.984  25.111  1.00  0.00     0.199 A 
ATOM     23  H   UNL A   1      37.910  23.625  23.790  1.00  0.00     0.169 HD
ATOM     24  N   UNL A   1      36.791  21.158  25.443  1.00  0.00    -0.229 NA
ENDBRANCH  12  13
ENDBRANCH  11  12
ENDBRANCH   8  11
ENDBRANCH   6   7
ENDBRANCH   5   6
ENDBRANCH   2   5
BRANCH   3  25
ATOM     25  C   UNL A   1      31.593  30.827  26.270  1.00  0.00     0.117 C 
BRANCH  25  26
ATOM     26  C   UNL A   1      31.443  32.317  26.539  1.00  0.00     0.042 C 
BRANCH  26  27
ATOM     27  C   UNL A   1      32.647  32.963  27.215  1.00  0.00     0.118 C 
BRANCH  27  28
ATOM     28  N   UNL A   1      32.393  34.322  27.671  1.00  0.00    -0.352 N 
ATOM     29  C   UNL A   1      32.996  35.041  28.675  1.00  0.00     0.251 C 
ATOM     30  H   UNL A   1      31.679  34.797  27.188  1.00  0.00     0.163 HD
ATOM     31  O   UNL A   1      32.538  36.134  28.997  1.00  0.00    -0.269 OA
BRANCH  29  32
ATOM     32  C   UNL A   1      34.168  34.496  29.395  1.00  0.00     0.039 A 
ATOM     33  C   UNL A   1      33.964  33.859  30.622  1.00  0.00     0.014 A 
ATOM     34  C   UNL A   1      35.462  34.620  28.883  1.00  0.00     0.014 A 
ATOM     35  C   UNL A   1      35.044  33.292  31.302  1.00  0.00     0.010 A 
ATOM     36  C   UNL A   1      36.525  33.980  29.518  1.00  0.00     0.010 A 
ATOM     37  C   UNL A   1      36.331  33.315  30.739  1.00  0.00    -0.014 A 
BRANCH  37  38
ATOM     38  C   UNL A   1      37.480  32.665  31.421  1.00  0.00     0.031 A 
ATOM     39  C   UNL A   1      38.204  31.521  30.763  1.00  0.00     0.074 A 
ATOM     40  C   UNL A   1      37.846  33.068  32.654  1.00  0.00     0.049 A 
ATOM     41  N   UNL A   1      39.191  30.791  31.220  1.00  0.00    -0.248 NA
ATOM     42  C   UNL A   1      37.738  31.126  29.425  1.00  0.00     0.031 C 
ATOM     43  C   UNL A   1      37.203  34.137  33.420  1.00  0.00     0.029 A 
ATOM     44  N   UNL A   1      38.844  32.620  33.486  1.00  0.00    -0.354 N 
ATOM     45  C   UNL A   1      39.452  29.848  30.233  1.00  0.00     0.074 A 
ATOM     46  C   UNL A   1      38.481  30.059  29.182  1.00  0.00     0.031 C 
ATOM     47  C   UNL A   1      37.837  34.280  34.594  1.00  0.00     0.029 A 
ATOM     48  C   UNL A   1      38.902  33.287  34.686  1.00  0.00     0.049 A 
ATOM     49  H   UNL A   1      39.458  31.890  33.244  1.00  0.00     0.167 HD
ATOM     50  C   UNL A   1      40.428  28.909  30.195  1.00  0.00     0.037 A 
ATOM     51  C   UNL A   1      39.717  33.111  35.744  1.00  0.00     0.037 A 
ATOM     52  C   UNL A   1      41.406  28.714  31.234  1.00  0.00     0.049 A 
ATOM     53  C   UNL A   1      40.780  32.046  35.686  1.00  0.00     0.074 A 
ATOM     54  C   UNL A   1      42.466  27.826  31.264  1.00  0.00     0.029 A 
ATOM     55  N   UNL A   1      41.436  29.414  32.432  1.00  0.00    -0.354 N 
ATOM     56  N   UNL A   1      41.063  31.208  34.717  1.00  0.00    -0.248 NA
ATOM     57  C   UNL A   1      41.644  31.907  36.866  1.00  0.00     0.031 C 
ATOM     58  C   UNL A   1      43.104  27.948  32.502  1.00  0.00     0.029 A 
ATOM     59  C   UNL A   1      42.482  28.958  33.219  1.00  0.00     0.049 A 
ATOM     60  H   UNL A   1      40.807  30.128  32.684  1.00  0.00     0.167 HD
ATOM     61  C   UNL A   1      42.153  30.470  35.156  1.00  0.00     0.074 A 
ATOM     62  C   UNL A   1      42.492  30.968  36.472  1.00  0.00     0.031 C 
ATOM     63  C   UNL A   1      42.815  29.469  34.524  1.00  0.00     0.037 A 
BRANCH  50  64
ATOM     64  C   UNL A   1      40.487  28.018  28.986  1.00  0.00     0.064 A 
ATOM     65  C   UNL A   1      39.770  26.812  28.922  1.00  0.00     0.173 A 
ATOM     66  C   UNL A   1      41.239  28.391  27.863  1.00  0.00     0.173 A 
ATOM     67  F   UNL A   1      39.040  26.404  29.971  1.00  0.00    -0.203 F 
ATOM     68  C   UNL A   1      39.833  25.999  27.794  1.00  0.00     0.198 A 
ATOM     69  C   UNL A   1      41.271  27.592  26.722  1.00  0.00     0.198 A 
ATOM     70  F   UNL A   1      41.935  29.538  27.864  1.00  0.00    -0.203 F 
ATOM     71  F   UNL A   1      39.182  24.827  27.778  1.00  0.00    -0.200 F 
ATOM     72  C   UNL A   1      40.577  26.393  26.692  1.00  0.00     0.200 A 
ATOM     73  F   UNL A   1      41.974  27.985  25.650  1.00  0.00    -0.200 F 
ATOM     74  F   UNL A   1      40.626  25.614  25.603  1.00  0.00    -0.200 F 
ENDBRANCH  50  64
BRANCH  51  75
ATOM     75  C   UNL A   1      39.575  33.975  36.946  1.00  0.00     0.064 A 
ATOM     76  C   UNL A   1      40.207  35.225  37.015  1.00  0.00     0.173 A 
ATOM     77  C   UNL A   1      38.822  33.566  38.056  1.00  0.00     0.173 A 
ATOM     78  F   UNL A   1      40.957  35.654  35.988  1.00  0.00    -0.203 F 
ATOM     79  C   UNL A   1      40.112  36.020  38.155  1.00  0.00     0.198 A 
ATOM     80  C   UNL A   1      38.701  34.375  39.184  1.00  0.00     0.198 A 
ATOM     81  F   UNL A   1      38.193  32.382  38.042  1.00  0.00    -0.203 F 
ATOM     82  F   UNL A   1      40.772  37.184  38.215  1.00  0.00    -0.200 F 
ATOM     83  C   UNL A   1      39.354  35.597  39.237  1.00  0.00     0.200 A 
ATOM     84  F   UNL A   1      37.954  33.970  40.220  1.00  0.00    -0.200 F 
ATOM     85  F   UNL A   1      39.262  36.362  40.333  1.00  0.00    -0.200 F 
ENDBRANCH  51  75
BRANCH  63  86
ATOM     86  C   UNL A   1      44.005  28.874  35.226  1.00  0.00     0.064 A 
ATOM     87  C   UNL A   1      45.294  29.408  35.080  1.00  0.00     0.173 A 
ATOM     88  C   UNL A   1      43.842  27.778  36.087  1.00  0.00     0.173 A 
ATOM     89  F   UNL A   1      45.507  30.446  34.257  1.00  0.00    -0.203 F 
ATOM     90  C   UNL A   1      46.380  28.847  35.748  1.00  0.00     0.198 A 
ATOM     91  C   UNL A   1      44.924  27.244  36.781  1.00  0.00     0.198 A 
ATOM     92  F   UNL A   1      42.630  27.234  36.270  1.00  0.00    -0.203 F 
ATOM     93  F   UNL A   1      47.611  29.339  35.551  1.00  0.00    -0.200 F 
ATOM     94  C   UNL A   1      46.193  27.772  36.604  1.00  0.00     0.200 A 
ATOM     95  F   UNL A   1      44.738  26.216  37.621  1.00  0.00    -0.200 F 
ATOM     96  F   UNL A   1      47.239  27.241  37.252  1.00  0.00    -0.200 F 
ENDBRANCH  63  86
ENDBRANCH  37  38
ENDBRANCH  29  32
ENDBRANCH  27  28
ENDBRANCH  26  27
ENDBRANCH  25  26
ENDBRANCH   3  25
TORSDOF 15
ENDMDL
MODEL 2
REMARK VINA RESULT:     -12.1      1.298      7.633
REMARK SMILES O=C(CCNC(=O)CSc1nc2[nH]cnc2c(=O)[nH]1)NCCCNC(=O)c1ccc(-c2c3nc(c(-c4c(F)c(F)c(F)c(F)c4F)c4ccc([nH]4)c(-c4c(F)c(F)c(F)c(F)c4F)c4nc(c(-c5c(F)c(F)c(F)c(F)c5F)c5ccc2[nH]5)C=C4)C=C3)cc1
REMARK SMILES IDX 1 1 2 2 20 3 3 5 4 6 5 7 6 8 7 10 8 11 9 12 10 13 11 14
REMARK SMILES IDX 19 15 12 16 17 17 13 19 16 20 18 21 14 22 15 24 21 25 22 26
REMARK SMILES IDX 23 27 24 28 25 29 26 31 27 32 28 33 89 34 29 35 88 36 30 37
REMARK SMILES IDX 31 38 32 39 82 40 33 41 87 42 81 43 83 44 34 45 86 46 80 47
REMARK SMILES IDX 79 48 35 50 67 51 47 52 66 53 48 54 51 55 65 56 84 57 49 58
REMARK SMILES IDX 50 59 64 61 85 62 52 63 36 64 37 65 45 66 38 67 39 68 43 69
REMARK SMILES IDX 46 70 40 71 41 72 44 73 42 74 68 75 69 76 77 77 70 78 71 79
REMARK SMILES IDX 75 80 78 81 72 82 73 83 76 84 74 85 53 86 54 87 62 88 55 89
REMARK SMILES IDX 56 90 60 91 63 92 57 93 58 94 61 95 59 96
REMARK H PARENT 20 4 5 9 19 18 13 23 24 30 83 49 51 60
REMARK Flexibility Score: inf
ROOT
ATOM      1  O   UNL A   1      32.092  28.222  24.956  1.00  0.00    -0.275 OA
ATOM      2  C   UNL A   1      31.565  29.188  24.416  1.00  0.00     0.221 C 
ATOM      3  N   UNL A   1      31.383  30.408  25.029  1.00  0.00    -0.356 N 
ATOM      4  H   UNL A   1      31.032  31.157  24.495  1.00  0.00     0.163 HD
ENDROOT
BRANCH   2   5
ATOM      5  C   UNL A   1      31.017  29.124  23.008  1.00  0.00     0.121 C 
BRANCH   5   6
ATOM      6  C   UNL A   1      30.682  27.681  22.630  1.00  0.00     0.125 C 
BRANCH   6   7
ATOM      7  N   UNL A   1      31.770  27.055  21.887  1.00  0.00    -0.355 N 
ATOM      8  C   UNL A   1      32.622  26.063  22.277  1.00  0.00     0.230 C 
ATOM      9  H   UNL A   1      31.908  27.395  20.974  1.00  0.00     0.163 HD
ATOM     10  O   UNL A   1      33.653  25.892  21.626  1.00  0.00    -0.274 OA
BRANCH   8  11
ATOM     11  C   UNL A   1      32.262  25.153  23.432  1.00  0.00     0.178 C 
BRANCH  11  12
ATOM     12  S   UNL A   1      33.686  24.516  24.334  1.00  0.00    -0.078 SA
BRANCH  12  13
ATOM     13  C   UNL A   1      33.371  22.811  24.307  1.00  0.00     0.170 A 
ATOM     14  N   UNL A   1      33.647  22.077  25.344  1.00  0.00    -0.204 NA
ATOM     15  N   UNL A   1      32.755  22.380  23.152  1.00  0.00    -0.299 N 
ATOM     16  C   UNL A   1      33.226  20.802  25.184  1.00  0.00     0.165 A 
ATOM     17  C   UNL A   1      32.333  21.075  22.951  1.00  0.00     0.279 A 
ATOM     18  H   UNL A   1      32.605  23.034  22.431  1.00  0.00     0.172 HD
ATOM     19  N   UNL A   1      33.275  19.819  26.127  1.00  0.00    -0.329 N 
ATOM     20  C   UNL A   1      32.599  20.232  24.100  1.00  0.00     0.172 A 
ATOM     21  O   UNL A   1      31.778  20.724  21.915  1.00  0.00    -0.267 OA
ATOM     22  C   UNL A   1      32.689  18.707  25.579  1.00  0.00     0.199 A 
ATOM     23  H   UNL A   1      33.659  19.893  27.031  1.00  0.00     0.169 HD
ATOM     24  N   UNL A   1      32.281  18.920  24.344  1.00  0.00    -0.229 NA
ENDBRANCH  12  13
ENDBRANCH  11  12
ENDBRANCH   8  11
ENDBRANCH   6   7
ENDBRANCH   5   6
ENDBRANCH   2   5
BRANCH   3  25
ATOM     25  C   UNL A   1      31.689  30.632  26.429  1.00  0.00     0.117 C 
BRANCH  25  26
ATOM     26  C   UNL A   1      31.453  32.075  26.850  1.00  0.00     0.042 C 
BRANCH  26  27
ATOM     27  C   UNL A   1      32.722  32.901  27.020  1.00  0.00     0.118 C 
BRANCH  27  28
ATOM     28  N   UNL A   1      32.488  34.204  27.626  1.00  0.00    -0.352 N 
ATOM     29  C   UNL A   1      33.099  34.797  28.705  1.00  0.00     0.251 C 
ATOM     30  H   UNL A   1      31.783  34.741  27.199  1.00  0.00     0.163 HD
ATOM     31  O   UNL A   1      32.657  35.853  29.147  1.00  0.00    -0.269 OA
BRANCH  29  32
ATOM     32  C   UNL A   1      34.261  34.156  29.360  1.00  0.00     0.039 A 
ATOM     33  C   UNL A   1      34.028  33.229  30.380  1.00  0.00     0.014 A 
ATOM     34  C   UNL A   1      35.572  34.470  28.993  1.00  0.00     0.014 A 
ATOM     35  C   UNL A   1      35.102  32.572  30.985  1.00  0.00     0.010 A 
ATOM     36  C   UNL A   1      36.636  33.752  29.535  1.00  0.00     0.010 A 
ATOM     37  C   UNL A   1      36.416  32.801  30.543  1.00  0.00    -0.014 A 
BRANCH  37  38
ATOM     38  C   UNL A   1      37.565  32.067  31.135  1.00  0.00     0.031 A 
ATOM     39  C   UNL A   1      38.049  32.405  32.519  1.00  0.00     0.074 A 
ATOM     40  C   UNL A   1      38.207  31.129  30.410  1.00  0.00     0.049 A 
ATOM     41  N   UNL A   1      39.067  31.916  33.184  1.00  0.00    -0.248 NA
ATOM     42  C   UNL A   1      37.308  33.449  33.242  1.00  0.00     0.031 C 
ATOM     43  C   UNL A   1      37.866  30.736  29.042  1.00  0.00     0.029 A 
ATOM     44  N   UNL A   1      39.290  30.342  30.721  1.00  0.00    -0.354 N 
ATOM     45  C   UNL A   1      39.092  32.603  34.392  1.00  0.00     0.074 A 
ATOM     46  C   UNL A   1      38.029  33.582  34.344  1.00  0.00     0.031 C 
ATOM     47  C   UNL A   1      38.702  29.765  28.642  1.00  0.00     0.029 A 
ATOM     48  C   UNL A   1      39.666  29.497  29.705  1.00  0.00     0.049 A 
ATOM     49  H   UNL A   1      39.752  30.380  31.589  1.00  0.00     0.167 HD
ATOM     50  C   UNL A   1      39.912  32.417  35.455  1.00  0.00     0.037 A 
ATOM     51  C   UNL A   1      40.680  28.612  29.634  1.00  0.00     0.037 A 
ATOM     52  C   UNL A   1      40.957  31.428  35.509  1.00  0.00     0.049 A 
ATOM     53  C   UNL A   1      41.589  28.439  30.821  1.00  0.00     0.074 A 
ATOM     54  C   UNL A   1      41.804  31.126  36.560  1.00  0.00     0.029 A 
ATOM     55  N   UNL A   1      41.303  30.586  34.462  1.00  0.00    -0.354 N 
ATOM     56  N   UNL A   1      41.559  29.043  31.985  1.00  0.00    -0.248 NA
ATOM     57  C   UNL A   1      42.671  27.452  30.689  1.00  0.00     0.031 C 
ATOM     58  C   UNL A   1      42.700  30.141  36.132  1.00  0.00     0.029 A 
ATOM     59  C   UNL A   1      42.370  29.782  34.834  1.00  0.00     0.049 A 
ATOM     60  H   UNL A   1      40.857  30.563  33.585  1.00  0.00     0.167 HD
ATOM     61  C   UNL A   1      42.590  28.489  32.731  1.00  0.00     0.074 A 
ATOM     62  C   UNL A   1      43.219  27.488  31.895  1.00  0.00     0.031 C 
ATOM     63  C   UNL A   1      42.981  28.782  33.996  1.00  0.00     0.037 A 
BRANCH  50  64
ATOM     64  C   UNL A   1      39.709  33.303  36.652  1.00  0.00     0.064 A 
ATOM     65  C   UNL A   1      40.402  34.516  36.798  1.00  0.00     0.173 A 
ATOM     66  C   UNL A   1      38.783  32.956  37.646  1.00  0.00     0.173 A 
ATOM     67  F   UNL A   1      41.305  34.893  35.880  1.00  0.00    -0.203 F 
ATOM     68  C   UNL A   1      40.201  35.328  37.911  1.00  0.00     0.198 A 
ATOM     69  C   UNL A   1      38.557  33.789  38.740  1.00  0.00     0.198 A 
ATOM     70  F   UNL A   1      38.084  31.816  37.552  1.00  0.00    -0.203 F 
ATOM     71  F   UNL A   1      40.914  36.454  38.054  1.00  0.00    -0.200 F 
ATOM     72  C   UNL A   1      39.274  34.968  38.877  1.00  0.00     0.200 A 
ATOM     73  F   UNL A   1      37.646  33.449  39.663  1.00  0.00    -0.200 F 
ATOM     74  F   UNL A   1      39.073  35.757  39.941  1.00  0.00    -0.200 F 
ENDBRANCH  50  64
BRANCH  51  75
ATOM     75  C   UNL A   1      40.880  27.804  28.401  1.00  0.00     0.064 A 
ATOM     76  C   UNL A   1      40.253  26.560  28.244  1.00  0.00     0.173 A 
ATOM     77  C   UNL A   1      41.713  28.249  27.364  1.00  0.00     0.173 A 
ATOM     78  F   UNL A   1      39.464  26.080  29.216  1.00  0.00    -0.203 F 
ATOM     79  C   UNL A   1      40.472  25.780  27.110  1.00  0.00     0.198 A 
ATOM     80  C   UNL A   1      41.905  27.483  26.216  1.00  0.00     0.198 A 
ATOM     81  F   UNL A   1      42.333  29.433  27.461  1.00  0.00    -0.203 F 
ATOM     82  F   UNL A   1      39.904  24.571  27.011  1.00  0.00    -0.200 F 
ATOM     83  C   UNL A   1      41.293  26.245  26.094  1.00  0.00     0.200 A 
ATOM     84  F   UNL A   1      42.687  27.943  25.229  1.00  0.00    -0.200 F 
ATOM     85  F   UNL A   1      41.502  25.496  25.002  1.00  0.00    -0.200 F 
ENDBRANCH  51  75
BRANCH  63  86
ATOM     86  C   UNL A   1      44.113  27.980  34.575  1.00  0.00     0.064 A 
ATOM     87  C   UNL A   1      43.896  26.760  35.232  1.00  0.00     0.173 A 
ATOM     88  C   UNL A   1      45.437  28.423  34.435  1.00  0.00     0.173 A 
ATOM     89  F   UNL A   1      42.648  26.298  35.406  1.00  0.00    -0.203 F 
ATOM     90  C   UNL A   1      44.961  26.028  35.752  1.00  0.00     0.198 A 
ATOM     91  C   UNL A   1      46.501  27.671  34.924  1.00  0.00     0.198 A 
ATOM     92  F   UNL A   1      45.702  29.580  33.810  1.00  0.00    -0.203 F 
ATOM     93  F   UNL A   1      44.726  24.892  36.422  1.00  0.00    -0.200 F 
ATOM     94  C   UNL A   1      46.263  26.479  35.590  1.00  0.00     0.200 A 
ATOM     95  F   UNL A   1      47.759  28.101  34.752  1.00  0.00    -0.200 F 
ATOM     96  F   UNL A   1      47.286  25.768  36.083  1.00  0.00    -0.200 F 
ENDBRANCH  63  86
ENDBRANCH  37  38
ENDBRANCH  29  32
ENDBRANCH  27  28
ENDBRANCH  26  27
ENDBRANCH  25  26
ENDBRANCH   3  25
TORSDOF 15
ENDMDL
MODEL 3
REMARK VINA RESULT:     -12.1      0.965      1.714
REMARK SMILES O=C(CCNC(=O)CSc1nc2[nH]cnc2c(=O)[nH]1)NCCCNC(=O)c1ccc(-c2c3nc(c(-c4c(F)c(F)c(F)c(F)c4F)c4ccc([nH]4)c(-c4c(F)c(F)c(F)c(F)c4F)c4nc(c(-c5c(F)c(F)c(F)c(F)c5F)c5ccc2[nH]5)C=C4)C=C3)cc1
REMARK SMILES IDX 1 1 2 2 20 3 3 5 4 6 5 7 6 8 7 10 8 11 9 12 10 13 11 14
REMARK SMILES IDX 19 15 12 16 17 17 13 19 16 20 18 21 14 22 15 24 21 25 22 26
REMARK SMILES IDX 23 27 24 28 25 29 26 31 27 32 28 33 89 34 29 35 88 36 30 37
REMARK SMILES IDX 31 38 32 39 82 40 33 41 87 42 81 43 83 44 34 45 86 46 80 47
REMARK SMILES IDX 79 48 35 50 67 51 47 52 66 53 48 54 51 55 65 56 84 57 49 58
REMARK SMILES IDX 50 59 64 61 85 62 52 63 36 64 37 65 45 66 38 67 39 68 43 69
REMARK SMILES IDX 46 70 40 71 41 72 44 73 42 74 68 75 69 76 77 77 70 78 71 79
REMARK SMILES IDX 75 80 78 81 72 82 73 83 76 84 74 85 53 86 54 87 62 88 55 89
REMARK SMILES IDX 56 90 60 91 63 92 57 93 58 94 61 95 59 96
REMARK H PARENT 20 4 5 9 19 18 13 23 24 30 83 49 51 60
REMARK Flexibility Score: inf
ROOT
ATOM      1  O   UNL A   1      31.747  28.181  25.030  1.00  0.00    -0.275 OA
ATOM      2  C   UNL A   1      31.156  29.086  24.452  1.00  0.00     0.221 C 
ATOM      3  N   UNL A   1      31.056  30.372  24.935  1.00  0.00    -0.356 N 
ATOM      4  H   UNL A   1      30.639  31.059  24.367  1.00  0.00     0.163 HD
ENDROOT
BRANCH   2   5
ATOM      5  C   UNL A   1      30.429  28.867  23.144  1.00  0.00     0.121 C 
BRANCH   5   6
ATOM      6  C   UNL A   1      30.498  27.396  22.735  1.00  0.00     0.125 C 
BRANCH   6   7
ATOM      7  N   UNL A   1      31.657  27.128  21.890  1.00  0.00    -0.355 N 
ATOM      8  C   UNL A   1      32.658  26.217  22.063  1.00  0.00     0.230 C 
ATOM      9  H   UNL A   1      31.726  27.682  21.079  1.00  0.00     0.163 HD
ATOM     10  O   UNL A   1      33.692  26.357  21.409  1.00  0.00    -0.274 OA
BRANCH   8  11
ATOM     11  C   UNL A   1      32.461  25.026  22.976  1.00  0.00     0.178 C 
BRANCH  11  12
ATOM     12  S   UNL A   1      33.992  24.378  23.674  1.00  0.00    -0.078 SA
BRANCH  12  13
ATOM     13  C   UNL A   1      33.479  22.816  24.226  1.00  0.00     0.170 A 
ATOM     14  N   UNL A   1      33.016  21.943  23.381  1.00  0.00    -0.204 NA
ATOM     15  N   UNL A   1      33.690  22.607  25.571  1.00  0.00    -0.299 N 
ATOM     16  C   UNL A   1      32.780  20.749  23.972  1.00  0.00     0.165 A 
ATOM     17  C   UNL A   1      33.436  21.403  26.208  1.00  0.00     0.279 A 
ATOM     18  H   UNL A   1      34.042  23.354  26.110  1.00  0.00     0.172 HD
ATOM     19  N   UNL A   1      32.390  19.607  23.339  1.00  0.00    -0.329 N 
ATOM     20  C   UNL A   1      32.944  20.394  25.292  1.00  0.00     0.172 A 
ATOM     21  O   UNL A   1      33.644  21.245  27.406  1.00  0.00    -0.267 OA
ATOM     22  C   UNL A   1      32.329  18.621  24.291  1.00  0.00     0.199 A 
ATOM     23  H   UNL A   1      32.190  19.507  22.380  1.00  0.00     0.169 HD
ATOM     24  N   UNL A   1      32.646  19.069  25.489  1.00  0.00    -0.229 NA
ENDBRANCH  12  13
ENDBRANCH  11  12
ENDBRANCH   8  11
ENDBRANCH   6   7
ENDBRANCH   5   6
ENDBRANCH   2   5
BRANCH   3  25
ATOM     25  C   UNL A   1      31.541  30.752  26.248  1.00  0.00     0.117 C 
BRANCH  25  26
ATOM     26  C   UNL A   1      31.407  32.247  26.505  1.00  0.00     0.042 C 
BRANCH  26  27
ATOM     27  C   UNL A   1      32.604  32.879  27.205  1.00  0.00     0.118 C 
BRANCH  27  28
ATOM     28  N   UNL A   1      32.363  34.247  27.641  1.00  0.00    -0.352 N 
ATOM     29  C   UNL A   1      32.976  34.977  28.630  1.00  0.00     0.251 C 
ATOM     30  H   UNL A   1      31.650  34.720  27.153  1.00  0.00     0.163 HD
ATOM     31  O   UNL A   1      32.528  36.079  28.936  1.00  0.00    -0.269 OA
BRANCH  29  32
ATOM     32  C   UNL A   1      34.147  34.435  29.353  1.00  0.00     0.039 A 
ATOM     33  C   UNL A   1      33.937  33.768  30.564  1.00  0.00     0.014 A 
ATOM     34  C   UNL A   1      35.446  34.590  28.862  1.00  0.00     0.014 A 
ATOM     35  C   UNL A   1      35.017  33.203  31.246  1.00  0.00     0.010 A 
ATOM     36  C   UNL A   1      36.510  33.953  29.497  1.00  0.00     0.010 A 
ATOM     37  C   UNL A   1      36.311  33.259  30.701  1.00  0.00    -0.014 A 
BRANCH  37  38
ATOM     38  C   UNL A   1      37.462  32.612  31.383  1.00  0.00     0.031 A 
ATOM     39  C   UNL A   1      38.189  31.470  30.725  1.00  0.00     0.074 A 
ATOM     40  C   UNL A   1      37.824  33.015  32.617  1.00  0.00     0.049 A 
ATOM     41  N   UNL A   1      39.178  30.743  31.183  1.00  0.00    -0.248 NA
ATOM     42  C   UNL A   1      37.726  31.075  29.386  1.00  0.00     0.031 C 
ATOM     43  C   UNL A   1      37.177  34.082  33.383  1.00  0.00     0.029 A 
ATOM     44  N   UNL A   1      38.823  32.569  33.449  1.00  0.00    -0.354 N 
ATOM     45  C   UNL A   1      39.443  29.802  30.196  1.00  0.00     0.074 A 
ATOM     46  C   UNL A   1      38.473  30.009  29.143  1.00  0.00     0.031 C 
ATOM     47  C   UNL A   1      37.810  34.226  34.558  1.00  0.00     0.029 A 
ATOM     48  C   UNL A   1      38.878  33.235  34.650  1.00  0.00     0.049 A 
ATOM     49  H   UNL A   1      39.440  31.842  33.208  1.00  0.00     0.167 HD
ATOM     50  C   UNL A   1      40.422  28.865  30.158  1.00  0.00     0.037 A 
ATOM     51  C   UNL A   1      39.692  33.062  35.709  1.00  0.00     0.037 A 
ATOM     52  C   UNL A   1      41.399  28.673  31.198  1.00  0.00     0.049 A 
ATOM     53  C   UNL A   1      40.758  32.000  35.651  1.00  0.00     0.074 A 
ATOM     54  C   UNL A   1      42.462  27.788  31.229  1.00  0.00     0.029 A 
ATOM     55  N   UNL A   1      41.426  29.372  32.396  1.00  0.00    -0.354 N 
ATOM     56  N   UNL A   1      41.045  31.164  34.682  1.00  0.00    -0.248 NA
ATOM     57  C   UNL A   1      41.622  31.863  36.833  1.00  0.00     0.031 C 
ATOM     58  C   UNL A   1      43.099  27.911  32.468  1.00  0.00     0.029 A 
ATOM     59  C   UNL A   1      42.473  28.918  33.185  1.00  0.00     0.049 A 
ATOM     60  H   UNL A   1      40.795  30.084  32.649  1.00  0.00     0.167 HD
ATOM     61  C   UNL A   1      42.137  30.429  35.122  1.00  0.00     0.074 A 
ATOM     62  C   UNL A   1      42.473  30.927  36.439  1.00  0.00     0.031 C 
ATOM     63  C   UNL A   1      42.803  29.430  34.490  1.00  0.00     0.037 A 
BRANCH  50  64
ATOM     64  C   UNL A   1      40.485  27.975  28.949  1.00  0.00     0.064 A 
ATOM     65  C   UNL A   1      41.286  28.293  27.840  1.00  0.00     0.173 A 
ATOM     66  C   UNL A   1      39.767  26.771  28.912  1.00  0.00     0.173 A 
ATOM     67  F   UNL A   1      41.989  29.436  27.820  1.00  0.00    -0.203 F 
ATOM     68  C   UNL A   1      41.336  27.456  26.728  1.00  0.00     0.198 A 
ATOM     69  C   UNL A   1      39.848  25.919  27.813  1.00  0.00     0.198 A 
ATOM     70  F   UNL A   1      38.995  26.411  29.949  1.00  0.00    -0.203 F 
ATOM     71  F   UNL A   1      42.066  27.808  25.660  1.00  0.00    -0.200 F 
ATOM     72  C   UNL A   1      40.624  26.267  26.718  1.00  0.00     0.200 A 
ATOM     73  F   UNL A   1      39.175  24.760  27.814  1.00  0.00    -0.200 F 
ATOM     74  F   UNL A   1      40.684  25.458  25.652  1.00  0.00    -0.200 F 
ENDBRANCH  50  64
BRANCH  51  75
ATOM     75  C   UNL A   1      39.546  33.925  36.911  1.00  0.00     0.064 A 
ATOM     76  C   UNL A   1      40.152  35.188  36.970  1.00  0.00     0.173 A 
ATOM     77  C   UNL A   1      38.815  33.501  38.030  1.00  0.00     0.173 A 
ATOM     78  F   UNL A   1      40.880  35.631  35.935  1.00  0.00    -0.203 F 
ATOM     79  C   UNL A   1      40.054  35.982  38.111  1.00  0.00     0.198 A 
ATOM     80  C   UNL A   1      38.690  34.310  39.159  1.00  0.00     0.198 A 
ATOM     81  F   UNL A   1      38.211  32.304  38.026  1.00  0.00    -0.203 F 
ATOM     82  F   UNL A   1      40.690  37.161  38.161  1.00  0.00    -0.200 F 
ATOM     83  C   UNL A   1      39.318  35.545  39.202  1.00  0.00     0.200 A 
ATOM     84  F   UNL A   1      37.965  33.891  40.204  1.00  0.00    -0.200 F 
ATOM     85  F   UNL A   1      39.223  36.310  40.299  1.00  0.00    -0.200 F 
ENDBRANCH  51  75
BRANCH  63  86
ATOM     86  C   UNL A   1      43.994  28.839  35.193  1.00  0.00     0.064 A 
ATOM     87  C   UNL A   1      45.276  29.395  35.073  1.00  0.00     0.173 A 
ATOM     88  C   UNL A   1      43.839  27.723  36.029  1.00  0.00     0.173 A 
ATOM     89  F   UNL A   1      45.482  30.453  34.274  1.00  0.00    -0.203 F 
ATOM     90  C   UNL A   1      46.363  28.836  35.741  1.00  0.00     0.198 A 
ATOM     91  C   UNL A   1      44.920  27.190  36.724  1.00  0.00     0.198 A 
ATOM     92  F   UNL A   1      42.633  27.156  36.186  1.00  0.00    -0.203 F 
ATOM     93  F   UNL A   1      47.588  29.351  35.569  1.00  0.00    -0.200 F 
ATOM     94  C   UNL A   1      46.183  27.741  36.573  1.00  0.00     0.200 A 
ATOM     95  F   UNL A   1      44.741  26.141  37.539  1.00  0.00    -0.200 F 
ATOM     96  F   UNL A   1      47.230  27.212  37.221  1.00  0.00    -0.200 F 
ENDBRANCH  63  86
ENDBRANCH  37  38
ENDBRANCH  29  32
ENDBRANCH  27  28
ENDBRANCH  26  27
ENDBRANCH  25  26
ENDBRANCH   3  25
TORSDOF 15
ENDMDL
