MODEL 1
REMARK VINA RESULT:     -13.0      0.000      0.000
REMARK SMILES Cc1cccc2c(C(F)(F)F)cc(C(=O)NCCCNC(=O)c3ccc(-c4c5nc(c(-c6c(F)c(F)c(F)c(F)c6F)c6ccc([nH]6)c(-c6c(F)c(F)c(F)c(F)c6F)c6nc(c(-c7c(F)c(F)c(F)c(F)c7F)c7ccc4[nH]7)C=C6)C=C5)cc3)nc12
REMARK SMILES IDX 18 1 17 2 16 3 14 4 15 5 13 7 1 8 2 9 3 10 87 11 4 12 6 13
REMARK SMILES IDX 86 14 5 15 7 16 12 17 8 18 9 19 10 20 11 21 19 22 20 23
REMARK SMILES IDX 21 24 22 26 23 27 24 28 85 29 25 30 84 31 26 32 27 33 28 34
REMARK SMILES IDX 78 35 29 36 83 37 77 38 79 39 30 40 82 41 76 42 75 43 31 45
REMARK SMILES IDX 63 46 43 47 62 48 44 49 47 50 61 51 80 52 45 53 46 54 60 56
REMARK SMILES IDX 81 57 48 58 32 59 33 60 41 61 34 62 35 63 39 64 42 65 36 66
REMARK SMILES IDX 37 67 40 68 38 69 64 70 65 71 73 72 66 73 67 74 71 75 74 76
REMARK SMILES IDX 68 77 69 78 72 79 70 80 49 81 50 82 58 83 51 84 52 85 56 86
REMARK SMILES IDX 59 87 53 88 54 89 57 90 55 91
REMARK H PARENT 16 6 20 25 79 44 47 55
REMARK Flexibility Score: inf
ROOT
ATOM      1  C   UNL A   1      32.959  29.143  23.656  1.00  0.00     0.042 C 
ENDROOT
BRANCH   1   2
ATOM      2  C   UNL A   1      34.085  28.568  22.803  1.00  0.00     0.118 C 
BRANCH   2   3
ATOM      3  N   UNL A   1      33.571  27.695  21.762  1.00  0.00    -0.351 N 
ATOM      4  C   UNL A   1      33.252  26.357  21.781  1.00  0.00     0.269 C 
ATOM      5  O   UNL A   1      32.815  25.863  20.740  1.00  0.00    -0.268 OA
ATOM      6  H   UNL A   1      33.425  28.136  20.894  1.00  0.00     0.163 HD
BRANCH   4   7
ATOM      7  C   UNL A   1      33.383  25.497  23.004  1.00  0.00     0.129 A 
ATOM      8  C   UNL A   1      36.652  22.957  23.123  1.00  0.00     0.047 C 
ATOM      9  C   UNL A   1      35.686  23.046  24.277  1.00  0.00    -0.025 A 
ATOM     10  C   UNL A   1      35.939  22.284  25.425  1.00  0.00     0.005 A 
ATOM     11  C   UNL A   1      34.578  23.903  24.209  1.00  0.00     0.075 A 
ATOM     12  C   UNL A   1      35.084  22.362  26.509  1.00  0.00     0.001 A 
ATOM     13  C   UNL A   1      33.697  23.999  25.318  1.00  0.00     0.013 A 
ATOM     14  N   UNL A   1      34.403  24.620  23.087  1.00  0.00    -0.242 NA
ATOM     15  C   UNL A   1      33.977  23.206  26.457  1.00  0.00     0.011 A 
ATOM     16  C   UNL A   1      32.601  24.898  25.201  1.00  0.00     0.067 A 
ATOM     17  C   UNL A   1      32.463  25.650  24.021  1.00  0.00     0.048 A 
BRANCH  16  18
ATOM     18  C   UNL A   1      31.549  25.151  26.255  1.00  0.00     0.417 C 
ATOM     19  F   UNL A   1      31.756  26.334  26.900  1.00  0.00    -0.166 F 
ATOM     20  F   UNL A   1      30.302  25.245  25.711  1.00  0.00    -0.166 F 
ATOM     21  F   UNL A   1      31.442  24.220  27.237  1.00  0.00    -0.166 F 
ENDBRANCH  16  18
ENDBRANCH   4   7
ENDBRANCH   2   3
ENDBRANCH   1   2
BRANCH   1  22
ATOM     22  C   UNL A   1      33.341  29.260  25.130  1.00  0.00     0.118 C 
BRANCH  22  23
ATOM     23  N   UNL A   1      32.772  30.453  25.753  1.00  0.00    -0.352 N 
ATOM     24  C   UNL A   1      33.162  31.136  26.876  1.00  0.00     0.251 C 
ATOM     25  H   UNL A   1      31.984  30.825  25.296  1.00  0.00     0.163 HD
ATOM     26  O   UNL A   1      32.425  31.987  27.367  1.00  0.00    -0.269 OA
BRANCH  24  27
ATOM     27  C   UNL A   1      34.463  30.841  27.505  1.00  0.00     0.039 A 
ATOM     28  C   UNL A   1      35.408  31.864  27.630  1.00  0.00     0.014 A 
ATOM     29  C   UNL A   1      34.753  29.555  27.963  1.00  0.00     0.014 A 
ATOM     30  C   UNL A   1      36.613  31.614  28.289  1.00  0.00     0.010 A 
ATOM     31  C   UNL A   1      35.916  29.328  28.688  1.00  0.00     0.010 A 
ATOM     32  C   UNL A   1      36.855  30.356  28.863  1.00  0.00    -0.014 A 
BRANCH  32  33
ATOM     33  C   UNL A   1      38.076  30.084  29.662  1.00  0.00     0.031 A 
ATOM     34  C   UNL A   1      39.116  29.134  29.141  1.00  0.00     0.074 A 
ATOM     35  C   UNL A   1      38.194  30.612  30.896  1.00  0.00     0.049 A 
ATOM     36  N   UNL A   1      40.173  28.651  29.742  1.00  0.00    -0.248 NA
ATOM     37  C   UNL A   1      38.924  28.636  27.769  1.00  0.00     0.031 C 
ATOM     38  C   UNL A   1      37.232  31.518  31.525  1.00  0.00     0.029 A 
ATOM     39  N   UNL A   1      39.164  30.441  31.852  1.00  0.00    -0.354 N 
ATOM     40  C   UNL A   1      40.759  27.781  28.832  1.00  0.00     0.074 A 
ATOM     41  C   UNL A   1      39.912  27.761  27.658  1.00  0.00     0.031 C 
ATOM     42  C   UNL A   1      37.666  31.833  32.755  1.00  0.00     0.029 A 
ATOM     43  C   UNL A   1      38.906  31.113  33.022  1.00  0.00     0.049 A 
ATOM     44  H   UNL A   1      39.968  29.892  31.713  1.00  0.00     0.167 HD
ATOM     45  C   UNL A   1      41.909  27.077  28.959  1.00  0.00     0.037 A 
ATOM     46  C   UNL A   1      39.581  31.126  34.188  1.00  0.00     0.037 A 
ATOM     47  C   UNL A   1      42.754  27.117  30.124  1.00  0.00     0.049 A 
ATOM     48  C   UNL A   1      40.841  30.311  34.314  1.00  0.00     0.074 A 
ATOM     49  C   UNL A   1      43.968  26.486  30.330  1.00  0.00     0.029 A 
ATOM     50  N   UNL A   1      42.468  27.824  31.283  1.00  0.00    -0.354 N 
ATOM     51  N   UNL A   1      41.419  29.540  33.426  1.00  0.00    -0.248 NA
ATOM     52  C   UNL A   1      41.542  30.370  35.603  1.00  0.00     0.031 C 
ATOM     53  C   UNL A   1      44.388  26.763  31.634  1.00  0.00     0.029 A 
ATOM     54  C   UNL A   1      43.471  27.622  32.218  1.00  0.00     0.049 A 
ATOM     55  H   UNL A   1      41.672  28.387  31.420  1.00  0.00     0.167 HD
ATOM     56  C   UNL A   1      42.569  29.052  34.034  1.00  0.00     0.074 A 
ATOM     57  C   UNL A   1      42.609  29.622  35.364  1.00  0.00     0.031 C 
ATOM     58  C   UNL A   1      43.506  28.211  33.533  1.00  0.00     0.037 A 
BRANCH  45  59
ATOM     59  C   UNL A   1      42.319  26.199  27.812  1.00  0.00     0.064 A 
ATOM     60  C   UNL A   1      43.246  26.627  26.849  1.00  0.00     0.173 A 
ATOM     61  C   UNL A   1      41.809  24.897  27.694  1.00  0.00     0.173 A 
ATOM     62  F   UNL A   1      43.759  27.865  26.907  1.00  0.00    -0.203 F 
ATOM     63  C   UNL A   1      43.621  25.797  25.795  1.00  0.00     0.198 A 
ATOM     64  C   UNL A   1      42.212  24.057  26.659  1.00  0.00     0.198 A 
ATOM     65  F   UNL A   1      40.925  24.433  28.591  1.00  0.00    -0.203 F 
ATOM     66  F   UNL A   1      44.466  26.248  24.858  1.00  0.00    -0.200 F 
ATOM     67  C   UNL A   1      43.111  24.511  25.706  1.00  0.00     0.200 A 
ATOM     68  F   UNL A   1      41.731  22.809  26.585  1.00  0.00    -0.200 F 
ATOM     69  F   UNL A   1      43.481  23.710  24.698  1.00  0.00    -0.200 F 
ENDBRANCH  45  59
BRANCH  46  70
ATOM     70  C   UNL A   1      39.086  31.944  35.326  1.00  0.00     0.064 A 
ATOM     71  C   UNL A   1      39.385  33.311  35.414  1.00  0.00     0.173 A 
ATOM     72  C   UNL A   1      38.311  31.381  36.352  1.00  0.00     0.173 A 
ATOM     73  F   UNL A   1      40.138  33.893  34.468  1.00  0.00    -0.203 F 
ATOM     74  C   UNL A   1      38.952  34.077  36.494  1.00  0.00     0.198 A 
ATOM     75  C   UNL A   1      37.852  32.156  37.416  1.00  0.00     0.198 A 
ATOM     76  F   UNL A   1      37.990  30.080  36.315  1.00  0.00    -0.203 F 
ATOM     77  F   UNL A   1      39.297  35.370  36.577  1.00  0.00    -0.200 F 
ATOM     78  C   UNL A   1      38.180  33.501  37.491  1.00  0.00     0.200 A 
ATOM     79  F   UNL A   1      37.091  31.598  38.368  1.00  0.00    -0.200 F 
ATOM     80  F   UNL A   1      37.760  34.238  38.528  1.00  0.00    -0.200 F 
ENDBRANCH  46  70
BRANCH  58  81
ATOM     81  C   UNL A   1      44.688  27.892  34.402  1.00  0.00     0.064 A 
ATOM     82  C   UNL A   1      45.832  28.702  34.425  1.00  0.00     0.173 A 
ATOM     83  C   UNL A   1      44.646  26.792  35.274  1.00  0.00     0.173 A 
ATOM     84  F   UNL A   1      45.930  29.757  33.600  1.00  0.00    -0.203 F 
ATOM     85  C   UNL A   1      46.897  28.412  35.273  1.00  0.00     0.198 A 
ATOM     86  C   UNL A   1      45.698  26.524  36.144  1.00  0.00     0.198 A 
ATOM     87  F   UNL A   1      43.571  25.988  35.296  1.00  0.00    -0.203 F 
ATOM     88  F   UNL A   1      48.000  29.174  35.246  1.00  0.00    -0.200 F 
ATOM     89  C   UNL A   1      46.826  27.330  36.139  1.00  0.00     0.200 A 
ATOM     90  F   UNL A   1      45.618  25.489  36.992  1.00  0.00    -0.200 F 
ATOM     91  F   UNL A   1      47.846  27.063  36.966  1.00  0.00    -0.200 F 
ENDBRANCH  58  81
ENDBRANCH  32  33
ENDBRANCH  24  27
ENDBRANCH  22  23
ENDBRANCH   1  22
TORSDOF 11
ENDMDL
MODEL 2
REMARK VINA RESULT:     -13.0      0.328      1.702
REMARK SMILES Cc1cccc2c(C(F)(F)F)cc(C(=O)NCCCNC(=O)c3ccc(-c4c5nc(c(-c6c(F)c(F)c(F)c(F)c6F)c6ccc([nH]6)c(-c6c(F)c(F)c(F)c(F)c6F)c6nc(c(-c7c(F)c(F)c(F)c(F)c7F)c7ccc4[nH]7)C=C6)C=C5)cc3)nc12
REMARK SMILES IDX 18 1 17 2 16 3 14 4 15 5 13 7 1 8 2 9 3 10 87 11 4 12 6 13
REMARK SMILES IDX 86 14 5 15 7 16 12 17 8 18 9 19 10 20 11 21 19 22 20 23
REMARK SMILES IDX 21 24 22 26 23 27 24 28 85 29 25 30 84 31 26 32 27 33 28 34
REMARK SMILES IDX 78 35 29 36 83 37 77 38 79 39 30 40 82 41 76 42 75 43 31 45
REMARK SMILES IDX 63 46 43 47 62 48 44 49 47 50 61 51 80 52 45 53 46 54 60 56
REMARK SMILES IDX 81 57 48 58 32 59 33 60 41 61 34 62 35 63 39 64 42 65 36 66
REMARK SMILES IDX 37 67 40 68 38 69 64 70 65 71 73 72 66 73 67 74 71 75 74 76
REMARK SMILES IDX 68 77 69 78 72 79 70 80 49 81 50 82 58 83 51 84 52 85 56 86
REMARK SMILES IDX 59 87 53 88 54 89 57 90 55 91
REMARK H PARENT 16 6 20 25 79 44 47 55
REMARK Flexibility Score: inf
ROOT
ATOM      1  C   UNL A   1      32.894  28.950  23.870  1.00  0.00     0.042 C 
ENDROOT
BRANCH   1   2
ATOM      2  C   UNL A   1      34.081  28.412  23.079  1.00  0.00     0.118 C 
BRANCH   2   3
ATOM      3  N   UNL A   1      33.649  27.670  21.909  1.00  0.00    -0.351 N 
ATOM      4  C   UNL A   1      33.327  26.342  21.748  1.00  0.00     0.269 C 
ATOM      5  O   UNL A   1      32.971  25.977  20.626  1.00  0.00    -0.268 OA
ATOM      6  H   UNL A   1      33.572  28.210  21.089  1.00  0.00     0.163 HD
BRANCH   4   7
ATOM      7  C   UNL A   1      33.360  25.346  22.870  1.00  0.00     0.129 A 
ATOM      8  C   UNL A   1      36.726  22.944  23.094  1.00  0.00     0.047 C 
ATOM      9  C   UNL A   1      35.629  22.853  24.124  1.00  0.00    -0.025 A 
ATOM     10  C   UNL A   1      35.786  21.968  25.197  1.00  0.00     0.005 A 
ATOM     11  C   UNL A   1      34.491  23.666  24.019  1.00  0.00     0.075 A 
ATOM     12  C   UNL A   1      34.807  21.879  26.171  1.00  0.00     0.001 A 
ATOM     13  C   UNL A   1      33.482  23.592  25.015  1.00  0.00     0.013 A 
ATOM     14  N   UNL A   1      34.409  24.508  22.975  1.00  0.00    -0.242 NA
ATOM     15  C   UNL A   1      33.670  22.678  26.081  1.00  0.00     0.011 A 
ATOM     16  C   UNL A   1      32.360  24.454  24.870  1.00  0.00     0.067 A 
ATOM     17  C   UNL A   1      32.321  25.338  23.778  1.00  0.00     0.048 A 
BRANCH  16  18
ATOM     18  C   UNL A   1      31.180  24.534  25.809  1.00  0.00     0.417 C 
ATOM     19  F   UNL A   1      30.611  23.311  26.009  1.00  0.00    -0.166 F 
ATOM     20  F   UNL A   1      31.550  24.971  27.048  1.00  0.00    -0.166 F 
ATOM     21  F   UNL A   1      30.160  25.347  25.432  1.00  0.00    -0.166 F 
ENDBRANCH  16  18
ENDBRANCH   4   7
ENDBRANCH   2   3
ENDBRANCH   1   2
BRANCH   1  22
ATOM     22  C   UNL A   1      33.201  29.105  25.358  1.00  0.00     0.118 C 
BRANCH  22  23
ATOM     23  N   UNL A   1      32.688  30.362  25.899  1.00  0.00    -0.352 N 
ATOM     24  C   UNL A   1      33.135  31.121  26.950  1.00  0.00     0.251 C 
ATOM     25  H   UNL A   1      31.896  30.719  25.437  1.00  0.00     0.163 HD
ATOM     26  O   UNL A   1      32.439  32.032  27.391  1.00  0.00    -0.269 OA
BRANCH  24  27
ATOM     27  C   UNL A   1      34.447  30.838  27.559  1.00  0.00     0.039 A 
ATOM     28  C   UNL A   1      35.389  31.866  27.659  1.00  0.00     0.014 A 
ATOM     29  C   UNL A   1      34.750  29.557  28.025  1.00  0.00     0.014 A 
ATOM     30  C   UNL A   1      36.606  31.627  28.302  1.00  0.00     0.010 A 
ATOM     31  C   UNL A   1      35.925  29.342  28.734  1.00  0.00     0.010 A 
ATOM     32  C   UNL A   1      36.863  30.375  28.883  1.00  0.00    -0.014 A 
BRANCH  32  33
ATOM     33  C   UNL A   1      38.097  30.116  29.665  1.00  0.00     0.031 A 
ATOM     34  C   UNL A   1      39.130  29.160  29.139  1.00  0.00     0.074 A 
ATOM     35  C   UNL A   1      38.236  30.661  30.889  1.00  0.00     0.049 A 
ATOM     36  N   UNL A   1      40.198  28.687  29.729  1.00  0.00    -0.248 NA
ATOM     37  C   UNL A   1      38.915  28.642  27.778  1.00  0.00     0.031 C 
ATOM     38  C   UNL A   1      37.284  31.575  31.522  1.00  0.00     0.029 A 
ATOM     39  N   UNL A   1      39.222  30.506  31.831  1.00  0.00    -0.354 N 
ATOM     40  C   UNL A   1      40.769  27.805  28.822  1.00  0.00     0.074 A 
ATOM     41  C   UNL A   1      39.903  27.767  27.663  1.00  0.00     0.031 C 
ATOM     42  C   UNL A   1      37.738  31.909  32.740  1.00  0.00     0.029 A 
ATOM     43  C   UNL A   1      38.983  31.193  32.996  1.00  0.00     0.049 A 
ATOM     44  H   UNL A   1      40.025  29.955  31.686  1.00  0.00     0.167 HD
ATOM     45  C   UNL A   1      41.922  27.104  28.939  1.00  0.00     0.037 A 
ATOM     46  C   UNL A   1      39.678  31.223  34.150  1.00  0.00     0.037 A 
ATOM     47  C   UNL A   1      42.787  27.162  30.088  1.00  0.00     0.049 A 
ATOM     48  C   UNL A   1      40.941  30.412  34.265  1.00  0.00     0.074 A 
ATOM     49  C   UNL A   1      44.005  26.535  30.283  1.00  0.00     0.029 A 
ATOM     50  N   UNL A   1      42.520  27.885  31.242  1.00  0.00    -0.354 N 
ATOM     51  N   UNL A   1      41.505  29.629  33.379  1.00  0.00    -0.248 NA
ATOM     52  C   UNL A   1      41.665  30.490  35.541  1.00  0.00     0.031 C 
ATOM     53  C   UNL A   1      44.448  26.831  31.575  1.00  0.00     0.029 A 
ATOM     54  C   UNL A   1      43.539  27.697  32.162  1.00  0.00     0.049 A 
ATOM     55  H   UNL A   1      41.725  28.448  31.385  1.00  0.00     0.167 HD
ATOM     56  C   UNL A   1      42.666  29.152  33.973  1.00  0.00     0.074 A 
ATOM     57  C   UNL A   1      42.729  29.740  35.294  1.00  0.00     0.031 C 
ATOM     58  C   UNL A   1      43.596  28.304  33.468  1.00  0.00     0.037 A 
BRANCH  45  59
ATOM     59  C   UNL A   1      42.314  26.210  27.797  1.00  0.00     0.064 A 
ATOM     60  C   UNL A   1      41.742  24.939  27.625  1.00  0.00     0.173 A 
ATOM     61  C   UNL A   1      43.245  26.643  26.842  1.00  0.00     0.173 A 
ATOM     62  F   UNL A   1      40.854  24.471  28.514  1.00  0.00    -0.203 F 
ATOM     63  C   UNL A   1      42.112  24.126  26.557  1.00  0.00     0.198 A 
ATOM     64  C   UNL A   1      43.587  25.841  25.756  1.00  0.00     0.198 A 
ATOM     65  F   UNL A   1      43.818  27.851  26.954  1.00  0.00    -0.203 F 
ATOM     66  F   UNL A   1      41.593  22.896  26.443  1.00  0.00    -0.200 F 
ATOM     67  C   UNL A   1      43.027  24.580  25.619  1.00  0.00     0.200 A 
ATOM     68  F   UNL A   1      44.458  26.288  24.841  1.00  0.00    -0.200 F 
ATOM     69  F   UNL A   1      43.374  23.800  24.586  1.00  0.00    -0.200 F 
ENDBRANCH  45  59
BRANCH  46  70
ATOM     70  C   UNL A   1      39.202  32.057  35.284  1.00  0.00     0.064 A 
ATOM     71  C   UNL A   1      39.501  33.426  35.348  1.00  0.00     0.173 A 
ATOM     72  C   UNL A   1      38.446  31.508  36.331  1.00  0.00     0.173 A 
ATOM     73  F   UNL A   1      40.236  33.995  34.381  1.00  0.00    -0.203 F 
ATOM     74  C   UNL A   1      39.085  34.206  36.424  1.00  0.00     0.198 A 
ATOM     75  C   UNL A   1      38.003  32.297  37.391  1.00  0.00     0.198 A 
ATOM     76  F   UNL A   1      38.125  30.205  36.318  1.00  0.00    -0.203 F 
ATOM     77  F   UNL A   1      39.430  35.500  36.483  1.00  0.00    -0.200 F 
ATOM     78  C   UNL A   1      38.331  33.643  37.442  1.00  0.00     0.200 A 
ATOM     79  F   UNL A   1      37.260  31.751  38.364  1.00  0.00    -0.200 F 
ATOM     80  F   UNL A   1      37.928  34.395  38.476  1.00  0.00    -0.200 F 
ENDBRANCH  46  70
BRANCH  58  81
ATOM     81  C   UNL A   1      44.793  27.999  34.321  1.00  0.00     0.064 A 
ATOM     82  C   UNL A   1      44.831  26.889  35.178  1.00  0.00     0.173 A 
ATOM     83  C   UNL A   1      45.945  28.797  34.230  1.00  0.00     0.173 A 
ATOM     84  F   UNL A   1      43.751  26.104  35.313  1.00  0.00    -0.203 F 
ATOM     85  C   UNL A   1      45.969  26.602  35.925  1.00  0.00     0.198 A 
ATOM     86  C   UNL A   1      47.092  28.487  34.954  1.00  0.00     0.198 A 
ATOM     87  F   UNL A   1      45.964  29.867  33.421  1.00  0.00    -0.203 F 
ATOM     88  F   UNL A   1      45.968  25.561  36.771  1.00  0.00    -0.200 F 
ATOM     89  C   UNL A   1      47.102  27.393  35.805  1.00  0.00     0.200 A 
ATOM     90  F   UNL A   1      48.191  29.243  34.822  1.00  0.00    -0.200 F 
ATOM     91  F   UNL A   1      48.202  27.104  36.514  1.00  0.00    -0.200 F 
ENDBRANCH  58  81
ENDBRANCH  32  33
ENDBRANCH  24  27
ENDBRANCH  22  23
ENDBRANCH   1  22
TORSDOF 11
ENDMDL
MODEL 3
REMARK VINA RESULT:     -12.9      1.281      1.839
REMARK SMILES Cc1cccc2c(C(F)(F)F)cc(C(=O)NCCCNC(=O)c3ccc(-c4c5nc(c(-c6c(F)c(F)c(F)c(F)c6F)c6ccc([nH]6)c(-c6c(F)c(F)c(F)c(F)c6F)c6nc(c(-c7c(F)c(F)c(F)c(F)c7F)c7ccc4[nH]7)C=C6)C=C5)cc3)nc12
REMARK SMILES IDX 18 1 17 2 16 3 14 4 15 5 13 7 1 8 2 9 3 10 87 11 4 12 6 13
REMARK SMILES IDX 86 14 5 15 7 16 12 17 8 18 9 19 10 20 11 21 19 22 20 23
REMARK SMILES IDX 21 24 22 26 23 27 24 28 85 29 25 30 84 31 26 32 27 33 28 34
REMARK SMILES IDX 78 35 29 36 83 37 77 38 79 39 30 40 82 41 76 42 75 43 31 45
REMARK SMILES IDX 63 46 43 47 62 48 44 49 47 50 61 51 80 52 45 53 46 54 60 56
REMARK SMILES IDX 81 57 48 58 32 59 33 60 41 61 34 62 35 63 39 64 42 65 36 66
REMARK SMILES IDX 37 67 40 68 38 69 64 70 65 71 73 72 66 73 67 74 71 75 74 76
REMARK SMILES IDX 68 77 69 78 72 79 70 80 49 81 50 82 58 83 51 84 52 85 56 86
REMARK SMILES IDX 59 87 53 88 54 89 57 90 55 91
REMARK H PARENT 16 6 20 25 79 44 47 55
REMARK Flexibility Score: inf
ROOT
ATOM      1  C   UNL A   1      32.796  28.920  23.878  1.00  0.00     0.042 C 
ENDROOT
BRANCH   1   2
ATOM      2  C   UNL A   1      33.924  28.405  22.990  1.00  0.00     0.118 C 
BRANCH   2   3
ATOM      3  N   UNL A   1      33.420  27.543  21.936  1.00  0.00    -0.351 N 
ATOM      4  C   UNL A   1      33.198  26.185  21.908  1.00  0.00     0.269 C 
ATOM      5  O   UNL A   1      32.743  25.706  20.866  1.00  0.00    -0.268 OA
ATOM      6  H   UNL A   1      33.198  28.009  21.098  1.00  0.00     0.163 HD
BRANCH   4   7
ATOM      7  C   UNL A   1      33.452  25.285  23.080  1.00  0.00     0.129 A 
ATOM      8  C   UNL A   1      30.518  25.192  26.001  1.00  0.00     0.047 C 
ATOM      9  C   UNL A   1      31.743  24.319  26.093  1.00  0.00    -0.025 A 
ATOM     10  C   UNL A   1      31.855  23.430  27.170  1.00  0.00     0.005 A 
ATOM     11  C   UNL A   1      32.731  24.378  25.100  1.00  0.00     0.075 A 
ATOM     12  C   UNL A   1      32.957  22.600  27.270  1.00  0.00     0.001 A 
ATOM     13  C   UNL A   1      33.863  23.525  25.186  1.00  0.00     0.013 A 
ATOM     14  N   UNL A   1      32.555  25.239  24.084  1.00  0.00    -0.242 NA
ATOM     15  C   UNL A   1      33.949  22.647  26.293  1.00  0.00     0.011 A 
ATOM     16  C   UNL A   1      34.824  23.613  24.140  1.00  0.00     0.067 A 
ATOM     17  C   UNL A   1      34.594  24.508  23.081  1.00  0.00     0.048 A 
BRANCH  16  18
ATOM     18  C   UNL A   1      36.095  22.803  24.038  1.00  0.00     0.417 C 
ATOM     19  F   UNL A   1      36.699  22.965  22.827  1.00  0.00    -0.166 F 
ATOM     20  F   UNL A   1      37.018  23.195  24.962  1.00  0.00    -0.166 F 
ATOM     21  F   UNL A   1      35.971  21.461  24.202  1.00  0.00    -0.166 F 
ENDBRANCH  16  18
ENDBRANCH   4   7
ENDBRANCH   2   3
ENDBRANCH   1   2
BRANCH   1  22
ATOM     22  C   UNL A   1      33.240  29.144  25.321  1.00  0.00     0.118 C 
BRANCH  22  23
ATOM     23  N   UNL A   1      32.721  30.394  25.870  1.00  0.00    -0.352 N 
ATOM     24  C   UNL A   1      33.162  31.147  26.928  1.00  0.00     0.251 C 
ATOM     25  H   UNL A   1      31.929  30.753  25.409  1.00  0.00     0.163 HD
ATOM     26  O   UNL A   1      32.461  32.052  27.375  1.00  0.00    -0.269 OA
BRANCH  24  27
ATOM     27  C   UNL A   1      34.473  30.864  27.540  1.00  0.00     0.039 A 
ATOM     28  C   UNL A   1      35.407  31.897  27.660  1.00  0.00     0.014 A 
ATOM     29  C   UNL A   1      34.783  29.579  27.987  1.00  0.00     0.014 A 
ATOM     30  C   UNL A   1      36.622  31.658  28.305  1.00  0.00     0.010 A 
ATOM     31  C   UNL A   1      35.956  29.361  28.698  1.00  0.00     0.010 A 
ATOM     32  C   UNL A   1      36.886  30.399  28.868  1.00  0.00    -0.014 A 
BRANCH  32  33
ATOM     33  C   UNL A   1      38.118  30.137  29.652  1.00  0.00     0.031 A 
ATOM     34  C   UNL A   1      39.158  29.193  29.119  1.00  0.00     0.074 A 
ATOM     35  C   UNL A   1      38.249  30.667  30.884  1.00  0.00     0.049 A 
ATOM     36  N   UNL A   1      40.226  28.719  29.707  1.00  0.00    -0.248 NA
ATOM     37  C   UNL A   1      38.952  28.691  27.751  1.00  0.00     0.031 C 
ATOM     38  C   UNL A   1      37.289  31.568  31.523  1.00  0.00     0.029 A 
ATOM     39  N   UNL A   1      39.232  30.505  31.828  1.00  0.00    -0.354 N 
ATOM     40  C   UNL A   1      40.806  27.851  28.792  1.00  0.00     0.074 A 
ATOM     41  C   UNL A   1      39.945  27.823  27.629  1.00  0.00     0.031 C 
ATOM     42  C   UNL A   1      37.736  31.889  32.748  1.00  0.00     0.029 A 
ATOM     43  C   UNL A   1      38.984  31.177  33.000  1.00  0.00     0.049 A 
ATOM     44  H   UNL A   1      40.038  29.961  31.679  1.00  0.00     0.167 HD
ATOM     45  C   UNL A   1      41.962  27.155  28.905  1.00  0.00     0.037 A 
ATOM     46  C   UNL A   1      39.674  31.197  34.157  1.00  0.00     0.037 A 
ATOM     47  C   UNL A   1      42.822  27.203  30.059  1.00  0.00     0.049 A 
ATOM     48  C   UNL A   1      40.941  30.390  34.268  1.00  0.00     0.074 A 
ATOM     49  C   UNL A   1      44.043  26.580  30.250  1.00  0.00     0.029 A 
ATOM     50  N   UNL A   1      42.546  27.910  31.220  1.00  0.00    -0.354 N 
ATOM     51  N   UNL A   1      41.513  29.622  33.374  1.00  0.00    -0.248 NA
ATOM     52  C   UNL A   1      41.659  30.457  35.548  1.00  0.00     0.031 C 
ATOM     53  C   UNL A   1      44.478  26.862  31.548  1.00  0.00     0.029 A 
ATOM     54  C   UNL A   1      43.562  27.716  32.143  1.00  0.00     0.049 A 
ATOM     55  H   UNL A   1      41.748  28.467  31.367  1.00  0.00     0.167 HD
ATOM     56  C   UNL A   1      42.674  29.143  33.967  1.00  0.00     0.074 A 
ATOM     57  C   UNL A   1      42.728  29.715  35.296  1.00  0.00     0.031 C 
ATOM     58  C   UNL A   1      43.610  28.307  33.456  1.00  0.00     0.037 A 
BRANCH  45  59
ATOM     59  C   UNL A   1      42.364  26.277  27.754  1.00  0.00     0.064 A 
ATOM     60  C   UNL A   1      43.292  26.702  26.790  1.00  0.00     0.173 A 
ATOM     61  C   UNL A   1      41.844  24.980  27.634  1.00  0.00     0.173 A 
ATOM     62  F   UNL A   1      43.813  27.937  26.851  1.00  0.00    -0.203 F 
ATOM     63  C   UNL A   1      43.658  25.873  25.733  1.00  0.00     0.198 A 
ATOM     64  C   UNL A   1      42.240  24.140  26.595  1.00  0.00     0.198 A 
ATOM     65  F   UNL A   1      40.959  24.519  28.531  1.00  0.00    -0.203 F 
ATOM     66  F   UNL A   1      44.504  26.321  24.795  1.00  0.00    -0.200 F 
ATOM     67  C   UNL A   1      43.139  24.591  25.641  1.00  0.00     0.200 A 
ATOM     68  F   UNL A   1      41.749  22.896  26.517  1.00  0.00    -0.200 F 
ATOM     69  F   UNL A   1      43.501  23.790  24.629  1.00  0.00    -0.200 F 
ENDBRANCH  45  59
BRANCH  46  70
ATOM     70  C   UNL A   1      39.188  32.014  35.300  1.00  0.00     0.064 A 
ATOM     71  C   UNL A   1      39.507  33.376  35.398  1.00  0.00     0.173 A 
ATOM     72  C   UNL A   1      38.404  31.454  36.320  1.00  0.00     0.173 A 
ATOM     73  F   UNL A   1      40.269  33.953  34.458  1.00  0.00    -0.203 F 
ATOM     74  C   UNL A   1      39.082  34.140  36.483  1.00  0.00     0.198 A 
ATOM     75  C   UNL A   1      37.953  32.227  37.388  1.00  0.00     0.198 A 
ATOM     76  F   UNL A   1      38.064  30.157  36.273  1.00  0.00    -0.203 F 
ATOM     77  F   UNL A   1      39.445  35.427  36.576  1.00  0.00    -0.200 F 
ATOM     78  C   UNL A   1      38.299  33.567  37.474  1.00  0.00     0.200 A 
ATOM     79  F   UNL A   1      37.183  31.673  38.335  1.00  0.00    -0.200 F 
ATOM     80  F   UNL A   1      37.888  34.303  38.516  1.00  0.00    -0.200 F 
ENDBRANCH  46  70
BRANCH  58  81
ATOM     81  C   UNL A   1      44.806  27.998  34.311  1.00  0.00     0.064 A 
ATOM     82  C   UNL A   1      45.943  28.818  34.321  1.00  0.00     0.173 A 
ATOM     83  C   UNL A   1      44.784  26.897  35.181  1.00  0.00     0.173 A 
ATOM     84  F   UNL A   1      46.021  29.875  33.496  1.00  0.00    -0.203 F 
ATOM     85  C   UNL A   1      47.021  28.536  35.155  1.00  0.00     0.198 A 
ATOM     86  C   UNL A   1      45.849  26.637  36.038  1.00  0.00     0.198 A 
ATOM     87  F   UNL A   1      43.717  26.083  35.216  1.00  0.00    -0.203 F 
ATOM     88  F   UNL A   1      48.116  29.309  35.116  1.00  0.00    -0.200 F 
ATOM     89  C   UNL A   1      46.969  27.454  36.020  1.00  0.00     0.200 A 
ATOM     90  F   UNL A   1      45.789  25.601  36.885  1.00  0.00    -0.200 F 
ATOM     91  F   UNL A   1      48.001  27.194  36.835  1.00  0.00    -0.200 F 
ENDBRANCH  58  81
ENDBRANCH  32  33
ENDBRANCH  24  27
ENDBRANCH  22  23
ENDBRANCH   1  22
TORSDOF 11
ENDMDL
