MODEL 1
REMARK VINA RESULT:     -14.0      0.000      0.000
REMARK SMILES Cc1ccc2c(=O)c3cccc(CC(=O)NCCCNC(=O)c4ccc(-c5c6nc(c(-c7c(F)c(F)c(F)c(F)c7F)c7ccc([nH]7)c(-c7c(F)c(F)c(F)c(F)c7F)c7nc(c(-c8c(F)c(F)c(F)c(F)c8F)c8ccc5[nH]8)C=C7)C=C6)cc4)c3oc2c1C
REMARK SMILES IDX 18 1 17 2 16 3 14 4 15 5 13 7 12 8 1 9 2 10 3 11 89 12 4 13
REMARK SMILES IDX 88 14 90 15 5 16 87 17 6 18 86 19 7 20 8 21 9 22 11 23 10 24
REMARK SMILES IDX 19 25 20 26 21 27 22 29 23 30 24 31 85 32 25 33 84 34 26 35
REMARK SMILES IDX 27 36 28 37 78 38 29 39 83 40 77 41 79 42 30 43 82 44 76 45
REMARK SMILES IDX 75 46 31 48 63 49 43 50 62 51 44 52 47 53 61 54 80 55 45 56
REMARK SMILES IDX 46 57 60 59 81 60 48 61 32 62 33 63 41 64 34 65 35 66 39 67
REMARK SMILES IDX 42 68 36 69 37 70 40 71 38 72 64 73 65 74 73 75 66 76 67 77
REMARK SMILES IDX 71 78 74 79 68 80 69 81 72 82 70 83 49 84 50 85 58 86 51 87
REMARK SMILES IDX 52 88 56 89 59 90 53 91 54 92 57 93 55 94
REMARK H PARENT 16 6 20 28 79 47 47 58
REMARK Flexibility Score: inf
ROOT
ATOM      1  C   UNL A   1      31.527  32.030  26.876  1.00  0.00     0.042 C 
ENDROOT
BRANCH   1   2
ATOM      2  C   UNL A   1      31.777  30.527  26.853  1.00  0.00     0.117 C 
BRANCH   2   3
ATOM      3  N   UNL A   1      33.147  30.195  27.195  1.00  0.00    -0.356 N 
ATOM      4  C   UNL A   1      33.827  29.024  27.021  1.00  0.00     0.224 C 
ATOM      5  O   UNL A   1      35.007  28.986  27.376  1.00  0.00    -0.275 OA
ATOM      6  H   UNL A   1      33.663  30.920  27.615  1.00  0.00     0.163 HD
BRANCH   4   7
ATOM      7  C   UNL A   1      33.165  27.840  26.339  1.00  0.00     0.139 C 
BRANCH   7   8
ATOM      8  C   UNL A   1      33.345  27.778  24.838  1.00  0.00     0.005 A 
ATOM      9  C   UNL A   1      32.319  20.538  25.095  1.00  0.00     0.045 C 
ATOM     10  C   UNL A   1      32.552  21.814  24.329  1.00  0.00    -0.044 A 
ATOM     11  C   UNL A   1      32.679  21.731  22.931  1.00  0.00     0.005 A 
ATOM     12  C   UNL A   1      32.603  23.080  24.958  1.00  0.00    -0.005 A 
ATOM     13  C   UNL A   1      32.886  22.873  22.163  1.00  0.00     0.016 A 
ATOM     14  C   UNL A   1      32.834  24.231  24.172  1.00  0.00     0.141 A 
ATOM     15  C   UNL A   1      32.426  23.245  26.447  1.00  0.00     0.049 C 
ATOM     16  C   UNL A   1      32.970  24.116  22.789  1.00  0.00     0.066 A 
ATOM     17  O   UNL A   1      32.914  25.439  24.831  1.00  0.00    -0.455 OA
ATOM     18  C   UNL A   1      33.205  25.327  21.994  1.00  0.00     0.200 A 
ATOM     19  C   UNL A   1      33.201  26.578  24.117  1.00  0.00     0.142 A 
ATOM     20  O   UNL A   1      33.278  25.289  20.772  1.00  0.00    -0.288 OA
ATOM     21  C   UNL A   1      33.354  26.586  22.730  1.00  0.00     0.066 A 
ATOM     22  C   UNL A   1      33.653  27.766  22.043  1.00  0.00     0.016 A 
ATOM     23  C   UNL A   1      33.686  28.953  24.139  1.00  0.00     0.008 A 
ATOM     24  C   UNL A   1      33.826  28.950  22.751  1.00  0.00     0.001 A 
ENDBRANCH   7   8
ENDBRANCH   4   7
ENDBRANCH   2   3
ENDBRANCH   1   2
BRANCH   1  25
ATOM     25  C   UNL A   1      32.778  32.863  27.135  1.00  0.00     0.118 C 
BRANCH  25  26
ATOM     26  N   UNL A   1      32.481  34.202  27.630  1.00  0.00    -0.352 N 
ATOM     27  C   UNL A   1      33.038  34.915  28.665  1.00  0.00     0.251 C 
ATOM     28  H   UNL A   1      31.766  34.672  27.144  1.00  0.00     0.163 HD
ATOM     29  O   UNL A   1      32.528  35.977  29.012  1.00  0.00    -0.269 OA
BRANCH  27  30
ATOM     30  C   UNL A   1      34.226  34.404  29.385  1.00  0.00     0.039 A 
ATOM     31  C   UNL A   1      35.516  34.633  28.905  1.00  0.00     0.014 A 
ATOM     32  C   UNL A   1      34.046  33.687  30.573  1.00  0.00     0.014 A 
ATOM     33  C   UNL A   1      36.598  33.994  29.499  1.00  0.00     0.010 A 
ATOM     34  C   UNL A   1      35.148  33.132  31.231  1.00  0.00     0.010 A 
ATOM     35  C   UNL A   1      36.430  33.235  30.669  1.00  0.00    -0.014 A 
BRANCH  35  36
ATOM     36  C   UNL A   1      37.614  32.572  31.277  1.00  0.00     0.031 A 
ATOM     37  C   UNL A   1      38.078  32.929  32.663  1.00  0.00     0.074 A 
ATOM     38  C   UNL A   1      38.234  31.589  30.596  1.00  0.00     0.049 A 
ATOM     39  N   UNL A   1      39.038  32.393  33.375  1.00  0.00    -0.248 NA
ATOM     40  C   UNL A   1      37.383  34.035  33.337  1.00  0.00     0.031 C 
ATOM     41  C   UNL A   1      37.881  31.159  29.242  1.00  0.00     0.029 A 
ATOM     42  N   UNL A   1      39.261  30.752  30.954  1.00  0.00    -0.354 N 
ATOM     43  C   UNL A   1      39.068  33.099  34.569  1.00  0.00     0.074 A 
ATOM     44  C   UNL A   1      38.061  34.134  34.471  1.00  0.00     0.031 C 
ATOM     45  C   UNL A   1      38.627  30.097  28.911  1.00  0.00     0.029 A 
ATOM     46  C   UNL A   1      39.555  29.809  30.001  1.00  0.00     0.049 A 
ATOM     47  H   UNL A   1      39.739  30.822  31.811  1.00  0.00     0.167 HD
ATOM     48  C   UNL A   1      39.849  32.892  35.656  1.00  0.00     0.037 A 
ATOM     49  C   UNL A   1      40.470  28.820  29.999  1.00  0.00     0.037 A 
ATOM     50  C   UNL A   1      40.837  31.848  35.756  1.00  0.00     0.049 A 
ATOM     51  C   UNL A   1      41.351  28.634  31.199  1.00  0.00     0.074 A 
ATOM     52  C   UNL A   1      41.650  31.532  36.831  1.00  0.00     0.029 A 
ATOM     53  N   UNL A   1      41.148  30.951  34.745  1.00  0.00    -0.354 N 
ATOM     54  N   UNL A   1      41.344  29.286  32.336  1.00  0.00    -0.248 NA
ATOM     55  C   UNL A   1      42.373  27.581  31.115  1.00  0.00     0.031 C 
ATOM     56  C   UNL A   1      42.494  30.486  36.450  1.00  0.00     0.029 A 
ATOM     57  C   UNL A   1      42.167  30.107  35.157  1.00  0.00     0.049 A 
ATOM     58  H   UNL A   1      40.710  30.921  33.862  1.00  0.00     0.167 HD
ATOM     59  C   UNL A   1      42.348  28.718  33.108  1.00  0.00     0.074 A 
ATOM     60  C   UNL A   1      42.933  27.655  32.316  1.00  0.00     0.031 C 
ATOM     61  C   UNL A   1      42.746  29.053  34.359  1.00  0.00     0.037 A 
BRANCH  48  62
ATOM     62  C   UNL A   1      39.682  33.818  36.828  1.00  0.00     0.064 A 
ATOM     63  C   UNL A   1      40.308  35.073  36.873  1.00  0.00     0.173 A 
ATOM     64  C   UNL A   1      38.842  33.469  37.897  1.00  0.00     0.173 A 
ATOM     65  F   UNL A   1      41.128  35.455  35.883  1.00  0.00    -0.203 F 
ATOM     66  C   UNL A   1      40.121  35.930  37.955  1.00  0.00     0.198 A 
ATOM     67  C   UNL A   1      38.632  34.342  38.962  1.00  0.00     0.198 A 
ATOM     68  F   UNL A   1      38.211  32.285  37.902  1.00  0.00    -0.203 F 
ATOM     69  F   UNL A   1      40.768  37.104  37.998  1.00  0.00    -0.200 F 
ATOM     70  C   UNL A   1      39.278  35.567  38.994  1.00  0.00     0.200 A 
ATOM     71  F   UNL A   1      37.803  33.996  39.957  1.00  0.00    -0.200 F 
ATOM     72  F   UNL A   1      39.091  36.398  40.030  1.00  0.00    -0.200 F 
ENDBRANCH  48  62
BRANCH  49  73
ATOM     73  C   UNL A   1      40.563  27.926  28.815  1.00  0.00     0.064 A 
ATOM     74  C   UNL A   1      39.811  26.747  28.745  1.00  0.00     0.173 A 
ATOM     75  C   UNL A   1      41.346  28.271  27.703  1.00  0.00     0.173 A 
ATOM     76  F   UNL A   1      39.061  26.366  29.790  1.00  0.00    -0.203 F 
ATOM     77  C   UNL A   1      39.830  25.951  27.602  1.00  0.00     0.198 A 
ATOM     78  C   UNL A   1      41.341  27.490  26.551  1.00  0.00     0.198 A 
ATOM     79  F   UNL A   1      42.078  29.394  27.720  1.00  0.00    -0.203 F 
ATOM     80  F   UNL A   1      39.112  24.819  27.564  1.00  0.00    -0.200 F 
ATOM     81  C   UNL A   1      40.584  26.330  26.501  1.00  0.00     0.200 A 
ATOM     82  F   UNL A   1      42.054  27.871  25.482  1.00  0.00    -0.200 F 
ATOM     83  F   UNL A   1      40.579  25.578  25.391  1.00  0.00    -0.200 F 
ENDBRANCH  49  73
BRANCH  61  84
ATOM     84  C   UNL A   1      43.869  28.267  34.969  1.00  0.00     0.064 A 
ATOM     85  C   UNL A   1      45.198  28.705  34.884  1.00  0.00     0.173 A 
ATOM     86  C   UNL A   1      43.602  27.115  35.726  1.00  0.00     0.173 A 
ATOM     87  F   UNL A   1      45.506  29.793  34.163  1.00  0.00    -0.203 F 
ATOM     88  C   UNL A   1      46.221  28.015  35.531  1.00  0.00     0.198 A 
ATOM     89  C   UNL A   1      44.623  26.445  36.393  1.00  0.00     0.198 A 
ATOM     90  F   UNL A   1      42.346  26.659  35.843  1.00  0.00    -0.203 F 
ATOM     91  F   UNL A   1      47.487  28.437  35.416  1.00  0.00    -0.200 F 
ATOM     92  C   UNL A   1      45.930  26.895  36.296  1.00  0.00     0.200 A 
ATOM     93  F   UNL A   1      44.339  25.372  37.145  1.00  0.00    -0.200 F 
ATOM     94  F   UNL A   1      46.913  26.247  36.937  1.00  0.00    -0.200 F 
ENDBRANCH  61  84
ENDBRANCH  35  36
ENDBRANCH  27  30
ENDBRANCH  25  26
ENDBRANCH   1  25
TORSDOF 11
ENDMDL
MODEL 2
REMARK VINA RESULT:     -13.9      5.539     10.608
REMARK SMILES Cc1ccc2c(=O)c3cccc(CC(=O)NCCCNC(=O)c4ccc(-c5c6nc(c(-c7c(F)c(F)c(F)c(F)c7F)c7ccc([nH]7)c(-c7c(F)c(F)c(F)c(F)c7F)c7nc(c(-c8c(F)c(F)c(F)c(F)c8F)c8ccc5[nH]8)C=C7)C=C6)cc4)c3oc2c1C
REMARK SMILES IDX 18 1 17 2 16 3 14 4 15 5 13 7 12 8 1 9 2 10 3 11 89 12 4 13
REMARK SMILES IDX 88 14 90 15 5 16 87 17 6 18 86 19 7 20 8 21 9 22 11 23 10 24
REMARK SMILES IDX 19 25 20 26 21 27 22 29 23 30 24 31 85 32 25 33 84 34 26 35
REMARK SMILES IDX 27 36 28 37 78 38 29 39 83 40 77 41 79 42 30 43 82 44 76 45
REMARK SMILES IDX 75 46 31 48 63 49 43 50 62 51 44 52 47 53 61 54 80 55 45 56
REMARK SMILES IDX 46 57 60 59 81 60 48 61 32 62 33 63 41 64 34 65 35 66 39 67
REMARK SMILES IDX 42 68 36 69 37 70 40 71 38 72 64 73 65 74 73 75 66 76 67 77
REMARK SMILES IDX 71 78 74 79 68 80 69 81 72 82 70 83 49 84 50 85 58 86 51 87
REMARK SMILES IDX 52 88 56 89 59 90 53 91 54 92 57 93 55 94
REMARK H PARENT 16 6 20 28 79 47 47 58
REMARK Flexibility Score: inf
ROOT
ATOM      1  C   UNL A   1      38.130  19.925  24.956  1.00  0.00     0.042 C 
ENDROOT
BRANCH   1   2
ATOM      2  C   UNL A   1      37.450  21.230  24.558  1.00  0.00     0.117 C 
BRANCH   2   3
ATOM      3  N   UNL A   1      37.918  22.354  25.346  1.00  0.00    -0.356 N 
ATOM      4  C   UNL A   1      37.322  23.559  25.580  1.00  0.00     0.224 C 
ATOM      5  O   UNL A   1      37.911  24.359  26.310  1.00  0.00    -0.275 OA
ATOM      6  H   UNL A   1      38.795  22.229  25.776  1.00  0.00     0.163 HD
BRANCH   4   7
ATOM      7  C   UNL A   1      35.944  23.862  25.020  1.00  0.00     0.139 C 
BRANCH   7   8
ATOM      8  C   UNL A   1      34.786  23.481  25.915  1.00  0.00     0.005 A 
ATOM      9  C   UNL A   1      30.590  28.358  22.431  1.00  0.00     0.045 C 
ATOM     10  C   UNL A   1      30.782  27.274  23.459  1.00  0.00    -0.044 A 
ATOM     11  C   UNL A   1      29.678  26.914  24.252  1.00  0.00     0.005 A 
ATOM     12  C   UNL A   1      32.007  26.585  23.619  1.00  0.00    -0.005 A 
ATOM     13  C   UNL A   1      29.785  25.914  25.214  1.00  0.00     0.016 A 
ATOM     14  C   UNL A   1      32.111  25.586  24.612  1.00  0.00     0.141 A 
ATOM     15  C   UNL A   1      33.215  26.888  22.768  1.00  0.00     0.049 C 
ATOM     16  C   UNL A   1      31.003  25.261  25.393  1.00  0.00     0.066 A 
ATOM     17  O   UNL A   1      33.334  24.968  24.758  1.00  0.00    -0.455 OA
ATOM     18  C   UNL A   1      31.135  24.216  26.415  1.00  0.00     0.200 A 
ATOM     19  C   UNL A   1      33.503  24.035  25.753  1.00  0.00     0.142 A 
ATOM     20  O   UNL A   1      30.181  23.854  27.092  1.00  0.00    -0.288 OA
ATOM     21  C   UNL A   1      32.466  23.626  26.594  1.00  0.00     0.066 A 
ATOM     22  C   UNL A   1      32.681  22.679  27.598  1.00  0.00     0.016 A 
ATOM     23  C   UNL A   1      35.000  22.557  26.957  1.00  0.00     0.008 A 
ATOM     24  C   UNL A   1      33.954  22.148  27.784  1.00  0.00     0.001 A 
ENDBRANCH   7   8
ENDBRANCH   4   7
ENDBRANCH   2   3
ENDBRANCH   1   2
BRANCH   1  25
ATOM     25  C   UNL A   1      39.197  20.086  26.033  1.00  0.00     0.118 C 
BRANCH  25  26
ATOM     26  N   UNL A   1      40.298  19.140  25.894  1.00  0.00    -0.352 N 
ATOM     27  C   UNL A   1      41.655  19.326  26.002  1.00  0.00     0.251 C 
ATOM     28  H   UNL A   1      40.024  18.216  25.691  1.00  0.00     0.163 HD
ATOM     29  O   UNL A   1      42.418  18.415  25.692  1.00  0.00    -0.269 OA
BRANCH  27  30
ATOM     30  C   UNL A   1      42.208  20.621  26.458  1.00  0.00     0.039 A 
ATOM     31  C   UNL A   1      42.315  20.924  27.815  1.00  0.00     0.014 A 
ATOM     32  C   UNL A   1      42.641  21.549  25.504  1.00  0.00     0.014 A 
ATOM     33  C   UNL A   1      42.669  22.209  28.210  1.00  0.00     0.010 A 
ATOM     34  C   UNL A   1      43.099  22.808  25.908  1.00  0.00     0.010 A 
ATOM     35  C   UNL A   1      43.066  23.168  27.264  1.00  0.00    -0.014 A 
BRANCH  35  36
ATOM     36  C   UNL A   1      43.442  24.530  27.729  1.00  0.00     0.031 A 
ATOM     37  C   UNL A   1      44.879  24.977  27.737  1.00  0.00     0.074 A 
ATOM     38  C   UNL A   1      42.470  25.392  28.082  1.00  0.00     0.049 A 
ATOM     39  N   UNL A   1      45.374  26.154  28.031  1.00  0.00    -0.248 NA
ATOM     40  C   UNL A   1      45.894  23.977  27.377  1.00  0.00     0.031 C 
ATOM     41  C   UNL A   1      41.042  25.071  28.123  1.00  0.00     0.029 A 
ATOM     42  N   UNL A   1      42.524  26.716  28.439  1.00  0.00    -0.354 N 
ATOM     43  C   UNL A   1      46.751  26.032  27.902  1.00  0.00     0.074 A 
ATOM     44  C   UNL A   1      47.019  24.655  27.547  1.00  0.00     0.031 C 
ATOM     45  C   UNL A   1      40.352  26.182  28.414  1.00  0.00     0.029 A 
ATOM     46  C   UNL A   1      41.288  27.278  28.643  1.00  0.00     0.049 A 
ATOM     47  H   UNL A   1      43.367  27.213  28.537  1.00  0.00     0.167 HD
ATOM     48  C   UNL A   1      47.702  26.985  28.047  1.00  0.00     0.037 A 
ATOM     49  C   UNL A   1      40.942  28.536  28.980  1.00  0.00     0.037 A 
ATOM     50  C   UNL A   1      47.427  28.359  28.381  1.00  0.00     0.049 A 
ATOM     51  C   UNL A   1      42.016  29.566  29.172  1.00  0.00     0.074 A 
ATOM     52  C   UNL A   1      48.321  29.409  28.510  1.00  0.00     0.029 A 
ATOM     53  N   UNL A   1      46.166  28.876  28.641  1.00  0.00    -0.354 N 
ATOM     54  N   UNL A   1      43.311  29.446  29.011  1.00  0.00    -0.248 NA
ATOM     55  C   UNL A   1      41.584  30.904  29.600  1.00  0.00     0.031 C 
ATOM     56  C   UNL A   1      47.609  30.544  28.907  1.00  0.00     0.029 A 
ATOM     57  C   UNL A   1      46.262  30.219  28.967  1.00  0.00     0.049 A 
ATOM     58  H   UNL A   1      45.326  28.362  28.602  1.00  0.00     0.167 HD
ATOM     59  C   UNL A   1      43.850  30.691  29.305  1.00  0.00     0.074 A 
ATOM     60  C   UNL A   1      42.738  31.558  29.638  1.00  0.00     0.031 C 
ATOM     61  C   UNL A   1      45.149  31.074  29.301  1.00  0.00     0.037 A 
BRANCH  48  62
ATOM     62  C   UNL A   1      49.136  26.580  27.856  1.00  0.00     0.064 A 
ATOM     63  C   UNL A   1      49.708  26.460  26.581  1.00  0.00     0.173 A 
ATOM     64  C   UNL A   1      49.966  26.359  28.967  1.00  0.00     0.173 A 
ATOM     65  F   UNL A   1      48.958  26.651  25.485  1.00  0.00    -0.203 F 
ATOM     66  C   UNL A   1      51.046  26.108  26.423  1.00  0.00     0.198 A 
ATOM     67  C   UNL A   1      51.312  26.038  28.806  1.00  0.00     0.198 A 
ATOM     68  F   UNL A   1      49.476  26.468  30.210  1.00  0.00    -0.203 F 
ATOM     69  F   UNL A   1      51.557  25.953  25.193  1.00  0.00    -0.200 F 
ATOM     70  C   UNL A   1      51.849  25.905  27.535  1.00  0.00     0.200 A 
ATOM     71  F   UNL A   1      52.091  25.859  29.882  1.00  0.00    -0.200 F 
ATOM     72  F   UNL A   1      53.139  25.576  27.382  1.00  0.00    -0.200 F 
ENDBRANCH  48  62
BRANCH  49  73
ATOM     73  C   UNL A   1      39.502  28.872  29.126  1.00  0.00     0.064 A 
ATOM     74  C   UNL A   1      38.872  28.807  30.375  1.00  0.00     0.173 A 
ATOM     75  C   UNL A   1      38.749  29.335  28.037  1.00  0.00     0.173 A 
ATOM     76  F   UNL A   1      39.546  28.354  31.444  1.00  0.00    -0.203 F 
ATOM     77  C   UNL A   1      37.546  29.203  30.532  1.00  0.00     0.198 A 
ATOM     78  C   UNL A   1      37.432  29.757  28.200  1.00  0.00     0.198 A 
ATOM     79  F   UNL A   1      39.309  29.421  26.821  1.00  0.00    -0.203 F 
ATOM     80  F   UNL A   1      36.961  29.118  31.735  1.00  0.00    -0.200 F 
ATOM     81  C   UNL A   1      36.831  29.690  29.447  1.00  0.00     0.200 A 
ATOM     82  F   UNL A   1      36.753  30.247  27.154  1.00  0.00    -0.200 F 
ATOM     83  F   UNL A   1      35.564  30.098  29.605  1.00  0.00    -0.200 F 
ENDBRANCH  49  73
BRANCH  61  84
ATOM     84  C   UNL A   1      45.458  32.497  29.662  1.00  0.00     0.064 A 
ATOM     85  C   UNL A   1      45.808  32.859  30.971  1.00  0.00     0.173 A 
ATOM     86  C   UNL A   1      45.499  33.490  28.672  1.00  0.00     0.173 A 
ATOM     87  F   UNL A   1      45.773  31.949  31.956  1.00  0.00    -0.203 F 
ATOM     88  C   UNL A   1      46.181  34.166  31.276  1.00  0.00     0.198 A 
ATOM     89  C   UNL A   1      45.900  34.788  28.975  1.00  0.00     0.198 A 
ATOM     90  F   UNL A   1      45.180  33.193  27.403  1.00  0.00    -0.203 F 
ATOM     91  F   UNL A   1      46.487  34.496  32.539  1.00  0.00    -0.200 F 
ATOM     92  C   UNL A   1      46.240  35.125  30.276  1.00  0.00     0.200 A 
ATOM     93  F   UNL A   1      45.972  35.710  28.004  1.00  0.00    -0.200 F 
ATOM     94  F   UNL A   1      46.624  36.376  30.567  1.00  0.00    -0.200 F 
ENDBRANCH  61  84
ENDBRANCH  35  36
ENDBRANCH  27  30
ENDBRANCH  25  26
ENDBRANCH   1  25
TORSDOF 11
ENDMDL
MODEL 3
REMARK VINA RESULT:     -13.8      5.774     11.134
REMARK SMILES Cc1ccc2c(=O)c3cccc(CC(=O)NCCCNC(=O)c4ccc(-c5c6nc(c(-c7c(F)c(F)c(F)c(F)c7F)c7ccc([nH]7)c(-c7c(F)c(F)c(F)c(F)c7F)c7nc(c(-c8c(F)c(F)c(F)c(F)c8F)c8ccc5[nH]8)C=C7)C=C6)cc4)c3oc2c1C
REMARK SMILES IDX 18 1 17 2 16 3 14 4 15 5 13 7 12 8 1 9 2 10 3 11 89 12 4 13
REMARK SMILES IDX 88 14 90 15 5 16 87 17 6 18 86 19 7 20 8 21 9 22 11 23 10 24
REMARK SMILES IDX 19 25 20 26 21 27 22 29 23 30 24 31 85 32 25 33 84 34 26 35
REMARK SMILES IDX 27 36 28 37 78 38 29 39 83 40 77 41 79 42 30 43 82 44 76 45
REMARK SMILES IDX 75 46 31 48 63 49 43 50 62 51 44 52 47 53 61 54 80 55 45 56
REMARK SMILES IDX 46 57 60 59 81 60 48 61 32 62 33 63 41 64 34 65 35 66 39 67
REMARK SMILES IDX 42 68 36 69 37 70 40 71 38 72 64 73 65 74 73 75 66 76 67 77
REMARK SMILES IDX 71 78 74 79 68 80 69 81 72 82 70 83 49 84 50 85 58 86 51 87
REMARK SMILES IDX 52 88 56 89 59 90 53 91 54 92 57 93 55 94
REMARK H PARENT 16 6 20 28 79 47 47 58
REMARK Flexibility Score: inf
ROOT
ATOM      1  C   UNL A   1      38.185  19.759  25.005  1.00  0.00     0.042 C 
ENDROOT
BRANCH   1   2
ATOM      2  C   UNL A   1      37.417  21.013  24.604  1.00  0.00     0.117 C 
BRANCH   2   3
ATOM      3  N   UNL A   1      37.881  22.189  25.314  1.00  0.00    -0.356 N 
ATOM      4  C   UNL A   1      37.278  23.404  25.470  1.00  0.00     0.224 C 
ATOM      5  O   UNL A   1      37.864  24.255  26.143  1.00  0.00    -0.275 OA
ATOM      6  H   UNL A   1      38.760  22.099  25.747  1.00  0.00     0.163 HD
BRANCH   4   7
ATOM      7  C   UNL A   1      35.896  23.660  24.897  1.00  0.00     0.139 C 
BRANCH   7   8
ATOM      8  C   UNL A   1      34.743  23.334  25.821  1.00  0.00     0.005 A 
ATOM      9  C   UNL A   1      30.666  28.338  22.377  1.00  0.00     0.045 C 
ATOM     10  C   UNL A   1      30.838  27.257  23.412  1.00  0.00    -0.044 A 
ATOM     11  C   UNL A   1      29.739  26.948  24.233  1.00  0.00     0.005 A 
ATOM     12  C   UNL A   1      32.039  26.522  23.552  1.00  0.00    -0.005 A 
ATOM     13  C   UNL A   1      29.827  25.954  25.202  1.00  0.00     0.016 A 
ATOM     14  C   UNL A   1      32.125  25.530  24.553  1.00  0.00     0.141 A 
ATOM     15  C   UNL A   1      33.239  26.770  22.673  1.00  0.00     0.049 C 
ATOM     16  C   UNL A   1      31.023  25.255  25.362  1.00  0.00     0.066 A 
ATOM     17  O   UNL A   1      33.326  24.866  24.680  1.00  0.00    -0.455 OA
ATOM     18  C   UNL A   1      31.136  24.216  26.392  1.00  0.00     0.200 A 
ATOM     19  C   UNL A   1      33.480  23.936  25.681  1.00  0.00     0.142 A 
ATOM     20  O   UNL A   1      30.183  23.899  27.092  1.00  0.00    -0.288 OA
ATOM     21  C   UNL A   1      32.447  23.576  26.548  1.00  0.00     0.066 A 
ATOM     22  C   UNL A   1      32.647  22.631  27.557  1.00  0.00     0.016 A 
ATOM     23  C   UNL A   1      34.945  22.412  26.867  1.00  0.00     0.008 A 
ATOM     24  C   UNL A   1      33.901  22.053  27.721  1.00  0.00     0.001 A 
ENDBRANCH   7   8
ENDBRANCH   4   7
ENDBRANCH   2   3
ENDBRANCH   1   2
BRANCH   1  25
ATOM     25  C   UNL A   1      39.292  20.010  26.023  1.00  0.00     0.118 C 
BRANCH  25  26
ATOM     26  N   UNL A   1      40.378  19.039  25.939  1.00  0.00    -0.352 N 
ATOM     27  C   UNL A   1      41.739  19.214  26.007  1.00  0.00     0.251 C 
ATOM     28  H   UNL A   1      40.088  18.107  25.813  1.00  0.00     0.163 HD
ATOM     29  O   UNL A   1      42.484  18.271  25.756  1.00  0.00    -0.269 OA
BRANCH  27  30
ATOM     30  C   UNL A   1      42.318  20.532  26.351  1.00  0.00     0.039 A 
ATOM     31  C   UNL A   1      42.331  20.995  27.667  1.00  0.00     0.014 A 
ATOM     32  C   UNL A   1      42.870  21.319  25.334  1.00  0.00     0.014 A 
ATOM     33  C   UNL A   1      42.715  22.304  27.935  1.00  0.00     0.010 A 
ATOM     34  C   UNL A   1      43.355  22.599  25.623  1.00  0.00     0.010 A 
ATOM     35  C   UNL A   1      43.233  23.123  26.919  1.00  0.00    -0.014 A 
BRANCH  35  36
ATOM     36  C   UNL A   1      43.638  24.516  27.249  1.00  0.00     0.031 A 
ATOM     37  C   UNL A   1      45.030  25.008  26.959  1.00  0.00     0.074 A 
ATOM     38  C   UNL A   1      42.719  25.362  27.751  1.00  0.00     0.049 A 
ATOM     39  N   UNL A   1      45.526  26.212  27.106  1.00  0.00    -0.248 NA
ATOM     40  C   UNL A   1      45.995  24.025  26.447  1.00  0.00     0.031 C 
ATOM     41  C   UNL A   1      41.340  24.999  28.081  1.00  0.00     0.029 A 
ATOM     42  N   UNL A   1      42.788  26.702  28.039  1.00  0.00    -0.354 N 
ATOM     43  C   UNL A   1      46.855  26.127  26.716  1.00  0.00     0.074 A 
ATOM     44  C   UNL A   1      47.104  24.745  26.369  1.00  0.00     0.031 C 
ATOM     45  C   UNL A   1      40.675  26.100  28.458  1.00  0.00     0.029 A 
ATOM     46  C   UNL A   1      41.594  27.234  28.458  1.00  0.00     0.049 A 
ATOM     47  H   UNL A   1      43.614  27.230  27.952  1.00  0.00     0.167 HD
ATOM     48  C   UNL A   1      47.779  27.116  26.636  1.00  0.00     0.037 A 
ATOM     49  C   UNL A   1      41.270  28.494  28.807  1.00  0.00     0.037 A 
ATOM     50  C   UNL A   1      47.519  28.494  26.963  1.00  0.00     0.049 A 
ATOM     51  C   UNL A   1      42.320  29.565  28.747  1.00  0.00     0.074 A 
ATOM     52  C   UNL A   1      48.379  29.576  26.875  1.00  0.00     0.029 A 
ATOM     53  N   UNL A   1      46.313  28.982  27.445  1.00  0.00    -0.354 N 
ATOM     54  N   UNL A   1      43.563  29.479  28.341  1.00  0.00    -0.248 NA
ATOM     55  C   UNL A   1      41.926  30.907  29.199  1.00  0.00     0.031 C 
ATOM     56  C   UNL A   1      47.713  30.705  27.360  1.00  0.00     0.029 A 
ATOM     57  C   UNL A   1      46.417  30.341  27.694  1.00  0.00     0.049 A 
ATOM     58  H   UNL A   1      45.502  28.441  27.590  1.00  0.00     0.167 HD
ATOM     59  C   UNL A   1      44.098  30.752  28.477  1.00  0.00     0.074 A 
ATOM     60  C   UNL A   1      43.038  31.598  28.986  1.00  0.00     0.031 C 
ATOM     61  C   UNL A   1      45.356  31.175  28.205  1.00  0.00     0.037 A 
BRANCH  48  62
ATOM     62  C   UNL A   1      49.164  26.747  26.186  1.00  0.00     0.064 A 
ATOM     63  C   UNL A   1      49.575  26.907  24.854  1.00  0.00     0.173 A 
ATOM     64  C   UNL A   1      50.110  26.276  27.109  1.00  0.00     0.173 A 
ATOM     65  F   UNL A   1      48.709  27.345  23.927  1.00  0.00    -0.203 F 
ATOM     66  C   UNL A   1      50.872  26.584  24.459  1.00  0.00     0.198 A 
ATOM     67  C   UNL A   1      51.415  25.984  26.717  1.00  0.00     0.198 A 
ATOM     68  F   UNL A   1      49.775  26.112  28.397  1.00  0.00    -0.203 F 
ATOM     69  F   UNL A   1      51.227  26.700  23.171  1.00  0.00    -0.200 F 
ATOM     70  C   UNL A   1      51.791  26.131  25.391  1.00  0.00     0.200 A 
ATOM     71  F   UNL A   1      52.307  25.563  27.624  1.00  0.00    -0.200 F 
ATOM     72  F   UNL A   1      53.042  25.830  25.012  1.00  0.00    -0.200 F 
ENDBRANCH  48  62
BRANCH  49  73
ATOM     73  C   UNL A   1      39.874  28.791  29.218  1.00  0.00     0.064 A 
ATOM     74  C   UNL A   1      38.918  29.196  28.278  1.00  0.00     0.173 A 
ATOM     75  C   UNL A   1      39.450  28.605  30.543  1.00  0.00     0.173 A 
ATOM     76  F   UNL A   1      39.279  29.405  27.003  1.00  0.00    -0.203 F 
ATOM     77  C   UNL A   1      37.588  29.393  28.644  1.00  0.00     0.198 A 
ATOM     78  C   UNL A   1      38.115  28.773  30.902  1.00  0.00     0.198 A 
ATOM     79  F   UNL A   1      40.326  28.211  31.479  1.00  0.00    -0.203 F 
ATOM     80  F   UNL A   1      36.695  29.794  27.729  1.00  0.00    -0.200 F 
ATOM     81  C   UNL A   1      37.186  29.168  29.953  1.00  0.00     0.200 A 
ATOM     82  F   UNL A   1      37.727  28.534  32.162  1.00  0.00    -0.200 F 
ATOM     83  F   UNL A   1      35.901  29.330  30.298  1.00  0.00    -0.200 F 
ENDBRANCH  49  73
BRANCH  61  84
ATOM     84  C   UNL A   1      45.673  32.622  28.444  1.00  0.00     0.064 A 
ATOM     85  C   UNL A   1      46.256  33.053  29.644  1.00  0.00     0.173 A 
ATOM     86  C   UNL A   1      45.480  33.570  27.427  1.00  0.00     0.173 A 
ATOM     87  F   UNL A   1      46.450  32.188  30.651  1.00  0.00    -0.203 F 
ATOM     88  C   UNL A   1      46.630  34.384  29.820  1.00  0.00     0.198 A 
ATOM     89  C   UNL A   1      45.880  34.893  27.597  1.00  0.00     0.198 A 
ATOM     90  F   UNL A   1      44.932  33.206  26.258  1.00  0.00    -0.203 F 
ATOM     91  F   UNL A   1      47.162  34.780  30.984  1.00  0.00    -0.200 F 
ATOM     92  C   UNL A   1      46.454  35.298  28.792  1.00  0.00     0.200 A 
ATOM     93  F   UNL A   1      45.725  35.771  26.596  1.00  0.00    -0.200 F 
ATOM     94  F   UNL A   1      46.837  36.572  28.954  1.00  0.00    -0.200 F 
ENDBRANCH  61  84
ENDBRANCH  35  36
ENDBRANCH  27  30
ENDBRANCH  25  26
ENDBRANCH   1  25
TORSDOF 11
ENDMDL
