MODEL 1
REMARK VINA RESULT:      -9.5      0.000      0.000
REMARK SMILES O=C(NCCCNC(=O)[C@H](c1ccccc1)N1C(=O)/C(=C\c2ccc(Br)cc2)SC1=S)c1ccc(-c2c3nc(c(-c4c(F)c(F)c(F)c(F)c4F)c4ccc([nH]4)c(-c4c(F)c(F)c(F)c(F)c4F)c4nc(c(-c5c(F)c(F)c(F)c(F)c5F)c5ccc2[nH]5)C=C4)C=C3)cc1
REMARK SMILES IDX 5 1 4 2 3 3 1 4 2 5 32 7 33 8 94 9 34 10 93 11 35 12 36 13
REMARK SMILES IDX 37 14 87 15 38 16 92 17 86 18 88 19 39 20 91 21 85 22 84 23
REMARK SMILES IDX 40 25 72 26 52 27 71 28 53 29 56 30 70 31 89 32 54 33 55 34
REMARK SMILES IDX 69 36 90 37 57 38 41 39 42 40 50 41 43 42 44 43 48 44 51 45
REMARK SMILES IDX 45 46 46 47 49 48 47 49 73 50 74 51 82 52 75 53 76 54 80 55
REMARK SMILES IDX 83 56 77 57 78 58 81 59 79 60 58 61 59 62 67 63 60 64 61 65
REMARK SMILES IDX 65 66 68 67 62 68 63 69 66 70 64 71 6 72 7 73 8 74 9 76
REMARK SMILES IDX 10 77 17 78 18 79 30 80 19 81 20 82 29 83 31 84 21 85 22 86
REMARK SMILES IDX 23 87 28 88 24 89 27 90 25 91 26 92 11 93 12 94 16 95 13 96
REMARK SMILES IDX 15 97 14 98
REMARK H PARENT 3 6 88 24 56 35 7 75
REMARK Flexibility Score: inf
ROOT
ATOM      1  C   UNL A   1      49.095  25.729  33.220  1.00  0.00     0.042 C 
ENDROOT
BRANCH   1   2
ATOM      2  C   UNL A   1      48.475  24.684  34.124  1.00  0.00     0.118 C 
BRANCH   2   3
ATOM      3  N   UNL A   1      48.424  25.119  35.520  1.00  0.00    -0.352 N 
ATOM      4  O   UNL A   1      47.874  26.369  37.307  1.00  0.00    -0.269 OA
ATOM      5  C   UNL A   1      47.614  26.027  36.156  1.00  0.00     0.251 C 
ATOM      6  H   UNL A   1      49.085  24.683  36.105  1.00  0.00     0.163 HD
BRANCH   5   7
ATOM      7  C   UNL A   1      46.443  26.603  35.464  1.00  0.00     0.039 A 
ATOM      8  C   UNL A   1      46.552  27.806  34.771  1.00  0.00     0.014 A 
ATOM      9  C   UNL A   1      45.221  25.921  35.480  1.00  0.00     0.014 A 
ATOM     10  C   UNL A   1      45.419  28.430  34.281  1.00  0.00     0.010 A 
ATOM     11  C   UNL A   1      44.101  26.482  34.858  1.00  0.00     0.010 A 
ATOM     12  C   UNL A   1      44.192  27.751  34.271  1.00  0.00    -0.014 A 
BRANCH  12  13
ATOM     13  C   UNL A   1      43.088  28.335  33.477  1.00  0.00     0.031 A 
ATOM     14  C   UNL A   1      42.884  27.995  32.034  1.00  0.00     0.074 A 
ATOM     15  C   UNL A   1      42.237  29.155  34.127  1.00  0.00     0.049 A 
ATOM     16  N   UNL A   1      41.928  28.386  31.229  1.00  0.00    -0.248 NA
ATOM     17  C   UNL A   1      43.870  27.104  31.405  1.00  0.00     0.031 C 
ATOM     18  C   UNL A   1      42.365  29.554  35.534  1.00  0.00     0.029 A 
ATOM     19  N   UNL A   1      41.090  29.776  33.713  1.00  0.00    -0.354 N 
ATOM     20  C   UNL A   1      42.203  27.803  30.000  1.00  0.00     0.074 A 
ATOM     21  C   UNL A   1      43.420  27.037  30.157  1.00  0.00     0.031 C 
ATOM     22  C   UNL A   1      41.313  30.305  35.879  1.00  0.00     0.029 A 
ATOM     23  C   UNL A   1      40.486  30.516  34.701  1.00  0.00     0.049 A 
ATOM     24  H   UNL A   1      40.733  29.701  32.799  1.00  0.00     0.167 HD
ATOM     25  C   UNL A   1      41.498  27.913  28.850  1.00  0.00     0.037 A 
ATOM     26  C   UNL A   1      39.405  31.311  34.654  1.00  0.00     0.037 A 
ATOM     27  C   UNL A   1      40.290  28.689  28.716  1.00  0.00     0.049 A 
ATOM     28  C   UNL A   1      38.674  31.438  33.351  1.00  0.00     0.074 A 
ATOM     29  C   UNL A   1      39.477  28.835  27.605  1.00  0.00     0.029 A 
ATOM     30  N   UNL A   1      39.731  29.462  29.724  1.00  0.00    -0.354 N 
ATOM     31  N   UNL A   1      38.914  30.842  32.209  1.00  0.00    -0.248 NA
ATOM     32  C   UNL A   1      37.529  32.355  33.326  1.00  0.00     0.031 C 
ATOM     33  C   UNL A   1      38.463  29.743  27.922  1.00  0.00     0.029 A 
ATOM     34  C   UNL A   1      38.606  30.118  29.248  1.00  0.00     0.049 A 
ATOM     35  H   UNL A   1      40.082  29.536  30.641  1.00  0.00     0.167 HD
ATOM     36  C   UNL A   1      37.946  31.300  31.332  1.00  0.00     0.074 A 
ATOM     37  C   UNL A   1      37.095  32.200  32.085  1.00  0.00     0.031 C 
ATOM     38  C   UNL A   1      37.780  31.012  30.018  1.00  0.00     0.037 A 
BRANCH  25  39
ATOM     39  C   UNL A   1      42.014  27.207  27.630  1.00  0.00     0.064 A 
ATOM     40  C   UNL A   1      43.029  27.755  26.834  1.00  0.00     0.173 A 
ATOM     41  C   UNL A   1      41.550  25.922  27.309  1.00  0.00     0.173 A 
ATOM     42  F   UNL A   1      43.500  28.986  27.090  1.00  0.00    -0.203 F 
ATOM     43  C   UNL A   1      43.559  27.044  25.758  1.00  0.00     0.198 A 
ATOM     44  C   UNL A   1      42.098  25.204  26.248  1.00  0.00     0.198 A 
ATOM     45  F   UNL A   1      40.583  25.350  28.042  1.00  0.00    -0.203 F 
ATOM     46  F   UNL A   1      44.516  27.595  24.999  1.00  0.00    -0.200 F 
ATOM     47  C   UNL A   1      43.102  25.765  25.475  1.00  0.00     0.200 A 
ATOM     48  F   UNL A   1      41.664  23.963  25.985  1.00  0.00    -0.200 F 
ATOM     49  F   UNL A   1      43.628  25.074  24.454  1.00  0.00    -0.200 F 
ENDBRANCH  25  39
BRANCH  26  50
ATOM     50  C   UNL A   1      38.989  32.073  35.860  1.00  0.00     0.064 A 
ATOM     51  C   UNL A   1      39.406  33.395  36.064  1.00  0.00     0.173 A 
ATOM     52  C   UNL A   1      38.164  31.491  36.834  1.00  0.00     0.173 A 
ATOM     53  F   UNL A   1      40.206  33.990  35.167  1.00  0.00    -0.203 F 
ATOM     54  C   UNL A   1      39.035  34.096  37.209  1.00  0.00     0.198 A 
ATOM     55  C   UNL A   1      37.762  32.205  37.960  1.00  0.00     0.198 A 
ATOM     56  F   UNL A   1      37.727  30.232  36.683  1.00  0.00    -0.203 F 
ATOM     57  F   UNL A   1      39.492  35.340  37.406  1.00  0.00    -0.200 F 
ATOM     58  C   UNL A   1      38.209  33.503  38.153  1.00  0.00     0.200 A 
ATOM     59  F   UNL A   1      36.946  31.635  38.856  1.00  0.00    -0.200 F 
ATOM     60  F   UNL A   1      37.850  34.180  39.252  1.00  0.00    -0.200 F 
ENDBRANCH  26  50
BRANCH  38  61
ATOM     61  C   UNL A   1      36.620  31.666  29.328  1.00  0.00     0.064 A 
ATOM     62  C   UNL A   1      36.619  33.040  29.040  1.00  0.00     0.173 A 
ATOM     63  C   UNL A   1      35.505  30.910  28.941  1.00  0.00     0.173 A 
ATOM     64  F   UNL A   1      37.655  33.808  29.410  1.00  0.00    -0.203 F 
ATOM     65  C   UNL A   1      35.528  33.636  28.417  1.00  0.00     0.198 A 
ATOM     66  C   UNL A   1      34.431  31.504  28.287  1.00  0.00     0.198 A 
ATOM     67  F   UNL A   1      35.461  29.593  29.190  1.00  0.00    -0.203 F 
ATOM     68  F   UNL A   1      35.522  34.960  28.205  1.00  0.00    -0.200 F 
ATOM     69  C   UNL A   1      34.438  32.867  28.035  1.00  0.00     0.200 A 
ATOM     70  F   UNL A   1      33.384  30.758  27.907  1.00  0.00    -0.200 F 
ATOM     71  F   UNL A   1      33.389  33.444  27.433  1.00  0.00    -0.200 F 
ENDBRANCH  38  61
ENDBRANCH  12  13
ENDBRANCH   5   7
ENDBRANCH   2   3
ENDBRANCH   1   2
BRANCH   1  72
ATOM     72  C   UNL A   1      48.281  25.950  31.962  1.00  0.00     0.117 C 
BRANCH  72  73
ATOM     73  N   UNL A   1      48.956  25.527  30.762  1.00  0.00    -0.354 N 
ATOM     74  C   UNL A   1      48.624  25.717  29.458  1.00  0.00     0.247 C 
ATOM     75  H   UNL A   1      49.788  25.021  30.911  1.00  0.00     0.163 HD
ATOM     76  O   UNL A   1      49.531  25.457  28.653  1.00  0.00    -0.272 OA
BRANCH  74  77
ATOM     77  C   UNL A   1      47.206  26.089  28.934  1.00  0.00     0.211 C 
BRANCH  77  78
ATOM     78  N   UNL A   1      47.172  27.464  28.364  1.00  0.00    -0.276 N 
ATOM     79  C   UNL A   1      46.752  28.540  29.108  1.00  0.00     0.267 C 
ATOM     80  C   UNL A   1      47.410  27.742  27.025  1.00  0.00     0.149 C 
ATOM     81  O   UNL A   1      46.481  28.523  30.293  1.00  0.00    -0.268 OA
ATOM     82  C   UNL A   1      46.616  29.776  28.289  1.00  0.00     0.081 C 
ATOM     83  S   UNL A   1      47.134  29.454  26.689  1.00  0.00    -0.054 SA
ATOM     84  S   UNL A   1      47.876  26.717  25.792  1.00  0.00    -0.052 S 
ATOM     85  C   UNL A   1      46.107  30.955  28.690  1.00  0.00     0.029 C 
BRANCH  85  86
ATOM     86  C   UNL A   1      45.578  31.218  30.036  1.00  0.00    -0.024 A 
ATOM     87  C   UNL A   1      46.431  31.728  31.023  1.00  0.00     0.009 A 
ATOM     88  C   UNL A   1      44.216  31.055  30.326  1.00  0.00     0.009 A 
ATOM     89  C   UNL A   1      45.912  32.137  32.255  1.00  0.00     0.016 A 
ATOM     90  C   UNL A   1      43.695  31.482  31.550  1.00  0.00     0.016 A 
ATOM     91  C   UNL A   1      44.545  32.028  32.506  1.00  0.00     0.018 A 
ATOM     92  Br  UNL A   1      43.832  32.641  34.144  1.00  0.00    -0.051 Br
ENDBRANCH  85  86
ENDBRANCH  77  78
BRANCH  77  93
ATOM     93  C   UNL A   1      46.326  24.963  28.343  1.00  0.00    -0.016 A 
ATOM     94  C   UNL A   1      46.536  24.277  27.134  1.00  0.00     0.006 A 
ATOM     95  C   UNL A   1      45.197  24.548  29.082  1.00  0.00     0.006 A 
ATOM     96  C   UNL A   1      45.705  23.240  26.692  1.00  0.00     0.000 A 
ATOM     97  C   UNL A   1      44.345  23.528  28.634  1.00  0.00     0.000 A 
ATOM     98  C   UNL A   1      44.602  22.869  27.439  1.00  0.00     0.000 A 
ENDBRANCH  77  93
ENDBRANCH  74  77
ENDBRANCH  72  73
ENDBRANCH   1  72
TORSDOF 13
ENDMDL
MODEL 2
REMARK VINA RESULT:      -9.5      4.758     10.323
REMARK SMILES O=C(NCCCNC(=O)[C@H](c1ccccc1)N1C(=O)/C(=C\c2ccc(Br)cc2)SC1=S)c1ccc(-c2c3nc(c(-c4c(F)c(F)c(F)c(F)c4F)c4ccc([nH]4)c(-c4c(F)c(F)c(F)c(F)c4F)c4nc(c(-c5c(F)c(F)c(F)c(F)c5F)c5ccc2[nH]5)C=C4)C=C3)cc1
REMARK SMILES IDX 5 1 4 2 3 3 1 4 2 5 32 7 33 8 94 9 34 10 93 11 35 12 36 13
REMARK SMILES IDX 37 14 87 15 38 16 92 17 86 18 88 19 39 20 91 21 85 22 84 23
REMARK SMILES IDX 40 25 72 26 52 27 71 28 53 29 56 30 70 31 89 32 54 33 55 34
REMARK SMILES IDX 69 36 90 37 57 38 41 39 42 40 50 41 43 42 44 43 48 44 51 45
REMARK SMILES IDX 45 46 46 47 49 48 47 49 73 50 74 51 82 52 75 53 76 54 80 55
REMARK SMILES IDX 83 56 77 57 78 58 81 59 79 60 58 61 59 62 67 63 60 64 61 65
REMARK SMILES IDX 65 66 68 67 62 68 63 69 66 70 64 71 6 72 7 73 8 74 9 76
REMARK SMILES IDX 10 77 17 78 18 79 30 80 19 81 20 82 29 83 31 84 21 85 22 86
REMARK SMILES IDX 23 87 28 88 24 89 27 90 25 91 26 92 11 93 12 94 16 95 13 96
REMARK SMILES IDX 15 97 14 98
REMARK H PARENT 3 6 88 24 56 35 7 75
REMARK Flexibility Score: inf
ROOT
ATOM      1  C   UNL A   1      47.264  26.537  39.732  1.00  0.00     0.042 C 
ENDROOT
BRANCH   1   2
ATOM      2  C   UNL A   1      47.074  27.111  38.344  1.00  0.00     0.118 C 
BRANCH   2   3
ATOM      3  N   UNL A   1      47.670  26.267  37.309  1.00  0.00    -0.352 N 
ATOM      4  O   UNL A   1      47.810  25.035  35.432  1.00  0.00    -0.269 OA
ATOM      5  C   UNL A   1      47.220  25.909  36.062  1.00  0.00     0.251 C 
ATOM      6  H   UNL A   1      48.549  25.891  37.548  1.00  0.00     0.163 HD
BRANCH   5   7
ATOM      7  C   UNL A   1      46.027  26.557  35.479  1.00  0.00     0.039 A 
ATOM      8  C   UNL A   1      46.156  27.699  34.692  1.00  0.00     0.014 A 
ATOM      9  C   UNL A   1      44.760  26.003  35.694  1.00  0.00     0.014 A 
ATOM     10  C   UNL A   1      45.032  28.402  34.300  1.00  0.00     0.010 A 
ATOM     11  C   UNL A   1      43.626  26.635  35.175  1.00  0.00     0.010 A 
ATOM     12  C   UNL A   1      43.756  27.851  34.491  1.00  0.00    -0.014 A 
BRANCH  12  13
ATOM     13  C   UNL A   1      42.618  28.493  33.798  1.00  0.00     0.031 A 
ATOM     14  C   UNL A   1      41.730  29.484  34.483  1.00  0.00     0.074 A 
ATOM     15  C   UNL A   1      42.443  28.184  32.496  1.00  0.00     0.049 A 
ATOM     16  N   UNL A   1      40.731  30.169  33.985  1.00  0.00    -0.248 NA
ATOM     17  C   UNL A   1      41.987  29.749  35.906  1.00  0.00     0.031 C 
ATOM     18  C   UNL A   1      43.254  27.217  31.747  1.00  0.00     0.029 A 
ATOM     19  N   UNL A   1      41.558  28.659  31.567  1.00  0.00    -0.354 N 
ATOM     20  C   UNL A   1      40.233  30.932  35.032  1.00  0.00     0.074 A 
ATOM     21  C   UNL A   1      41.031  30.623  36.199  1.00  0.00     0.031 C 
ATOM     22  C   UNL A   1      42.866  27.211  30.467  1.00  0.00     0.029 A 
ATOM     23  C   UNL A   1      41.724  28.102  30.324  1.00  0.00     0.049 A 
ATOM     24  H   UNL A   1      40.870  29.334  31.770  1.00  0.00     0.167 HD
ATOM     25  C   UNL A   1      39.197  31.802  35.008  1.00  0.00     0.037 A 
ATOM     26  C   UNL A   1      41.011  28.259  29.197  1.00  0.00     0.037 A 
ATOM     27  C   UNL A   1      38.411  32.088  33.834  1.00  0.00     0.049 A 
ATOM     28  C   UNL A   1      39.845  29.202  29.221  1.00  0.00     0.074 A 
ATOM     29  C   UNL A   1      37.364  32.983  33.693  1.00  0.00     0.029 A 
ATOM     30  N   UNL A   1      38.577  31.472  32.601  1.00  0.00    -0.354 N 
ATOM     31  N   UNL A   1      39.415  29.956  30.204  1.00  0.00    -0.248 NA
ATOM     32  C   UNL A   1      39.059  29.309  27.988  1.00  0.00     0.031 C 
ATOM     33  C   UNL A   1      36.858  32.863  32.395  1.00  0.00     0.029 A 
ATOM     34  C   UNL A   1      37.627  31.939  31.706  1.00  0.00     0.049 A 
ATOM     35  H   UNL A   1      39.268  30.801  32.393  1.00  0.00     0.167 HD
ATOM     36  C   UNL A   1      38.317  30.636  29.706  1.00  0.00     0.074 A 
ATOM     37  C   UNL A   1      38.166  30.228  28.323  1.00  0.00     0.031 C 
ATOM     38  C   UNL A   1      37.497  31.513  30.337  1.00  0.00     0.037 A 
BRANCH  25  39
ATOM     39  C   UNL A   1      38.821  32.495  36.286  1.00  0.00     0.064 A 
ATOM     40  C   UNL A   1      38.061  31.857  37.277  1.00  0.00     0.173 A 
ATOM     41  C   UNL A   1      39.309  33.782  36.561  1.00  0.00     0.173 A 
ATOM     42  F   UNL A   1      37.561  30.631  37.060  1.00  0.00    -0.203 F 
ATOM     43  C   UNL A   1      37.801  32.484  38.494  1.00  0.00     0.198 A 
ATOM     44  C   UNL A   1      39.067  34.396  37.787  1.00  0.00     0.198 A 
ATOM     45  F   UNL A   1      40.045  34.435  35.648  1.00  0.00    -0.203 F 
ATOM     46  F   UNL A   1      37.057  31.863  39.420  1.00  0.00    -0.200 F 
ATOM     47  C   UNL A   1      38.314  33.746  38.752  1.00  0.00     0.200 A 
ATOM     48  F   UNL A   1      39.575  35.611  38.039  1.00  0.00    -0.200 F 
ATOM     49  F   UNL A   1      38.082  34.338  39.933  1.00  0.00    -0.200 F 
ENDBRANCH  25  39
BRANCH  26  50
ATOM     50  C   UNL A   1      41.354  27.475  27.983  1.00  0.00     0.064 A 
ATOM     51  C   UNL A   1      40.858  26.179  27.790  1.00  0.00     0.173 A 
ATOM     52  C   UNL A   1      42.187  28.009  26.988  1.00  0.00     0.173 A 
ATOM     53  F   UNL A   1      40.068  25.620  28.719  1.00  0.00    -0.203 F 
ATOM     54  C   UNL A   1      41.205  25.438  26.663  1.00  0.00     0.198 A 
ATOM     55  C   UNL A   1      42.502  27.282  25.843  1.00  0.00     0.198 A 
ATOM     56  F   UNL A   1      42.680  29.250  27.117  1.00  0.00    -0.203 F 
ATOM     57  F   UNL A   1      40.761  24.180  26.530  1.00  0.00    -0.200 F 
ATOM     58  C   UNL A   1      42.022  25.992  25.688  1.00  0.00     0.200 A 
ATOM     59  F   UNL A   1      43.272  27.832  24.895  1.00  0.00    -0.200 F 
ATOM     60  F   UNL A   1      42.351  25.279  24.602  1.00  0.00    -0.200 F 
ENDBRANCH  26  50
BRANCH  38  61
ATOM     61  C   UNL A   1      36.383  32.097  29.521  1.00  0.00     0.064 A 
ATOM     62  C   UNL A   1      36.374  33.452  29.157  1.00  0.00     0.173 A 
ATOM     63  C   UNL A   1      35.321  31.290  29.090  1.00  0.00     0.173 A 
ATOM     64  F   UNL A   1      37.359  34.267  29.564  1.00  0.00    -0.203 F 
ATOM     65  C   UNL A   1      35.324  33.984  28.416  1.00  0.00     0.198 A 
ATOM     66  C   UNL A   1      34.290  31.819  28.320  1.00  0.00     0.198 A 
ATOM     67  F   UNL A   1      35.287  29.988  29.409  1.00  0.00    -0.203 F 
ATOM     68  F   UNL A   1      35.305  35.293  28.130  1.00  0.00    -0.200 F 
ATOM     69  C   UNL A   1      34.286  33.166  27.993  1.00  0.00     0.200 A 
ATOM     70  F   UNL A   1      33.295  31.025  27.900  1.00  0.00    -0.200 F 
ATOM     71  F   UNL A   1      33.277  33.680  27.277  1.00  0.00    -0.200 F 
ENDBRANCH  38  61
ENDBRANCH  12  13
ENDBRANCH   5   7
ENDBRANCH   2   3
ENDBRANCH   1   2
BRANCH   1  72
ATOM     72  C   UNL A   1      47.585  25.056  39.699  1.00  0.00     0.117 C 
BRANCH  72  73
ATOM     73  N   UNL A   1      46.428  24.217  39.881  1.00  0.00    -0.354 N 
ATOM     74  C   UNL A   1      46.234  22.913  39.552  1.00  0.00     0.247 C 
ATOM     75  H   UNL A   1      45.660  24.657  40.311  1.00  0.00     0.163 HD
ATOM     76  O   UNL A   1      45.228  22.398  40.063  1.00  0.00    -0.272 OA
BRANCH  74  77
ATOM     77  C   UNL A   1      47.075  22.109  38.518  1.00  0.00     0.211 C 
BRANCH  77  78
ATOM     78  N   UNL A   1      47.751  20.940  39.146  1.00  0.00    -0.276 N 
ATOM     79  C   UNL A   1      47.064  19.788  39.444  1.00  0.00     0.267 C 
ATOM     80  C   UNL A   1      49.059  20.972  39.609  1.00  0.00     0.149 C 
ATOM     81  O   UNL A   1      45.910  19.549  39.143  1.00  0.00    -0.268 OA
ATOM     82  C   UNL A   1      47.883  18.829  40.237  1.00  0.00     0.081 C 
ATOM     83  S   UNL A   1      49.464  19.458  40.426  1.00  0.00    -0.054 SA
ATOM     84  S   UNL A   1      50.196  22.191  39.503  1.00  0.00    -0.052 S 
ATOM     85  C   UNL A   1      47.463  17.678  40.790  1.00  0.00     0.029 C 
BRANCH  85  86
ATOM     86  C   UNL A   1      46.085  17.170  40.708  1.00  0.00    -0.024 A 
ATOM     87  C   UNL A   1      45.685  16.444  39.580  1.00  0.00     0.009 A 
ATOM     88  C   UNL A   1      45.192  17.318  41.779  1.00  0.00     0.009 A 
ATOM     89  C   UNL A   1      44.436  15.815  39.557  1.00  0.00     0.016 A 
ATOM     90  C   UNL A   1      43.952  16.675  41.763  1.00  0.00     0.016 A 
ATOM     91  C   UNL A   1      43.584  15.920  40.655  1.00  0.00     0.018 A 
ATOM     92  Br  UNL A   1      41.925  15.017  40.653  1.00  0.00    -0.051 Br
ENDBRANCH  85  86
ENDBRANCH  77  78
BRANCH  77  93
ATOM     93  C   UNL A   1      46.572  22.044  37.057  1.00  0.00    -0.016 A 
ATOM     94  C   UNL A   1      45.331  22.495  36.573  1.00  0.00     0.006 A 
ATOM     95  C   UNL A   1      47.434  21.495  36.083  1.00  0.00     0.006 A 
ATOM     96  C   UNL A   1      44.971  22.430  35.222  1.00  0.00     0.000 A 
ATOM     97  C   UNL A   1      47.072  21.404  34.731  1.00  0.00     0.000 A 
ATOM     98  C   UNL A   1      45.840  21.877  34.299  1.00  0.00     0.000 A 
ENDBRANCH  77  93
ENDBRANCH  74  77
ENDBRANCH  72  73
ENDBRANCH   1  72
TORSDOF 13
ENDMDL
MODEL 3
REMARK VINA RESULT:      -9.5      4.714      7.469
REMARK SMILES O=C(NCCCNC(=O)[C@H](c1ccccc1)N1C(=O)/C(=C\c2ccc(Br)cc2)SC1=S)c1ccc(-c2c3nc(c(-c4c(F)c(F)c(F)c(F)c4F)c4ccc([nH]4)c(-c4c(F)c(F)c(F)c(F)c4F)c4nc(c(-c5c(F)c(F)c(F)c(F)c5F)c5ccc2[nH]5)C=C4)C=C3)cc1
REMARK SMILES IDX 5 1 4 2 3 3 1 4 2 5 32 7 33 8 94 9 34 10 93 11 35 12 36 13
REMARK SMILES IDX 37 14 87 15 38 16 92 17 86 18 88 19 39 20 91 21 85 22 84 23
REMARK SMILES IDX 40 25 72 26 52 27 71 28 53 29 56 30 70 31 89 32 54 33 55 34
REMARK SMILES IDX 69 36 90 37 57 38 41 39 42 40 50 41 43 42 44 43 48 44 51 45
REMARK SMILES IDX 45 46 46 47 49 48 47 49 73 50 74 51 82 52 75 53 76 54 80 55
REMARK SMILES IDX 83 56 77 57 78 58 81 59 79 60 58 61 59 62 67 63 60 64 61 65
REMARK SMILES IDX 65 66 68 67 62 68 63 69 66 70 64 71 6 72 7 73 8 74 9 76
REMARK SMILES IDX 10 77 17 78 18 79 30 80 19 81 20 82 29 83 31 84 21 85 22 86
REMARK SMILES IDX 23 87 28 88 24 89 27 90 25 91 26 92 11 93 12 94 16 95 13 96
REMARK SMILES IDX 15 97 14 98
REMARK H PARENT 3 6 88 24 56 35 7 75
REMARK Flexibility Score: inf
ROOT
ATOM      1  C   UNL A   1      47.232  26.471  39.887  1.00  0.00     0.042 C 
ENDROOT
BRANCH   1   2
ATOM      2  C   UNL A   1      47.191  27.027  38.480  1.00  0.00     0.118 C 
BRANCH   2   3
ATOM      3  N   UNL A   1      47.883  26.165  37.522  1.00  0.00    -0.352 N 
ATOM      4  O   UNL A   1      48.195  24.880  35.703  1.00  0.00    -0.269 OA
ATOM      5  C   UNL A   1      47.541  25.760  36.256  1.00  0.00     0.251 C 
ATOM      6  H   UNL A   1      48.747  25.816  37.842  1.00  0.00     0.163 HD
BRANCH   5   7
ATOM      7  C   UNL A   1      46.386  26.364  35.560  1.00  0.00     0.039 A 
ATOM      8  C   UNL A   1      46.549  27.508  34.783  1.00  0.00     0.014 A 
ATOM      9  C   UNL A   1      45.125  25.766  35.658  1.00  0.00     0.014 A 
ATOM     10  C   UNL A   1      45.442  28.171  34.283  1.00  0.00     0.010 A 
ATOM     11  C   UNL A   1      44.023  26.357  35.031  1.00  0.00     0.010 A 
ATOM     12  C   UNL A   1      44.174  27.575  34.356  1.00  0.00    -0.014 A 
BRANCH  12  13
ATOM     13  C   UNL A   1      43.085  28.176  33.556  1.00  0.00     0.031 A 
ATOM     14  C   UNL A   1      42.884  27.839  32.111  1.00  0.00     0.074 A 
ATOM     15  C   UNL A   1      42.241  29.008  34.201  1.00  0.00     0.049 A 
ATOM     16  N   UNL A   1      41.939  28.245  31.301  1.00  0.00    -0.248 NA
ATOM     17  C   UNL A   1      43.860  26.935  31.488  1.00  0.00     0.031 C 
ATOM     18  C   UNL A   1      42.367  29.404  35.609  1.00  0.00     0.029 A 
ATOM     19  N   UNL A   1      41.107  29.647  33.781  1.00  0.00    -0.354 N 
ATOM     20  C   UNL A   1      42.212  27.659  30.073  1.00  0.00     0.074 A 
ATOM     21  C   UNL A   1      43.417  26.874  30.237  1.00  0.00     0.031 C 
ATOM     22  C   UNL A   1      41.325  30.170  35.948  1.00  0.00     0.029 A 
ATOM     23  C   UNL A   1      40.508  30.395  34.765  1.00  0.00     0.049 A 
ATOM     24  H   UNL A   1      40.754  29.577  32.864  1.00  0.00     0.167 HD
ATOM     25  C   UNL A   1      41.515  27.779  28.919  1.00  0.00     0.037 A 
ATOM     26  C   UNL A   1      39.439  31.206  34.713  1.00  0.00     0.037 A 
ATOM     27  C   UNL A   1      40.321  28.573  28.779  1.00  0.00     0.049 A 
ATOM     28  C   UNL A   1      38.718  31.345  33.406  1.00  0.00     0.074 A 
ATOM     29  C   UNL A   1      39.517  28.732  27.663  1.00  0.00     0.029 A 
ATOM     30  N   UNL A   1      39.767  29.355  29.783  1.00  0.00    -0.354 N 
ATOM     31  N   UNL A   1      38.956  30.745  32.264  1.00  0.00    -0.248 NA
ATOM     32  C   UNL A   1      37.587  32.278  33.375  1.00  0.00     0.031 C 
ATOM     33  C   UNL A   1      38.514  29.656  27.974  1.00  0.00     0.029 A 
ATOM     34  C   UNL A   1      38.655  30.028  29.301  1.00  0.00     0.049 A 
ATOM     35  H   UNL A   1      40.114  29.422  30.702  1.00  0.00     0.167 HD
ATOM     36  C   UNL A   1      38.000  31.218  31.382  1.00  0.00     0.074 A 
ATOM     37  C   UNL A   1      37.158  32.131  32.130  1.00  0.00     0.031 C 
ATOM     38  C   UNL A   1      37.837  30.933  30.067  1.00  0.00     0.037 A 
BRANCH  25  39
ATOM     39  C   UNL A   1      42.028  27.067  27.702  1.00  0.00     0.064 A 
ATOM     40  C   UNL A   1      42.971  27.653  26.845  1.00  0.00     0.173 A 
ATOM     41  C   UNL A   1      41.640  25.743  27.443  1.00  0.00     0.173 A 
ATOM     42  F   UNL A   1      43.366  28.920  27.040  1.00  0.00    -0.203 F 
ATOM     43  C   UNL A   1      43.503  26.940  25.772  1.00  0.00     0.198 A 
ATOM     44  C   UNL A   1      42.192  25.026  26.384  1.00  0.00     0.198 A 
ATOM     45  F   UNL A   1      40.745  25.134  28.235  1.00  0.00    -0.203 F 
ATOM     46  F   UNL A   1      44.389  27.526  24.954  1.00  0.00    -0.200 F 
ATOM     47  C   UNL A   1      43.123  25.625  25.550  1.00  0.00     0.200 A 
ATOM     48  F   UNL A   1      41.833  23.750  26.180  1.00  0.00    -0.200 F 
ATOM     49  F   UNL A   1      43.653  24.934  24.531  1.00  0.00    -0.200 F 
ENDBRANCH  25  39
BRANCH  26  50
ATOM     50  C   UNL A   1      39.028  31.973  35.916  1.00  0.00     0.064 A 
ATOM     51  C   UNL A   1      39.495  33.274  36.144  1.00  0.00     0.173 A 
ATOM     52  C   UNL A   1      38.156  31.418  36.865  1.00  0.00     0.173 A 
ATOM     53  F   UNL A   1      40.341  33.843  35.272  1.00  0.00    -0.203 F 
ATOM     54  C   UNL A   1      39.128  33.979  37.288  1.00  0.00     0.198 A 
ATOM     55  C   UNL A   1      37.758  32.138  37.989  1.00  0.00     0.198 A 
ATOM     56  F   UNL A   1      37.670  30.180  36.691  1.00  0.00    -0.203 F 
ATOM     57  F   UNL A   1      39.632  35.201  37.508  1.00  0.00    -0.200 F 
ATOM     58  C   UNL A   1      38.255  33.413  38.206  1.00  0.00     0.200 A 
ATOM     59  F   UNL A   1      36.897  31.595  38.859  1.00  0.00    -0.200 F 
ATOM     60  F   UNL A   1      37.899  34.095  39.303  1.00  0.00    -0.200 F 
ENDBRANCH  26  50
BRANCH  38  61
ATOM     61  C   UNL A   1      36.692  31.605  29.371  1.00  0.00     0.064 A 
ATOM     62  C   UNL A   1      35.551  30.889  28.978  1.00  0.00     0.173 A 
ATOM     63  C   UNL A   1      36.731  32.981  29.105  1.00  0.00     0.173 A 
ATOM     64  F   UNL A   1      35.477  29.567  29.192  1.00  0.00    -0.203 F 
ATOM     65  C   UNL A   1      34.504  31.522  28.316  1.00  0.00     0.198 A 
ATOM     66  C   UNL A   1      35.667  33.617  28.474  1.00  0.00     0.198 A 
ATOM     67  F   UNL A   1      37.798  33.710  29.466  1.00  0.00    -0.203 F 
ATOM     68  F   UNL A   1      33.450  30.808  27.897  1.00  0.00    -0.200 F 
ATOM     69  C   UNL A   1      34.560  32.887  28.071  1.00  0.00     0.200 A 
ATOM     70  F   UNL A   1      35.716  34.938  28.249  1.00  0.00    -0.200 F 
ATOM     71  F   UNL A   1      33.550  33.495  27.435  1.00  0.00    -0.200 F 
ENDBRANCH  38  61
ENDBRANCH  12  13
ENDBRANCH   5   7
ENDBRANCH   2   3
ENDBRANCH   1   2
BRANCH   1  72
ATOM     72  C   UNL A   1      47.549  24.989  39.906  1.00  0.00     0.117 C 
BRANCH  72  73
ATOM     73  N   UNL A   1      46.375  24.155  39.943  1.00  0.00    -0.354 N 
ATOM     74  C   UNL A   1      46.209  22.862  39.556  1.00  0.00     0.247 C 
ATOM     75  H   UNL A   1      45.569  24.588  40.305  1.00  0.00     0.163 HD
ATOM     76  O   UNL A   1      45.153  22.341  39.945  1.00  0.00    -0.272 OA
BRANCH  74  77
ATOM     77  C   UNL A   1      47.148  22.083  38.589  1.00  0.00     0.211 C 
BRANCH  77  78
ATOM     78  N   UNL A   1      47.925  21.033  39.303  1.00  0.00    -0.276 N 
ATOM     79  C   UNL A   1      47.351  19.840  39.672  1.00  0.00     0.267 C 
ATOM     80  C   UNL A   1      49.215  21.227  39.776  1.00  0.00     0.149 C 
ATOM     81  O   UNL A   1      46.232  19.468  39.377  1.00  0.00    -0.268 OA
ATOM     82  C   UNL A   1      48.247  19.024  40.537  1.00  0.00     0.081 C 
ATOM     83  S   UNL A   1      49.755  19.820  40.699  1.00  0.00    -0.054 SA
ATOM     84  S   UNL A   1      50.227  22.543  39.598  1.00  0.00    -0.052 S 
ATOM     85  C   UNL A   1      47.934  17.876  41.164  1.00  0.00     0.029 C 
BRANCH  85  86
ATOM     86  C   UNL A   1      46.615  17.228  41.103  1.00  0.00    -0.024 A 
ATOM     87  C   UNL A   1      45.676  17.486  42.109  1.00  0.00     0.009 A 
ATOM     88  C   UNL A   1      46.248  16.431  40.010  1.00  0.00     0.009 A 
ATOM     89  C   UNL A   1      44.367  17.011  41.983  1.00  0.00     0.016 A 
ATOM     90  C   UNL A   1      44.935  15.973  39.876  1.00  0.00     0.016 A 
ATOM     91  C   UNL A   1      43.999  16.273  40.860  1.00  0.00     0.018 A 
ATOM     92  Br  UNL A   1      42.214  15.688  40.656  1.00  0.00    -0.051 Br
ENDBRANCH  85  86
ENDBRANCH  77  78
BRANCH  77  93
ATOM     93  C   UNL A   1      46.683  21.872  37.129  1.00  0.00    -0.016 A 
ATOM     94  C   UNL A   1      45.458  22.274  36.570  1.00  0.00     0.006 A 
ATOM     95  C   UNL A   1      47.569  21.227  36.239  1.00  0.00     0.006 A 
ATOM     96  C   UNL A   1      45.133  22.074  35.222  1.00  0.00     0.000 A 
ATOM     97  C   UNL A   1      47.242  21.000  34.894  1.00  0.00     0.000 A 
ATOM     98  C   UNL A   1      46.024  21.429  34.383  1.00  0.00     0.000 A 
ENDBRANCH  77  93
ENDBRANCH  74  77
ENDBRANCH  72  73
ENDBRANCH   1  72
TORSDOF 13
ENDMDL
