MODEL 1
REMARK VINA RESULT:     -12.3      0.000      0.000
REMARK SMILES CC[NH2+][C@]1(C(=O)NCCCNC(=O)c2ccc(-c3c4nc(c(-c5c(F)c(F)c(F)c(F)c5F)c5ccc([nH]5)c(-c5c(F)c(F)c(F)c(F)c5F)c5nc(c(-c6c(F)c(F)c(F)c(F)c6F)c6ccc3[nH]6)C=C5)C=C4)cc2)CCC[C@H]1CCSc1n[nH]c(=O)n1C
REMARK SMILES IDX 8 1 7 2 5 3 6 4 4 6 77 7 80 8 78 9 79 10 3 11 2 14 1 15
REMARK SMILES IDX 81 16 82 17 83 18 84 19 85 20 89 21 86 22 87 23 90 24 88 26
REMARK SMILES IDX 9 27 10 28 11 29 12 30 13 32 14 33 15 34 76 35 16 36 75 37
REMARK SMILES IDX 17 38 18 39 19 40 69 41 20 42 74 43 68 44 70 45 21 46 73 47
REMARK SMILES IDX 67 48 66 49 22 51 54 52 34 53 53 54 35 55 38 56 52 57 71 58
REMARK SMILES IDX 36 59 37 60 51 62 72 63 39 64 23 65 24 66 32 67 25 68 26 69
REMARK SMILES IDX 30 70 33 71 27 72 28 73 31 74 29 75 55 76 56 77 64 78 57 79
REMARK SMILES IDX 58 80 62 81 65 82 59 83 60 84 63 85 61 86 40 87 41 88 49 89
REMARK SMILES IDX 42 90 43 91 47 92 50 93 44 94 45 95 48 96 46 97
REMARK H PARENT 7 5 3 12 3 13 86 25 11 31 70 50 38 61
REMARK Flexibility Score: inf
ROOT
ATOM      1  C   UNL A   1      31.646  30.909  26.049  1.00  0.00     0.118 C 
ENDROOT
BRANCH   1   2
ATOM      2  N   UNL A   1      31.537  29.760  26.926  1.00  0.00    -0.351 N 
ATOM      3  C   UNL A   1      31.922  28.459  26.846  1.00  0.00     0.281 C 
ATOM      4  O   UNL A   1      31.442  27.758  27.746  1.00  0.00    -0.268 OA
ATOM      5  H   UNL A   1      31.078  29.969  27.772  1.00  0.00     0.163 HD
BRANCH   3   6
ATOM      6  C   UNL A   1      32.941  27.896  25.800  1.00  0.00     0.178 C 
ATOM      7  C   UNL A   1      33.482  26.506  26.197  1.00  0.00     0.079 C 
ATOM      8  C   UNL A   1      32.398  27.691  24.335  1.00  0.00     0.061 C 
ATOM      9  C   UNL A   1      34.096  25.960  24.920  1.00  0.00     0.008 C 
ATOM     10  C   UNL A   1      33.247  26.517  23.781  1.00  0.00     0.011 C 
BRANCH   6  11
ATOM     11  N   UNL A   1      34.173  28.764  25.858  1.00  0.00    -0.334 N 
ATOM     12  H   UNL A   1      34.854  28.370  25.208  1.00  0.00     0.347 HD
ATOM     13  H   UNL A   1      33.842  29.700  25.629  1.00  0.00     0.347 HD
BRANCH  11  14
ATOM     14  C   UNL A   1      34.835  28.910  27.143  1.00  0.00     0.257 C 
ATOM     15  C   UNL A   1      35.102  30.368  27.474  1.00  0.00     0.071 C 
ENDBRANCH  11  14
ENDBRANCH   6  11
BRANCH   8  16
ATOM     16  C   UNL A   1      30.904  27.427  24.027  1.00  0.00     0.022 C 
BRANCH  16  17
ATOM     17  C   UNL A   1      30.305  28.088  22.779  1.00  0.00     0.079 C 
BRANCH  17  18
ATOM     18  S   UNL A   1      28.598  28.668  22.913  1.00  0.00    -0.086 SA
BRANCH  18  19
ATOM     19  C   UNL A   1      28.612  30.212  22.146  1.00  0.00     0.191 A 
ATOM     20  N   UNL A   1      29.107  30.361  20.951  1.00  0.00    -0.146 NA
ATOM     21  N   UNL A   1      28.047  31.324  22.671  1.00  0.00    -0.273 N 
ATOM     22  N   UNL A   1      28.847  31.667  20.650  1.00  0.00    -0.226 N 
ATOM     23  C   UNL A   1      28.182  32.284  21.699  1.00  0.00     0.343 A 
ATOM     24  C   UNL A   1      27.428  31.616  23.942  1.00  0.00     0.157 C 
ATOM     25  H   UNL A   1      29.097  32.109  19.807  1.00  0.00     0.195 HD
ATOM     26  O   UNL A   1      27.819  33.448  21.729  1.00  0.00    -0.246 OA
ENDBRANCH  18  19
ENDBRANCH  17  18
ENDBRANCH  16  17
ENDBRANCH   8  16
ENDBRANCH   3   6
ENDBRANCH   1   2
BRANCH   1  27
ATOM     27  C   UNL A   1      31.370  32.185  26.825  1.00  0.00     0.042 C 
BRANCH  27  28
ATOM     28  C   UNL A   1      32.656  32.842  27.310  1.00  0.00     0.118 C 
BRANCH  28  29
ATOM     29  N   UNL A   1      32.456  34.253  27.618  1.00  0.00    -0.352 N 
ATOM     30  C   UNL A   1      33.025  35.001  28.618  1.00  0.00     0.251 C 
ATOM     31  H   UNL A   1      31.831  34.733  27.029  1.00  0.00     0.163 HD
ATOM     32  O   UNL A   1      32.572  36.102  28.906  1.00  0.00    -0.269 OA
BRANCH  30  33
ATOM     33  C   UNL A   1      34.185  34.455  29.349  1.00  0.00     0.039 A 
ATOM     34  C   UNL A   1      33.974  33.758  30.540  1.00  0.00     0.014 A 
ATOM     35  C   UNL A   1      35.476  34.630  28.844  1.00  0.00     0.014 A 
ATOM     36  C   UNL A   1      35.063  33.190  31.201  1.00  0.00     0.010 A 
ATOM     37  C   UNL A   1      36.546  33.990  29.455  1.00  0.00     0.010 A 
ATOM     38  C   UNL A   1      36.352  33.277  30.648  1.00  0.00    -0.014 A 
BRANCH  38  39
ATOM     39  C   UNL A   1      37.524  32.662  31.313  1.00  0.00     0.031 A 
ATOM     40  C   UNL A   1      38.269  31.551  30.627  1.00  0.00     0.074 A 
ATOM     41  C   UNL A   1      37.866  33.048  32.556  1.00  0.00     0.049 A 
ATOM     42  N   UNL A   1      39.253  30.814  31.074  1.00  0.00    -0.248 NA
ATOM     43  C   UNL A   1      37.824  31.198  29.269  1.00  0.00     0.031 C 
ATOM     44  C   UNL A   1      37.188  34.083  33.339  1.00  0.00     0.029 A 
ATOM     45  N   UNL A   1      38.865  32.605  33.386  1.00  0.00    -0.354 N 
ATOM     46  C   UNL A   1      39.529  29.903  30.062  1.00  0.00     0.074 A 
ATOM     47  C   UNL A   1      38.572  30.139  29.004  1.00  0.00     0.031 C 
ATOM     48  C   UNL A   1      37.802  34.208  34.526  1.00  0.00     0.029 A 
ATOM     49  C   UNL A   1      38.890  33.238  34.604  1.00  0.00     0.049 A 
ATOM     50  H   UNL A   1      39.503  31.900  33.132  1.00  0.00     0.167 HD
ATOM     51  C   UNL A   1      40.509  28.971  30.010  1.00  0.00     0.037 A 
ATOM     52  C   UNL A   1      39.696  33.048  35.665  1.00  0.00     0.037 A 
ATOM     53  C   UNL A   1      41.476  28.763  31.055  1.00  0.00     0.049 A 
ATOM     54  C   UNL A   1      40.779  32.006  35.583  1.00  0.00     0.074 A 
ATOM     55  C   UNL A   1      42.547  27.887  31.078  1.00  0.00     0.029 A 
ATOM     56  N   UNL A   1      41.488  29.443  32.264  1.00  0.00    -0.354 N 
ATOM     57  N   UNL A   1      41.074  31.195  34.596  1.00  0.00    -0.248 NA
ATOM     58  C   UNL A   1      41.645  31.857  36.759  1.00  0.00     0.031 C 
ATOM     59  C   UNL A   1      43.180  28.006  32.321  1.00  0.00     0.029 A 
ATOM     60  C   UNL A   1      42.536  28.993  33.050  1.00  0.00     0.049 A 
ATOM     61  H   UNL A   1      40.845  30.142  32.526  1.00  0.00     0.167 HD
ATOM     62  C   UNL A   1      42.175  30.463  35.017  1.00  0.00     0.074 A 
ATOM     63  C   UNL A   1      42.504  30.936  36.346  1.00  0.00     0.031 C 
ATOM     64  C   UNL A   1      42.853  29.487  34.366  1.00  0.00     0.037 A 
BRANCH  51  65
ATOM     65  C   UNL A   1      40.585  28.110  28.783  1.00  0.00     0.064 A 
ATOM     66  C   UNL A   1      41.374  28.469  27.679  1.00  0.00     0.173 A 
ATOM     67  C   UNL A   1      39.881  26.898  28.717  1.00  0.00     0.173 A 
ATOM     68  F   UNL A   1      42.056  29.625  27.684  1.00  0.00    -0.203 F 
ATOM     69  C   UNL A   1      41.429  27.664  26.544  1.00  0.00     0.198 A 
ATOM     70  C   UNL A   1      39.965  26.079  27.594  1.00  0.00     0.198 A 
ATOM     71  F   UNL A   1      39.115  26.505  29.746  1.00  0.00    -0.203 F 
ATOM     72  F   UNL A   1      42.146  28.056  25.481  1.00  0.00    -0.200 F 
ATOM     73  C   UNL A   1      40.731  26.467  26.505  1.00  0.00     0.200 A 
ATOM     74  F   UNL A   1      39.299  24.916  27.563  1.00  0.00    -0.200 F 
ATOM     75  F   UNL A   1      40.790  25.690  25.415  1.00  0.00    -0.200 F 
ENDBRANCH  51  65
BRANCH  52  76
ATOM     76  C   UNL A   1      39.529  33.882  36.884  1.00  0.00     0.064 A 
ATOM     77  C   UNL A   1      40.103  35.159  36.964  1.00  0.00     0.173 A 
ATOM     78  C   UNL A   1      38.800  33.423  37.990  1.00  0.00     0.173 A 
ATOM     79  F   UNL A   1      40.825  35.633  35.939  1.00  0.00    -0.203 F 
ATOM     80  C   UNL A   1      39.972  35.937  38.112  1.00  0.00     0.198 A 
ATOM     81  C   UNL A   1      38.645  34.214  39.127  1.00  0.00     0.198 A 
ATOM     82  F   UNL A   1      38.225  32.213  37.962  1.00  0.00    -0.203 F 
ATOM     83  F   UNL A   1      40.568  37.135  38.179  1.00  0.00    -0.200 F 
ATOM     84  C   UNL A   1      39.238  35.466  39.192  1.00  0.00     0.200 A 
ATOM     85  F   UNL A   1      37.922  33.762  40.161  1.00  0.00    -0.200 F 
ATOM     86  F   UNL A   1      39.108  36.216  40.294  1.00  0.00    -0.200 F 
ENDBRANCH  52  76
BRANCH  64  87
ATOM     87  C   UNL A   1      44.044  28.894  35.061  1.00  0.00     0.064 A 
ATOM     88  C   UNL A   1      43.931  27.763  35.882  1.00  0.00     0.173 A 
ATOM     89  C   UNL A   1      45.322  29.442  34.867  1.00  0.00     0.173 A 
ATOM     90  F   UNL A   1      42.730  27.213  36.112  1.00  0.00    -0.203 F 
ATOM     91  C   UNL A   1      45.050  27.217  36.504  1.00  0.00     0.198 A 
ATOM     92  C   UNL A   1      46.442  28.874  35.464  1.00  0.00     0.198 A 
ATOM     93  F   UNL A   1      45.484  30.520  34.085  1.00  0.00    -0.203 F 
ATOM     94  F   UNL A   1      44.913  26.165  37.323  1.00  0.00    -0.200 F 
ATOM     95  C   UNL A   1      46.306  27.767  36.288  1.00  0.00     0.200 A 
ATOM     96  F   UNL A   1      47.656  29.398  35.242  1.00  0.00    -0.200 F 
ATOM     97  F   UNL A   1      47.383  27.234  36.879  1.00  0.00    -0.200 F 
ENDBRANCH  64  87
ENDBRANCH  38  39
ENDBRANCH  30  33
ENDBRANCH  28  29
ENDBRANCH  27  28
ENDBRANCH   1  27
TORSDOF 16
ENDMDL
MODEL 2
REMARK VINA RESULT:     -12.1      0.786      7.417
REMARK SMILES CC[NH2+][C@]1(C(=O)NCCCNC(=O)c2ccc(-c3c4nc(c(-c5c(F)c(F)c(F)c(F)c5F)c5ccc([nH]5)c(-c5c(F)c(F)c(F)c(F)c5F)c5nc(c(-c6c(F)c(F)c(F)c(F)c6F)c6ccc3[nH]6)C=C5)C=C4)cc2)CCC[C@H]1CCSc1n[nH]c(=O)n1C
REMARK SMILES IDX 8 1 7 2 5 3 6 4 4 6 77 7 80 8 78 9 79 10 3 11 2 14 1 15
REMARK SMILES IDX 81 16 82 17 83 18 84 19 85 20 89 21 86 22 87 23 90 24 88 26
REMARK SMILES IDX 9 27 10 28 11 29 12 30 13 32 14 33 15 34 76 35 16 36 75 37
REMARK SMILES IDX 17 38 18 39 19 40 69 41 20 42 74 43 68 44 70 45 21 46 73 47
REMARK SMILES IDX 67 48 66 49 22 51 54 52 34 53 53 54 35 55 38 56 52 57 71 58
REMARK SMILES IDX 36 59 37 60 51 62 72 63 39 64 23 65 24 66 32 67 25 68 26 69
REMARK SMILES IDX 30 70 33 71 27 72 28 73 31 74 29 75 55 76 56 77 64 78 57 79
REMARK SMILES IDX 58 80 62 81 65 82 59 83 60 84 63 85 61 86 40 87 41 88 49 89
REMARK SMILES IDX 42 90 43 91 47 92 50 93 44 94 45 95 48 96 46 97
REMARK H PARENT 7 5 3 12 3 13 86 25 11 31 70 50 38 61
REMARK Flexibility Score: inf
ROOT
ATOM      1  C   UNL A   1      31.402  31.008  26.084  1.00  0.00     0.118 C 
ENDROOT
BRANCH   1   2
ATOM      2  N   UNL A   1      31.423  29.882  26.997  1.00  0.00    -0.351 N 
ATOM      3  C   UNL A   1      31.856  28.597  26.916  1.00  0.00     0.281 C 
ATOM      4  O   UNL A   1      31.491  27.903  27.874  1.00  0.00    -0.268 OA
ATOM      5  H   UNL A   1      31.035  30.097  27.876  1.00  0.00     0.163 HD
BRANCH   3   6
ATOM      6  C   UNL A   1      32.797  28.044  25.795  1.00  0.00     0.178 C 
ATOM      7  C   UNL A   1      33.344  26.639  26.126  1.00  0.00     0.079 C 
ATOM      8  C   UNL A   1      32.160  27.879  24.363  1.00  0.00     0.061 C 
ATOM      9  C   UNL A   1      33.867  26.114  24.800  1.00  0.00     0.008 C 
ATOM     10  C   UNL A   1      32.955  26.707  23.731  1.00  0.00     0.011 C 
BRANCH   6  11
ATOM     11  N   UNL A   1      34.043  28.895  25.792  1.00  0.00    -0.334 N 
ATOM     12  H   UNL A   1      34.655  28.537  25.058  1.00  0.00     0.347 HD
ATOM     13  H   UNL A   1      33.706  29.847  25.654  1.00  0.00     0.347 HD
BRANCH  11  14
ATOM     14  C   UNL A   1      34.822  28.952  27.017  1.00  0.00     0.257 C 
ATOM     15  C   UNL A   1      35.004  30.381  27.500  1.00  0.00     0.071 C 
ENDBRANCH  11  14
ENDBRANCH   6  11
BRANCH   8  16
ATOM     16  C   UNL A   1      30.645  27.640  24.146  1.00  0.00     0.022 C 
BRANCH  16  17
ATOM     17  C   UNL A   1      30.053  28.012  22.780  1.00  0.00     0.079 C 
BRANCH  17  18
ATOM     18  S   UNL A   1      28.348  28.610  22.775  1.00  0.00    -0.086 SA
BRANCH  18  19
ATOM     19  C   UNL A   1      28.448  30.174  22.057  1.00  0.00     0.191 A 
ATOM     20  N   UNL A   1      28.971  30.337  20.876  1.00  0.00    -0.146 NA
ATOM     21  N   UNL A   1      27.926  31.295  22.607  1.00  0.00    -0.273 N 
ATOM     22  N   UNL A   1      28.778  31.662  20.612  1.00  0.00    -0.226 N 
ATOM     23  C   UNL A   1      28.124  32.277  21.668  1.00  0.00     0.343 A 
ATOM     24  C   UNL A   1      27.298  31.577  23.876  1.00  0.00     0.157 C 
ATOM     25  H   UNL A   1      29.064  32.118  19.787  1.00  0.00     0.195 HD
ATOM     26  O   UNL A   1      27.815  33.456  21.729  1.00  0.00    -0.246 OA
ENDBRANCH  18  19
ENDBRANCH  17  18
ENDBRANCH  16  17
ENDBRANCH   8  16
ENDBRANCH   3   6
ENDBRANCH   1   2
BRANCH   1  27
ATOM     27  C   UNL A   1      31.359  32.311  26.865  1.00  0.00     0.042 C 
BRANCH  27  28
ATOM     28  C   UNL A   1      32.749  32.906  27.049  1.00  0.00     0.118 C 
BRANCH  28  29
ATOM     29  N   UNL A   1      32.691  34.234  27.647  1.00  0.00    -0.352 N 
ATOM     30  C   UNL A   1      33.359  34.708  28.749  1.00  0.00     0.251 C 
ATOM     31  H   UNL A   1      32.094  34.877  27.201  1.00  0.00     0.163 HD
ATOM     32  O   UNL A   1      33.018  35.760  29.277  1.00  0.00    -0.269 OA
BRANCH  30  33
ATOM     33  C   UNL A   1      34.486  33.928  29.294  1.00  0.00     0.039 A 
ATOM     34  C   UNL A   1      35.789  34.260  28.921  1.00  0.00     0.014 A 
ATOM     35  C   UNL A   1      34.244  32.875  30.182  1.00  0.00     0.014 A 
ATOM     36  C   UNL A   1      36.859  33.563  29.483  1.00  0.00     0.010 A 
ATOM     37  C   UNL A   1      35.311  32.243  30.805  1.00  0.00     0.010 A 
ATOM     38  C   UNL A   1      36.628  32.570  30.449  1.00  0.00    -0.014 A 
BRANCH  38  39
ATOM     39  C   UNL A   1      37.746  31.830  31.082  1.00  0.00     0.031 A 
ATOM     40  C   UNL A   1      38.171  32.181  32.480  1.00  0.00     0.074 A 
ATOM     41  C   UNL A   1      38.420  30.905  30.375  1.00  0.00     0.049 A 
ATOM     42  N   UNL A   1      39.181  31.728  33.178  1.00  0.00    -0.248 NA
ATOM     43  C   UNL A   1      37.372  33.204  33.175  1.00  0.00     0.031 C 
ATOM     44  C   UNL A   1      38.128  30.515  28.994  1.00  0.00     0.029 A 
ATOM     45  N   UNL A   1      39.501  30.132  30.717  1.00  0.00    -0.354 N 
ATOM     46  C   UNL A   1      39.149  32.424  34.380  1.00  0.00     0.074 A 
ATOM     47  C   UNL A   1      38.058  33.369  34.296  1.00  0.00     0.031 C 
ATOM     48  C   UNL A   1      38.996  29.563  28.615  1.00  0.00     0.029 A 
ATOM     49  C   UNL A   1      39.927  29.303  29.708  1.00  0.00     0.049 A 
ATOM     50  H   UNL A   1      39.930  30.168  31.602  1.00  0.00     0.167 HD
ATOM     51  C   UNL A   1      39.943  32.268  35.465  1.00  0.00     0.037 A 
ATOM     52  C   UNL A   1      40.959  28.440  29.671  1.00  0.00     0.037 A 
ATOM     53  C   UNL A   1      41.006  31.304  35.552  1.00  0.00     0.049 A 
ATOM     54  C   UNL A   1      41.826  28.286  30.891  1.00  0.00     0.074 A 
ATOM     55  C   UNL A   1      41.832  31.022  36.626  1.00  0.00     0.029 A 
ATOM     56  N   UNL A   1      41.391  30.462  34.518  1.00  0.00    -0.354 N 
ATOM     57  N   UNL A   1      41.747  28.899  32.047  1.00  0.00    -0.248 NA
ATOM     58  C   UNL A   1      42.923  27.312  30.804  1.00  0.00     0.031 C 
ATOM     59  C   UNL A   1      42.746  30.041  36.228  1.00  0.00     0.029 A 
ATOM     60  C   UNL A   1      42.456  29.673  34.924  1.00  0.00     0.049 A 
ATOM     61  H   UNL A   1      40.971  30.429  33.628  1.00  0.00     0.167 HD
ATOM     62  C   UNL A   1      42.759  28.368  32.833  1.00  0.00     0.074 A 
ATOM     63  C   UNL A   1      43.432  27.371  32.027  1.00  0.00     0.031 C 
ATOM     64  C   UNL A   1      43.102  28.677  34.108  1.00  0.00     0.037 A 
BRANCH  51  65
ATOM     65  C   UNL A   1      39.686  33.159  36.647  1.00  0.00     0.064 A 
ATOM     66  C   UNL A   1      38.761  32.811  37.644  1.00  0.00     0.173 A 
ATOM     67  C   UNL A   1      40.390  34.363  36.799  1.00  0.00     0.173 A 
ATOM     68  F   UNL A   1      38.050  31.677  37.540  1.00  0.00    -0.203 F 
ATOM     69  C   UNL A   1      38.528  33.651  38.730  1.00  0.00     0.198 A 
ATOM     70  C   UNL A   1      40.179  35.183  37.903  1.00  0.00     0.198 A 
ATOM     71  F   UNL A   1      41.288  34.742  35.877  1.00  0.00    -0.203 F 
ATOM     72  F   UNL A   1      37.600  33.322  39.640  1.00  0.00    -0.200 F 
ATOM     73  C   UNL A   1      39.241  34.831  38.863  1.00  0.00     0.200 A 
ATOM     74  F   UNL A   1      40.878  36.319  38.036  1.00  0.00    -0.200 F 
ATOM     75  F   UNL A   1      39.021  35.635  39.912  1.00  0.00    -0.200 F 
ENDBRANCH  51  65
BRANCH  52  76
ATOM     76  C   UNL A   1      41.210  27.635  28.447  1.00  0.00     0.064 A 
ATOM     77  C   UNL A   1      42.120  28.073  27.474  1.00  0.00     0.173 A 
ATOM     78  C   UNL A   1      40.549  26.419  28.222  1.00  0.00     0.173 A 
ATOM     79  F   UNL A   1      42.762  29.240  27.636  1.00  0.00    -0.203 F 
ATOM     80  C   UNL A   1      42.343  27.337  26.313  1.00  0.00     0.198 A 
ATOM     81  C   UNL A   1      40.795  25.669  27.074  1.00  0.00     0.198 A 
ATOM     82  F   UNL A   1      39.676  25.952  29.125  1.00  0.00    -0.203 F 
ATOM     83  F   UNL A   1      43.184  27.802  25.379  1.00  0.00    -0.200 F 
ATOM     84  C   UNL A   1      41.684  26.131  26.116  1.00  0.00     0.200 A 
ATOM     85  F   UNL A   1      40.169  24.497  26.895  1.00  0.00    -0.200 F 
ATOM     86  F   UNL A   1      41.902  25.421  25.001  1.00  0.00    -0.200 F 
ENDBRANCH  52  76
BRANCH  64  87
ATOM     87  C   UNL A   1      44.229  27.899  34.724  1.00  0.00     0.064 A 
ATOM     88  C   UNL A   1      45.552  28.362  34.686  1.00  0.00     0.173 A 
ATOM     89  C   UNL A   1      43.971  26.696  35.400  1.00  0.00     0.173 A 
ATOM     90  F   UNL A   1      45.852  29.498  34.039  1.00  0.00    -0.203 F 
ATOM     91  C   UNL A   1      46.580  27.636  35.280  1.00  0.00     0.198 A 
ATOM     92  C   UNL A   1      44.997  25.990  36.020  1.00  0.00     0.198 A 
ATOM     93  F   UNL A   1      42.721  26.214  35.471  1.00  0.00    -0.203 F 
ATOM     94  F   UNL A   1      47.844  28.072  35.190  1.00  0.00    -0.200 F 
ATOM     95  C   UNL A   1      46.301  26.455  35.954  1.00  0.00     0.200 A 
ATOM     96  F   UNL A   1      44.723  24.857  36.682  1.00  0.00    -0.200 F 
ATOM     97  F   UNL A   1      47.291  25.763  36.533  1.00  0.00    -0.200 F 
ENDBRANCH  64  87
ENDBRANCH  38  39
ENDBRANCH  30  33
ENDBRANCH  28  29
ENDBRANCH  27  28
ENDBRANCH   1  27
TORSDOF 16
ENDMDL
MODEL 3
REMARK VINA RESULT:     -11.7      1.765      3.638
REMARK SMILES CC[NH2+][C@]1(C(=O)NCCCNC(=O)c2ccc(-c3c4nc(c(-c5c(F)c(F)c(F)c(F)c5F)c5ccc([nH]5)c(-c5c(F)c(F)c(F)c(F)c5F)c5nc(c(-c6c(F)c(F)c(F)c(F)c6F)c6ccc3[nH]6)C=C5)C=C4)cc2)CCC[C@H]1CCSc1n[nH]c(=O)n1C
REMARK SMILES IDX 8 1 7 2 5 3 6 4 4 6 77 7 80 8 78 9 79 10 3 11 2 14 1 15
REMARK SMILES IDX 81 16 82 17 83 18 84 19 85 20 89 21 86 22 87 23 90 24 88 26
REMARK SMILES IDX 9 27 10 28 11 29 12 30 13 32 14 33 15 34 76 35 16 36 75 37
REMARK SMILES IDX 17 38 18 39 19 40 69 41 20 42 74 43 68 44 70 45 21 46 73 47
REMARK SMILES IDX 67 48 66 49 22 51 54 52 34 53 53 54 35 55 38 56 52 57 71 58
REMARK SMILES IDX 36 59 37 60 51 62 72 63 39 64 23 65 24 66 32 67 25 68 26 69
REMARK SMILES IDX 30 70 33 71 27 72 28 73 31 74 29 75 55 76 56 77 64 78 57 79
REMARK SMILES IDX 58 80 62 81 65 82 59 83 60 84 63 85 61 86 40 87 41 88 49 89
REMARK SMILES IDX 42 90 43 91 47 92 50 93 44 94 45 95 48 96 46 97
REMARK H PARENT 7 5 3 12 3 13 86 25 11 31 70 50 38 61
REMARK Flexibility Score: inf
ROOT
ATOM      1  C   UNL A   1      31.459  30.557  26.506  1.00  0.00     0.118 C 
ENDROOT
BRANCH   1   2
ATOM      2  N   UNL A   1      32.621  30.099  25.769  1.00  0.00    -0.351 N 
ATOM      3  C   UNL A   1      32.820  29.211  24.760  1.00  0.00     0.281 C 
ATOM      4  O   UNL A   1      34.018  28.965  24.564  1.00  0.00    -0.268 OA
ATOM      5  H   UNL A   1      33.455  30.528  26.069  1.00  0.00     0.163 HD
BRANCH   3   6
ATOM      6  C   UNL A   1      31.687  28.618  23.859  1.00  0.00     0.178 C 
ATOM      7  C   UNL A   1      32.242  27.748  22.712  1.00  0.00     0.079 C 
ATOM      8  C   UNL A   1      30.639  27.684  24.576  1.00  0.00     0.061 C 
ATOM      9  C   UNL A   1      31.043  26.952  22.226  1.00  0.00     0.008 C 
ATOM     10  C   UNL A   1      30.178  26.711  23.459  1.00  0.00     0.011 C 
BRANCH   6  11
ATOM     11  N   UNL A   1      31.046  29.770  23.125  1.00  0.00    -0.334 N 
ATOM     12  H   UNL A   1      31.602  30.603  23.320  1.00  0.00     0.347 HD
ATOM     13  H   UNL A   1      31.028  29.476  22.149  1.00  0.00     0.347 HD
BRANCH  11  14
ATOM     14  C   UNL A   1      29.664  30.086  23.442  1.00  0.00     0.257 C 
ATOM     15  C   UNL A   1      28.782  30.047  22.206  1.00  0.00     0.071 C 
ENDBRANCH  11  14
ENDBRANCH   6  11
BRANCH   8  16
ATOM     16  C   UNL A   1      30.979  26.871  25.849  1.00  0.00     0.022 C 
BRANCH  16  17
ATOM     17  C   UNL A   1      30.269  25.525  26.046  1.00  0.00     0.079 C 
BRANCH  17  18
ATOM     18  S   UNL A   1      31.329  24.068  26.196  1.00  0.00    -0.086 SA
BRANCH  18  19
ATOM     19  C   UNL A   1      31.925  23.809  24.599  1.00  0.00     0.191 A 
ATOM     20  N   UNL A   1      31.251  23.099  23.740  1.00  0.00    -0.146 NA
ATOM     21  N   UNL A   1      33.050  24.378  24.108  1.00  0.00    -0.273 N 
ATOM     22  N   UNL A   1      31.973  23.209  22.587  1.00  0.00    -0.226 N 
ATOM     23  C   UNL A   1      33.091  24.004  22.788  1.00  0.00     0.343 A 
ATOM     24  C   UNL A   1      34.087  25.191  24.697  1.00  0.00     0.157 C 
ATOM     25  H   UNL A   1      31.735  22.782  21.733  1.00  0.00     0.195 HD
ATOM     26  O   UNL A   1      33.930  24.284  21.948  1.00  0.00    -0.246 OA
ENDBRANCH  18  19
ENDBRANCH  17  18
ENDBRANCH  16  17
ENDBRANCH   8  16
ENDBRANCH   3   6
ENDBRANCH   1   2
BRANCH   1  27
ATOM     27  C   UNL A   1      31.415  32.076  26.516  1.00  0.00     0.042 C 
BRANCH  27  28
ATOM     28  C   UNL A   1      32.604  32.671  27.258  1.00  0.00     0.118 C 
BRANCH  28  29
ATOM     29  N   UNL A   1      32.404  34.085  27.549  1.00  0.00    -0.352 N 
ATOM     30  C   UNL A   1      32.977  34.847  28.536  1.00  0.00     0.251 C 
ATOM     31  H   UNL A   1      31.774  34.557  26.957  1.00  0.00     0.163 HD
ATOM     32  O   UNL A   1      32.524  35.952  28.812  1.00  0.00    -0.269 OA
BRANCH  30  33
ATOM     33  C   UNL A   1      34.142  34.313  29.267  1.00  0.00     0.039 A 
ATOM     34  C   UNL A   1      33.936  33.581  30.438  1.00  0.00     0.014 A 
ATOM     35  C   UNL A   1      35.435  34.535  28.783  1.00  0.00     0.014 A 
ATOM     36  C   UNL A   1      35.032  33.024  31.097  1.00  0.00     0.010 A 
ATOM     37  C   UNL A   1      36.513  33.907  29.390  1.00  0.00     0.010 A 
ATOM     38  C   UNL A   1      36.324  33.159  30.562  1.00  0.00    -0.014 A 
BRANCH  38  39
ATOM     39  C   UNL A   1      37.504  32.557  31.226  1.00  0.00     0.031 A 
ATOM     40  C   UNL A   1      38.250  31.443  30.548  1.00  0.00     0.074 A 
ATOM     41  C   UNL A   1      37.854  32.960  32.462  1.00  0.00     0.049 A 
ATOM     42  N   UNL A   1      39.242  30.716  30.995  1.00  0.00    -0.248 NA
ATOM     43  C   UNL A   1      37.797  31.072  29.197  1.00  0.00     0.031 C 
ATOM     44  C   UNL A   1      37.175  34.000  33.238  1.00  0.00     0.029 A 
ATOM     45  N   UNL A   1      38.861  32.531  33.289  1.00  0.00    -0.354 N 
ATOM     46  C   UNL A   1      39.515  29.795  29.992  1.00  0.00     0.074 A 
ATOM     47  C   UNL A   1      38.549  30.014  28.939  1.00  0.00     0.031 C 
ATOM     48  C   UNL A   1      37.797  34.142  34.419  1.00  0.00     0.029 A 
ATOM     49  C   UNL A   1      38.891  33.179  34.500  1.00  0.00     0.049 A 
ATOM     50  H   UNL A   1      39.500  31.826  33.039  1.00  0.00     0.167 HD
ATOM     51  C   UNL A   1      40.499  28.867  29.944  1.00  0.00     0.037 A 
ATOM     52  C   UNL A   1      39.706  33.005  35.558  1.00  0.00     0.037 A 
ATOM     53  C   UNL A   1      41.475  28.676  30.984  1.00  0.00     0.049 A 
ATOM     54  C   UNL A   1      40.793  31.967  35.479  1.00  0.00     0.074 A 
ATOM     55  C   UNL A   1      42.551  27.806  31.010  1.00  0.00     0.029 A 
ATOM     56  N   UNL A   1      41.491  29.370  32.185  1.00  0.00    -0.354 N 
ATOM     57  N   UNL A   1      41.085  31.147  34.499  1.00  0.00    -0.248 NA
ATOM     58  C   UNL A   1      41.669  31.837  36.651  1.00  0.00     0.031 C 
ATOM     59  C   UNL A   1      43.191  27.942  32.246  1.00  0.00     0.029 A 
ATOM     60  C   UNL A   1      42.547  28.934  32.968  1.00  0.00     0.049 A 
ATOM     61  H   UNL A   1      40.847  30.069  32.444  1.00  0.00     0.167 HD
ATOM     62  C   UNL A   1      42.193  30.425  34.922  1.00  0.00     0.074 A 
ATOM     63  C   UNL A   1      42.529  30.915  36.243  1.00  0.00     0.031 C 
ATOM     64  C   UNL A   1      42.871  29.445  34.276  1.00  0.00     0.037 A 
BRANCH  51  65
ATOM     65  C   UNL A   1      40.571  27.992  28.726  1.00  0.00     0.064 A 
ATOM     66  C   UNL A   1      39.884  26.771  28.655  1.00  0.00     0.173 A 
ATOM     67  C   UNL A   1      41.315  28.391  27.605  1.00  0.00     0.173 A 
ATOM     68  F   UNL A   1      39.170  26.335  29.704  1.00  0.00    -0.203 F 
ATOM     69  C   UNL A   1      39.966  25.966  27.520  1.00  0.00     0.198 A 
ATOM     70  C   UNL A   1      41.368  27.600  26.461  1.00  0.00     0.198 A 
ATOM     71  F   UNL A   1      41.988  29.551  27.618  1.00  0.00    -0.203 F 
ATOM     72  F   UNL A   1      39.346  24.778  27.498  1.00  0.00    -0.200 F 
ATOM     73  C   UNL A   1      40.701  26.385  26.423  1.00  0.00     0.200 A 
ATOM     74  F   UNL A   1      42.068  28.012  25.395  1.00  0.00    -0.200 F 
ATOM     75  F   UNL A   1      40.774  25.613  25.329  1.00  0.00    -0.200 F 
ENDBRANCH  51  65
BRANCH  52  76
ATOM     76  C   UNL A   1      39.543  33.852  36.768  1.00  0.00     0.064 A 
ATOM     77  C   UNL A   1      38.791  33.402  37.863  1.00  0.00     0.173 A 
ATOM     78  C   UNL A   1      40.128  35.123  36.856  1.00  0.00     0.173 A 
ATOM     79  F   UNL A   1      38.196  32.201  37.817  1.00  0.00    -0.203 F 
ATOM     80  C   UNL A   1      38.613  34.200  38.991  1.00  0.00     0.198 A 
ATOM     81  C   UNL A   1      39.974  35.908  37.997  1.00  0.00     0.198 A 
ATOM     82  F   UNL A   1      40.864  35.596  35.840  1.00  0.00    -0.203 F 
ATOM     83  F   UNL A   1      37.853  33.764  40.004  1.00  0.00    -0.200 F 
ATOM     84  C   UNL A   1      39.210  35.451  39.060  1.00  0.00     0.200 A 
ATOM     85  F   UNL A   1      40.566  37.109  38.066  1.00  0.00    -0.200 F 
ATOM     86  F   UNL A   1      39.043  36.216  40.147  1.00  0.00    -0.200 F 
ENDBRANCH  52  76
BRANCH  64  87
ATOM     87  C   UNL A   1      44.070  28.867  34.970  1.00  0.00     0.064 A 
ATOM     88  C   UNL A   1      45.351  29.415  34.809  1.00  0.00     0.173 A 
ATOM     89  C   UNL A   1      43.926  27.775  35.840  1.00  0.00     0.173 A 
ATOM     90  F   UNL A   1      45.543  30.449  33.976  1.00  0.00    -0.203 F 
ATOM     91  C   UNL A   1      46.448  28.877  35.476  1.00  0.00     0.198 A 
ATOM     92  C   UNL A   1      45.019  27.260  36.530  1.00  0.00     0.198 A 
ATOM     93  F   UNL A   1      42.721  27.219  36.034  1.00  0.00    -0.203 F 
ATOM     94  F   UNL A   1      47.670  29.386  35.271  1.00  0.00    -0.200 F 
ATOM     95  C   UNL A   1      46.280  27.805  36.342  1.00  0.00     0.200 A 
ATOM     96  F   UNL A   1      44.852  26.235  37.377  1.00  0.00    -0.200 F 
ATOM     97  F   UNL A   1      47.335  27.294  36.990  1.00  0.00    -0.200 F 
ENDBRANCH  64  87
ENDBRANCH  38  39
ENDBRANCH  30  33
ENDBRANCH  28  29
ENDBRANCH  27  28
ENDBRANCH   1  27
TORSDOF 16
ENDMDL
