MODEL 1
REMARK VINA RESULT:     -11.1      0.000      0.000
REMARK SMILES C=CCN(CC(=O)NCCCNC(=O)c1ccc(-c2c3nc(c(-c4c(F)c(F)c(F)c(F)c4F)c4ccc([nH]4)c(-c4c(F)c(F)c(F)c(F)c4F)c4nc(c(-c5c(F)c(F)c(F)c(F)c5F)c5ccc2[nH]5)C=C4)C=C3)cc1)C(=O)c1sc(N)nc1C
REMARK SMILES IDX 9 1 8 2 6 3 7 4 5 6 4 7 3 8 2 9 1 10 78 11 79 12 80 13 81 14
REMARK SMILES IDX 85 15 82 16 84 17 86 18 83 19 10 22 11 23 12 24 13 25 14 27
REMARK SMILES IDX 15 28 16 29 77 30 17 31 76 32 18 33 19 34 20 35 70 36 21 37
REMARK SMILES IDX 75 38 69 39 71 40 22 41 74 42 68 43 67 44 23 46 55 47 35 48
REMARK SMILES IDX 54 49 36 50 39 51 53 52 72 53 37 54 38 55 52 57 73 58 40 59
REMARK SMILES IDX 24 60 25 61 33 62 26 63 27 64 31 65 34 66 28 67 29 68 32 69
REMARK SMILES IDX 30 70 56 71 57 72 65 73 58 74 59 75 63 76 66 77 60 78 61 79
REMARK SMILES IDX 64 80 62 81 41 82 42 83 50 84 43 85 44 86 48 87 51 88 45 89
REMARK SMILES IDX 46 90 49 91 47 92
REMARK H PARENT 8 5 83 20 83 21 12 26 71 45 39 56
REMARK Flexibility Score: inf
ROOT
ATOM      1  C   UNL A   1      31.648  27.274  25.700  1.00  0.00     0.117 C 
ENDROOT
BRANCH   1   2
ATOM      2  N   UNL A   1      31.440  26.129  26.567  1.00  0.00    -0.354 N 
ATOM      3  C   UNL A   1      31.432  24.794  26.288  1.00  0.00     0.239 C 
ATOM      4  O   UNL A   1      31.589  24.027  27.244  1.00  0.00    -0.273 OA
ATOM      5  H   UNL A   1      31.277  26.354  27.511  1.00  0.00     0.163 HD
BRANCH   3   6
ATOM      6  C   UNL A   1      31.377  24.246  24.854  1.00  0.00     0.220 C 
BRANCH   6   7
ATOM      7  N   UNL A   1      32.680  24.121  24.194  1.00  0.00    -0.325 N 
BRANCH   7   8
ATOM      8  C   UNL A   1      33.082  25.168  23.264  1.00  0.00     0.147 C 
BRANCH   8   9
ATOM      9  C   UNL A   1      32.647  24.786  21.879  1.00  0.00    -0.014 C 
ATOM     10  C   UNL A   1      32.531  25.658  20.867  1.00  0.00     0.006 C 
ENDBRANCH   8   9
ENDBRANCH   7   8
BRANCH   7  11
ATOM     11  C   UNL A   1      33.640  23.160  24.546  1.00  0.00     0.266 C 
ATOM     12  O   UNL A   1      34.831  23.463  24.632  1.00  0.00    -0.268 OA
BRANCH  11  13
ATOM     13  C   UNL A   1      33.200  21.809  24.801  1.00  0.00     0.117 A 
ATOM     14  S   UNL A   1      33.577  21.074  26.304  1.00  0.00    -0.092 S 
ATOM     15  C   UNL A   1      32.602  20.886  23.963  1.00  0.00     0.063 A 
ATOM     16  C   UNL A   1      32.908  19.599  25.743  1.00  0.00     0.180 A 
ATOM     17  N   UNL A   1      32.420  19.631  24.528  1.00  0.00    -0.225 NA
ATOM     18  C   UNL A   1      32.155  21.082  22.561  1.00  0.00     0.068 C 
BRANCH  16  19
ATOM     19  N   UNL A   1      32.903  18.496  26.499  1.00  0.00    -0.375 N 
ATOM     20  H   UNL A   1      33.750  18.133  26.844  1.00  0.00     0.159 HD
ATOM     21  H   UNL A   1      32.052  18.048  26.710  1.00  0.00     0.159 HD
ENDBRANCH  16  19
ENDBRANCH  11  13
ENDBRANCH   7  11
ENDBRANCH   6   7
ENDBRANCH   3   6
ENDBRANCH   1   2
BRANCH   1  22
ATOM     22  C   UNL A   1      31.756  28.611  26.430  1.00  0.00     0.042 C 
BRANCH  22  23
ATOM     23  C   UNL A   1      32.818  29.572  25.906  1.00  0.00     0.118 C 
BRANCH  23  24
ATOM     24  N   UNL A   1      32.596  30.950  26.302  1.00  0.00    -0.352 N 
ATOM     25  C   UNL A   1      33.279  31.774  27.160  1.00  0.00     0.251 C 
ATOM     26  H   UNL A   1      31.811  31.369  25.879  1.00  0.00     0.163 HD
ATOM     27  O   UNL A   1      32.802  32.881  27.402  1.00  0.00    -0.269 OA
BRANCH  25  28
ATOM     28  C   UNL A   1      34.552  31.380  27.819  1.00  0.00     0.039 A 
ATOM     29  C   UNL A   1      34.625  30.088  28.359  1.00  0.00     0.014 A 
ATOM     30  C   UNL A   1      35.622  32.258  28.014  1.00  0.00     0.014 A 
ATOM     31  C   UNL A   1      35.766  29.668  29.050  1.00  0.00     0.010 A 
ATOM     32  C   UNL A   1      36.787  31.821  28.661  1.00  0.00     0.010 A 
ATOM     33  C   UNL A   1      36.865  30.526  29.195  1.00  0.00    -0.014 A 
BRANCH  33  34
ATOM     34  C   UNL A   1      38.075  30.078  29.932  1.00  0.00     0.031 A 
ATOM     35  C   UNL A   1      38.322  30.529  31.345  1.00  0.00     0.074 A 
ATOM     36  C   UNL A   1      38.961  29.259  29.333  1.00  0.00     0.049 A 
ATOM     37  N   UNL A   1      39.325  30.249  32.139  1.00  0.00    -0.248 NA
ATOM     38  C   UNL A   1      37.316  31.422  31.940  1.00  0.00     0.031 C 
ATOM     39  C   UNL A   1      38.859  28.759  27.963  1.00  0.00     0.029 A 
ATOM     40  N   UNL A   1      40.123  28.700  29.808  1.00  0.00    -0.354 N 
ATOM     41  C   UNL A   1      39.086  30.947  33.314  1.00  0.00     0.074 A 
ATOM     42  C   UNL A   1      37.848  31.675  33.128  1.00  0.00     0.031 C 
ATOM     43  C   UNL A   1      39.902  27.948  27.715  1.00  0.00     0.029 A 
ATOM     44  C   UNL A   1      40.752  27.886  28.901  1.00  0.00     0.049 A 
ATOM     45  H   UNL A   1      40.470  28.868  30.714  1.00  0.00     0.167 HD
ATOM     46  C   UNL A   1      39.824  30.974  34.449  1.00  0.00     0.037 A 
ATOM     47  C   UNL A   1      41.884  27.165  29.013  1.00  0.00     0.037 A 
ATOM     48  C   UNL A   1      41.029  30.222  34.670  1.00  0.00     0.049 A 
ATOM     49  C   UNL A   1      42.663  27.183  30.295  1.00  0.00     0.074 A 
ATOM     50  C   UNL A   1      41.808  30.152  35.812  1.00  0.00     0.029 A 
ATOM     51  N   UNL A   1      41.626  29.399  33.728  1.00  0.00    -0.354 N 
ATOM     52  N   UNL A   1      42.410  27.829  31.405  1.00  0.00    -0.248 NA
ATOM     53  C   UNL A   1      43.888  26.370  30.337  1.00  0.00     0.031 C 
ATOM     54  C   UNL A   1      42.885  29.294  35.558  1.00  0.00     0.029 A 
ATOM     55  C   UNL A   1      42.767  28.822  34.260  1.00  0.00     0.049 A 
ATOM     56  H   UNL A   1      41.289  29.247  32.815  1.00  0.00     0.167 HD
ATOM     57  C   UNL A   1      43.434  27.496  32.281  1.00  0.00     0.074 A 
ATOM     58  C   UNL A   1      44.310  26.584  31.576  1.00  0.00     0.031 C 
ATOM     59  C   UNL A   1      43.627  27.914  33.553  1.00  0.00     0.037 A 
BRANCH  46  60
ATOM     60  C   UNL A   1      39.340  31.856  35.558  1.00  0.00     0.064 A 
ATOM     61  C   UNL A   1      38.435  31.385  36.518  1.00  0.00     0.173 A 
ATOM     62  C   UNL A   1      39.819  33.167  35.680  1.00  0.00     0.173 A 
ATOM     63  F   UNL A   1      37.945  30.140  36.431  1.00  0.00    -0.203 F 
ATOM     64  C   UNL A   1      38.016  32.205  37.561  1.00  0.00     0.198 A 
ATOM     65  C   UNL A   1      39.406  33.980  36.731  1.00  0.00     0.198 A 
ATOM     66  F   UNL A   1      40.687  33.657  34.782  1.00  0.00    -0.203 F 
ATOM     67  F   UNL A   1      37.133  31.746  38.459  1.00  0.00    -0.200 F 
ATOM     68  C   UNL A   1      38.505  33.499  37.669  1.00  0.00     0.200 A 
ATOM     69  F   UNL A   1      39.880  35.229  36.836  1.00  0.00    -0.200 F 
ATOM     70  F   UNL A   1      38.100  34.287  38.676  1.00  0.00    -0.200 F 
ENDBRANCH  46  60
BRANCH  47  71
ATOM     71  C   UNL A   1      42.336  26.336  27.872  1.00  0.00     0.064 A 
ATOM     72  C   UNL A   1      41.847  25.036  27.698  1.00  0.00     0.173 A 
ATOM     73  C   UNL A   1      43.258  26.828  26.939  1.00  0.00     0.173 A 
ATOM     74  F   UNL A   1      40.979  24.522  28.581  1.00  0.00    -0.203 F 
ATOM     75  C   UNL A   1      42.269  24.251  26.627  1.00  0.00     0.198 A 
ATOM     76  C   UNL A   1      43.671  26.046  25.864  1.00  0.00     0.198 A 
ATOM     77  F   UNL A   1      43.756  28.065  27.075  1.00  0.00    -0.203 F 
ATOM     78  F   UNL A   1      41.803  23.002  26.490  1.00  0.00    -0.200 F 
ATOM     79  C   UNL A   1      43.177  24.758  25.709  1.00  0.00     0.200 A 
ATOM     80  F   UNL A   1      44.549  26.537  24.978  1.00  0.00    -0.200 F 
ATOM     81  F   UNL A   1      43.583  24.003  24.680  1.00  0.00    -0.200 F 
ENDBRANCH  47  71
BRANCH  59  82
ATOM     82  C   UNL A   1      44.825  27.380  34.272  1.00  0.00     0.064 A 
ATOM     83  C   UNL A   1      44.762  26.179  34.991  1.00  0.00     0.173 A 
ATOM     84  C   UNL A   1      46.052  28.055  34.212  1.00  0.00     0.173 A 
ATOM     85  F   UNL A   1      43.605  25.508  35.084  1.00  0.00    -0.203 F 
ATOM     86  C   UNL A   1      45.889  25.674  35.634  1.00  0.00     0.198 A 
ATOM     87  C   UNL A   1      47.179  27.542  34.850  1.00  0.00     0.198 A 
ATOM     88  F   UNL A   1      46.156  29.210  33.538  1.00  0.00    -0.203 F 
ATOM     89  F   UNL A   1      45.804  24.535  36.335  1.00  0.00    -0.200 F 
ATOM     90  C   UNL A   1      47.096  26.354  35.561  1.00  0.00     0.200 A 
ATOM     91  F   UNL A   1      48.345  28.200  34.779  1.00  0.00    -0.200 F 
ATOM     92  F   UNL A   1      48.179  25.868  36.182  1.00  0.00    -0.200 F 
ENDBRANCH  59  82
ENDBRANCH  33  34
ENDBRANCH  25  28
ENDBRANCH  23  24
ENDBRANCH  22  23
ENDBRANCH   1  22
TORSDOF 16
ENDMDL
MODEL 2
REMARK VINA RESULT:     -11.0      0.901      2.151
REMARK SMILES C=CCN(CC(=O)NCCCNC(=O)c1ccc(-c2c3nc(c(-c4c(F)c(F)c(F)c(F)c4F)c4ccc([nH]4)c(-c4c(F)c(F)c(F)c(F)c4F)c4nc(c(-c5c(F)c(F)c(F)c(F)c5F)c5ccc2[nH]5)C=C4)C=C3)cc1)C(=O)c1sc(N)nc1C
REMARK SMILES IDX 9 1 8 2 6 3 7 4 5 6 4 7 3 8 2 9 1 10 78 11 79 12 80 13 81 14
REMARK SMILES IDX 85 15 82 16 84 17 86 18 83 19 10 22 11 23 12 24 13 25 14 27
REMARK SMILES IDX 15 28 16 29 77 30 17 31 76 32 18 33 19 34 20 35 70 36 21 37
REMARK SMILES IDX 75 38 69 39 71 40 22 41 74 42 68 43 67 44 23 46 55 47 35 48
REMARK SMILES IDX 54 49 36 50 39 51 53 52 72 53 37 54 38 55 52 57 73 58 40 59
REMARK SMILES IDX 24 60 25 61 33 62 26 63 27 64 31 65 34 66 28 67 29 68 32 69
REMARK SMILES IDX 30 70 56 71 57 72 65 73 58 74 59 75 63 76 66 77 60 78 61 79
REMARK SMILES IDX 64 80 62 81 41 82 42 83 50 84 43 85 44 86 48 87 51 88 45 89
REMARK SMILES IDX 46 90 49 91 47 92
REMARK H PARENT 8 5 83 20 83 21 12 26 71 45 39 56
REMARK Flexibility Score: inf
ROOT
ATOM      1  C   UNL A   1      32.483  28.149  23.609  1.00  0.00     0.117 C 
ENDROOT
BRANCH   1   2
ATOM      2  N   UNL A   1      33.209  27.389  22.609  1.00  0.00    -0.354 N 
ATOM      3  C   UNL A   1      33.186  26.057  22.317  1.00  0.00     0.239 C 
ATOM      4  O   UNL A   1      33.616  25.726  21.207  1.00  0.00    -0.273 OA
ATOM      5  H   UNL A   1      33.819  27.923  22.051  1.00  0.00     0.163 HD
BRANCH   3   6
ATOM      6  C   UNL A   1      32.535  25.016  23.239  1.00  0.00     0.220 C 
BRANCH   6   7
ATOM      7  N   UNL A   1      33.472  24.281  24.095  1.00  0.00    -0.325 N 
BRANCH   7   8
ATOM      8  C   UNL A   1      33.681  24.761  25.454  1.00  0.00     0.147 C 
BRANCH   8   9
ATOM      9  C   UNL A   1      32.350  25.043  26.085  1.00  0.00    -0.014 C 
ATOM     10  C   UNL A   1      31.615  24.120  26.720  1.00  0.00     0.006 C 
ENDBRANCH   8   9
ENDBRANCH   7   8
BRANCH   7  11
ATOM     11  C   UNL A   1      34.030  23.041  23.750  1.00  0.00     0.266 C 
ATOM     12  O   UNL A   1      35.012  22.977  23.009  1.00  0.00    -0.268 OA
BRANCH  11  13
ATOM     13  C   UNL A   1      33.424  21.843  24.280  1.00  0.00     0.117 A 
ATOM     14  S   UNL A   1      33.958  21.230  25.790  1.00  0.00    -0.092 S 
ATOM     15  C   UNL A   1      32.522  20.964  23.708  1.00  0.00     0.063 A 
ATOM     16  C   UNL A   1      32.948  19.860  25.584  1.00  0.00     0.180 A 
ATOM     17  N   UNL A   1      32.243  19.845  24.481  1.00  0.00    -0.225 NA
ATOM     18  C   UNL A   1      31.848  21.078  22.391  1.00  0.00     0.068 C 
BRANCH  16  19
ATOM     19  N   UNL A   1      32.903  18.877  26.489  1.00  0.00    -0.375 N 
ATOM     20  H   UNL A   1      33.351  18.988  27.359  1.00  0.00     0.159 HD
ATOM     21  H   UNL A   1      32.424  18.042  26.285  1.00  0.00     0.159 HD
ENDBRANCH  16  19
ENDBRANCH  11  13
ENDBRANCH   7  11
ENDBRANCH   6   7
ENDBRANCH   3   6
ENDBRANCH   1   2
BRANCH   1  22
ATOM     22  C   UNL A   1      33.364  28.818  24.661  1.00  0.00     0.042 C 
BRANCH  22  23
ATOM     23  C   UNL A   1      32.712  29.058  26.020  1.00  0.00     0.118 C 
BRANCH  23  24
ATOM     24  N   UNL A   1      32.494  30.461  26.315  1.00  0.00    -0.352 N 
ATOM     25  C   UNL A   1      33.200  31.352  27.083  1.00  0.00     0.251 C 
ATOM     26  H   UNL A   1      31.695  30.844  25.885  1.00  0.00     0.163 HD
ATOM     27  O   UNL A   1      32.725  32.474  27.254  1.00  0.00    -0.269 OA
BRANCH  25  28
ATOM     28  C   UNL A   1      34.494  31.015  27.732  1.00  0.00     0.039 A 
ATOM     29  C   UNL A   1      34.649  29.711  28.223  1.00  0.00     0.014 A 
ATOM     30  C   UNL A   1      35.508  31.950  27.961  1.00  0.00     0.014 A 
ATOM     31  C   UNL A   1      35.813  29.338  28.902  1.00  0.00     0.010 A 
ATOM     32  C   UNL A   1      36.697  31.564  28.595  1.00  0.00     0.010 A 
ATOM     33  C   UNL A   1      36.856  30.258  29.081  1.00  0.00    -0.014 A 
BRANCH  33  34
ATOM     34  C   UNL A   1      38.091  29.859  29.804  1.00  0.00     0.031 A 
ATOM     35  C   UNL A   1      38.358  30.358  31.197  1.00  0.00     0.074 A 
ATOM     36  C   UNL A   1      38.984  29.043  29.210  1.00  0.00     0.049 A 
ATOM     37  N   UNL A   1      39.384  30.125  31.978  1.00  0.00    -0.248 NA
ATOM     38  C   UNL A   1      37.345  31.245  31.788  1.00  0.00     0.031 C 
ATOM     39  C   UNL A   1      38.865  28.500  27.858  1.00  0.00     0.029 A 
ATOM     40  N   UNL A   1      40.168  28.526  29.677  1.00  0.00    -0.354 N 
ATOM     41  C   UNL A   1      39.153  30.852  33.136  1.00  0.00     0.074 A 
ATOM     42  C   UNL A   1      37.895  31.546  32.956  1.00  0.00     0.031 C 
ATOM     43  C   UNL A   1      39.920  27.706  27.611  1.00  0.00     0.029 A 
ATOM     44  C   UNL A   1      40.796  27.699  28.780  1.00  0.00     0.049 A 
ATOM     45  H   UNL A   1      40.531  28.729  30.569  1.00  0.00     0.167 HD
ATOM     46  C   UNL A   1      39.914  30.930  34.254  1.00  0.00     0.037 A 
ATOM     47  C   UNL A   1      41.947  27.008  28.888  1.00  0.00     0.037 A 
ATOM     48  C   UNL A   1      41.141  30.213  34.470  1.00  0.00     0.049 A 
ATOM     49  C   UNL A   1      42.753  27.082  30.153  1.00  0.00     0.074 A 
ATOM     50  C   UNL A   1      41.946  30.195  35.597  1.00  0.00     0.029 A 
ATOM     51  N   UNL A   1      41.738  29.376  33.540  1.00  0.00    -0.354 N 
ATOM     52  N   UNL A   1      42.508  27.755  31.248  1.00  0.00    -0.248 NA
ATOM     53  C   UNL A   1      43.997  26.299  30.191  1.00  0.00     0.031 C 
ATOM     54  C   UNL A   1      43.037  29.354  35.344  1.00  0.00     0.029 A 
ATOM     55  C   UNL A   1      42.903  28.841  34.064  1.00  0.00     0.049 A 
ATOM     56  H   UNL A   1      41.385  29.189  32.639  1.00  0.00     0.167 HD
ATOM     57  C   UNL A   1      43.558  27.472  32.110  1.00  0.00     0.074 A 
ATOM     58  C   UNL A   1      44.441  26.559  31.414  1.00  0.00     0.031 C 
ATOM     59  C   UNL A   1      43.769  27.932  33.365  1.00  0.00     0.037 A 
BRANCH  46  60
ATOM     60  C   UNL A   1      39.434  31.834  35.346  1.00  0.00     0.064 A 
ATOM     61  C   UNL A   1      39.823  33.179  35.399  1.00  0.00     0.173 A 
ATOM     62  C   UNL A   1      38.547  31.359  36.321  1.00  0.00     0.173 A 
ATOM     63  F   UNL A   1      40.679  33.671  34.492  1.00  0.00    -0.203 F 
ATOM     64  C   UNL A   1      39.346  34.017  36.402  1.00  0.00     0.198 A 
ATOM     65  C   UNL A   1      38.063  32.202  37.316  1.00  0.00     0.198 A 
ATOM     66  F   UNL A   1      38.149  30.077  36.306  1.00  0.00    -0.203 F 
ATOM     67  F   UNL A   1      39.745  35.296  36.451  1.00  0.00    -0.200 F 
ATOM     68  C   UNL A   1      38.464  33.530  37.356  1.00  0.00     0.200 A 
ATOM     69  F   UNL A   1      37.210  31.733  38.236  1.00  0.00    -0.200 F 
ATOM     70  F   UNL A   1      38.005  34.340  38.320  1.00  0.00    -0.200 F 
ENDBRANCH  46  60
BRANCH  47  71
ATOM     71  C   UNL A   1      42.394  26.155  27.763  1.00  0.00     0.064 A 
ATOM     72  C   UNL A   1      41.875  24.866  27.595  1.00  0.00     0.173 A 
ATOM     73  C   UNL A   1      43.343  26.613  26.839  1.00  0.00     0.173 A 
ATOM     74  F   UNL A   1      40.982  24.384  28.471  1.00  0.00    -0.203 F 
ATOM     75  C   UNL A   1      42.292  24.059  26.538  1.00  0.00     0.198 A 
ATOM     76  C   UNL A   1      43.751  25.810  25.777  1.00  0.00     0.198 A 
ATOM     77  F   UNL A   1      43.869  27.839  26.969  1.00  0.00    -0.203 F 
ATOM     78  F   UNL A   1      41.796  22.822  26.408  1.00  0.00    -0.200 F 
ATOM     79  C   UNL A   1      43.226  24.534  25.629  1.00  0.00     0.200 A 
ATOM     80  F   UNL A   1      44.653  26.270  24.900  1.00  0.00    -0.200 F 
ATOM     81  F   UNL A   1      43.627  23.757  24.613  1.00  0.00    -0.200 F 
ENDBRANCH  47  71
BRANCH  59  82
ATOM     82  C   UNL A   1      44.994  27.447  34.073  1.00  0.00     0.064 A 
ATOM     83  C   UNL A   1      46.200  28.156  33.999  1.00  0.00     0.173 A 
ATOM     84  C   UNL A   1      44.952  26.285  34.856  1.00  0.00     0.173 A 
ATOM     85  F   UNL A   1      46.287  29.265  33.250  1.00  0.00    -0.203 F 
ATOM     86  C   UNL A   1      47.329  27.713  34.683  1.00  0.00     0.198 A 
ATOM     87  C   UNL A   1      46.082  25.851  35.546  1.00  0.00     0.198 A 
ATOM     88  F   UNL A   1      43.819  25.574  34.951  1.00  0.00    -0.203 F 
ATOM     89  F   UNL A   1      48.480  28.393  34.584  1.00  0.00    -0.200 F 
ATOM     90  C   UNL A   1      47.268  26.564  35.457  1.00  0.00     0.200 A 
ATOM     91  F   UNL A   1      46.023  24.740  36.293  1.00  0.00    -0.200 F 
ATOM     92  F   UNL A   1      48.356  26.138  36.113  1.00  0.00    -0.200 F 
ENDBRANCH  59  82
ENDBRANCH  33  34
ENDBRANCH  25  28
ENDBRANCH  23  24
ENDBRANCH  22  23
ENDBRANCH   1  22
TORSDOF 16
ENDMDL
MODEL 3
REMARK VINA RESULT:     -11.0      4.801     10.146
REMARK SMILES C=CCN(CC(=O)NCCCNC(=O)c1ccc(-c2c3nc(c(-c4c(F)c(F)c(F)c(F)c4F)c4ccc([nH]4)c(-c4c(F)c(F)c(F)c(F)c4F)c4nc(c(-c5c(F)c(F)c(F)c(F)c5F)c5ccc2[nH]5)C=C4)C=C3)cc1)C(=O)c1sc(N)nc1C
REMARK SMILES IDX 9 1 8 2 6 3 7 4 5 6 4 7 3 8 2 9 1 10 78 11 79 12 80 13 81 14
REMARK SMILES IDX 85 15 82 16 84 17 86 18 83 19 10 22 11 23 12 24 13 25 14 27
REMARK SMILES IDX 15 28 16 29 77 30 17 31 76 32 18 33 19 34 20 35 70 36 21 37
REMARK SMILES IDX 75 38 69 39 71 40 22 41 74 42 68 43 67 44 23 46 55 47 35 48
REMARK SMILES IDX 54 49 36 50 39 51 53 52 72 53 37 54 38 55 52 57 73 58 40 59
REMARK SMILES IDX 24 60 25 61 33 62 26 63 27 64 31 65 34 66 28 67 29 68 32 69
REMARK SMILES IDX 30 70 56 71 57 72 65 73 58 74 59 75 63 76 66 77 60 78 61 79
REMARK SMILES IDX 64 80 62 81 41 82 42 83 50 84 43 85 44 86 48 87 51 88 45 89
REMARK SMILES IDX 46 90 49 91 47 92
REMARK H PARENT 8 5 83 20 83 21 12 26 71 45 39 56
REMARK Flexibility Score: inf
ROOT
ATOM      1  C   UNL A   1      36.974  20.028  24.567  1.00  0.00     0.117 C 
ENDROOT
BRANCH   1   2
ATOM      2  N   UNL A   1      35.725  20.011  25.304  1.00  0.00    -0.354 N 
ATOM      3  C   UNL A   1      34.550  20.663  25.076  1.00  0.00     0.239 C 
ATOM      4  O   UNL A   1      33.546  20.208  25.634  1.00  0.00    -0.273 OA
ATOM      5  H   UNL A   1      35.727  19.433  26.101  1.00  0.00     0.163 HD
BRANCH   3   6
ATOM      6  C   UNL A   1      34.423  21.818  24.071  1.00  0.00     0.220 C 
BRANCH   6   7
ATOM      7  N   UNL A   1      34.827  23.129  24.588  1.00  0.00    -0.325 N 
BRANCH   7   8
ATOM      8  C   UNL A   1      36.228  23.510  24.473  1.00  0.00     0.147 C 
BRANCH   8   9
ATOM      9  C   UNL A   1      36.822  23.611  25.848  1.00  0.00    -0.014 C 
ATOM     10  C   UNL A   1      38.114  23.378  26.121  1.00  0.00     0.006 C 
ENDBRANCH   8   9
ENDBRANCH   7   8
BRANCH   7  11
ATOM     11  C   UNL A   1      33.918  24.112  25.008  1.00  0.00     0.266 C 
ATOM     12  O   UNL A   1      34.076  25.291  24.692  1.00  0.00    -0.268 OA
BRANCH  11  13
ATOM     13  C   UNL A   1      32.797  23.708  25.823  1.00  0.00     0.117 A 
ATOM     14  S   UNL A   1      31.203  24.043  25.283  1.00  0.00    -0.092 S 
ATOM     15  C   UNL A   1      32.759  23.180  27.101  1.00  0.00     0.063 A 
ATOM     16  C   UNL A   1      30.583  23.451  26.768  1.00  0.00     0.180 A 
ATOM     17  N   UNL A   1      31.480  23.017  27.617  1.00  0.00    -0.225 NA
ATOM     18  C   UNL A   1      33.904  22.789  27.960  1.00  0.00     0.068 C 
BRANCH  16  19
ATOM     19  N   UNL A   1      29.272  23.450  27.031  1.00  0.00    -0.375 N 
ATOM     20  H   UNL A   1      28.625  23.270  26.312  1.00  0.00     0.159 HD
ATOM     21  H   UNL A   1      28.954  23.632  27.945  1.00  0.00     0.159 HD
ENDBRANCH  16  19
ENDBRANCH  11  13
ENDBRANCH   7  11
ENDBRANCH   6   7
ENDBRANCH   3   6
ENDBRANCH   1   2
BRANCH   1  22
ATOM     22  C   UNL A   1      38.093  19.199  25.194  1.00  0.00     0.042 C 
BRANCH  22  23
ATOM     23  C   UNL A   1      39.234  19.992  25.825  1.00  0.00     0.118 C 
BRANCH  23  24
ATOM     24  N   UNL A   1      40.433  19.203  26.039  1.00  0.00    -0.352 N 
ATOM     25  C   UNL A   1      41.734  19.568  26.277  1.00  0.00     0.251 C 
ATOM     26  H   UNL A   1      40.286  18.230  26.010  1.00  0.00     0.163 HD
ATOM     27  O   UNL A   1      42.587  18.681  26.314  1.00  0.00    -0.269 OA
BRANCH  25  28
ATOM     28  C   UNL A   1      42.157  20.979  26.470  1.00  0.00     0.039 A 
ATOM     29  C   UNL A   1      42.391  21.408  27.784  1.00  0.00     0.014 A 
ATOM     30  C   UNL A   1      42.233  21.910  25.430  1.00  0.00     0.014 A 
ATOM     31  C   UNL A   1      42.730  22.739  28.050  1.00  0.00     0.010 A 
ATOM     32  C   UNL A   1      42.624  23.231  25.689  1.00  0.00     0.010 A 
ATOM     33  C   UNL A   1      42.864  23.660  27.002  1.00  0.00    -0.014 A 
BRANCH  33  34
ATOM     34  C   UNL A   1      43.223  25.074  27.288  1.00  0.00     0.031 A 
ATOM     35  C   UNL A   1      44.579  25.609  26.921  1.00  0.00     0.074 A 
ATOM     36  C   UNL A   1      42.327  25.888  27.880  1.00  0.00     0.049 A 
ATOM     37  N   UNL A   1      45.072  26.809  27.102  1.00  0.00    -0.248 NA
ATOM     38  C   UNL A   1      45.509  24.669  26.277  1.00  0.00     0.031 C 
ATOM     39  C   UNL A   1      40.984  25.499  28.308  1.00  0.00     0.029 A 
ATOM     40  N   UNL A   1      42.416  27.216  28.220  1.00  0.00    -0.354 N 
ATOM     41  C   UNL A   1      46.372  26.764  26.619  1.00  0.00     0.074 A 
ATOM     42  C   UNL A   1      46.599  25.414  26.146  1.00  0.00     0.031 C 
ATOM     43  C   UNL A   1      40.365  26.571  28.831  1.00  0.00     0.029 A 
ATOM     44  C   UNL A   1      41.273  27.714  28.792  1.00  0.00     0.049 A 
ATOM     45  H   UNL A   1      43.223  27.758  28.068  1.00  0.00     0.167 HD
ATOM     46  C   UNL A   1      47.291  27.756  26.564  1.00  0.00     0.037 A 
ATOM     47  C   UNL A   1      40.986  28.954  29.230  1.00  0.00     0.037 A 
ATOM     48  C   UNL A   1      47.069  29.113  26.985  1.00  0.00     0.049 A 
ATOM     49  C   UNL A   1      42.010  30.046  29.124  1.00  0.00     0.074 A 
ATOM     50  C   UNL A   1      47.932  30.193  26.913  1.00  0.00     0.029 A 
ATOM     51  N   UNL A   1      45.891  29.579  27.548  1.00  0.00    -0.354 N 
ATOM     52  N   UNL A   1      43.226  29.992  28.642  1.00  0.00    -0.248 NA
ATOM     53  C   UNL A   1      41.619  31.372  29.625  1.00  0.00     0.031 C 
ATOM     54  C   UNL A   1      47.280  31.313  27.444  1.00  0.00     0.029 A 
ATOM     55  C   UNL A   1      46.007  30.929  27.834  1.00  0.00     0.049 A 
ATOM     56  H   UNL A   1      45.091  29.031  27.719  1.00  0.00     0.167 HD
ATOM     57  C   UNL A   1      43.743  31.273  28.771  1.00  0.00     0.074 A 
ATOM     58  C   UNL A   1      42.707  32.087  29.371  1.00  0.00     0.031 C 
ATOM     59  C   UNL A   1      44.969  31.729  28.425  1.00  0.00     0.037 A 
BRANCH  46  60
ATOM     60  C   UNL A   1      48.642  27.407  26.022  1.00  0.00     0.064 A 
ATOM     61  C   UNL A   1      49.687  27.020  26.871  1.00  0.00     0.173 A 
ATOM     62  C   UNL A   1      48.877  27.422  24.641  1.00  0.00     0.173 A 
ATOM     63  F   UNL A   1      49.507  27.003  28.200  1.00  0.00    -0.203 F 
ATOM     64  C   UNL A   1      50.930  26.669  26.353  1.00  0.00     0.198 A 
ATOM     65  C   UNL A   1      50.117  27.059  24.126  1.00  0.00     0.198 A 
ATOM     66  F   UNL A   1      47.903  27.786  23.793  1.00  0.00    -0.203 F 
ATOM     67  F   UNL A   1      51.925  26.322  27.181  1.00  0.00    -0.200 F 
ATOM     68  C   UNL A   1      51.143  26.685  24.982  1.00  0.00     0.200 A 
ATOM     69  F   UNL A   1      50.322  27.073  22.802  1.00  0.00    -0.200 F 
ATOM     70  F   UNL A   1      52.341  26.344  24.486  1.00  0.00    -0.200 F 
ENDBRANCH  46  60
BRANCH  47  71
ATOM     71  C   UNL A   1      39.644  29.237  29.790  1.00  0.00     0.064 A 
ATOM     72  C   UNL A   1      39.407  29.125  31.166  1.00  0.00     0.173 A 
ATOM     73  C   UNL A   1      38.581  29.625  28.965  1.00  0.00     0.173 A 
ATOM     74  F   UNL A   1      40.394  28.735  31.986  1.00  0.00    -0.203 F 
ATOM     75  C   UNL A   1      38.148  29.390  31.699  1.00  0.00     0.198 A 
ATOM     76  C   UNL A   1      37.325  29.900  29.500  1.00  0.00     0.198 A 
ATOM     77  F   UNL A   1      38.765  29.738  27.641  1.00  0.00    -0.203 F 
ATOM     78  F   UNL A   1      37.938  29.257  33.015  1.00  0.00    -0.200 F 
ATOM     79  C   UNL A   1      37.109  29.780  30.865  1.00  0.00     0.200 A 
ATOM     80  F   UNL A   1      36.323  30.277  28.694  1.00  0.00    -0.200 F 
ATOM     81  F   UNL A   1      35.898  30.034  31.378  1.00  0.00    -0.200 F 
ENDBRANCH  47  71
BRANCH  59  82
ATOM     82  C   UNL A   1      45.255  33.176  28.673  1.00  0.00     0.064 A 
ATOM     83  C   UNL A   1      45.861  33.599  29.863  1.00  0.00     0.173 A 
ATOM     84  C   UNL A   1      44.951  34.139  27.702  1.00  0.00     0.173 A 
ATOM     85  F   UNL A   1      46.155  32.712  30.824  1.00  0.00    -0.203 F 
ATOM     86  C   UNL A   1      46.149  34.945  30.076  1.00  0.00     0.198 A 
ATOM     87  C   UNL A   1      45.249  35.484  27.915  1.00  0.00     0.198 A 
ATOM     88  F   UNL A   1      44.366  33.778  26.550  1.00  0.00    -0.203 F 
ATOM     89  F   UNL A   1      46.710  35.334  31.230  1.00  0.00    -0.200 F 
ATOM     90  C   UNL A   1      45.845  35.884  29.102  1.00  0.00     0.200 A 
ATOM     91  F   UNL A   1      44.955  36.391  26.974  1.00  0.00    -0.200 F 
ATOM     92  F   UNL A   1      46.121  37.179  29.309  1.00  0.00    -0.200 F 
ENDBRANCH  59  82
ENDBRANCH  33  34
ENDBRANCH  25  28
ENDBRANCH  23  24
ENDBRANCH  22  23
ENDBRANCH   1  22
TORSDOF 16
ENDMDL
