MODEL 1
REMARK VINA RESULT:     -12.9      0.000      0.000
REMARK SMILES C[C@@H]1C[NH+](Cc2ccccc2/C=C/C(=O)NCCCNC(=O)c2ccc(-c3c4nc(c(-c5c(F)c(F)c(F)c(F)c5F)c5ccc([nH]5)c(-c5c(F)c(F)c(F)c(F)c5F)c5nc(c(-c6c(F)c(F)c(F)c(F)c6F)c6ccc3[nH]6)C=C5)C=C4)cc2)C[C@H]1C
REMARK SMILES IDX 17 1 16 2 14 3 15 4 13 6 12 7 11 8 6 9 7 10 8 11 10 12 9 13
REMARK SMILES IDX 5 14 4 15 1 16 2 17 3 18 87 19 86 20 88 21 18 23 19 24 20 25
REMARK SMILES IDX 21 26 22 28 23 29 24 30 85 31 25 32 84 33 26 34 27 35 28 36
REMARK SMILES IDX 78 37 29 38 83 39 77 40 79 41 30 42 82 43 76 44 75 45 31 47
REMARK SMILES IDX 63 48 43 49 62 50 44 51 47 52 61 53 80 54 45 55 46 56 60 58
REMARK SMILES IDX 81 59 48 60 32 61 33 62 41 63 34 64 35 65 39 66 42 67 36 68
REMARK SMILES IDX 37 69 40 70 38 71 64 72 65 73 73 74 66 75 67 76 71 77 74 78
REMARK SMILES IDX 68 79 69 80 72 81 70 82 49 83 50 84 58 85 51 86 52 87 56 88
REMARK SMILES IDX 59 89 53 90 54 91 57 92 55 93
REMARK H PARENT 16 5 4 22 20 27 79 46 47 57
REMARK Flexibility Score: inf
ROOT
ATOM      1  C   UNL A   1      31.901  30.457  26.859  1.00  0.00     0.118 C 
ENDROOT
BRANCH   1   2
ATOM      2  N   UNL A   1      33.145  30.090  27.494  1.00  0.00    -0.352 N 
ATOM      3  C   UNL A   1      33.992  29.071  27.167  1.00  0.00     0.244 C 
ATOM      4  O   UNL A   1      35.120  29.039  27.653  1.00  0.00    -0.270 OA
ATOM      5  H   UNL A   1      33.416  30.644  28.261  1.00  0.00     0.163 HD
BRANCH   3   6
ATOM      6  C   UNL A   1      33.608  28.059  26.151  1.00  0.00     0.072 C 
ATOM      7  C   UNL A   1      33.825  28.167  24.828  1.00  0.00     0.014 C 
BRANCH   7   8
ATOM      8  C   UNL A   1      33.401  27.131  23.867  1.00  0.00    -0.017 A 
ATOM      9  C   UNL A   1      32.367  27.300  22.912  1.00  0.00     0.013 A 
ATOM     10  C   UNL A   1      31.978  26.177  22.147  1.00  0.00     0.010 A 
ATOM     11  C   UNL A   1      32.609  24.941  22.282  1.00  0.00     0.001 A 
ATOM     12  C   UNL A   1      34.033  25.877  23.979  1.00  0.00     0.008 A 
ATOM     13  C   UNL A   1      33.647  24.794  23.190  1.00  0.00     0.001 A 
BRANCH   9  14
ATOM     14  C   UNL A   1      31.597  28.594  22.662  1.00  0.00     0.299 C 
BRANCH  14  15
ATOM     15  N   UNL A   1      30.405  28.873  23.478  1.00  0.00    -0.331 N 
ATOM     16  C   UNL A   1      26.710  28.536  23.302  1.00  0.00     0.014 C 
ATOM     17  C   UNL A   1      28.096  28.989  22.873  1.00  0.00     0.049 C 
ATOM     18  C   UNL A   1      29.217  28.038  23.309  1.00  0.00     0.266 C 
ATOM     19  C   UNL A   1      28.481  30.316  23.516  1.00  0.00     0.049 C 
ATOM     20  C   UNL A   1      29.992  30.263  23.460  1.00  0.00     0.266 C 
ATOM     21  C   UNL A   1      27.959  31.539  22.765  1.00  0.00     0.014 C 
ATOM     22  H   UNL A   1      30.787  28.607  24.385  1.00  0.00     0.348 HD
ENDBRANCH  14  15
ENDBRANCH   9  14
ENDBRANCH   7   8
ENDBRANCH   3   6
ENDBRANCH   1   2
BRANCH   1  23
ATOM     23  C   UNL A   1      31.615  31.941  26.854  1.00  0.00     0.042 C 
BRANCH  23  24
ATOM     24  C   UNL A   1      32.811  32.772  27.265  1.00  0.00     0.118 C 
BRANCH  24  25
ATOM     25  N   UNL A   1      32.464  34.147  27.622  1.00  0.00    -0.352 N 
ATOM     26  C   UNL A   1      32.989  34.978  28.584  1.00  0.00     0.251 C 
ATOM     27  H   UNL A   1      31.736  34.541  27.088  1.00  0.00     0.163 HD
ATOM     28  O   UNL A   1      32.469  36.070  28.803  1.00  0.00    -0.269 OA
BRANCH  26  29
ATOM     29  C   UNL A   1      34.153  34.545  29.388  1.00  0.00     0.039 A 
ATOM     30  C   UNL A   1      33.944  34.007  30.662  1.00  0.00     0.014 A 
ATOM     31  C   UNL A   1      35.447  34.631  28.876  1.00  0.00     0.014 A 
ATOM     32  C   UNL A   1      35.021  33.470  31.371  1.00  0.00     0.010 A 
ATOM     33  C   UNL A   1      36.489  33.979  29.519  1.00  0.00     0.010 A 
ATOM     34  C   UNL A   1      36.293  33.400  30.780  1.00  0.00    -0.014 A 
BRANCH  34  35
ATOM     35  C   UNL A   1      37.444  32.752  31.462  1.00  0.00     0.031 A 
ATOM     36  C   UNL A   1      38.154  31.603  30.796  1.00  0.00     0.074 A 
ATOM     37  C   UNL A   1      37.792  33.134  32.706  1.00  0.00     0.049 A 
ATOM     38  N   UNL A   1      39.099  30.828  31.265  1.00  0.00    -0.248 NA
ATOM     39  C   UNL A   1      37.711  31.249  29.438  1.00  0.00     0.031 C 
ATOM     40  C   UNL A   1      37.143  34.191  33.484  1.00  0.00     0.029 A 
ATOM     41  N   UNL A   1      38.774  32.666  33.542  1.00  0.00    -0.354 N 
ATOM     42  C   UNL A   1      39.343  29.888  30.270  1.00  0.00     0.074 A 
ATOM     43  C   UNL A   1      38.398  30.141  29.206  1.00  0.00     0.031 C 
ATOM     44  C   UNL A   1      37.765  34.314  34.667  1.00  0.00     0.029 A 
ATOM     45  C   UNL A   1      38.828  33.318  34.750  1.00  0.00     0.049 A 
ATOM     46  H   UNL A   1      39.384  31.931  33.299  1.00  0.00     0.167 HD
ATOM     47  C   UNL A   1      40.291  28.924  30.231  1.00  0.00     0.037 A 
ATOM     48  C   UNL A   1      39.642  33.129  35.807  1.00  0.00     0.037 A 
ATOM     49  C   UNL A   1      41.256  28.703  31.273  1.00  0.00     0.049 A 
ATOM     50  C   UNL A   1      40.694  32.056  35.734  1.00  0.00     0.074 A 
ATOM     51  C   UNL A   1      42.297  27.792  31.308  1.00  0.00     0.029 A 
ATOM     52  N   UNL A   1      41.300  29.407  32.467  1.00  0.00    -0.354 N 
ATOM     53  N   UNL A   1      40.958  31.217  34.761  1.00  0.00    -0.248 NA
ATOM     54  C   UNL A   1      41.568  31.907  36.906  1.00  0.00     0.031 C 
ATOM     55  C   UNL A   1      42.948  27.919  32.540  1.00  0.00     0.029 A 
ATOM     56  C   UNL A   1      42.342  28.943  33.252  1.00  0.00     0.049 A 
ATOM     57  H   UNL A   1      40.682  30.131  32.720  1.00  0.00     0.167 HD
ATOM     58  C   UNL A   1      42.045  30.465  35.188  1.00  0.00     0.074 A 
ATOM     59  C   UNL A   1      42.402  30.958  36.502  1.00  0.00     0.031 C 
ATOM     60  C   UNL A   1      42.689  29.458  34.552  1.00  0.00     0.037 A 
BRANCH  47  61
ATOM     61  C   UNL A   1      40.340  28.051  29.010  1.00  0.00     0.064 A 
ATOM     62  C   UNL A   1      39.623  26.846  28.940  1.00  0.00     0.173 A 
ATOM     63  C   UNL A   1      41.092  28.431  27.889  1.00  0.00     0.173 A 
ATOM     64  F   UNL A   1      38.900  26.427  29.990  1.00  0.00    -0.203 F 
ATOM     65  C   UNL A   1      39.685  26.038  27.806  1.00  0.00     0.198 A 
ATOM     66  C   UNL A   1      41.124  27.638  26.744  1.00  0.00     0.198 A 
ATOM     67  F   UNL A   1      41.793  29.575  27.900  1.00  0.00    -0.203 F 
ATOM     68  F   UNL A   1      39.038  24.864  27.786  1.00  0.00    -0.200 F 
ATOM     69  C   UNL A   1      40.428  26.439  26.707  1.00  0.00     0.200 A 
ATOM     70  F   UNL A   1      41.833  28.033  25.677  1.00  0.00    -0.200 F 
ATOM     71  F   UNL A   1      40.483  25.664  25.616  1.00  0.00    -0.200 F 
ENDBRANCH  47  61
BRANCH  48  72
ATOM     72  C   UNL A   1      39.521  33.995  37.009  1.00  0.00     0.064 A 
ATOM     73  C   UNL A   1      38.763  33.584  38.115  1.00  0.00     0.173 A 
ATOM     74  C   UNL A   1      40.140  35.252  37.074  1.00  0.00     0.173 A 
ATOM     75  F   UNL A   1      38.136  32.398  38.093  1.00  0.00    -0.203 F 
ATOM     76  C   UNL A   1      38.609  34.406  39.229  1.00  0.00     0.198 A 
ATOM     77  C   UNL A   1      40.008  36.061  38.202  1.00  0.00     0.198 A 
ATOM     78  F   UNL A   1      40.879  35.691  36.047  1.00  0.00    -0.203 F 
ATOM     79  F   UNL A   1      37.836  34.008  40.250  1.00  0.00    -0.200 F 
ATOM     80  C   UNL A   1      39.235  35.642  39.273  1.00  0.00     0.200 A 
ATOM     81  F   UNL A   1      40.626  37.249  38.247  1.00  0.00    -0.200 F 
ATOM     82  F   UNL A   1      39.085  36.432  40.345  1.00  0.00    -0.200 F 
ENDBRANCH  48  72
BRANCH  60  83
ATOM     83  C   UNL A   1      43.872  28.851  35.247  1.00  0.00     0.064 A 
ATOM     84  C   UNL A   1      45.173  29.334  35.048  1.00  0.00     0.173 A 
ATOM     85  C   UNL A   1      43.693  27.798  36.158  1.00  0.00     0.173 A 
ATOM     86  F   UNL A   1      45.396  30.330  34.177  1.00  0.00    -0.203 F 
ATOM     87  C   UNL A   1      46.256  28.766  35.712  1.00  0.00     0.198 A 
ATOM     88  C   UNL A   1      44.774  27.253  36.844  1.00  0.00     0.198 A 
ATOM     89  F   UNL A   1      42.467  27.305  36.390  1.00  0.00    -0.203 F 
ATOM     90  F   UNL A   1      47.497  29.210  35.468  1.00  0.00    -0.200 F 
ATOM     91  C   UNL A   1      46.056  27.731  36.615  1.00  0.00     0.200 A 
ATOM     92  F   UNL A   1      44.577  26.264  37.726  1.00  0.00    -0.200 F 
ATOM     93  F   UNL A   1      47.099  27.190  37.258  1.00  0.00    -0.200 F 
ENDBRANCH  60  83
ENDBRANCH  34  35
ENDBRANCH  26  29
ENDBRANCH  24  25
ENDBRANCH  23  24
ENDBRANCH   1  23
TORSDOF 13
ENDMDL
MODEL 2
REMARK VINA RESULT:     -12.8      6.191     11.502
REMARK SMILES C[C@@H]1C[NH+](Cc2ccccc2/C=C/C(=O)NCCCNC(=O)c2ccc(-c3c4nc(c(-c5c(F)c(F)c(F)c(F)c5F)c5ccc([nH]5)c(-c5c(F)c(F)c(F)c(F)c5F)c5nc(c(-c6c(F)c(F)c(F)c(F)c6F)c6ccc3[nH]6)C=C5)C=C4)cc2)C[C@H]1C
REMARK SMILES IDX 17 1 16 2 14 3 15 4 13 6 12 7 11 8 6 9 7 10 8 11 10 12 9 13
REMARK SMILES IDX 5 14 4 15 1 16 2 17 3 18 87 19 86 20 88 21 18 23 19 24 20 25
REMARK SMILES IDX 21 26 22 28 23 29 24 30 85 31 25 32 84 33 26 34 27 35 28 36
REMARK SMILES IDX 78 37 29 38 83 39 77 40 79 41 30 42 82 43 76 44 75 45 31 47
REMARK SMILES IDX 63 48 43 49 62 50 44 51 47 52 61 53 80 54 45 55 46 56 60 58
REMARK SMILES IDX 81 59 48 60 32 61 33 62 41 63 34 64 35 65 39 66 42 67 36 68
REMARK SMILES IDX 37 69 40 70 38 71 64 72 65 73 73 74 66 75 67 76 71 77 74 78
REMARK SMILES IDX 68 79 69 80 72 81 70 82 49 83 50 84 58 85 51 86 52 87 56 88
REMARK SMILES IDX 59 89 53 90 54 91 57 92 55 93
REMARK H PARENT 16 5 4 22 20 27 79 46 47 57
REMARK Flexibility Score: inf
ROOT
ATOM      1  C   UNL A   1      37.417  21.357  24.640  1.00  0.00     0.118 C 
ENDROOT
BRANCH   1   2
ATOM      2  N   UNL A   1      38.060  22.551  25.136  1.00  0.00    -0.352 N 
ATOM      3  C   UNL A   1      37.495  23.600  25.801  1.00  0.00     0.244 C 
ATOM      4  O   UNL A   1      38.214  24.423  26.361  1.00  0.00    -0.270 OA
ATOM      5  H   UNL A   1      39.029  22.617  24.975  1.00  0.00     0.163 HD
BRANCH   3   6
ATOM      6  C   UNL A   1      36.020  23.704  25.944  1.00  0.00     0.072 C 
ATOM      7  C   UNL A   1      35.198  24.318  25.075  1.00  0.00     0.014 C 
BRANCH   7   8
ATOM      8  C   UNL A   1      33.740  24.401  25.285  1.00  0.00    -0.017 A 
ATOM      9  C   UNL A   1      32.802  23.479  24.756  1.00  0.00     0.013 A 
ATOM     10  C   UNL A   1      31.427  23.759  24.925  1.00  0.00     0.010 A 
ATOM     11  C   UNL A   1      30.986  24.881  25.625  1.00  0.00     0.001 A 
ATOM     12  C   UNL A   1      33.273  25.523  25.999  1.00  0.00     0.008 A 
ATOM     13  C   UNL A   1      31.910  25.757  26.175  1.00  0.00     0.001 A 
BRANCH   9  14
ATOM     14  C   UNL A   1      33.147  22.216  23.973  1.00  0.00     0.299 C 
BRANCH  14  15
ATOM     15  N   UNL A   1      32.353  21.001  24.211  1.00  0.00    -0.331 N 
ATOM     16  C   UNL A   1      32.714  17.637  25.746  1.00  0.00     0.014 C 
ATOM     17  C   UNL A   1      33.033  18.788  24.805  1.00  0.00     0.049 C 
ATOM     18  C   UNL A   1      32.663  20.165  25.369  1.00  0.00     0.266 C 
ATOM     19  C   UNL A   1      32.228  18.702  23.514  1.00  0.00     0.049 C 
ATOM     20  C   UNL A   1      32.229  20.142  23.049  1.00  0.00     0.266 C 
ATOM     21  C   UNL A   1      32.855  17.796  22.456  1.00  0.00     0.014 C 
ATOM     22  H   UNL A   1      31.467  21.451  24.440  1.00  0.00     0.348 HD
ENDBRANCH  14  15
ENDBRANCH   9  14
ENDBRANCH   7   8
ENDBRANCH   3   6
ENDBRANCH   1   2
BRANCH   1  23
ATOM     23  C   UNL A   1      38.130  20.071  24.991  1.00  0.00     0.042 C 
BRANCH  23  24
ATOM     24  C   UNL A   1      39.262  20.275  25.973  1.00  0.00     0.118 C 
BRANCH  24  25
ATOM     25  N   UNL A   1      40.246  19.193  25.953  1.00  0.00    -0.352 N 
ATOM     26  C   UNL A   1      41.615  19.232  26.085  1.00  0.00     0.251 C 
ATOM     27  H   UNL A   1      39.869  18.293  25.824  1.00  0.00     0.163 HD
ATOM     28  O   UNL A   1      42.276  18.209  25.918  1.00  0.00    -0.269 OA
BRANCH  26  29
ATOM     29  C   UNL A   1      42.300  20.509  26.383  1.00  0.00     0.039 A 
ATOM     30  C   UNL A   1      42.795  21.283  25.329  1.00  0.00     0.014 A 
ATOM     31  C   UNL A   1      42.422  20.964  27.695  1.00  0.00     0.014 A 
ATOM     32  C   UNL A   1      43.319  22.551  25.590  1.00  0.00     0.010 A 
ATOM     33  C   UNL A   1      42.816  22.272  27.938  1.00  0.00     0.010 A 
ATOM     34  C   UNL A   1      43.281  23.079  26.891  1.00  0.00    -0.014 A 
BRANCH  34  35
ATOM     35  C   UNL A   1      43.741  24.459  27.195  1.00  0.00     0.031 A 
ATOM     36  C   UNL A   1      42.760  25.472  27.723  1.00  0.00     0.074 A 
ATOM     37  C   UNL A   1      45.007  24.824  26.916  1.00  0.00     0.049 A 
ATOM     38  N   UNL A   1      42.925  26.752  27.941  1.00  0.00    -0.248 NA
ATOM     39  C   UNL A   1      41.396  24.992  27.999  1.00  0.00     0.031 C 
ATOM     40  C   UNL A   1      46.037  23.954  26.345  1.00  0.00     0.029 A 
ATOM     41  N   UNL A   1      45.643  26.031  27.066  1.00  0.00    -0.354 N 
ATOM     42  C   UNL A   1      41.687  27.227  28.357  1.00  0.00     0.074 A 
ATOM     43  C   UNL A   1      40.762  26.118  28.288  1.00  0.00     0.031 C 
ATOM     44  C   UNL A   1      47.182  24.644  26.225  1.00  0.00     0.029 A 
ATOM     45  C   UNL A   1      46.958  26.015  26.670  1.00  0.00     0.049 A 
ATOM     46  H   UNL A   1      45.198  26.834  27.425  1.00  0.00     0.167 HD
ATOM     47  C   UNL A   1      41.356  28.465  28.790  1.00  0.00     0.037 A 
ATOM     48  C   UNL A   1      47.878  27.000  26.663  1.00  0.00     0.037 A 
ATOM     49  C   UNL A   1      42.289  29.555  28.897  1.00  0.00     0.049 A 
ATOM     50  C   UNL A   1      47.488  28.366  27.159  1.00  0.00     0.074 A 
ATOM     51  C   UNL A   1      42.072  30.832  29.380  1.00  0.00     0.029 A 
ATOM     52  N   UNL A   1      43.622  29.490  28.518  1.00  0.00    -0.354 N 
ATOM     53  N   UNL A   1      46.330  28.785  27.612  1.00  0.00    -0.248 NA
ATOM     54  C   UNL A   1      48.535  29.396  27.149  1.00  0.00     0.031 C 
ATOM     55  C   UNL A   1      43.265  31.554  29.257  1.00  0.00     0.029 A 
ATOM     56  C   UNL A   1      44.237  30.709  28.743  1.00  0.00     0.049 A 
ATOM     57  H   UNL A   1      44.065  28.694  28.144  1.00  0.00     0.167 HD
ATOM     58  C   UNL A   1      46.518  30.113  27.970  1.00  0.00     0.074 A 
ATOM     59  C   UNL A   1      47.905  30.427  27.696  1.00  0.00     0.031 C 
ATOM     60  C   UNL A   1      45.624  30.995  28.478  1.00  0.00     0.037 A 
BRANCH  47  61
ATOM     61  C   UNL A   1      39.931  28.698  29.200  1.00  0.00     0.064 A 
ATOM     62  C   UNL A   1      39.496  28.460  30.513  1.00  0.00     0.173 A 
ATOM     63  C   UNL A   1      38.993  29.186  28.278  1.00  0.00     0.173 A 
ATOM     64  F   UNL A   1      40.348  27.978  31.430  1.00  0.00    -0.203 F 
ATOM     65  C   UNL A   1      38.168  28.669  30.878  1.00  0.00     0.198 A 
ATOM     66  C   UNL A   1      37.674  29.426  28.656  1.00  0.00     0.198 A 
ATOM     67  F   UNL A   1      39.356  29.435  27.010  1.00  0.00    -0.203 F 
ATOM     68  F   UNL A   1      37.764  28.378  32.123  1.00  0.00    -0.200 F 
ATOM     69  C   UNL A   1      37.260  29.159  29.952  1.00  0.00     0.200 A 
ATOM     70  F   UNL A   1      36.800  29.913  27.763  1.00  0.00    -0.200 F 
ATOM     71  F   UNL A   1      35.985  29.364  30.307  1.00  0.00    -0.200 F 
ENDBRANCH  47  61
BRANCH  48  72
ATOM     72  C   UNL A   1      49.265  26.724  26.205  1.00  0.00     0.064 A 
ATOM     73  C   UNL A   1      49.642  26.963  24.876  1.00  0.00     0.173 A 
ATOM     74  C   UNL A   1      50.235  26.204  27.074  1.00  0.00     0.173 A 
ATOM     75  F   UNL A   1      48.743  27.441  24.002  1.00  0.00    -0.203 F 
ATOM     76  C   UNL A   1      50.927  26.668  24.426  1.00  0.00     0.198 A 
ATOM     77  C   UNL A   1      51.529  25.938  26.630  1.00  0.00     0.198 A 
ATOM     78  F   UNL A   1      49.929  25.963  28.356  1.00  0.00    -0.203 F 
ATOM     79  F   UNL A   1      51.243  26.858  23.138  1.00  0.00    -0.200 F 
ATOM     80  C   UNL A   1      51.871  26.160  25.305  1.00  0.00     0.200 A 
ATOM     81  F   UNL A   1      52.443  25.460  27.485  1.00  0.00    -0.200 F 
ATOM     82  F   UNL A   1      53.107  25.877  24.872  1.00  0.00    -0.200 F 
ENDBRANCH  48  72
BRANCH  60  83
ATOM     83  C   UNL A   1      46.127  32.368  28.813  1.00  0.00     0.064 A 
ATOM     84  C   UNL A   1      46.055  33.424  27.894  1.00  0.00     0.173 A 
ATOM     85  C   UNL A   1      46.652  32.639  30.086  1.00  0.00     0.173 A 
ATOM     86  F   UNL A   1      45.575  33.212  26.659  1.00  0.00    -0.203 F 
ATOM     87  C   UNL A   1      46.516  34.695  28.227  1.00  0.00     0.198 A 
ATOM     88  C   UNL A   1      47.083  33.917  30.427  1.00  0.00     0.198 A 
ATOM     89  F   UNL A   1      46.735  31.665  31.004  1.00  0.00    -0.203 F 
ATOM     90  F   UNL A   1      46.484  35.677  27.315  1.00  0.00    -0.200 F 
ATOM     91  C   UNL A   1      47.023  34.942  29.494  1.00  0.00     0.200 A 
ATOM     92  F   UNL A   1      47.558  34.157  31.656  1.00  0.00    -0.200 F 
ATOM     93  F   UNL A   1      47.460  36.168  29.815  1.00  0.00    -0.200 F 
ENDBRANCH  60  83
ENDBRANCH  34  35
ENDBRANCH  26  29
ENDBRANCH  24  25
ENDBRANCH  23  24
ENDBRANCH   1  23
TORSDOF 13
ENDMDL
MODEL 3
REMARK VINA RESULT:     -12.8      6.272     11.659
REMARK SMILES C[C@@H]1C[NH+](Cc2ccccc2/C=C/C(=O)NCCCNC(=O)c2ccc(-c3c4nc(c(-c5c(F)c(F)c(F)c(F)c5F)c5ccc([nH]5)c(-c5c(F)c(F)c(F)c(F)c5F)c5nc(c(-c6c(F)c(F)c(F)c(F)c6F)c6ccc3[nH]6)C=C5)C=C4)cc2)C[C@H]1C
REMARK SMILES IDX 17 1 16 2 14 3 15 4 13 6 12 7 11 8 6 9 7 10 8 11 10 12 9 13
REMARK SMILES IDX 5 14 4 15 1 16 2 17 3 18 87 19 86 20 88 21 18 23 19 24 20 25
REMARK SMILES IDX 21 26 22 28 23 29 24 30 85 31 25 32 84 33 26 34 27 35 28 36
REMARK SMILES IDX 78 37 29 38 83 39 77 40 79 41 30 42 82 43 76 44 75 45 31 47
REMARK SMILES IDX 63 48 43 49 62 50 44 51 47 52 61 53 80 54 45 55 46 56 60 58
REMARK SMILES IDX 81 59 48 60 32 61 33 62 41 63 34 64 35 65 39 66 42 67 36 68
REMARK SMILES IDX 37 69 40 70 38 71 64 72 65 73 73 74 66 75 67 76 71 77 74 78
REMARK SMILES IDX 68 79 69 80 72 81 70 82 49 83 50 84 58 85 51 86 52 87 56 88
REMARK SMILES IDX 59 89 53 90 54 91 57 92 55 93
REMARK H PARENT 16 5 4 22 20 27 79 46 47 57
REMARK Flexibility Score: inf
ROOT
ATOM      1  C   UNL A   1      37.404  21.243  24.602  1.00  0.00     0.118 C 
ENDROOT
BRANCH   1   2
ATOM      2  N   UNL A   1      38.019  22.453  25.094  1.00  0.00    -0.352 N 
ATOM      3  C   UNL A   1      37.428  23.496  25.748  1.00  0.00     0.244 C 
ATOM      4  O   UNL A   1      38.127  24.336  26.308  1.00  0.00    -0.270 OA
ATOM      5  H   UNL A   1      38.988  22.537  24.940  1.00  0.00     0.163 HD
BRANCH   3   6
ATOM      6  C   UNL A   1      35.951  23.571  25.880  1.00  0.00     0.072 C 
ATOM      7  C   UNL A   1      35.138  24.295  25.090  1.00  0.00     0.014 C 
BRANCH   7   8
ATOM      8  C   UNL A   1      33.677  24.341  25.286  1.00  0.00    -0.017 A 
ATOM      9  C   UNL A   1      32.769  23.386  24.762  1.00  0.00     0.013 A 
ATOM     10  C   UNL A   1      31.385  23.631  24.915  1.00  0.00     0.010 A 
ATOM     11  C   UNL A   1      30.907  24.750  25.595  1.00  0.00     0.001 A 
ATOM     12  C   UNL A   1      33.172  25.459  25.979  1.00  0.00     0.008 A 
ATOM     13  C   UNL A   1      31.802  25.659  26.139  1.00  0.00     0.001 A 
BRANCH   9  14
ATOM     14  C   UNL A   1      33.156  22.122  24.001  1.00  0.00     0.299 C 
BRANCH  14  15
ATOM     15  N   UNL A   1      32.402  20.885  24.260  1.00  0.00    -0.331 N 
ATOM     16  C   UNL A   1      32.906  17.521  25.753  1.00  0.00     0.014 C 
ATOM     17  C   UNL A   1      33.159  18.686  24.809  1.00  0.00     0.049 C 
ATOM     18  C   UNL A   1      32.778  20.049  25.398  1.00  0.00     0.266 C 
ATOM     19  C   UNL A   1      32.306  18.589  23.549  1.00  0.00     0.049 C 
ATOM     20  C   UNL A   1      32.254  20.032  23.096  1.00  0.00     0.266 C 
ATOM     21  C   UNL A   1      32.914  17.706  22.461  1.00  0.00     0.014 C 
ATOM     22  H   UNL A   1      31.515  21.312  24.527  1.00  0.00     0.348 HD
ENDBRANCH  14  15
ENDBRANCH   9  14
ENDBRANCH   7   8
ENDBRANCH   3   6
ENDBRANCH   1   2
BRANCH   1  23
ATOM     23  C   UNL A   1      38.118  19.972  24.999  1.00  0.00     0.042 C 
BRANCH  23  24
ATOM     24  C   UNL A   1      39.257  20.213  25.964  1.00  0.00     0.118 C 
BRANCH  24  25
ATOM     25  N   UNL A   1      40.242  19.133  25.978  1.00  0.00    -0.352 N 
ATOM     26  C   UNL A   1      41.609  19.175  26.126  1.00  0.00     0.251 C 
ATOM     27  H   UNL A   1      39.867  18.230  25.862  1.00  0.00     0.163 HD
ATOM     28  O   UNL A   1      42.273  18.150  25.988  1.00  0.00    -0.269 OA
BRANCH  26  29
ATOM     29  C   UNL A   1      42.289  20.458  26.409  1.00  0.00     0.039 A 
ATOM     30  C   UNL A   1      42.881  21.166  25.358  1.00  0.00     0.014 A 
ATOM     31  C   UNL A   1      42.314  20.985  27.700  1.00  0.00     0.014 A 
ATOM     32  C   UNL A   1      43.403  22.440  25.591  1.00  0.00     0.010 A 
ATOM     33  C   UNL A   1      42.708  22.299  27.902  1.00  0.00     0.010 A 
ATOM     34  C   UNL A   1      43.269  23.040  26.853  1.00  0.00    -0.014 A 
BRANCH  34  35
ATOM     35  C   UNL A   1      43.727  24.429  27.118  1.00  0.00     0.031 A 
ATOM     36  C   UNL A   1      42.747  25.451  27.632  1.00  0.00     0.074 A 
ATOM     37  C   UNL A   1      44.988  24.793  26.815  1.00  0.00     0.049 A 
ATOM     38  N   UNL A   1      42.910  26.737  27.816  1.00  0.00    -0.248 NA
ATOM     39  C   UNL A   1      41.389  24.972  27.936  1.00  0.00     0.031 C 
ATOM     40  C   UNL A   1      46.015  23.913  26.252  1.00  0.00     0.029 A 
ATOM     41  N   UNL A   1      45.620  26.005  26.927  1.00  0.00    -0.354 N 
ATOM     42  C   UNL A   1      41.674  27.216  28.234  1.00  0.00     0.074 A 
ATOM     43  C   UNL A   1      40.754  26.102  28.204  1.00  0.00     0.031 C 
ATOM     44  C   UNL A   1      47.155  24.605  26.102  1.00  0.00     0.029 A 
ATOM     45  C   UNL A   1      46.931  25.986  26.515  1.00  0.00     0.049 A 
ATOM     46  H   UNL A   1      45.176  26.815  27.271  1.00  0.00     0.167 HD
ATOM     47  C   UNL A   1      41.344  28.464  28.641  1.00  0.00     0.037 A 
ATOM     48  C   UNL A   1      47.846  26.974  26.473  1.00  0.00     0.037 A 
ATOM     49  C   UNL A   1      42.272  29.560  28.710  1.00  0.00     0.049 A 
ATOM     50  C   UNL A   1      47.455  28.350  26.939  1.00  0.00     0.074 A 
ATOM     51  C   UNL A   1      42.056  30.848  29.163  1.00  0.00     0.029 A 
ATOM     52  N   UNL A   1      43.601  29.491  28.317  1.00  0.00    -0.354 N 
ATOM     53  N   UNL A   1      46.301  28.775  27.395  1.00  0.00    -0.248 NA
ATOM     54  C   UNL A   1      48.498  29.384  26.892  1.00  0.00     0.031 C 
ATOM     55  C   UNL A   1      43.244  31.571  29.009  1.00  0.00     0.029 A 
ATOM     56  C   UNL A   1      44.213  30.718  28.504  1.00  0.00     0.049 A 
ATOM     57  H   UNL A   1      44.043  28.688  27.957  1.00  0.00     0.167 HD
ATOM     58  C   UNL A   1      46.487  30.113  27.718  1.00  0.00     0.074 A 
ATOM     59  C   UNL A   1      47.869  30.425  27.421  1.00  0.00     0.031 C 
ATOM     60  C   UNL A   1      45.595  31.003  28.215  1.00  0.00     0.037 A 
BRANCH  47  61
ATOM     61  C   UNL A   1      39.922  28.701  29.062  1.00  0.00     0.064 A 
ATOM     62  C   UNL A   1      38.949  29.140  28.150  1.00  0.00     0.173 A 
ATOM     63  C   UNL A   1      39.519  28.465  30.385  1.00  0.00     0.173 A 
ATOM     64  F   UNL A   1      39.284  29.396  26.876  1.00  0.00    -0.203 F 
ATOM     65  C   UNL A   1      37.636  29.367  28.554  1.00  0.00     0.198 A 
ATOM     66  C   UNL A   1      38.197  28.660  30.777  1.00  0.00     0.198 A 
ATOM     67  F   UNL A   1      40.406  28.040  31.297  1.00  0.00    -0.203 F 
ATOM     68  F   UNL A   1      36.740  29.842  27.678  1.00  0.00    -0.200 F 
ATOM     69  C   UNL A   1      37.259  29.119  29.865  1.00  0.00     0.200 A 
ATOM     70  F   UNL A   1      37.831  28.408  32.042  1.00  0.00    -0.200 F 
ATOM     71  F   UNL A   1      35.994  29.333  30.251  1.00  0.00    -0.200 F 
ENDBRANCH  47  61
BRANCH  48  72
ATOM     72  C   UNL A   1      49.228  26.693  26.006  1.00  0.00     0.064 A 
ATOM     73  C   UNL A   1      49.603  26.950  24.679  1.00  0.00     0.173 A 
ATOM     74  C   UNL A   1      50.197  26.149  26.862  1.00  0.00     0.173 A 
ATOM     75  F   UNL A   1      48.706  27.451  23.816  1.00  0.00    -0.203 F 
ATOM     76  C   UNL A   1      50.884  26.651  24.220  1.00  0.00     0.198 A 
ATOM     77  C   UNL A   1      51.487  25.878  26.409  1.00  0.00     0.198 A 
ATOM     78  F   UNL A   1      49.893  25.889  28.141  1.00  0.00    -0.203 F 
ATOM     79  F   UNL A   1      51.197  26.859  22.934  1.00  0.00    -0.200 F 
ATOM     80  C   UNL A   1      51.826  26.119  25.087  1.00  0.00     0.200 A 
ATOM     81  F   UNL A   1      52.399  25.377  27.253  1.00  0.00    -0.200 F 
ATOM     82  F   UNL A   1      53.058  25.831  24.644  1.00  0.00    -0.200 F 
ENDBRANCH  48  72
BRANCH  60  83
ATOM     83  C   UNL A   1      46.097  32.386  28.510  1.00  0.00     0.064 A 
ATOM     84  C   UNL A   1      46.656  32.719  29.751  1.00  0.00     0.173 A 
ATOM     85  C   UNL A   1      46.054  33.381  27.520  1.00  0.00     0.173 A 
ATOM     86  F   UNL A   1      46.705  31.808  30.735  1.00  0.00    -0.203 F 
ATOM     87  C   UNL A   1      47.127  34.005  30.002  1.00  0.00     0.198 A 
ATOM     88  C   UNL A   1      46.554  34.656  27.763  1.00  0.00     0.198 A 
ATOM     89  F   UNL A   1      45.536  33.110  26.312  1.00  0.00    -0.203 F 
ATOM     90  F   UNL A   1      47.610  34.315  31.213  1.00  0.00    -0.200 F 
ATOM     91  C   UNL A   1      47.083  34.970  29.006  1.00  0.00     0.200 A 
ATOM     92  F   UNL A   1      46.524  35.581  26.795  1.00  0.00    -0.200 F 
ATOM     93  F   UNL A   1      47.543  36.205  29.246  1.00  0.00    -0.200 F 
ENDBRANCH  60  83
ENDBRANCH  34  35
ENDBRANCH  26  29
ENDBRANCH  24  25
ENDBRANCH  23  24
ENDBRANCH   1  23
TORSDOF 13
ENDMDL
