MODEL 1
REMARK VINA RESULT:     -12.5      0.000      0.000
REMARK SMILES CC(C)(C)OC(=O)N1CC[N@H+](Cc2ccc(Cl)nc2)[C@H](C(=O)NCCCNC(=O)c2ccc(-c3c4nc(c(-c5c(F)c(F)c(F)c(F)c5F)c5ccc([nH]5)c(-c5c(F)c(F)c(F)c(F)c5F)c5nc(c(-c6c(F)c(F)c(F)c(F)c6F)c6ccc3[nH]6)C=C5)C=C4)cc2)C1
REMARK SMILES IDX 24 1 23 2 21 3 22 4 20 6 8 7 9 8 93 9 10 10 11 11 6 13 7 14
REMARK SMILES IDX 5 15 2 16 1 17 3 18 4 19 12 20 13 21 14 22 19 23 15 24 18 25
REMARK SMILES IDX 16 26 17 27 25 28 26 29 27 30 28 31 29 33 30 34 31 35 92 36
REMARK SMILES IDX 32 37 91 38 33 39 34 40 35 41 85 42 36 43 90 44 84 45 86 46
REMARK SMILES IDX 37 47 89 48 83 49 82 50 38 52 70 53 50 54 69 55 51 56 54 57
REMARK SMILES IDX 68 58 87 59 52 60 53 61 67 63 88 64 55 65 39 66 40 67 48 68
REMARK SMILES IDX 41 69 42 70 46 71 49 72 43 73 44 74 47 75 45 76 71 77 72 78
REMARK SMILES IDX 80 79 73 80 74 81 78 82 81 83 75 84 76 85 79 86 77 87 56 88
REMARK SMILES IDX 57 89 65 90 58 91 59 92 63 93 66 94 60 95 61 96 64 97 62 98
REMARK H PARENT 23 5 11 12 27 32 86 51 54 62
REMARK Flexibility Score: inf
ROOT
ATOM      1  C   UNL A   1      31.682  30.034  26.573  1.00  0.00     0.118 C 
ENDROOT
BRANCH   1   2
ATOM      2  N   UNL A   1      32.500  29.614  25.449  1.00  0.00    -0.351 N 
ATOM      3  C   UNL A   1      32.829  28.351  25.044  1.00  0.00     0.280 C 
ATOM      4  O   UNL A   1      33.698  28.245  24.177  1.00  0.00    -0.268 OA
ATOM      5  H   UNL A   1      32.870  30.343  24.901  1.00  0.00     0.163 HD
BRANCH   3   6
ATOM      6  C   UNL A   1      32.083  27.138  25.622  1.00  0.00     0.294 C 
ATOM      7  N   UNL A   1      32.219  24.719  26.171  1.00  0.00    -0.296 N 
ATOM      8  C   UNL A   1      30.830  24.537  25.778  1.00  0.00     0.184 C 
ATOM      9  C   UNL A   1      32.944  25.865  25.606  1.00  0.00     0.198 C 
ATOM     10  C   UNL A   1      30.034  25.852  25.654  1.00  0.00     0.285 C 
ATOM     11  N   UNL A   1      30.728  26.984  25.019  1.00  0.00    -0.318 N 
ATOM     12  H   UNL A   1      30.242  27.853  25.242  1.00  0.00     0.349 HD
BRANCH   7  13
ATOM     13  C   UNL A   1      32.860  23.638  26.739  1.00  0.00     0.410 C 
ATOM     14  O   UNL A   1      32.395  23.012  27.682  1.00  0.00    -0.224 OA
BRANCH  13  15
ATOM     15  O   UNL A   1      34.090  23.438  26.203  1.00  0.00    -0.444 OA
BRANCH  15  16
ATOM     16  C   UNL A   1      34.299  22.392  25.219  1.00  0.00     0.106 C 
ATOM     17  C   UNL A   1      35.009  21.269  25.988  1.00  0.00     0.056 C 
ATOM     18  C   UNL A   1      35.214  22.914  24.110  1.00  0.00     0.056 C 
ATOM     19  C   UNL A   1      32.993  21.812  24.649  1.00  0.00     0.056 C 
ENDBRANCH  15  16
ENDBRANCH  13  15
ENDBRANCH   7  13
BRANCH  11  20
ATOM     20  C   UNL A   1      30.590  27.057  23.551  1.00  0.00     0.301 C 
BRANCH  20  21
ATOM     21  C   UNL A   1      29.851  28.221  22.940  1.00  0.00     0.025 A 
ATOM     22  C   UNL A   1      28.475  28.406  23.123  1.00  0.00     0.014 A 
ATOM     23  C   UNL A   1      30.511  29.176  22.169  1.00  0.00     0.122 A 
ATOM     24  C   UNL A   1      27.810  29.422  22.438  1.00  0.00     0.041 A 
ATOM     25  N   UNL A   1      29.898  30.186  21.509  1.00  0.00    -0.244 NA
ATOM     26  C   UNL A   1      28.561  30.263  21.639  1.00  0.00     0.129 A 
ATOM     27  Cl  UNL A   1      27.818  31.494  20.709  1.00  0.00    -0.062 Cl
ENDBRANCH  20  21
ENDBRANCH  11  20
ENDBRANCH   3   6
ENDBRANCH   1   2
BRANCH   1  28
ATOM     28  C   UNL A   1      31.468  31.549  26.562  1.00  0.00     0.042 C 
BRANCH  28  29
ATOM     29  C   UNL A   1      32.735  32.355  26.861  1.00  0.00     0.118 C 
BRANCH  29  30
ATOM     30  N   UNL A   1      32.440  33.700  27.332  1.00  0.00    -0.352 N 
ATOM     31  C   UNL A   1      32.985  34.427  28.360  1.00  0.00     0.251 C 
ATOM     32  H   UNL A   1      31.733  34.166  26.829  1.00  0.00     0.163 HD
ATOM     33  O   UNL A   1      32.451  35.478  28.707  1.00  0.00    -0.269 OA
BRANCH  31  34
ATOM     34  C   UNL A   1      34.196  33.957  29.068  1.00  0.00     0.039 A 
ATOM     35  C   UNL A   1      34.044  33.057  30.127  1.00  0.00     0.014 A 
ATOM     36  C   UNL A   1      35.466  34.433  28.734  1.00  0.00     0.014 A 
ATOM     37  C   UNL A   1      35.168  32.581  30.806  1.00  0.00     0.010 A 
ATOM     38  C   UNL A   1      36.593  33.917  29.375  1.00  0.00     0.010 A 
ATOM     39  C   UNL A   1      36.455  32.980  30.411  1.00  0.00    -0.014 A 
BRANCH  39  40
ATOM     40  C   UNL A   1      37.669  32.404  31.043  1.00  0.00     0.031 A 
ATOM     41  C   UNL A   1      38.428  31.295  30.368  1.00  0.00     0.074 A 
ATOM     42  C   UNL A   1      38.039  32.825  32.269  1.00  0.00     0.049 A 
ATOM     43  N   UNL A   1      39.436  30.590  30.817  1.00  0.00    -0.248 NA
ATOM     44  C   UNL A   1      37.980  30.911  29.021  1.00  0.00     0.031 C 
ATOM     45  C   UNL A   1      37.363  33.867  33.044  1.00  0.00     0.029 A 
ATOM     46  N   UNL A   1      39.060  32.411  33.089  1.00  0.00    -0.354 N 
ATOM     47  C   UNL A   1      39.726  29.666  29.823  1.00  0.00     0.074 A 
ATOM     48  C   UNL A   1      38.773  29.881  28.754  1.00  0.00     0.031 C 
ATOM     49  C   UNL A   1      37.986  34.011  34.225  1.00  0.00     0.029 A 
ATOM     50  C   UNL A   1      39.079  33.047  34.307  1.00  0.00     0.049 A 
ATOM     51  H   UNL A   1      39.717  31.726  32.829  1.00  0.00     0.167 HD
ATOM     52  C   UNL A   1      40.705  28.732  29.800  1.00  0.00     0.037 A 
ATOM     53  C   UNL A   1      39.873  32.859  35.378  1.00  0.00     0.037 A 
ATOM     54  C   UNL A   1      41.680  28.549  30.844  1.00  0.00     0.049 A 
ATOM     55  C   UNL A   1      40.955  31.815  35.319  1.00  0.00     0.074 A 
ATOM     56  C   UNL A   1      42.766  27.691  30.866  1.00  0.00     0.029 A 
ATOM     57  N   UNL A   1      41.686  29.233  32.049  1.00  0.00    -0.354 N 
ATOM     58  N   UNL A   1      41.268  31.002  34.341  1.00  0.00    -0.248 NA
ATOM     59  C   UNL A   1      41.798  31.666  36.514  1.00  0.00     0.031 C 
ATOM     60  C   UNL A   1      43.404  27.822  32.105  1.00  0.00     0.029 A 
ATOM     61  C   UNL A   1      42.741  28.795  32.834  1.00  0.00     0.049 A 
ATOM     62  H   UNL A   1      41.037  29.926  32.308  1.00  0.00     0.167 HD
ATOM     63  C   UNL A   1      42.356  30.267  34.788  1.00  0.00     0.074 A 
ATOM     64  C   UNL A   1      42.662  30.740  36.122  1.00  0.00     0.031 C 
ATOM     65  C   UNL A   1      43.040  29.285  34.153  1.00  0.00     0.037 A 
BRANCH  52  66
ATOM     66  C   UNL A   1      40.789  27.826  28.608  1.00  0.00     0.064 A 
ATOM     67  C   UNL A   1      40.064  26.628  28.542  1.00  0.00     0.173 A 
ATOM     68  C   UNL A   1      41.538  28.204  27.483  1.00  0.00     0.173 A 
ATOM     69  F   UNL A   1      39.339  26.219  29.594  1.00  0.00    -0.203 F 
ATOM     70  C   UNL A   1      40.091  25.838  27.395  1.00  0.00     0.198 A 
ATOM     71  C   UNL A   1      41.546  27.424  26.331  1.00  0.00     0.198 A 
ATOM     72  F   UNL A   1      42.245  29.345  27.494  1.00  0.00    -0.203 F 
ATOM     73  F   UNL A   1      39.408  24.685  27.362  1.00  0.00    -0.200 F 
ATOM     74  C   UNL A   1      40.824  26.240  26.288  1.00  0.00     0.200 A 
ATOM     75  F   UNL A   1      42.243  27.822  25.258  1.00  0.00    -0.200 F 
ATOM     76  F   UNL A   1      40.834  25.488  25.180  1.00  0.00    -0.200 F 
ENDBRANCH  52  66
BRANCH  53  77
ATOM     77  C   UNL A   1      39.676  33.671  36.607  1.00  0.00     0.064 A 
ATOM     78  C   UNL A   1      38.791  33.254  37.611  1.00  0.00     0.173 A 
ATOM     79  C   UNL A   1      40.339  34.894  36.787  1.00  0.00     0.173 A 
ATOM     80  F   UNL A   1      38.117  32.103  37.473  1.00  0.00    -0.203 F 
ATOM     81  C   UNL A   1      38.554  34.043  38.735  1.00  0.00     0.198 A 
ATOM     82  C   UNL A   1      40.124  35.668  37.926  1.00  0.00     0.198 A 
ATOM     83  F   UNL A   1      41.199  35.335  35.858  1.00  0.00    -0.203 F 
ATOM     84  F   UNL A   1      37.660  33.648  39.651  1.00  0.00    -0.200 F 
ATOM     85  C   UNL A   1      39.222  35.248  38.892  1.00  0.00     0.200 A 
ATOM     86  F   UNL A   1      40.781  36.825  38.080  1.00  0.00    -0.200 F 
ATOM     87  F   UNL A   1      38.990  36.009  39.970  1.00  0.00    -0.200 F 
ENDBRANCH  53  77
BRANCH  65  88
ATOM     88  C   UNL A   1      44.209  28.684  34.876  1.00  0.00     0.064 A 
ATOM     89  C   UNL A   1      44.070  27.534  35.667  1.00  0.00     0.173 A 
ATOM     90  C   UNL A   1      45.488  29.245  34.748  1.00  0.00     0.173 A 
ATOM     91  F   UNL A   1      42.864  26.971  35.833  1.00  0.00    -0.203 F 
ATOM     92  C   UNL A   1      45.168  26.981  36.322  1.00  0.00     0.198 A 
ATOM     93  C   UNL A   1      46.587  28.673  35.383  1.00  0.00     0.198 A 
ATOM     94  F   UNL A   1      45.674  30.342  33.999  1.00  0.00    -0.203 F 
ATOM     95  F   UNL A   1      45.004  25.908  37.109  1.00  0.00    -0.200 F 
ATOM     96  C   UNL A   1      46.424  27.546  36.174  1.00  0.00     0.200 A 
ATOM     97  F   UNL A   1      47.804  29.214  35.229  1.00  0.00    -0.200 F 
ATOM     98  F   UNL A   1      47.480  27.009  36.801  1.00  0.00    -0.200 F 
ENDBRANCH  65  88
ENDBRANCH  39  40
ENDBRANCH  31  34
ENDBRANCH  29  30
ENDBRANCH  28  29
ENDBRANCH   1  28
TORSDOF 15
ENDMDL
MODEL 2
REMARK VINA RESULT:     -12.4      5.624     11.186
REMARK SMILES CC(C)(C)OC(=O)N1CC[N@H+](Cc2ccc(Cl)nc2)[C@H](C(=O)NCCCNC(=O)c2ccc(-c3c4nc(c(-c5c(F)c(F)c(F)c(F)c5F)c5ccc([nH]5)c(-c5c(F)c(F)c(F)c(F)c5F)c5nc(c(-c6c(F)c(F)c(F)c(F)c6F)c6ccc3[nH]6)C=C5)C=C4)cc2)C1
REMARK SMILES IDX 24 1 23 2 21 3 22 4 20 6 8 7 9 8 93 9 10 10 11 11 6 13 7 14
REMARK SMILES IDX 5 15 2 16 1 17 3 18 4 19 12 20 13 21 14 22 19 23 15 24 18 25
REMARK SMILES IDX 16 26 17 27 25 28 26 29 27 30 28 31 29 33 30 34 31 35 92 36
REMARK SMILES IDX 32 37 91 38 33 39 34 40 35 41 85 42 36 43 90 44 84 45 86 46
REMARK SMILES IDX 37 47 89 48 83 49 82 50 38 52 70 53 50 54 69 55 51 56 54 57
REMARK SMILES IDX 68 58 87 59 52 60 53 61 67 63 88 64 55 65 39 66 40 67 48 68
REMARK SMILES IDX 41 69 42 70 46 71 49 72 43 73 44 74 47 75 45 76 71 77 72 78
REMARK SMILES IDX 80 79 73 80 74 81 78 82 81 83 75 84 76 85 79 86 77 87 56 88
REMARK SMILES IDX 57 89 65 90 58 91 59 92 63 93 66 94 60 95 61 96 64 97 62 98
REMARK H PARENT 23 5 11 12 27 32 86 51 54 62
REMARK Flexibility Score: inf
ROOT
ATOM      1  C   UNL A   1      36.792  20.802  24.606  1.00  0.00     0.118 C 
ENDROOT
BRANCH   1   2
ATOM      2  N   UNL A   1      35.933  21.160  25.720  1.00  0.00    -0.351 N 
ATOM      3  C   UNL A   1      35.035  22.185  25.824  1.00  0.00     0.280 C 
ATOM      4  O   UNL A   1      34.560  22.409  26.939  1.00  0.00    -0.268 OA
ATOM      5  H   UNL A   1      36.006  20.581  26.513  1.00  0.00     0.163 HD
BRANCH   3   6
ATOM      6  C   UNL A   1      34.609  22.967  24.571  1.00  0.00     0.294 C 
ATOM      7  N   UNL A   1      33.678  25.100  23.704  1.00  0.00    -0.296 N 
ATOM      8  C   UNL A   1      32.933  24.377  22.685  1.00  0.00     0.184 C 
ATOM      9  C   UNL A   1      34.071  24.365  24.914  1.00  0.00     0.198 C 
ATOM     10  C   UNL A   1      33.402  22.924  22.475  1.00  0.00     0.285 C 
ATOM     11  N   UNL A   1      33.724  22.154  23.688  1.00  0.00    -0.318 N 
ATOM     12  H   UNL A   1      34.282  21.338  23.437  1.00  0.00     0.349 HD
BRANCH   7  13
ATOM     13  C   UNL A   1      33.654  26.478  23.645  1.00  0.00     0.410 C 
ATOM     14  O   UNL A   1      33.548  27.094  22.593  1.00  0.00    -0.224 OA
BRANCH  13  15
ATOM     15  O   UNL A   1      33.870  27.042  24.859  1.00  0.00    -0.444 OA
BRANCH  15  16
ATOM     16  C   UNL A   1      32.892  27.950  25.430  1.00  0.00     0.106 C 
ATOM     17  C   UNL A   1      33.359  28.165  26.876  1.00  0.00     0.056 C 
ATOM     18  C   UNL A   1      31.517  27.280  25.429  1.00  0.00     0.056 C 
ATOM     19  C   UNL A   1      32.853  29.326  24.744  1.00  0.00     0.056 C 
ENDBRANCH  15  16
ENDBRANCH  13  15
ENDBRANCH   7  13
BRANCH  11  20
ATOM     20  C   UNL A   1      32.586  21.434  24.290  1.00  0.00     0.301 C 
BRANCH  20  21
ATOM     21  C   UNL A   1      32.681  19.940  24.484  1.00  0.00     0.025 A 
ATOM     22  C   UNL A   1      32.872  19.063  23.410  1.00  0.00     0.014 A 
ATOM     23  C   UNL A   1      32.594  19.366  25.751  1.00  0.00     0.122 A 
ATOM     24  C   UNL A   1      32.828  17.685  23.619  1.00  0.00     0.041 A 
ATOM     25  N   UNL A   1      32.571  18.034  25.989  1.00  0.00    -0.244 NA
ATOM     26  C   UNL A   1      32.659  17.232  24.914  1.00  0.00     0.129 A 
ATOM     27  Cl  UNL A   1      32.526  15.558  25.253  1.00  0.00    -0.062 Cl
ENDBRANCH  20  21
ENDBRANCH  11  20
ENDBRANCH   3   6
ENDBRANCH   1   2
BRANCH   1  28
ATOM     28  C   UNL A   1      37.775  19.698  25.001  1.00  0.00     0.042 C 
BRANCH  28  29
ATOM     29  C   UNL A   1      38.992  20.203  25.781  1.00  0.00     0.118 C 
BRANCH  29  30
ATOM     30  N   UNL A   1      40.042  19.200  25.883  1.00  0.00    -0.352 N 
ATOM     31  C   UNL A   1      41.397  19.339  26.054  1.00  0.00     0.251 C 
ATOM     32  H   UNL A   1      39.729  18.269  25.818  1.00  0.00     0.163 HD
ATOM     33  O   UNL A   1      42.126  18.360  25.920  1.00  0.00    -0.269 OA
BRANCH  31  34
ATOM     34  C   UNL A   1      41.993  20.652  26.384  1.00  0.00     0.039 A 
ATOM     35  C   UNL A   1      42.361  21.501  25.335  1.00  0.00     0.014 A 
ATOM     36  C   UNL A   1      42.239  21.030  27.707  1.00  0.00     0.014 A 
ATOM     37  C   UNL A   1      42.912  22.755  25.613  1.00  0.00     0.010 A 
ATOM     38  C   UNL A   1      42.737  22.303  27.985  1.00  0.00     0.010 A 
ATOM     39  C   UNL A   1      43.071  23.180  26.941  1.00  0.00    -0.014 A 
BRANCH  39  40
ATOM     40  C   UNL A   1      43.550  24.549  27.261  1.00  0.00     0.031 A 
ATOM     41  C   UNL A   1      42.595  25.593  27.768  1.00  0.00     0.074 A 
ATOM     42  C   UNL A   1      44.834  24.875  27.011  1.00  0.00     0.049 A 
ATOM     43  N   UNL A   1      42.802  26.867  27.989  1.00  0.00    -0.248 NA
ATOM     44  C   UNL A   1      41.218  25.153  28.043  1.00  0.00     0.031 C 
ATOM     45  C   UNL A   1      45.850  23.963  26.482  1.00  0.00     0.029 A 
ATOM     46  N   UNL A   1      45.499  26.069  27.146  1.00  0.00    -0.354 N 
ATOM     47  C   UNL A   1      41.581  27.384  28.401  1.00  0.00     0.074 A 
ATOM     48  C   UNL A   1      40.630  26.293  28.379  1.00  0.00     0.031 C 
ATOM     49  C   UNL A   1      47.007  24.629  26.337  1.00  0.00     0.029 A 
ATOM     50  C   UNL A   1      46.806  26.022  26.725  1.00  0.00     0.049 A 
ATOM     51  H   UNL A   1      45.079  26.882  27.510  1.00  0.00     0.167 HD
ATOM     52  C   UNL A   1      41.286  28.651  28.776  1.00  0.00     0.037 A 
ATOM     53  C   UNL A   1      47.731  26.995  26.640  1.00  0.00     0.037 A 
ATOM     54  C   UNL A   1      42.244  29.725  28.841  1.00  0.00     0.049 A 
ATOM     55  C   UNL A   1      47.373  28.393  27.068  1.00  0.00     0.074 A 
ATOM     56  C   UNL A   1      42.058  31.018  29.297  1.00  0.00     0.029 A 
ATOM     57  N   UNL A   1      43.566  29.630  28.436  1.00  0.00    -0.354 N 
ATOM     58  N   UNL A   1      46.236  28.850  27.530  1.00  0.00    -0.248 NA
ATOM     59  C   UNL A   1      48.430  29.409  26.965  1.00  0.00     0.031 C 
ATOM     60  C   UNL A   1      43.255  31.721  29.126  1.00  0.00     0.029 A 
ATOM     61  C   UNL A   1      44.199  30.851  28.606  1.00  0.00     0.049 A 
ATOM     62  H   UNL A   1      43.992  28.817  28.080  1.00  0.00     0.167 HD
ATOM     63  C   UNL A   1      46.447  30.195  27.799  1.00  0.00     0.074 A 
ATOM     64  C   UNL A   1      47.826  30.479  27.462  1.00  0.00     0.031 C 
ATOM     65  C   UNL A   1      45.575  31.115  28.279  1.00  0.00     0.037 A 
BRANCH  52  66
ATOM     66  C   UNL A   1      39.869  28.964  29.154  1.00  0.00     0.064 A 
ATOM     67  C   UNL A   1      38.921  29.349  28.197  1.00  0.00     0.173 A 
ATOM     68  C   UNL A   1      39.436  28.792  30.477  1.00  0.00     0.173 A 
ATOM     69  F   UNL A   1      39.287  29.534  26.919  1.00  0.00    -0.203 F 
ATOM     70  C   UNL A   1      37.590  29.559  28.552  1.00  0.00     0.198 A 
ATOM     71  C   UNL A   1      38.102  28.981  30.826  1.00  0.00     0.198 A 
ATOM     72  F   UNL A   1      40.305  28.418  31.430  1.00  0.00    -0.203 F 
ATOM     73  F   UNL A   1      36.704  29.950  27.625  1.00  0.00    -0.200 F 
ATOM     74  C   UNL A   1      37.180  29.366  29.863  1.00  0.00     0.200 A 
ATOM     75  F   UNL A   1      37.705  28.780  32.090  1.00  0.00    -0.200 F 
ATOM     76  F   UNL A   1      35.897  29.550  30.200  1.00  0.00    -0.200 F 
ENDBRANCH  52  66
BRANCH  53  77
ATOM     77  C   UNL A   1      49.091  26.693  26.122  1.00  0.00     0.064 A 
ATOM     78  C   UNL A   1      49.422  26.938  24.782  1.00  0.00     0.173 A 
ATOM     79  C   UNL A   1      50.073  26.119  26.942  1.00  0.00     0.173 A 
ATOM     80  F   UNL A   1      48.509  27.464  23.953  1.00  0.00    -0.203 F 
ATOM     81  C   UNL A   1      50.674  26.596  24.276  1.00  0.00     0.198 A 
ATOM     82  C   UNL A   1      51.335  25.804  26.443  1.00  0.00     0.198 A 
ATOM     83  F   UNL A   1      49.808  25.867  28.233  1.00  0.00    -0.203 F 
ATOM     84  F   UNL A   1      50.945  26.789  22.978  1.00  0.00    -0.200 F 
ATOM     85  C   UNL A   1      51.630  26.031  25.107  1.00  0.00     0.200 A 
ATOM     86  F   UNL A   1      52.260  25.271  27.251  1.00  0.00    -0.200 F 
ATOM     87  F   UNL A   1      52.832  25.696  24.618  1.00  0.00    -0.200 F 
ENDBRANCH  53  77
BRANCH  65  88
ATOM     88  C   UNL A   1      46.097  32.504  28.505  1.00  0.00     0.064 A 
ATOM     89  C   UNL A   1      46.741  32.860  29.699  1.00  0.00     0.173 A 
ATOM     90  C   UNL A   1      45.980  33.477  27.502  1.00  0.00     0.173 A 
ATOM     91  F   UNL A   1      46.861  31.967  30.693  1.00  0.00    -0.203 F 
ATOM     92  C   UNL A   1      47.230  34.150  29.889  1.00  0.00     0.198 A 
ATOM     93  C   UNL A   1      46.494  34.758  27.686  1.00  0.00     0.198 A 
ATOM     94  F   UNL A   1      45.376  33.185  26.342  1.00  0.00    -0.203 F 
ATOM     95  F   UNL A   1      47.802  34.481  31.055  1.00  0.00    -0.200 F 
ATOM     96  C   UNL A   1      47.112  35.094  28.881  1.00  0.00     0.200 A 
ATOM     97  F   UNL A   1      46.390  35.666  26.706  1.00  0.00    -0.200 F 
ATOM     98  F   UNL A   1      47.589  36.333  29.064  1.00  0.00    -0.200 F 
ENDBRANCH  65  88
ENDBRANCH  39  40
ENDBRANCH  31  34
ENDBRANCH  29  30
ENDBRANCH  28  29
ENDBRANCH   1  28
TORSDOF 15
ENDMDL
MODEL 3
REMARK VINA RESULT:     -12.3      1.318      2.302
REMARK SMILES CC(C)(C)OC(=O)N1CC[N@H+](Cc2ccc(Cl)nc2)[C@H](C(=O)NCCCNC(=O)c2ccc(-c3c4nc(c(-c5c(F)c(F)c(F)c(F)c5F)c5ccc([nH]5)c(-c5c(F)c(F)c(F)c(F)c5F)c5nc(c(-c6c(F)c(F)c(F)c(F)c6F)c6ccc3[nH]6)C=C5)C=C4)cc2)C1
REMARK SMILES IDX 24 1 23 2 21 3 22 4 20 6 8 7 9 8 93 9 10 10 11 11 6 13 7 14
REMARK SMILES IDX 5 15 2 16 1 17 3 18 4 19 12 20 13 21 14 22 19 23 15 24 18 25
REMARK SMILES IDX 16 26 17 27 25 28 26 29 27 30 28 31 29 33 30 34 31 35 92 36
REMARK SMILES IDX 32 37 91 38 33 39 34 40 35 41 85 42 36 43 90 44 84 45 86 46
REMARK SMILES IDX 37 47 89 48 83 49 82 50 38 52 70 53 50 54 69 55 51 56 54 57
REMARK SMILES IDX 68 58 87 59 52 60 53 61 67 63 88 64 55 65 39 66 40 67 48 68
REMARK SMILES IDX 41 69 42 70 46 71 49 72 43 73 44 74 47 75 45 76 71 77 72 78
REMARK SMILES IDX 80 79 73 80 74 81 78 82 81 83 75 84 76 85 79 86 77 87 56 88
REMARK SMILES IDX 57 89 65 90 58 91 59 92 63 93 66 94 60 95 61 96 64 97 62 98
REMARK H PARENT 23 5 11 12 27 32 86 51 54 62
REMARK Flexibility Score: inf
ROOT
ATOM      1  C   UNL A   1      33.555  29.091  25.294  1.00  0.00     0.118 C 
ENDROOT
BRANCH   1   2
ATOM      2  N   UNL A   1      33.625  28.360  24.042  1.00  0.00    -0.351 N 
ATOM      3  C   UNL A   1      33.317  27.053  23.786  1.00  0.00     0.280 C 
ATOM      4  O   UNL A   1      33.641  26.601  22.687  1.00  0.00    -0.268 OA
ATOM      5  H   UNL A   1      33.938  28.879  23.267  1.00  0.00     0.163 HD
BRANCH   3   6
ATOM      6  C   UNL A   1      32.543  26.226  24.825  1.00  0.00     0.294 C 
ATOM      7  N   UNL A   1      32.167  23.963  25.776  1.00  0.00    -0.296 N 
ATOM      8  C   UNL A   1      30.751  24.251  25.941  1.00  0.00     0.184 C 
ATOM      9  C   UNL A   1      32.909  24.735  24.771  1.00  0.00     0.198 C 
ATOM     10  C   UNL A   1      30.397  25.748  25.836  1.00  0.00     0.285 C 
ATOM     11  N   UNL A   1      31.080  26.514  24.780  1.00  0.00    -0.318 N 
ATOM     12  H   UNL A   1      31.003  27.512  24.976  1.00  0.00     0.349 HD
BRANCH   7  13
ATOM     13  C   UNL A   1      32.632  22.771  26.294  1.00  0.00     0.410 C 
ATOM     14  O   UNL A   1      33.499  22.717  27.155  1.00  0.00    -0.224 OA
BRANCH  13  15
ATOM     15  O   UNL A   1      32.098  21.699  25.658  1.00  0.00    -0.444 OA
BRANCH  15  16
ATOM     16  C   UNL A   1      32.879  20.964  24.679  1.00  0.00     0.106 C 
ATOM     17  C   UNL A   1      32.258  21.338  23.326  1.00  0.00     0.056 C 
ATOM     18  C   UNL A   1      32.714  19.463  24.923  1.00  0.00     0.056 C 
ATOM     19  C   UNL A   1      34.361  21.372  24.641  1.00  0.00     0.056 C 
ENDBRANCH  15  16
ENDBRANCH  13  15
ENDBRANCH   7  13
BRANCH  11  20
ATOM     20  C   UNL A   1      30.396  26.519  23.473  1.00  0.00     0.301 C 
BRANCH  20  21
ATOM     21  C   UNL A   1      29.746  27.792  22.989  1.00  0.00     0.025 A 
ATOM     22  C   UNL A   1      28.410  28.099  23.274  1.00  0.00     0.014 A 
ATOM     23  C   UNL A   1      30.455  28.730  22.241  1.00  0.00     0.122 A 
ATOM     24  C   UNL A   1      27.814  29.222  22.702  1.00  0.00     0.041 A 
ATOM     25  N   UNL A   1      29.912  29.841  21.692  1.00  0.00    -0.244 NA
ATOM     26  C   UNL A   1      28.601  30.040  21.913  1.00  0.00     0.129 A 
ATOM     27  Cl  UNL A   1      27.935  31.403  21.117  1.00  0.00    -0.062 Cl
ENDBRANCH  20  21
ENDBRANCH  11  20
ENDBRANCH   3   6
ENDBRANCH   1   2
BRANCH   1  28
ATOM     28  C   UNL A   1      32.253  29.888  25.395  1.00  0.00     0.042 C 
BRANCH  28  29
ATOM     29  C   UNL A   1      31.980  30.451  26.792  1.00  0.00     0.118 C 
BRANCH  29  30
ATOM     30  N   UNL A   1      31.994  31.906  26.819  1.00  0.00    -0.352 N 
ATOM     31  C   UNL A   1      32.853  32.781  27.436  1.00  0.00     0.251 C 
ATOM     32  H   UNL A   1      31.267  32.334  26.310  1.00  0.00     0.163 HD
ATOM     33  O   UNL A   1      32.566  33.974  27.486  1.00  0.00    -0.269 OA
BRANCH  31  34
ATOM     34  C   UNL A   1      34.110  32.306  28.054  1.00  0.00     0.039 A 
ATOM     35  C   UNL A   1      35.177  33.202  28.172  1.00  0.00     0.014 A 
ATOM     36  C   UNL A   1      34.263  30.980  28.469  1.00  0.00     0.014 A 
ATOM     37  C   UNL A   1      36.372  32.790  28.767  1.00  0.00     0.010 A 
ATOM     38  C   UNL A   1      35.436  30.584  29.112  1.00  0.00     0.010 A 
ATOM     39  C   UNL A   1      36.499  31.488  29.274  1.00  0.00    -0.014 A 
BRANCH  39  40
ATOM     40  C   UNL A   1      37.717  31.059  30.008  1.00  0.00     0.031 A 
ATOM     41  C   UNL A   1      38.698  30.115  29.371  1.00  0.00     0.074 A 
ATOM     42  C   UNL A   1      37.894  31.457  31.283  1.00  0.00     0.049 A 
ATOM     43  N   UNL A   1      39.752  29.540  29.896  1.00  0.00    -0.248 NA
ATOM     44  C   UNL A   1      38.452  29.749  27.968  1.00  0.00     0.031 C 
ATOM     45  C   UNL A   1      36.993  32.341  32.026  1.00  0.00     0.029 A 
ATOM     46  N   UNL A   1      38.878  31.150  32.190  1.00  0.00    -0.354 N 
ATOM     47  C   UNL A   1      40.276  28.728  28.899  1.00  0.00     0.074 A 
ATOM     48  C   UNL A   1      39.414  28.864  27.744  1.00  0.00     0.031 C 
ATOM     49  C   UNL A   1      37.465  32.505  33.272  1.00  0.00     0.029 A 
ATOM     50  C   UNL A   1      38.678  31.708  33.430  1.00  0.00     0.049 A 
ATOM     51  H   UNL A   1      39.654  30.584  31.973  1.00  0.00     0.167 HD
ATOM     52  C   UNL A   1      41.383  27.950  28.942  1.00  0.00     0.037 A 
ATOM     53  C   UNL A   1      39.380  31.575  34.570  1.00  0.00     0.037 A 
ATOM     54  C   UNL A   1      42.265  27.850  30.076  1.00  0.00     0.049 A 
ATOM     55  C   UNL A   1      40.608  30.707  34.584  1.00  0.00     0.074 A 
ATOM     56  C   UNL A   1      43.461  27.160  30.178  1.00  0.00     0.029 A 
ATOM     57  N   UNL A   1      42.046  28.456  31.303  1.00  0.00    -0.354 N 
ATOM     58  N   UNL A   1      41.137  30.007  33.611  1.00  0.00    -0.248 NA
ATOM     59  C   UNL A   1      41.340  30.612  35.855  1.00  0.00     0.031 C 
ATOM     60  C   UNL A   1      43.943  27.311  31.483  1.00  0.00     0.029 A 
ATOM     61  C   UNL A   1      43.071  28.132  32.177  1.00  0.00     0.049 A 
ATOM     62  H   UNL A   1      41.277  29.030  31.521  1.00  0.00     0.167 HD
ATOM     63  C   UNL A   1      42.274  29.413  34.141  1.00  0.00     0.074 A 
ATOM     64  C   UNL A   1      42.368  29.847  35.520  1.00  0.00     0.031 C 
ATOM     65  C   UNL A   1      43.159  28.581  33.542  1.00  0.00     0.037 A 
BRANCH  52  66
ATOM     66  C   UNL A   1      41.723  27.138  27.728  1.00  0.00     0.064 A 
ATOM     67  C   UNL A   1      42.541  27.645  26.709  1.00  0.00     0.173 A 
ATOM     68  C   UNL A   1      41.294  25.806  27.626  1.00  0.00     0.173 A 
ATOM     69  F   UNL A   1      42.971  28.915  26.758  1.00  0.00    -0.203 F 
ATOM     70  C   UNL A   1      42.912  26.850  25.627  1.00  0.00     0.198 A 
ATOM     71  C   UNL A   1      41.684  25.007  26.555  1.00  0.00     0.198 A 
ATOM     72  F   UNL A   1      40.514  25.271  28.578  1.00  0.00    -0.203 F 
ATOM     73  F   UNL A   1      43.676  27.362  24.652  1.00  0.00    -0.200 F 
ATOM     74  C   UNL A   1      42.492  25.530  25.555  1.00  0.00     0.200 A 
ATOM     75  F   UNL A   1      41.289  23.728  26.495  1.00  0.00    -0.200 F 
ATOM     76  F   UNL A   1      42.864  24.761  24.523  1.00  0.00    -0.200 F 
ENDBRANCH  52  66
BRANCH  53  77
ATOM     77  C   UNL A   1      38.940  32.276  35.806  1.00  0.00     0.064 A 
ATOM     78  C   UNL A   1      39.309  33.606  36.049  1.00  0.00     0.173 A 
ATOM     79  C   UNL A   1      38.177  31.621  36.783  1.00  0.00     0.173 A 
ATOM     80  F   UNL A   1      40.059  34.267  35.154  1.00  0.00    -0.203 F 
ATOM     81  C   UNL A   1      38.955  34.246  37.234  1.00  0.00     0.198 A 
ATOM     82  C   UNL A   1      37.798  32.271  37.956  1.00  0.00     0.198 A 
ATOM     83  F   UNL A   1      37.795  30.349  36.597  1.00  0.00    -0.203 F 
ATOM     84  F   UNL A   1      39.369  35.499  37.466  1.00  0.00    -0.200 F 
ATOM     85  C   UNL A   1      38.198  33.579  38.186  1.00  0.00     0.200 A 
ATOM     86  F   UNL A   1      37.056  31.628  38.866  1.00  0.00    -0.200 F 
ATOM     87  F   UNL A   1      37.862  34.193  39.329  1.00  0.00    -0.200 F 
ENDBRANCH  53  77
BRANCH  65  88
ATOM     88  C   UNL A   1      44.327  28.116  34.360  1.00  0.00     0.064 A 
ATOM     89  C   UNL A   1      44.282  26.917  35.086  1.00  0.00     0.173 A 
ATOM     90  C   UNL A   1      45.515  28.861  34.389  1.00  0.00     0.173 A 
ATOM     91  F   UNL A   1      43.163  26.179  35.103  1.00  0.00    -0.203 F 
ATOM     92  C   UNL A   1      45.380  26.492  35.831  1.00  0.00     0.198 A 
ATOM     93  C   UNL A   1      46.619  28.419  35.113  1.00  0.00     0.198 A 
ATOM     94  F   UNL A   1      45.609  30.011  33.707  1.00  0.00    -0.203 F 
ATOM     95  F   UNL A   1      45.300  25.366  36.555  1.00  0.00    -0.200 F 
ATOM     96  C   UNL A   1      46.547  27.239  35.839  1.00  0.00     0.200 A 
ATOM     97  F   UNL A   1      47.751  29.136  35.110  1.00  0.00    -0.200 F 
ATOM     98  F   UNL A   1      47.604  26.826  36.552  1.00  0.00    -0.200 F 
ENDBRANCH  65  88
ENDBRANCH  39  40
ENDBRANCH  31  34
ENDBRANCH  29  30
ENDBRANCH  28  29
ENDBRANCH   1  28
TORSDOF 15
ENDMDL
