MODEL 1
REMARK VINA RESULT:     -13.7      0.000      0.000
REMARK SMILES O=C(NCCCNC(=O)c1ccc(Br)c(NC(=S)NC(=O)c2ccc(F)cc2)c1)c1ccc(-c2c3nc(c(-c4c(F)c(F)c(F)c(F)c4F)c4ccc([nH]4)c(-c4c(F)c(F)c(F)c(F)c4F)c4nc(c(-c5c(F)c(F)c(F)c(F)c5F)c5ccc2[nH]5)C=C4)C=C3)cc1
REMARK SMILES IDX 6 1 5 2 4 3 3 4 1 5 2 6 30 8 31 9 92 10 32 11 91 12 33 13
REMARK SMILES IDX 34 14 35 15 85 16 36 17 90 18 84 19 86 20 37 21 89 22 83 23
REMARK SMILES IDX 82 24 38 26 70 27 50 28 69 29 51 30 54 31 68 32 87 33 52 34
REMARK SMILES IDX 53 35 67 37 88 38 55 39 39 40 40 41 48 42 41 43 42 44 46 45
REMARK SMILES IDX 49 46 43 47 44 48 47 49 45 50 71 51 72 52 80 53 73 54 74 55
REMARK SMILES IDX 78 56 81 57 75 58 76 59 79 60 77 61 56 62 57 63 65 64 58 65
REMARK SMILES IDX 59 66 63 67 66 68 60 69 61 70 64 71 62 72 7 73 8 74 9 76
REMARK SMILES IDX 10 77 11 78 29 79 12 80 15 81 13 82 14 83 16 84 17 86 18 87
REMARK SMILES IDX 19 88 20 89 21 91 22 92 23 93 28 94 24 95 27 96 25 97 26 98
REMARK H PARENT 3 7 86 25 54 36 7 75 16 85 19 90
REMARK Flexibility Score: inf
ROOT
ATOM      1  C   UNL A   1      31.605  30.803  25.965  1.00  0.00     0.118 C 
ENDROOT
BRANCH   1   2
ATOM      2  C   UNL A   1      31.381  32.023  26.857  1.00  0.00     0.042 C 
BRANCH   2   3
ATOM      3  C   UNL A   1      32.662  32.770  27.225  1.00  0.00     0.118 C 
BRANCH   3   4
ATOM      4  N   UNL A   1      32.420  34.145  27.644  1.00  0.00    -0.352 N 
ATOM      5  O   UNL A   1      32.546  35.987  28.935  1.00  0.00    -0.269 OA
ATOM      6  C   UNL A   1      33.021  34.899  28.622  1.00  0.00     0.251 C 
ATOM      7  H   UNL A   1      31.709  34.608  27.145  1.00  0.00     0.163 HD
BRANCH   6   8
ATOM      8  C   UNL A   1      34.217  34.391  29.323  1.00  0.00     0.039 A 
ATOM      9  C   UNL A   1      35.492  34.578  28.790  1.00  0.00     0.014 A 
ATOM     10  C   UNL A   1      34.058  33.723  30.541  1.00  0.00     0.014 A 
ATOM     11  C   UNL A   1      36.581  33.942  29.372  1.00  0.00     0.010 A 
ATOM     12  C   UNL A   1      35.170  33.168  31.179  1.00  0.00     0.010 A 
ATOM     13  C   UNL A   1      36.434  33.230  30.575  1.00  0.00    -0.014 A 
BRANCH  13  14
ATOM     14  C   UNL A   1      37.625  32.579  31.178  1.00  0.00     0.031 A 
ATOM     15  C   UNL A   1      38.070  32.920  32.573  1.00  0.00     0.074 A 
ATOM     16  C   UNL A   1      38.265  31.623  30.478  1.00  0.00     0.049 A 
ATOM     17  N   UNL A   1      39.050  32.404  33.274  1.00  0.00    -0.248 NA
ATOM     18  C   UNL A   1      37.330  33.980  33.273  1.00  0.00     0.031 C 
ATOM     19  C   UNL A   1      37.928  31.215  29.114  1.00  0.00     0.029 A 
ATOM     20  N   UNL A   1      39.304  30.797  30.826  1.00  0.00    -0.354 N 
ATOM     21  C   UNL A   1      39.054  33.087  34.483  1.00  0.00     0.074 A 
ATOM     22  C   UNL A   1      37.999  34.074  34.415  1.00  0.00     0.031 C 
ATOM     23  C   UNL A   1      38.693  30.171  28.766  1.00  0.00     0.029 A 
ATOM     24  C   UNL A   1      39.615  29.875  29.858  1.00  0.00     0.049 A 
ATOM     25  H   UNL A   1      39.780  30.860  31.685  1.00  0.00     0.167 HD
ATOM     26  C   UNL A   1      39.860  32.898  35.555  1.00  0.00     0.037 A 
ATOM     27  C   UNL A   1      40.537  28.895  29.849  1.00  0.00     0.037 A 
ATOM     28  C   UNL A   1      40.895  31.898  35.627  1.00  0.00     0.049 A 
ATOM     29  C   UNL A   1      41.411  28.701  31.053  1.00  0.00     0.074 A 
ATOM     30  C   UNL A   1      41.758  31.625  36.675  1.00  0.00     0.029 A 
ATOM     31  N   UNL A   1      41.199  31.000  34.615  1.00  0.00    -0.354 N 
ATOM     32  N   UNL A   1      41.404  29.355  32.189  1.00  0.00    -0.248 NA
ATOM     33  C   UNL A   1      42.422  27.638  30.974  1.00  0.00     0.031 C 
ATOM     34  C   UNL A   1      42.606  30.584  36.282  1.00  0.00     0.029 A 
ATOM     35  C   UNL A   1      42.242  30.178  35.008  1.00  0.00     0.049 A 
ATOM     36  H   UNL A   1      40.740  30.954  33.745  1.00  0.00     0.167 HD
ATOM     37  C   UNL A   1      42.401  28.781  32.963  1.00  0.00     0.074 A 
ATOM     38  C   UNL A   1      42.979  27.711  32.176  1.00  0.00     0.031 C 
ATOM     39  C   UNL A   1      42.804  29.118  34.213  1.00  0.00     0.037 A 
BRANCH  26  40
ATOM     40  C   UNL A   1      39.666  33.795  36.742  1.00  0.00     0.064 A 
ATOM     41  C   UNL A   1      38.843  33.398  37.807  1.00  0.00     0.173 A 
ATOM     42  C   UNL A   1      40.242  35.072  36.800  1.00  0.00     0.173 A 
ATOM     43  F   UNL A   1      38.263  32.188  37.799  1.00  0.00    -0.203 F 
ATOM     44  C   UNL A   1      38.598  34.249  38.882  1.00  0.00     0.198 A 
ATOM     45  C   UNL A   1      40.016  35.912  37.888  1.00  0.00     0.198 A 
ATOM     46  F   UNL A   1      41.049  35.493  35.814  1.00  0.00    -0.203 F 
ATOM     47  F   UNL A   1      37.788  33.857  39.875  1.00  0.00    -0.200 F 
ATOM     48  C   UNL A   1      39.187  35.503  38.923  1.00  0.00     0.200 A 
ATOM     49  F   UNL A   1      40.606  37.114  37.939  1.00  0.00    -0.200 F 
ATOM     50  F   UNL A   1      38.961  36.318  39.963  1.00  0.00    -0.200 F 
ENDBRANCH  26  40
BRANCH  27  51
ATOM     51  C   UNL A   1      40.648  28.015  28.658  1.00  0.00     0.064 A 
ATOM     52  C   UNL A   1      41.425  28.384  27.551  1.00  0.00     0.173 A 
ATOM     53  C   UNL A   1      39.929  26.814  28.584  1.00  0.00     0.173 A 
ATOM     54  F   UNL A   1      42.124  29.527  27.573  1.00  0.00    -0.203 F 
ATOM     55  C   UNL A   1      41.456  27.599  26.401  1.00  0.00     0.198 A 
ATOM     56  C   UNL A   1      39.981  26.017  27.442  1.00  0.00     0.198 A 
ATOM     57  F   UNL A   1      39.186  26.412  29.625  1.00  0.00    -0.203 F 
ATOM     58  F   UNL A   1      42.170  27.997  25.340  1.00  0.00    -0.200 F 
ATOM     59  C   UNL A   1      40.736  26.415  26.348  1.00  0.00     0.200 A 
ATOM     60  F   UNL A   1      39.301  24.863  27.403  1.00  0.00    -0.200 F 
ATOM     61  F   UNL A   1      40.768  25.659  25.243  1.00  0.00    -0.200 F 
ENDBRANCH  27  51
BRANCH  39  62
ATOM     62  C   UNL A   1      43.914  28.311  34.817  1.00  0.00     0.064 A 
ATOM     63  C   UNL A   1      43.630  27.160  35.567  1.00  0.00     0.173 A 
ATOM     64  C   UNL A   1      45.253  28.712  34.703  1.00  0.00     0.173 A 
ATOM     65  F   UNL A   1      42.364  26.742  35.708  1.00  0.00    -0.203 F 
ATOM     66  C   UNL A   1      44.649  26.444  36.188  1.00  0.00     0.198 A 
ATOM     67  C   UNL A   1      46.271  27.979  35.307  1.00  0.00     0.198 A 
ATOM     68  F   UNL A   1      45.574  29.799  33.985  1.00  0.00    -0.203 F 
ATOM     69  F   UNL A   1      44.352  25.361  36.920  1.00  0.00    -0.200 F 
ATOM     70  C   UNL A   1      45.967  26.850  36.054  1.00  0.00     0.200 A 
ATOM     71  F   UNL A   1      47.547  28.360  35.158  1.00  0.00    -0.200 F 
ATOM     72  F   UNL A   1      46.948  26.152  36.643  1.00  0.00    -0.200 F 
ENDBRANCH  39  62
ENDBRANCH  13  14
ENDBRANCH   6   8
ENDBRANCH   3   4
ENDBRANCH   2   3
ENDBRANCH   1   2
BRANCH   1  73
ATOM     73  N   UNL A   1      32.769  30.054  26.393  1.00  0.00    -0.352 N 
ATOM     74  C   UNL A   1      33.145  28.756  26.169  1.00  0.00     0.251 C 
ATOM     75  H   UNL A   1      33.403  30.570  26.942  1.00  0.00     0.163 HD
ATOM     76  O   UNL A   1      34.009  28.296  26.911  1.00  0.00    -0.269 OA
BRANCH  74  77
ATOM     77  C   UNL A   1      32.656  28.022  24.913  1.00  0.00     0.041 A 
ATOM     78  C   UNL A   1      33.857  28.411  23.601  1.00  0.00     0.015 A 
ATOM     79  C   UNL A   1      31.233  26.683  24.403  1.00  0.00     0.041 A 
ATOM     80  C   UNL A   1      33.699  27.563  22.038  1.00  0.00     0.018 A 
ATOM     81  C   UNL A   1      31.236  25.845  22.914  1.00  0.00     0.055 A 
ATOM     82  C   UNL A   1      32.436  26.321  21.726  1.00  0.00     0.041 A 
ATOM     83  Br  UNL A   1      32.621  25.273  20.156  1.00  0.00    -0.049 Br
BRANCH  81  84
ATOM     84  N   UNL A   1      30.708  24.550  23.105  1.00  0.00    -0.331 N 
ATOM     85  H   UNL A   1      29.855  24.384  22.642  1.00  0.00     0.169 HD
BRANCH  84  86
ATOM     86  C   UNL A   1      31.182  23.476  23.831  1.00  0.00     0.177 C 
ATOM     87  S   UNL A   1      31.934  22.266  22.934  1.00  0.00    -0.040 S 
BRANCH  86  88
ATOM     88  N   UNL A   1      31.143  23.243  25.246  1.00  0.00    -0.299 N 
ATOM     89  C   UNL A   1      31.729  23.163  26.626  1.00  0.00     0.257 C 
ATOM     90  H   UNL A   1      30.202  22.999  25.398  1.00  0.00     0.172 HD
ATOM     91  O   UNL A   1      30.982  23.113  27.597  1.00  0.00    -0.269 OA
BRANCH  89  92
ATOM     92  C   UNL A   1      33.236  23.230  26.845  1.00  0.00     0.040 A 
ATOM     93  C   UNL A   1      33.968  24.634  25.973  1.00  0.00     0.017 A 
ATOM     94  C   UNL A   1      33.755  21.580  26.616  1.00  0.00     0.017 A 
ATOM     95  C   UNL A   1      35.073  24.439  24.584  1.00  0.00     0.040 A 
ATOM     96  C   UNL A   1      34.842  21.238  25.265  1.00  0.00     0.040 A 
ATOM     97  C   UNL A   1      35.529  22.753  24.105  1.00  0.00     0.123 A 
ATOM     98  F   UNL A   1      36.266  22.723  22.965  1.00  0.00    -0.207 F 
ENDBRANCH  89  92
ENDBRANCH  86  88
ENDBRANCH  84  86
ENDBRANCH  81  84
ENDBRANCH  74  77
ENDBRANCH   1  73
TORSDOF 14
ENDMDL
MODEL 2
REMARK VINA RESULT:     -13.5      5.507     10.977
REMARK SMILES O=C(NCCCNC(=O)c1ccc(Br)c(NC(=S)NC(=O)c2ccc(F)cc2)c1)c1ccc(-c2c3nc(c(-c4c(F)c(F)c(F)c(F)c4F)c4ccc([nH]4)c(-c4c(F)c(F)c(F)c(F)c4F)c4nc(c(-c5c(F)c(F)c(F)c(F)c5F)c5ccc2[nH]5)C=C4)C=C3)cc1
REMARK SMILES IDX 6 1 5 2 4 3 3 4 1 5 2 6 30 8 31 9 92 10 32 11 91 12 33 13
REMARK SMILES IDX 34 14 35 15 85 16 36 17 90 18 84 19 86 20 37 21 89 22 83 23
REMARK SMILES IDX 82 24 38 26 70 27 50 28 69 29 51 30 54 31 68 32 87 33 52 34
REMARK SMILES IDX 53 35 67 37 88 38 55 39 39 40 40 41 48 42 41 43 42 44 46 45
REMARK SMILES IDX 49 46 43 47 44 48 47 49 45 50 71 51 72 52 80 53 73 54 74 55
REMARK SMILES IDX 78 56 81 57 75 58 76 59 79 60 77 61 56 62 57 63 65 64 58 65
REMARK SMILES IDX 59 66 63 67 66 68 60 69 61 70 64 71 62 72 7 73 8 74 9 76
REMARK SMILES IDX 10 77 11 78 29 79 12 80 15 81 13 82 14 83 16 84 17 86 18 87
REMARK SMILES IDX 19 88 20 89 21 91 22 92 23 93 28 94 24 95 27 96 25 97 26 98
REMARK H PARENT 3 7 86 25 54 36 7 75 16 85 19 90
REMARK Flexibility Score: inf
ROOT
ATOM      1  C   UNL A   1      36.829  20.337  25.000  1.00  0.00     0.118 C 
ENDROOT
BRANCH   1   2
ATOM      2  C   UNL A   1      38.141  19.583  24.792  1.00  0.00     0.042 C 
BRANCH   2   3
ATOM      3  C   UNL A   1      39.255  19.993  25.754  1.00  0.00     0.118 C 
BRANCH   3   4
ATOM      4  N   UNL A   1      40.315  18.998  25.858  1.00  0.00    -0.352 N 
ATOM      5  O   UNL A   1      42.413  18.183  25.943  1.00  0.00    -0.269 OA
ATOM      6  C   UNL A   1      41.664  19.148  26.066  1.00  0.00     0.251 C 
ATOM      7  H   UNL A   1      40.014  18.065  25.763  1.00  0.00     0.163 HD
BRANCH   6   8
ATOM      8  C   UNL A   1      42.221  20.473  26.402  1.00  0.00     0.039 A 
ATOM      9  C   UNL A   1      42.282  20.908  27.726  1.00  0.00     0.014 A 
ATOM     10  C   UNL A   1      42.700  21.290  25.373  1.00  0.00     0.014 A 
ATOM     11  C   UNL A   1      42.644  22.221  28.002  1.00  0.00     0.010 A 
ATOM     12  C   UNL A   1      43.159  22.577  25.664  1.00  0.00     0.010 A 
ATOM     13  C   UNL A   1      43.088  23.071  26.974  1.00  0.00    -0.014 A 
BRANCH  13  14
ATOM     14  C   UNL A   1      43.486  24.462  27.311  1.00  0.00     0.031 A 
ATOM     15  C   UNL A   1      44.860  24.975  26.983  1.00  0.00     0.074 A 
ATOM     16  C   UNL A   1      42.569  25.284  27.856  1.00  0.00     0.049 A 
ATOM     17  N   UNL A   1      45.353  26.178  27.152  1.00  0.00    -0.248 NA
ATOM     18  C   UNL A   1      45.812  24.019  26.399  1.00  0.00     0.031 C 
ATOM     19  C   UNL A   1      41.207  24.894  28.225  1.00  0.00     0.029 A 
ATOM     20  N   UNL A   1      42.627  26.621  28.161  1.00  0.00    -0.354 N 
ATOM     21  C   UNL A   1      46.668  26.117  26.714  1.00  0.00     0.074 A 
ATOM     22  C   UNL A   1      46.911  24.753  26.296  1.00  0.00     0.031 C 
ATOM     23  C   UNL A   1      40.537  25.979  28.638  1.00  0.00     0.029 A 
ATOM     24  C   UNL A   1      41.437  27.128  28.619  1.00  0.00     0.049 A 
ATOM     25  H   UNL A   1      43.443  27.163  28.060  1.00  0.00     0.167 HD
ATOM     26  C   UNL A   1      47.585  27.112  26.656  1.00  0.00     0.037 A 
ATOM     27  C   UNL A   1      41.102  28.379  28.982  1.00  0.00     0.037 A 
ATOM     28  C   UNL A   1      47.332  28.474  27.052  1.00  0.00     0.049 A 
ATOM     29  C   UNL A   1      42.135  29.466  28.900  1.00  0.00     0.074 A 
ATOM     30  C   UNL A   1      48.196  29.556  27.023  1.00  0.00     0.029 A 
ATOM     31  N   UNL A   1      46.120  28.943  27.539  1.00  0.00    -0.354 N 
ATOM     32  N   UNL A   1      43.376  29.393  28.485  1.00  0.00    -0.248 NA
ATOM     33  C   UNL A   1      41.724  30.805  29.341  1.00  0.00     0.031 C 
ATOM     34  C   UNL A   1      47.517  30.671  27.524  1.00  0.00     0.029 A 
ATOM     35  C   UNL A   1      46.217  30.296  27.822  1.00  0.00     0.049 A 
ATOM     36  H   UNL A   1      45.312  28.396  27.664  1.00  0.00     0.167 HD
ATOM     37  C   UNL A   1      43.893  30.673  28.606  1.00  0.00     0.074 A 
ATOM     38  C   UNL A   1      42.825  31.510  29.113  1.00  0.00     0.031 C 
ATOM     39  C   UNL A   1      45.144  31.113  28.326  1.00  0.00     0.037 A 
BRANCH  26  40
ATOM     40  C   UNL A   1      48.958  26.770  26.155  1.00  0.00     0.064 A 
ATOM     41  C   UNL A   1      49.936  26.282  27.035  1.00  0.00     0.173 A 
ATOM     42  C   UNL A   1      49.325  26.982  24.818  1.00  0.00     0.173 A 
ATOM     43  F   UNL A   1      49.638  26.067  28.325  1.00  0.00    -0.203 F 
ATOM     44  C   UNL A   1      51.233  26.028  26.597  1.00  0.00     0.198 A 
ATOM     45  C   UNL A   1      50.616  26.703  24.377  1.00  0.00     0.198 A 
ATOM     46  F   UNL A   1      48.422  27.433  23.934  1.00  0.00    -0.203 F 
ATOM     47  F   UNL A   1      52.157  25.587  27.461  1.00  0.00    -0.200 F 
ATOM     48  C   UNL A   1      51.571  26.235  25.268  1.00  0.00     0.200 A 
ATOM     49  F   UNL A   1      50.935  26.880  23.087  1.00  0.00    -0.200 F 
ATOM     50  F   UNL A   1      52.817  25.979  24.844  1.00  0.00    -0.200 F 
ENDBRANCH  26  40
BRANCH  27  51
ATOM     51  C   UNL A   1      39.714  28.659  29.429  1.00  0.00     0.064 A 
ATOM     52  C   UNL A   1      38.748  29.147  28.537  1.00  0.00     0.173 A 
ATOM     53  C   UNL A   1      39.347  28.500  30.772  1.00  0.00     0.173 A 
ATOM     54  F   UNL A   1      39.056  29.322  27.245  1.00  0.00    -0.203 F 
ATOM     55  C   UNL A   1      37.473  29.493  28.978  1.00  0.00     0.198 A 
ATOM     56  C   UNL A   1      38.063  28.822  31.206  1.00  0.00     0.198 A 
ATOM     57  F   UNL A   1      40.233  28.021  31.657  1.00  0.00    -0.203 F 
ATOM     58  F   UNL A   1      36.583  29.999  28.115  1.00  0.00    -0.200 F 
ATOM     59  C   UNL A   1      37.130  29.328  30.312  1.00  0.00     0.200 A 
ATOM     60  F   UNL A   1      37.729  28.643  32.492  1.00  0.00    -0.200 F 
ATOM     61  F   UNL A   1      35.903  29.658  30.735  1.00  0.00    -0.200 F 
ENDBRANCH  27  51
BRANCH  39  62
ATOM     62  C   UNL A   1      45.425  32.569  28.548  1.00  0.00     0.064 A 
ATOM     63  C   UNL A   1      45.210  33.499  27.520  1.00  0.00     0.173 A 
ATOM     64  C   UNL A   1      45.965  33.032  29.756  1.00  0.00     0.173 A 
ATOM     65  F   UNL A   1      44.702  33.101  26.344  1.00  0.00    -0.203 F 
ATOM     66  C   UNL A   1      45.533  34.842  27.693  1.00  0.00     0.198 A 
ATOM     67  C   UNL A   1      46.265  34.380  29.933  1.00  0.00     0.198 A 
ATOM     68  F   UNL A   1      46.176  32.181  30.771  1.00  0.00    -0.203 F 
ATOM     69  F   UNL A   1      45.341  35.709  26.689  1.00  0.00    -0.200 F 
ATOM     70  C   UNL A   1      46.055  35.281  28.899  1.00  0.00     0.200 A 
ATOM     71  F   UNL A   1      46.749  34.809  31.107  1.00  0.00    -0.200 F 
ATOM     72  F   UNL A   1      46.354  36.577  29.068  1.00  0.00    -0.200 F 
ENDBRANCH  39  62
ENDBRANCH  13  14
ENDBRANCH   6   8
ENDBRANCH   3   4
ENDBRANCH   2   3
ENDBRANCH   1   2
BRANCH   1  73
ATOM     73  N   UNL A   1      37.074  21.709  25.397  1.00  0.00    -0.352 N 
ATOM     74  C   UNL A   1      36.276  22.822  25.356  1.00  0.00     0.251 C 
ATOM     75  H   UNL A   1      37.976  21.871  25.759  1.00  0.00     0.163 HD
ATOM     76  O   UNL A   1      36.839  23.909  25.451  1.00  0.00    -0.269 OA
BRANCH  74  77
ATOM     77  C   UNL A   1      34.750  22.672  25.415  1.00  0.00     0.041 A 
ATOM     78  C   UNL A   1      34.320  22.568  27.181  1.00  0.00     0.015 A 
ATOM     79  C   UNL A   1      33.176  22.737  24.152  1.00  0.00     0.041 A 
ATOM     80  C   UNL A   1      32.591  22.578  27.628  1.00  0.00     0.018 A 
ATOM     81  C   UNL A   1      31.557  22.853  24.688  1.00  0.00     0.055 A 
ATOM     82  C   UNL A   1      31.272  22.726  26.415  1.00  0.00     0.041 A 
ATOM     83  Br  UNL A   1      29.527  23.072  27.071  1.00  0.00    -0.049 Br
BRANCH  81  84
ATOM     84  N   UNL A   1      30.812  23.619  23.766  1.00  0.00    -0.331 N 
ATOM     85  H   UNL A   1      30.105  23.119  23.297  1.00  0.00     0.169 HD
BRANCH  84  86
ATOM     86  C   UNL A   1      30.906  24.948  23.406  1.00  0.00     0.177 C 
ATOM     87  S   UNL A   1      29.698  25.953  24.011  1.00  0.00    -0.040 S 
BRANCH  86  88
ATOM     88  N   UNL A   1      31.895  25.608  22.603  1.00  0.00    -0.299 N 
ATOM     89  C   UNL A   1      33.099  26.474  22.370  1.00  0.00     0.257 C 
ATOM     90  H   UNL A   1      31.641  25.344  21.689  1.00  0.00     0.172 HD
ATOM     91  O   UNL A   1      33.653  26.456  21.276  1.00  0.00    -0.269 OA
BRANCH  89  92
ATOM     92  C   UNL A   1      33.697  27.308  23.497  1.00  0.00     0.040 A 
ATOM     93  C   UNL A   1      33.890  26.335  25.008  1.00  0.00     0.017 A 
ATOM     94  C   UNL A   1      32.795  28.799  23.422  1.00  0.00     0.017 A 
ATOM     95  C   UNL A   1      32.932  26.643  26.484  1.00  0.00     0.040 A 
ATOM     96  C   UNL A   1      31.788  29.224  24.813  1.00  0.00     0.040 A 
ATOM     97  C   UNL A   1      31.790  28.048  26.465  1.00  0.00     0.123 A 
ATOM     98  F   UNL A   1      31.028  28.108  27.587  1.00  0.00    -0.207 F 
ENDBRANCH  89  92
ENDBRANCH  86  88
ENDBRANCH  84  86
ENDBRANCH  81  84
ENDBRANCH  74  77
ENDBRANCH   1  73
TORSDOF 14
ENDMDL
MODEL 3
REMARK VINA RESULT:     -13.2      1.049      2.050
REMARK SMILES O=C(NCCCNC(=O)c1ccc(Br)c(NC(=S)NC(=O)c2ccc(F)cc2)c1)c1ccc(-c2c3nc(c(-c4c(F)c(F)c(F)c(F)c4F)c4ccc([nH]4)c(-c4c(F)c(F)c(F)c(F)c4F)c4nc(c(-c5c(F)c(F)c(F)c(F)c5F)c5ccc2[nH]5)C=C4)C=C3)cc1
REMARK SMILES IDX 6 1 5 2 4 3 3 4 1 5 2 6 30 8 31 9 92 10 32 11 91 12 33 13
REMARK SMILES IDX 34 14 35 15 85 16 36 17 90 18 84 19 86 20 37 21 89 22 83 23
REMARK SMILES IDX 82 24 38 26 70 27 50 28 69 29 51 30 54 31 68 32 87 33 52 34
REMARK SMILES IDX 53 35 67 37 88 38 55 39 39 40 40 41 48 42 41 43 42 44 46 45
REMARK SMILES IDX 49 46 43 47 44 48 47 49 45 50 71 51 72 52 80 53 73 54 74 55
REMARK SMILES IDX 78 56 81 57 75 58 76 59 79 60 77 61 56 62 57 63 65 64 58 65
REMARK SMILES IDX 59 66 63 67 66 68 60 69 61 70 64 71 62 72 7 73 8 74 9 76
REMARK SMILES IDX 10 77 11 78 29 79 12 80 15 81 13 82 14 83 16 84 17 86 18 87
REMARK SMILES IDX 19 88 20 89 21 91 22 92 23 93 28 94 24 95 27 96 25 97 26 98
REMARK H PARENT 3 7 86 25 54 36 7 75 16 85 19 90
REMARK Flexibility Score: inf
ROOT
ATOM      1  C   UNL A   1      31.439  30.837  26.649  1.00  0.00     0.118 C 
ENDROOT
BRANCH   1   2
ATOM      2  C   UNL A   1      31.423  32.363  26.604  1.00  0.00     0.042 C 
BRANCH   2   3
ATOM      3  C   UNL A   1      32.647  33.019  27.240  1.00  0.00     0.118 C 
BRANCH   3   4
ATOM      4  N   UNL A   1      32.391  34.377  27.705  1.00  0.00    -0.352 N 
ATOM      5  O   UNL A   1      32.493  36.174  29.058  1.00  0.00    -0.269 OA
ATOM      6  C   UNL A   1      32.981  35.103  28.710  1.00  0.00     0.251 C 
ATOM      7  H   UNL A   1      31.677  34.850  27.220  1.00  0.00     0.163 HD
BRANCH   6   8
ATOM      8  C   UNL A   1      34.180  34.583  29.397  1.00  0.00     0.039 A 
ATOM      9  C   UNL A   1      35.440  34.680  28.808  1.00  0.00     0.014 A 
ATOM     10  C   UNL A   1      34.039  33.995  30.658  1.00  0.00     0.014 A 
ATOM     11  C   UNL A   1      36.522  34.030  29.388  1.00  0.00     0.010 A 
ATOM     12  C   UNL A   1      35.150  33.429  31.289  1.00  0.00     0.010 A 
ATOM     13  C   UNL A   1      36.391  33.397  30.637  1.00  0.00    -0.014 A 
BRANCH  13  14
ATOM     14  C   UNL A   1      37.575  32.730  31.235  1.00  0.00     0.031 A 
ATOM     15  C   UNL A   1      38.039  33.074  32.623  1.00  0.00     0.074 A 
ATOM     16  C   UNL A   1      38.191  31.756  30.538  1.00  0.00     0.049 A 
ATOM     17  N   UNL A   1      39.015  32.547  33.320  1.00  0.00    -0.248 NA
ATOM     18  C   UNL A   1      37.326  34.155  33.319  1.00  0.00     0.031 C 
ATOM     19  C   UNL A   1      37.833  31.342  29.181  1.00  0.00     0.029 A 
ATOM     20  N   UNL A   1      39.217  30.913  30.883  1.00  0.00    -0.354 N 
ATOM     21  C   UNL A   1      39.044  33.240  34.522  1.00  0.00     0.074 A 
ATOM     22  C   UNL A   1      38.007  34.246  34.454  1.00  0.00     0.031 C 
ATOM     23  C   UNL A   1      38.576  30.281  28.835  1.00  0.00     0.029 A 
ATOM     24  C   UNL A   1      39.501  29.977  29.922  1.00  0.00     0.049 A 
ATOM     25  H   UNL A   1      39.702  30.975  31.738  1.00  0.00     0.167 HD
ATOM     26  C   UNL A   1      39.856  33.045  35.588  1.00  0.00     0.037 A 
ATOM     27  C   UNL A   1      40.405  28.979  29.913  1.00  0.00     0.037 A 
ATOM     28  C   UNL A   1      40.872  32.027  35.660  1.00  0.00     0.049 A 
ATOM     29  C   UNL A   1      41.286  28.780  31.111  1.00  0.00     0.074 A 
ATOM     30  C   UNL A   1      41.741  31.747  36.702  1.00  0.00     0.029 A 
ATOM     31  N   UNL A   1      41.150  31.114  34.653  1.00  0.00    -0.354 N 
ATOM     32  N   UNL A   1      41.302  29.444  32.241  1.00  0.00    -0.248 NA
ATOM     33  C   UNL A   1      42.276  27.698  31.032  1.00  0.00     0.031 C 
ATOM     34  C   UNL A   1      42.565  30.687  36.311  1.00  0.00     0.029 A 
ATOM     35  C   UNL A   1      42.181  30.276  35.045  1.00  0.00     0.049 A 
ATOM     36  H   UNL A   1      40.683  31.069  33.788  1.00  0.00     0.167 HD
ATOM     37  C   UNL A   1      42.295  28.859  33.011  1.00  0.00     0.074 A 
ATOM     38  C   UNL A   1      42.845  27.770  32.229  1.00  0.00     0.031 C 
ATOM     39  C   UNL A   1      42.716  29.198  34.254  1.00  0.00     0.037 A 
BRANCH  26  40
ATOM     40  C   UNL A   1      39.690  33.957  36.769  1.00  0.00     0.064 A 
ATOM     41  C   UNL A   1      40.395  35.168  36.837  1.00  0.00     0.173 A 
ATOM     42  C   UNL A   1      38.883  33.605  37.860  1.00  0.00     0.173 A 
ATOM     43  F   UNL A   1      41.186  35.549  35.822  1.00  0.00    -0.203 F 
ATOM     44  C   UNL A   1      40.305  35.989  37.959  1.00  0.00     0.198 A 
ATOM     45  C   UNL A   1      38.774  34.440  38.970  1.00  0.00     0.198 A 
ATOM     46  F   UNL A   1      38.177  32.464  37.838  1.00  0.00    -0.203 F 
ATOM     47  F   UNL A   1      41.007  37.129  38.012  1.00  0.00    -0.200 F 
ATOM     48  C   UNL A   1      39.492  35.627  39.022  1.00  0.00     0.200 A 
ATOM     49  F   UNL A   1      37.969  34.101  39.986  1.00  0.00    -0.200 F 
ATOM     50  F   UNL A   1      39.395  36.422  40.096  1.00  0.00    -0.200 F 
ENDBRANCH  26  40
BRANCH  27  51
ATOM     51  C   UNL A   1      40.488  28.086  28.730  1.00  0.00     0.064 A 
ATOM     52  C   UNL A   1      39.804  26.863  28.693  1.00  0.00     0.173 A 
ATOM     53  C   UNL A   1      41.304  28.415  27.639  1.00  0.00     0.173 A 
ATOM     54  F   UNL A   1      39.019  26.502  29.717  1.00  0.00    -0.203 F 
ATOM     55  C   UNL A   1      39.956  25.987  27.621  1.00  0.00     0.198 A 
ATOM     56  C   UNL A   1      41.434  27.549  26.554  1.00  0.00     0.198 A 
ATOM     57  F   UNL A   1      41.964  29.582  27.622  1.00  0.00    -0.203 F 
ATOM     58  F   UNL A   1      39.327  24.804  27.631  1.00  0.00    -0.200 F 
ATOM     59  C   UNL A   1      40.768  26.331  26.551  1.00  0.00     0.200 A 
ATOM     60  F   UNL A   1      42.204  27.894  25.514  1.00  0.00    -0.200 F 
ATOM     61  F   UNL A   1      40.912  25.490  25.519  1.00  0.00    -0.200 F 
ENDBRANCH  27  51
BRANCH  39  62
ATOM     62  C   UNL A   1      43.816  28.376  34.855  1.00  0.00     0.064 A 
ATOM     63  C   UNL A   1      43.518  27.241  35.622  1.00  0.00     0.173 A 
ATOM     64  C   UNL A   1      45.162  28.749  34.721  1.00  0.00     0.173 A 
ATOM     65  F   UNL A   1      42.244  26.851  35.783  1.00  0.00    -0.203 F 
ATOM     66  C   UNL A   1      44.528  26.511  36.241  1.00  0.00     0.198 A 
ATOM     67  C   UNL A   1      46.171  28.002  35.323  1.00  0.00     0.198 A 
ATOM     68  F   UNL A   1      45.496  29.820  33.987  1.00  0.00    -0.203 F 
ATOM     69  F   UNL A   1      44.218  25.443  36.989  1.00  0.00    -0.200 F 
ATOM     70  C   UNL A   1      45.853  26.889  36.087  1.00  0.00     0.200 A 
ATOM     71  F   UNL A   1      47.453  28.355  35.155  1.00  0.00    -0.200 F 
ATOM     72  F   UNL A   1      46.826  26.177  36.673  1.00  0.00    -0.200 F 
ENDBRANCH  39  62
ENDBRANCH  13  14
ENDBRANCH   6   8
ENDBRANCH   3   4
ENDBRANCH   2   3
ENDBRANCH   1   2
BRANCH   1  73
ATOM     73  N   UNL A   1      32.761  30.340  26.973  1.00  0.00    -0.352 N 
ATOM     74  C   UNL A   1      33.282  29.073  26.967  1.00  0.00     0.251 C 
ATOM     75  H   UNL A   1      33.400  31.038  27.247  1.00  0.00     0.163 HD
ATOM     76  O   UNL A   1      34.326  28.902  27.590  1.00  0.00    -0.269 OA
BRANCH  74  77
ATOM     77  C   UNL A   1      32.688  28.006  26.037  1.00  0.00     0.041 A 
ATOM     78  C   UNL A   1      33.916  27.743  24.720  1.00  0.00     0.015 A 
ATOM     79  C   UNL A   1      31.096  26.765  25.986  1.00  0.00     0.041 A 
ATOM     80  C   UNL A   1      33.632  26.418  23.557  1.00  0.00     0.018 A 
ATOM     81  C   UNL A   1      30.973  25.455  24.895  1.00  0.00     0.055 A 
ATOM     82  C   UNL A   1      32.213  25.317  23.662  1.00  0.00     0.041 A 
ATOM     83  Br  UNL A   1      32.243  23.761  22.577  1.00  0.00    -0.049 Br
BRANCH  81  84
ATOM     84  N   UNL A   1      30.281  24.392  25.516  1.00  0.00    -0.331 N 
ATOM     85  H   UNL A   1      29.360  24.263  25.194  1.00  0.00     0.169 HD
BRANCH  84  86
ATOM     86  C   UNL A   1      30.674  23.506  26.497  1.00  0.00     0.177 C 
ATOM     87  S   UNL A   1      29.439  22.599  27.197  1.00  0.00    -0.040 S 
BRANCH  86  88
ATOM     88  N   UNL A   1      31.988  23.227  27.002  1.00  0.00    -0.299 N 
ATOM     89  C   UNL A   1      33.471  23.022  26.890  1.00  0.00     0.257 C 
ATOM     90  H   UNL A   1      31.826  23.098  27.964  1.00  0.00     0.172 HD
ATOM     91  O   UNL A   1      34.160  23.031  27.905  1.00  0.00    -0.269 OA
BRANCH  89  92
ATOM     92  C   UNL A   1      34.146  22.891  25.529  1.00  0.00     0.040 A 
ATOM     93  C   UNL A   1      34.540  21.168  25.151  1.00  0.00     0.017 A 
ATOM     94  C   UNL A   1      35.334  24.169  25.540  1.00  0.00     0.017 A 
ATOM     95  C   UNL A   1      36.217  20.560  25.050  1.00  0.00     0.040 A 
ATOM     96  C   UNL A   1      37.040  23.710  25.461  1.00  0.00     0.040 A 
ATOM     97  C   UNL A   1      37.557  21.760  25.257  1.00  0.00     0.123 A 
ATOM     98  F   UNL A   1      38.779  21.167  25.288  1.00  0.00    -0.207 F 
ENDBRANCH  89  92
ENDBRANCH  86  88
ENDBRANCH  84  86
ENDBRANCH  81  84
ENDBRANCH  74  77
ENDBRANCH   1  73
TORSDOF 14
ENDMDL
