MODEL 1
REMARK VINA RESULT:     -11.6      0.000      0.000
REMARK SMILES C[C@@H](CC(=O)NCCCNC(=O)c1ccc(-c2c3nc(c(-c4c(F)c(F)c(F)c(F)c4F)c4ccc([nH]4)c(-c4c(F)c(F)c(F)c(F)c4F)c4nc(c(-c5c(F)c(F)c(F)c(F)c5F)c5ccc2[nH]5)C=C4)C=C3)cc1)Cc1nnc(C2C(C)(C)C2(C)C)o1
REMARK SMILES IDX 7 1 6 2 4 3 5 4 3 6 2 7 1 8 76 9 77 10 78 11 88 12 79 13
REMARK SMILES IDX 80 14 81 15 82 16 85 17 83 18 84 19 86 20 87 21 8 22 9 23
REMARK SMILES IDX 10 24 11 25 12 27 13 28 14 29 75 30 15 31 74 32 16 33 17 34
REMARK SMILES IDX 18 35 68 36 19 37 73 38 67 39 69 40 20 41 72 42 66 43 65 44
REMARK SMILES IDX 21 46 53 47 33 48 52 49 34 50 37 51 51 52 70 53 35 54 36 55
REMARK SMILES IDX 50 57 71 58 38 59 22 60 23 61 31 62 24 63 25 64 29 65 32 66
REMARK SMILES IDX 26 67 27 68 30 69 28 70 54 71 55 72 63 73 56 74 57 75 61 76
REMARK SMILES IDX 64 77 58 78 59 79 62 80 60 81 39 82 40 83 48 84 41 85 42 86
REMARK SMILES IDX 46 87 49 88 43 89 44 90 47 91 45 92
REMARK H PARENT 6 5 10 26 69 45 37 56
REMARK Flexibility Score: inf
ROOT
ATOM      1  C   UNL A   1      32.446  29.319  24.658  1.00  0.00     0.117 C 
ENDROOT
BRANCH   1   2
ATOM      2  N   UNL A   1      31.890  29.030  23.349  1.00  0.00    -0.356 N 
ATOM      3  C   UNL A   1      30.910  28.161  22.987  1.00  0.00     0.220 C 
ATOM      4  O   UNL A   1      30.689  28.000  21.786  1.00  0.00    -0.275 OA
ATOM      5  H   UNL A   1      32.283  29.545  22.608  1.00  0.00     0.163 HD
BRANCH   3   6
ATOM      6  C   UNL A   1      30.117  27.396  24.028  1.00  0.00     0.103 C 
BRANCH   6   7
ATOM      7  C   UNL A   1      30.701  26.049  24.504  1.00  0.00     0.004 C 
ATOM      8  C   UNL A   1      30.354  24.907  23.536  1.00  0.00     0.009 C 
BRANCH   7   9
ATOM      9  C   UNL A   1      30.386  25.732  25.985  1.00  0.00     0.103 C 
BRANCH   9  10
ATOM     10  C   UNL A   1      31.299  24.706  26.546  1.00  0.00     0.216 A 
ATOM     11  N   UNL A   1      30.996  23.644  27.259  1.00  0.00    -0.113 NA
ATOM     12  O   UNL A   1      32.617  24.762  26.202  1.00  0.00    -0.425 OA
ATOM     13  N   UNL A   1      32.150  22.901  27.341  1.00  0.00    -0.113 NA
ATOM     14  C   UNL A   1      33.090  23.582  26.713  1.00  0.00     0.220 A 
BRANCH  14  15
ATOM     15  C   UNL A   1      34.496  23.027  26.536  1.00  0.00     0.090 C 
ATOM     16  C   UNL A   1      34.893  22.215  25.299  1.00  0.00    -0.017 C 
ATOM     17  C   UNL A   1      35.499  23.601  25.541  1.00  0.00    -0.017 C 
ATOM     18  C   UNL A   1      35.700  20.962  25.571  1.00  0.00     0.012 C 
ATOM     19  C   UNL A   1      33.975  22.019  24.110  1.00  0.00     0.012 C 
ATOM     20  C   UNL A   1      35.112  24.794  24.693  1.00  0.00     0.012 C 
ATOM     21  C   UNL A   1      36.945  23.691  25.995  1.00  0.00     0.012 C 
ENDBRANCH  14  15
ENDBRANCH   9  10
ENDBRANCH   7   9
ENDBRANCH   6   7
ENDBRANCH   3   6
ENDBRANCH   1   2
BRANCH   1  22
ATOM     22  C   UNL A   1      33.602  28.379  24.987  1.00  0.00     0.042 C 
BRANCH  22  23
ATOM     23  C   UNL A   1      34.071  28.445  26.433  1.00  0.00     0.118 C 
BRANCH  23  24
ATOM     24  N   UNL A   1      33.854  29.752  27.033  1.00  0.00    -0.352 N 
ATOM     25  C   UNL A   1      34.639  30.472  27.895  1.00  0.00     0.251 C 
ATOM     26  H   UNL A   1      33.007  30.189  26.779  1.00  0.00     0.163 HD
ATOM     27  O   UNL A   1      34.174  31.482  28.429  1.00  0.00    -0.269 OA
BRANCH  25  28
ATOM     28  C   UNL A   1      36.027  30.058  28.210  1.00  0.00     0.039 A 
ATOM     29  C   UNL A   1      36.292  29.498  29.464  1.00  0.00     0.014 A 
ATOM     30  C   UNL A   1      37.078  30.265  27.313  1.00  0.00     0.014 A 
ATOM     31  C   UNL A   1      37.594  29.112  29.800  1.00  0.00     0.010 A 
ATOM     32  C   UNL A   1      38.357  29.799  27.611  1.00  0.00     0.010 A 
ATOM     33  C   UNL A   1      38.636  29.240  28.867  1.00  0.00    -0.014 A 
BRANCH  33  34
ATOM     34  C   UNL A   1      40.029  28.847  29.204  1.00  0.00     0.031 A 
ATOM     35  C   UNL A   1      40.896  29.777  30.012  1.00  0.00     0.074 A 
ATOM     36  C   UNL A   1      40.535  27.686  28.744  1.00  0.00     0.049 A 
ATOM     37  N   UNL A   1      42.158  29.659  30.344  1.00  0.00    -0.248 NA
ATOM     38  C   UNL A   1      40.269  31.021  30.485  1.00  0.00     0.031 C 
ATOM     39  C   UNL A   1      39.815  26.719  27.915  1.00  0.00     0.029 A 
ATOM     40  N   UNL A   1      41.780  27.128  28.901  1.00  0.00    -0.354 N 
ATOM     41  C   UNL A   1      42.475  30.820  31.038  1.00  0.00     0.074 A 
ATOM     42  C   UNL A   1      41.294  31.653  31.036  1.00  0.00     0.031 C 
ATOM     43  C   UNL A   1      40.623  25.677  27.655  1.00  0.00     0.029 A 
ATOM     44  C   UNL A   1      41.926  25.920  28.266  1.00  0.00     0.049 A 
ATOM     45  H   UNL A   1      42.500  27.555  29.420  1.00  0.00     0.167 HD
ATOM     46  C   UNL A   1      43.640  31.151  31.647  1.00  0.00     0.037 A 
ATOM     47  C   UNL A   1      42.994  25.103  28.180  1.00  0.00     0.037 A 
ATOM     48  C   UNL A   1      44.803  30.303  31.684  1.00  0.00     0.049 A 
ATOM     49  C   UNL A   1      44.273  25.488  28.876  1.00  0.00     0.074 A 
ATOM     50  C   UNL A   1      46.010  30.522  32.324  1.00  0.00     0.029 A 
ATOM     51  N   UNL A   1      44.899  29.071  31.057  1.00  0.00    -0.354 N 
ATOM     52  N   UNL A   1      44.541  26.560  29.581  1.00  0.00    -0.248 NA
ATOM     53  C   UNL A   1      45.394  24.543  28.772  1.00  0.00     0.031 C 
ATOM     54  C   UNL A   1      46.852  29.440  32.050  1.00  0.00     0.029 A 
ATOM     55  C   UNL A   1      46.152  28.523  31.282  1.00  0.00     0.049 A 
ATOM     56  H   UNL A   1      44.184  28.647  30.529  1.00  0.00     0.167 HD
ATOM     57  C   UNL A   1      45.846  26.403  30.031  1.00  0.00     0.074 A 
ATOM     58  C   UNL A   1      46.311  25.127  29.529  1.00  0.00     0.031 C 
ATOM     59  C   UNL A   1      46.591  27.242  30.792  1.00  0.00     0.037 A 
BRANCH  46  60
ATOM     60  C   UNL A   1      43.712  32.486  32.331  1.00  0.00     0.064 A 
ATOM     61  C   UNL A   1      43.367  32.641  33.682  1.00  0.00     0.173 A 
ATOM     62  C   UNL A   1      44.164  33.619  31.637  1.00  0.00     0.173 A 
ATOM     63  F   UNL A   1      42.918  31.593  34.389  1.00  0.00    -0.203 F 
ATOM     64  C   UNL A   1      43.443  33.885  34.303  1.00  0.00     0.198 A 
ATOM     65  C   UNL A   1      44.269  34.854  32.270  1.00  0.00     0.198 A 
ATOM     66  F   UNL A   1      44.513  33.526  30.345  1.00  0.00    -0.203 F 
ATOM     67  F   UNL A   1      43.059  34.018  35.581  1.00  0.00    -0.200 F 
ATOM     68  C   UNL A   1      43.900  34.988  33.600  1.00  0.00     0.200 A 
ATOM     69  F   UNL A   1      44.724  35.918  31.593  1.00  0.00    -0.200 F 
ATOM     70  F   UNL A   1      43.980  36.183  34.203  1.00  0.00    -0.200 F 
ENDBRANCH  46  60
BRANCH  47  71
ATOM     71  C   UNL A   1      42.893  23.823  27.431  1.00  0.00     0.064 A 
ATOM     72  C   UNL A   1      43.289  23.743  26.088  1.00  0.00     0.173 A 
ATOM     73  C   UNL A   1      42.393  22.660  28.033  1.00  0.00     0.173 A 
ATOM     74  F   UNL A   1      43.754  24.835  25.461  1.00  0.00    -0.203 F 
ATOM     75  C   UNL A   1      43.166  22.556  25.370  1.00  0.00     0.198 A 
ATOM     76  C   UNL A   1      42.297  21.465  27.322  1.00  0.00     0.198 A 
ATOM     77  F   UNL A   1      42.003  22.683  29.315  1.00  0.00    -0.203 F 
ATOM     78  F   UNL A   1      43.505  22.521  24.073  1.00  0.00    -0.200 F 
ATOM     79  C   UNL A   1      42.675  21.416  25.988  1.00  0.00     0.200 A 
ATOM     80  F   UNL A   1      41.834  20.364  27.926  1.00  0.00    -0.200 F 
ATOM     81  F   UNL A   1      42.559  20.275  25.297  1.00  0.00    -0.200 F 
ENDBRANCH  47  71
BRANCH  59  82
ATOM     82  C   UNL A   1      47.970  26.787  31.173  1.00  0.00     0.064 A 
ATOM     83  C   UNL A   1      48.198  25.987  32.302  1.00  0.00     0.173 A 
ATOM     84  C   UNL A   1      49.071  27.122  30.370  1.00  0.00     0.173 A 
ATOM     85  F   UNL A   1      47.181  25.652  33.109  1.00  0.00    -0.203 F 
ATOM     86  C   UNL A   1      49.483  25.561  32.627  1.00  0.00     0.198 A 
ATOM     87  C   UNL A   1      50.349  26.669  30.682  1.00  0.00     0.198 A 
ATOM     88  F   UNL A   1      48.904  27.879  29.275  1.00  0.00    -0.203 F 
ATOM     89  F   UNL A   1      49.686  24.837  33.737  1.00  0.00    -0.200 F 
ATOM     90  C   UNL A   1      50.555  25.895  31.813  1.00  0.00     0.200 A 
ATOM     91  F   UNL A   1      51.382  26.981  29.887  1.00  0.00    -0.200 F 
ATOM     92  F   UNL A   1      51.790  25.477  32.125  1.00  0.00    -0.200 F 
ENDBRANCH  59  82
ENDBRANCH  33  34
ENDBRANCH  25  28
ENDBRANCH  23  24
ENDBRANCH  22  23
ENDBRANCH   1  22
TORSDOF 14
ENDMDL
MODEL 2
REMARK VINA RESULT:     -11.4      3.514      8.374
REMARK SMILES C[C@@H](CC(=O)NCCCNC(=O)c1ccc(-c2c3nc(c(-c4c(F)c(F)c(F)c(F)c4F)c4ccc([nH]4)c(-c4c(F)c(F)c(F)c(F)c4F)c4nc(c(-c5c(F)c(F)c(F)c(F)c5F)c5ccc2[nH]5)C=C4)C=C3)cc1)Cc1nnc(C2C(C)(C)C2(C)C)o1
REMARK SMILES IDX 7 1 6 2 4 3 5 4 3 6 2 7 1 8 76 9 77 10 78 11 88 12 79 13
REMARK SMILES IDX 80 14 81 15 82 16 85 17 83 18 84 19 86 20 87 21 8 22 9 23
REMARK SMILES IDX 10 24 11 25 12 27 13 28 14 29 75 30 15 31 74 32 16 33 17 34
REMARK SMILES IDX 18 35 68 36 19 37 73 38 67 39 69 40 20 41 72 42 66 43 65 44
REMARK SMILES IDX 21 46 53 47 33 48 52 49 34 50 37 51 51 52 70 53 35 54 36 55
REMARK SMILES IDX 50 57 71 58 38 59 22 60 23 61 31 62 24 63 25 64 29 65 32 66
REMARK SMILES IDX 26 67 27 68 30 69 28 70 54 71 55 72 63 73 56 74 57 75 61 76
REMARK SMILES IDX 64 77 58 78 59 79 62 80 60 81 39 82 40 83 48 84 41 85 42 86
REMARK SMILES IDX 46 87 49 88 43 89 44 90 47 91 45 92
REMARK H PARENT 6 5 10 26 69 45 37 56
REMARK Flexibility Score: inf
ROOT
ATOM      1  C   UNL A   1      31.252  30.951  26.047  1.00  0.00     0.117 C 
ENDROOT
BRANCH   1   2
ATOM      2  N   UNL A   1      32.464  30.276  26.472  1.00  0.00    -0.356 N 
ATOM      3  C   UNL A   1      32.642  29.015  26.946  1.00  0.00     0.220 C 
ATOM      4  O   UNL A   1      33.758  28.701  27.361  1.00  0.00    -0.275 OA
ATOM      5  H   UNL A   1      33.285  30.814  26.405  1.00  0.00     0.163 HD
BRANCH   3   6
ATOM      6  C   UNL A   1      31.498  28.022  26.980  1.00  0.00     0.103 C 
BRANCH   6   7
ATOM      7  C   UNL A   1      31.456  26.962  25.858  1.00  0.00     0.004 C 
ATOM      8  C   UNL A   1      30.908  27.545  24.546  1.00  0.00     0.009 C 
BRANCH   7   9
ATOM      9  C   UNL A   1      30.777  25.640  26.288  1.00  0.00     0.103 C 
BRANCH   9  10
ATOM     10  C   UNL A   1      31.760  24.561  26.545  1.00  0.00     0.216 A 
ATOM     11  N   UNL A   1      31.665  23.548  27.378  1.00  0.00    -0.113 NA
ATOM     12  O   UNL A   1      32.869  24.499  25.752  1.00  0.00    -0.425 OA
ATOM     13  N   UNL A   1      32.721  22.716  27.086  1.00  0.00    -0.113 NA
ATOM     14  C   UNL A   1      33.415  23.300  26.128  1.00  0.00     0.220 A 
BRANCH  14  15
ATOM     15  C   UNL A   1      34.624  22.627  25.495  1.00  0.00     0.090 C 
ATOM     16  C   UNL A   1      34.491  21.348  24.661  1.00  0.00    -0.017 C 
ATOM     17  C   UNL A   1      34.908  22.664  23.997  1.00  0.00    -0.017 C 
ATOM     18  C   UNL A   1      35.517  20.270  24.950  1.00  0.00     0.012 C 
ATOM     19  C   UNL A   1      33.155  20.738  24.292  1.00  0.00     0.012 C 
ATOM     20  C   UNL A   1      33.973  23.419  23.076  1.00  0.00     0.012 C 
ATOM     21  C   UNL A   1      36.357  22.836  23.575  1.00  0.00     0.012 C 
ENDBRANCH  14  15
ENDBRANCH   9  10
ENDBRANCH   7   9
ENDBRANCH   6   7
ENDBRANCH   3   6
ENDBRANCH   1   2
BRANCH   1  22
ATOM     22  C   UNL A   1      31.251  32.412  26.487  1.00  0.00     0.042 C 
BRANCH  22  23
ATOM     23  C   UNL A   1      32.533  32.862  27.173  1.00  0.00     0.118 C 
BRANCH  23  24
ATOM     24  N   UNL A   1      32.443  34.217  27.695  1.00  0.00    -0.352 N 
ATOM     25  C   UNL A   1      33.139  34.822  28.709  1.00  0.00     0.251 C 
ATOM     26  H   UNL A   1      31.776  34.789  27.250  1.00  0.00     0.163 HD
ATOM     27  O   UNL A   1      32.770  35.927  29.113  1.00  0.00    -0.269 OA
BRANCH  25  28
ATOM     28  C   UNL A   1      34.313  34.174  29.338  1.00  0.00     0.039 A 
ATOM     29  C   UNL A   1      34.098  33.175  30.294  1.00  0.00     0.014 A 
ATOM     30  C   UNL A   1      35.619  34.575  29.045  1.00  0.00     0.014 A 
ATOM     31  C   UNL A   1      35.184  32.556  30.920  1.00  0.00     0.010 A 
ATOM     32  C   UNL A   1      36.703  33.896  29.601  1.00  0.00     0.010 A 
ATOM     33  C   UNL A   1      36.499  32.897  30.563  1.00  0.00    -0.014 A 
BRANCH  33  34
ATOM     34  C   UNL A   1      37.670  32.260  31.221  1.00  0.00     0.031 A 
ATOM     35  C   UNL A   1      38.443  31.186  30.499  1.00  0.00     0.074 A 
ATOM     36  C   UNL A   1      38.009  32.602  32.478  1.00  0.00     0.049 A 
ATOM     37  N   UNL A   1      39.441  30.453  30.925  1.00  0.00    -0.248 NA
ATOM     38  C   UNL A   1      38.017  30.875  29.126  1.00  0.00     0.031 C 
ATOM     39  C   UNL A   1      37.315  33.594  33.301  1.00  0.00     0.029 A 
ATOM     40  N   UNL A   1      39.018  32.144  33.290  1.00  0.00    -0.354 N 
ATOM     41  C   UNL A   1      39.741  29.583  29.884  1.00  0.00     0.074 A 
ATOM     42  C   UNL A   1      38.788  29.840  28.828  1.00  0.00     0.031 C 
ATOM     43  C   UNL A   1      37.932  33.685  34.491  1.00  0.00     0.029 A 
ATOM     44  C   UNL A   1      39.039  32.735  34.529  1.00  0.00     0.049 A 
ATOM     45  H   UNL A   1      39.665  31.457  33.008  1.00  0.00     0.167 HD
ATOM     46  C   UNL A   1      40.738  28.668  29.805  1.00  0.00     0.037 A 
ATOM     47  C   UNL A   1      39.856  32.527  35.580  1.00  0.00     0.037 A 
ATOM     48  C   UNL A   1      41.711  28.441  30.841  1.00  0.00     0.049 A 
ATOM     49  C   UNL A   1      40.964  31.514  35.462  1.00  0.00     0.074 A 
ATOM     50  C   UNL A   1      42.794  27.580  30.834  1.00  0.00     0.029 A 
ATOM     51  N   UNL A   1      41.719  29.084  32.069  1.00  0.00    -0.354 N 
ATOM     52  N   UNL A   1      41.275  30.741  34.450  1.00  0.00    -0.248 NA
ATOM     53  C   UNL A   1      41.841  31.353  36.630  1.00  0.00     0.031 C 
ATOM     54  C   UNL A   1      43.434  27.672  32.074  1.00  0.00     0.029 A 
ATOM     55  C   UNL A   1      42.780  28.628  32.834  1.00  0.00     0.049 A 
ATOM     56  H   UNL A   1      41.066  29.764  32.356  1.00  0.00     0.167 HD
ATOM     57  C   UNL A   1      42.400  30.029  34.845  1.00  0.00     0.074 A 
ATOM     58  C   UNL A   1      42.724  30.470  36.186  1.00  0.00     0.031 C 
ATOM     59  C   UNL A   1      43.101  29.093  34.159  1.00  0.00     0.037 A 
BRANCH  46  60
ATOM     60  C   UNL A   1      40.831  27.849  28.550  1.00  0.00     0.064 A 
ATOM     61  C   UNL A   1      40.145  26.633  28.412  1.00  0.00     0.173 A 
ATOM     62  C   UNL A   1      41.588  28.301  27.458  1.00  0.00     0.173 A 
ATOM     63  F   UNL A   1      39.416  26.149  29.430  1.00  0.00    -0.203 F 
ATOM     64  C   UNL A   1      40.238  25.885  27.241  1.00  0.00     0.198 A 
ATOM     65  C   UNL A   1      41.652  27.567  26.277  1.00  0.00     0.198 A 
ATOM     66  F   UNL A   1      42.259  29.460  27.533  1.00  0.00    -0.203 F 
ATOM     67  F   UNL A   1      39.615  24.702  27.152  1.00  0.00    -0.200 F 
ATOM     68  C   UNL A   1      40.985  26.356  26.172  1.00  0.00     0.200 A 
ATOM     69  F   UNL A   1      42.364  28.029  25.239  1.00  0.00    -0.200 F 
ATOM     70  F   UNL A   1      41.066  25.639  25.043  1.00  0.00    -0.200 F 
ENDBRANCH  46  60
BRANCH  47  71
ATOM     71  C   UNL A   1      39.678  33.315  36.828  1.00  0.00     0.064 A 
ATOM     72  C   UNL A   1      40.424  34.480  37.054  1.00  0.00     0.173 A 
ATOM     73  C   UNL A   1      38.772  32.918  37.821  1.00  0.00     0.173 A 
ATOM     74  F   UNL A   1      41.320  34.889  36.143  1.00  0.00    -0.203 F 
ATOM     75  C   UNL A   1      40.288  35.205  38.235  1.00  0.00     0.198 A 
ATOM     76  C   UNL A   1      38.615  33.659  38.991  1.00  0.00     0.198 A 
ATOM     77  F   UNL A   1      38.033  31.812  37.653  1.00  0.00    -0.203 F 
ATOM     78  F   UNL A   1      41.050  36.288  38.447  1.00  0.00    -0.200 F 
ATOM     79  C   UNL A   1      39.380  34.798  39.201  1.00  0.00     0.200 A 
ATOM     80  F   UNL A   1      37.729  33.270  39.916  1.00  0.00    -0.200 F 
ATOM     81  F   UNL A   1      39.249  35.496  40.337  1.00  0.00    -0.200 F 
ENDBRANCH  47  71
BRANCH  59  82
ATOM     82  C   UNL A   1      44.318  28.518  34.823  1.00  0.00     0.064 A 
ATOM     83  C   UNL A   1      44.258  27.343  35.585  1.00  0.00     0.173 A 
ATOM     84  C   UNL A   1      45.570  29.132  34.656  1.00  0.00     0.173 A 
ATOM     85  F   UNL A   1      43.084  26.727  35.785  1.00  0.00    -0.203 F 
ATOM     86  C   UNL A   1      45.404  26.817  36.178  1.00  0.00     0.198 A 
ATOM     87  C   UNL A   1      46.716  28.587  35.225  1.00  0.00     0.198 A 
ATOM     88  F   UNL A   1      45.681  30.255  33.930  1.00  0.00    -0.203 F 
ATOM     89  F   UNL A   1      45.316  25.719  36.942  1.00  0.00    -0.200 F 
ATOM     90  C   UNL A   1      46.631  27.435  35.991  1.00  0.00     0.200 A 
ATOM     91  F   UNL A   1      47.904  29.177  35.032  1.00  0.00    -0.200 F 
ATOM     92  F   UNL A   1      47.733  26.922  36.556  1.00  0.00    -0.200 F 
ENDBRANCH  59  82
ENDBRANCH  33  34
ENDBRANCH  25  28
ENDBRANCH  23  24
ENDBRANCH  22  23
ENDBRANCH   1  22
TORSDOF 14
ENDMDL
MODEL 3
REMARK VINA RESULT:     -11.4      3.746      8.082
REMARK SMILES C[C@@H](CC(=O)NCCCNC(=O)c1ccc(-c2c3nc(c(-c4c(F)c(F)c(F)c(F)c4F)c4ccc([nH]4)c(-c4c(F)c(F)c(F)c(F)c4F)c4nc(c(-c5c(F)c(F)c(F)c(F)c5F)c5ccc2[nH]5)C=C4)C=C3)cc1)Cc1nnc(C2C(C)(C)C2(C)C)o1
REMARK SMILES IDX 7 1 6 2 4 3 5 4 3 6 2 7 1 8 76 9 77 10 78 11 88 12 79 13
REMARK SMILES IDX 80 14 81 15 82 16 85 17 83 18 84 19 86 20 87 21 8 22 9 23
REMARK SMILES IDX 10 24 11 25 12 27 13 28 14 29 75 30 15 31 74 32 16 33 17 34
REMARK SMILES IDX 18 35 68 36 19 37 73 38 67 39 69 40 20 41 72 42 66 43 65 44
REMARK SMILES IDX 21 46 53 47 33 48 52 49 34 50 37 51 51 52 70 53 35 54 36 55
REMARK SMILES IDX 50 57 71 58 38 59 22 60 23 61 31 62 24 63 25 64 29 65 32 66
REMARK SMILES IDX 26 67 27 68 30 69 28 70 54 71 55 72 63 73 56 74 57 75 61 76
REMARK SMILES IDX 64 77 58 78 59 79 62 80 60 81 39 82 40 83 48 84 41 85 42 86
REMARK SMILES IDX 46 87 49 88 43 89 44 90 47 91 45 92
REMARK H PARENT 6 5 10 26 69 45 37 56
REMARK Flexibility Score: inf
ROOT
ATOM      1  C   UNL A   1      36.861  20.093  24.998  1.00  0.00     0.117 C 
ENDROOT
BRANCH   1   2
ATOM      2  N   UNL A   1      37.123  21.453  25.429  1.00  0.00    -0.356 N 
ATOM      3  C   UNL A   1      36.813  22.635  24.835  1.00  0.00     0.220 C 
ATOM      4  O   UNL A   1      37.250  23.672  25.335  1.00  0.00    -0.275 OA
ATOM      5  H   UNL A   1      37.600  21.532  26.287  1.00  0.00     0.163 HD
BRANCH   3   6
ATOM      6  C   UNL A   1      35.964  22.681  23.580  1.00  0.00     0.103 C 
BRANCH   6   7
ATOM      7  C   UNL A   1      34.475  23.051  23.754  1.00  0.00     0.004 C 
ATOM      8  C   UNL A   1      33.747  22.056  24.670  1.00  0.00     0.009 C 
BRANCH   7   9
ATOM      9  C   UNL A   1      33.748  23.317  22.414  1.00  0.00     0.103 C 
BRANCH   9  10
ATOM     10  C   UNL A   1      33.204  24.694  22.334  1.00  0.00     0.216 A 
ATOM     11  N   UNL A   1      33.654  25.712  21.633  1.00  0.00    -0.113 NA
ATOM     12  O   UNL A   1      32.016  24.953  22.952  1.00  0.00    -0.425 OA
ATOM     13  N   UNL A   1      32.687  26.686  21.717  1.00  0.00    -0.113 NA
ATOM     14  C   UNL A   1      31.735  26.216  22.501  1.00  0.00     0.220 A 
BRANCH  14  15
ATOM     15  C   UNL A   1      30.458  26.999  22.764  1.00  0.00     0.090 C 
ATOM     16  C   UNL A   1      29.652  26.817  24.055  1.00  0.00    -0.017 C 
ATOM     17  C   UNL A   1      30.373  28.139  23.774  1.00  0.00    -0.017 C 
ATOM     18  C   UNL A   1      28.151  26.703  23.878  1.00  0.00     0.012 C 
ATOM     19  C   UNL A   1      30.126  25.961  25.211  1.00  0.00     0.012 C 
ATOM     20  C   UNL A   1      31.609  28.548  24.546  1.00  0.00     0.012 C 
ATOM     21  C   UNL A   1      29.543  29.348  23.379  1.00  0.00     0.012 C 
ENDBRANCH  14  15
ENDBRANCH   9  10
ENDBRANCH   7   9
ENDBRANCH   6   7
ENDBRANCH   3   6
ENDBRANCH   1   2
BRANCH   1  22
ATOM     22  C   UNL A   1      38.136  19.255  25.003  1.00  0.00     0.042 C 
BRANCH  22  23
ATOM     23  C   UNL A   1      39.276  19.855  25.814  1.00  0.00     0.118 C 
BRANCH  23  24
ATOM     24  N   UNL A   1      40.406  18.947  25.946  1.00  0.00    -0.352 N 
ATOM     25  C   UNL A   1      41.741  19.214  26.096  1.00  0.00     0.251 C 
ATOM     26  H   UNL A   1      40.173  17.990  25.923  1.00  0.00     0.163 HD
ATOM     27  O   UNL A   1      42.552  18.290  26.000  1.00  0.00    -0.269 OA
BRANCH  25  28
ATOM     28  C   UNL A   1      42.234  20.587  26.358  1.00  0.00     0.039 A 
ATOM     29  C   UNL A   1      42.313  21.031  27.683  1.00  0.00     0.014 A 
ATOM     30  C   UNL A   1      42.563  21.461  25.320  1.00  0.00     0.014 A 
ATOM     31  C   UNL A   1      42.757  22.327  27.965  1.00  0.00     0.010 A 
ATOM     32  C   UNL A   1      43.091  22.720  25.603  1.00  0.00     0.010 A 
ATOM     33  C   UNL A   1      43.171  23.177  26.927  1.00  0.00    -0.014 A 
BRANCH  33  34
ATOM     34  C   UNL A   1      43.637  24.562  27.200  1.00  0.00     0.031 A 
ATOM     35  C   UNL A   1      42.663  25.594  27.707  1.00  0.00     0.074 A 
ATOM     36  C   UNL A   1      44.913  24.909  26.945  1.00  0.00     0.049 A 
ATOM     37  N   UNL A   1      42.849  26.871  27.931  1.00  0.00    -0.248 NA
ATOM     38  C   UNL A   1      41.291  25.135  27.969  1.00  0.00     0.031 C 
ATOM     39  C   UNL A   1      45.942  24.017  26.411  1.00  0.00     0.029 A 
ATOM     40  N   UNL A   1      45.559  26.112  27.091  1.00  0.00    -0.354 N 
ATOM     41  C   UNL A   1      41.614  27.366  28.333  1.00  0.00     0.074 A 
ATOM     42  C   UNL A   1      40.676  26.268  28.273  1.00  0.00     0.031 C 
ATOM     43  C   UNL A   1      47.095  24.696  26.295  1.00  0.00     0.029 A 
ATOM     44  C   UNL A   1      46.878  26.078  26.711  1.00  0.00     0.049 A 
ATOM     45  H   UNL A   1      45.118  26.922  27.437  1.00  0.00     0.167 HD
ATOM     46  C   UNL A   1      41.296  28.618  28.742  1.00  0.00     0.037 A 
ATOM     47  C   UNL A   1      47.805  27.055  26.693  1.00  0.00     0.037 A 
ATOM     48  C   UNL A   1      42.239  29.701  28.841  1.00  0.00     0.049 A 
ATOM     49  C   UNL A   1      47.430  28.435  27.164  1.00  0.00     0.074 A 
ATOM     50  C   UNL A   1      42.030  30.989  29.299  1.00  0.00     0.029 A 
ATOM     51  N   UNL A   1      43.575  29.617  28.478  1.00  0.00    -0.354 N 
ATOM     52  N   UNL A   1      46.275  28.876  27.601  1.00  0.00    -0.248 NA
ATOM     53  C   UNL A   1      48.492  29.452  27.150  1.00  0.00     0.031 C 
ATOM     54  C   UNL A   1      43.229  31.699  29.176  1.00  0.00     0.029 A 
ATOM     55  C   UNL A   1      44.199  30.837  28.689  1.00  0.00     0.049 A 
ATOM     56  H   UNL A   1      44.015  28.812  28.123  1.00  0.00     0.167 HD
ATOM     57  C   UNL A   1      46.479  30.206  27.943  1.00  0.00     0.074 A 
ATOM     58  C   UNL A   1      47.871  30.498  27.675  1.00  0.00     0.031 C 
ATOM     59  C   UNL A   1      45.591  31.105  28.436  1.00  0.00     0.037 A 
BRANCH  46  60
ATOM     60  C   UNL A   1      39.867  28.884  29.122  1.00  0.00     0.064 A 
ATOM     61  C   UNL A   1      38.926  29.327  28.181  1.00  0.00     0.173 A 
ATOM     62  C   UNL A   1      39.425  28.659  30.435  1.00  0.00     0.173 A 
ATOM     63  F   UNL A   1      39.298  29.568  26.914  1.00  0.00    -0.203 F 
ATOM     64  C   UNL A   1      37.604  29.565  28.547  1.00  0.00     0.198 A 
ATOM     65  C   UNL A   1      38.095  28.868  30.789  1.00  0.00     0.198 A 
ATOM     66  F   UNL A   1      40.282  28.230  31.373  1.00  0.00    -0.203 F 
ATOM     67  F   UNL A   1      36.734  30.038  27.642  1.00  0.00    -0.200 F 
ATOM     68  C   UNL A   1      37.187  29.329  29.847  1.00  0.00     0.200 A 
ATOM     69  F   UNL A   1      37.691  28.627  32.044  1.00  0.00    -0.200 F 
ATOM     70  F   UNL A   1      35.912  29.551  30.195  1.00  0.00    -0.200 F 
ENDBRANCH  46  60
BRANCH  47  71
ATOM     71  C   UNL A   1      49.190  26.759  26.241  1.00  0.00     0.064 A 
ATOM     72  C   UNL A   1      50.146  26.258  27.136  1.00  0.00     0.173 A 
ATOM     73  C   UNL A   1      49.590  26.978  24.915  1.00  0.00     0.173 A 
ATOM     74  F   UNL A   1      49.819  26.052  28.420  1.00  0.00    -0.203 F 
ATOM     75  C   UNL A   1      51.455  26.009  26.728  1.00  0.00     0.198 A 
ATOM     76  C   UNL A   1      50.892  26.703  24.501  1.00  0.00     0.198 A 
ATOM     77  F   UNL A   1      48.713  27.454  24.020  1.00  0.00    -0.203 F 
ATOM     78  F   UNL A   1      52.361  25.578  27.616  1.00  0.00    -0.200 F 
ATOM     79  C   UNL A   1      51.826  26.227  25.409  1.00  0.00     0.200 A 
ATOM     80  F   UNL A   1      51.243  26.902  23.224  1.00  0.00    -0.200 F 
ATOM     81  F   UNL A   1      53.084  25.987  25.017  1.00  0.00    -0.200 F 
ENDBRANCH  47  71
BRANCH  59  82
ATOM     82  C   UNL A   1      46.107  32.475  28.766  1.00  0.00     0.064 A 
ATOM     83  C   UNL A   1      46.651  32.776  30.023  1.00  0.00     0.173 A 
ATOM     84  C   UNL A   1      46.095  33.487  27.794  1.00  0.00     0.173 A 
ATOM     85  F   UNL A   1      46.672  31.847  30.990  1.00  0.00    -0.203 F 
ATOM     86  C   UNL A   1      47.141  34.050  30.303  1.00  0.00     0.198 A 
ATOM     87  C   UNL A   1      46.613  34.749  28.068  1.00  0.00     0.198 A 
ATOM     88  F   UNL A   1      45.593  33.247  26.573  1.00  0.00    -0.203 F 
ATOM     89  F   UNL A   1      47.613  34.329  31.526  1.00  0.00    -0.200 F 
ATOM     90  C   UNL A   1      47.129  35.031  29.323  1.00  0.00     0.200 A 
ATOM     91  F   UNL A   1      46.614  35.693  27.117  1.00  0.00    -0.200 F 
ATOM     92  F   UNL A   1      47.608  36.254  29.593  1.00  0.00    -0.200 F 
ENDBRANCH  59  82
ENDBRANCH  33  34
ENDBRANCH  25  28
ENDBRANCH  23  24
ENDBRANCH  22  23
ENDBRANCH   1  22
TORSDOF 14
ENDMDL
