MODEL 1
REMARK VINA RESULT:     -13.3      0.000      0.000
REMARK SMILES O=C(NCCCNC(=O)[C@H]1CCCN(C(=O)c2cccc3[nH]ccc23)C1)c1ccc(-c2c3nc(c(-c4c(F)c(F)c(F)c(F)c4F)c4ccc([nH]4)c(-c4c(F)c(F)c(F)c(F)c4F)c4nc(c(-c5c(F)c(F)c(F)c(F)c5F)c5ccc2[nH]5)C=C4)C=C3)cc1
REMARK SMILES IDX 5 1 4 2 3 3 1 4 2 5 27 7 28 8 89 9 29 10 88 11 30 12 31 13
REMARK SMILES IDX 32 14 82 15 33 16 87 17 81 18 83 19 34 20 86 21 80 22 79 23
REMARK SMILES IDX 35 25 67 26 47 27 66 28 48 29 51 30 65 31 84 32 49 33 50 34
REMARK SMILES IDX 64 36 85 37 52 38 36 39 37 40 45 41 38 42 39 43 43 44 46 45
REMARK SMILES IDX 40 46 41 47 44 48 42 49 68 50 69 51 77 52 70 53 71 54 75 55
REMARK SMILES IDX 78 56 72 57 73 58 76 59 74 60 53 61 54 62 62 63 55 64 56 65
REMARK SMILES IDX 60 66 63 67 57 68 58 69 61 70 59 71 6 72 7 73 8 74 9 76
REMARK SMILES IDX 10 77 11 78 26 79 12 80 14 81 13 82 15 83 16 84 17 85 18 86
REMARK SMILES IDX 25 87 19 88 21 89 24 90 20 91 22 92 23 93
REMARK H PARENT 3 6 83 24 51 35 7 75 22 94
REMARK Flexibility Score: inf
ROOT
ATOM      1  C   UNL A   1      31.390  32.193  26.514  1.00  0.00     0.042 C 
ENDROOT
BRANCH   1   2
ATOM      2  C   UNL A   1      32.630  32.720  27.234  1.00  0.00     0.118 C 
BRANCH   2   3
ATOM      3  N   UNL A   1      32.479  34.122  27.597  1.00  0.00    -0.352 N 
ATOM      4  O   UNL A   1      32.542  35.918  28.942  1.00  0.00    -0.269 OA
ATOM      5  C   UNL A   1      33.027  34.834  28.631  1.00  0.00     0.251 C 
ATOM      6  H   UNL A   1      31.890  34.642  27.004  1.00  0.00     0.163 HD
BRANCH   5   7
ATOM      7  C   UNL A   1      34.206  34.327  29.363  1.00  0.00     0.039 A 
ATOM      8  C   UNL A   1      34.061  33.514  30.491  1.00  0.00     0.014 A 
ATOM      9  C   UNL A   1      35.479  34.574  28.838  1.00  0.00     0.014 A 
ATOM     10  C   UNL A   1      35.187  33.014  31.141  1.00  0.00     0.010 A 
ATOM     11  C   UNL A   1      36.604  34.023  29.454  1.00  0.00     0.010 A 
ATOM     12  C   UNL A   1      36.465  33.247  30.614  1.00  0.00    -0.014 A 
BRANCH  12  13
ATOM     13  C   UNL A   1      37.652  32.610  31.231  1.00  0.00     0.031 A 
ATOM     14  C   UNL A   1      38.367  31.493  30.536  1.00  0.00     0.074 A 
ATOM     15  C   UNL A   1      38.050  33.023  32.449  1.00  0.00     0.049 A 
ATOM     16  N   UNL A   1      39.370  30.764  30.959  1.00  0.00    -0.248 NA
ATOM     17  C   UNL A   1      37.887  31.139  29.193  1.00  0.00     0.031 C 
ATOM     18  C   UNL A   1      37.416  34.089  33.225  1.00  0.00     0.029 A 
ATOM     19  N   UNL A   1      39.072  32.587  33.254  1.00  0.00    -0.354 N 
ATOM     20  C   UNL A   1      39.625  29.851  29.945  1.00  0.00     0.074 A 
ATOM     21  C   UNL A   1      38.662  30.105  28.895  1.00  0.00     0.031 C 
ATOM     22  C   UNL A   1      38.062  34.228  34.391  1.00  0.00     0.029 A 
ATOM     23  C   UNL A   1      39.123  33.229  34.466  1.00  0.00     0.049 A 
ATOM     24  H   UNL A   1      39.706  31.882  32.988  1.00  0.00     0.167 HD
ATOM     25  C   UNL A   1      40.580  28.892  29.901  1.00  0.00     0.037 A 
ATOM     26  C   UNL A   1      39.916  33.017  35.532  1.00  0.00     0.037 A 
ATOM     27  C   UNL A   1      41.541  28.658  30.947  1.00  0.00     0.049 A 
ATOM     28  C   UNL A   1      40.959  31.939  35.465  1.00  0.00     0.074 A 
ATOM     29  C   UNL A   1      42.583  27.748  30.976  1.00  0.00     0.029 A 
ATOM     30  N   UNL A   1      41.570  29.338  32.158  1.00  0.00    -0.354 N 
ATOM     31  N   UNL A   1      41.223  31.110  34.485  1.00  0.00    -0.248 NA
ATOM     32  C   UNL A   1      41.812  31.766  36.648  1.00  0.00     0.031 C 
ATOM     33  C   UNL A   1      43.217  27.847  32.219  1.00  0.00     0.029 A 
ATOM     34  C   UNL A   1      42.597  28.849  32.949  1.00  0.00     0.049 A 
ATOM     35  H   UNL A   1      40.952  30.059  32.415  1.00  0.00     0.167 HD
ATOM     36  C   UNL A   1      42.280  30.327  34.922  1.00  0.00     0.074 A 
ATOM     37  C   UNL A   1      42.615  30.785  36.256  1.00  0.00     0.031 C 
ATOM     38  C   UNL A   1      42.916  29.321  34.275  1.00  0.00     0.037 A 
BRANCH  25  39
ATOM     39  C   UNL A   1      40.613  28.006  28.690  1.00  0.00     0.064 A 
ATOM     40  C   UNL A   1      39.901  26.798  28.640  1.00  0.00     0.173 A 
ATOM     41  C   UNL A   1      41.354  28.380  27.559  1.00  0.00     0.173 A 
ATOM     42  F   UNL A   1      39.187  26.391  29.699  1.00  0.00    -0.203 F 
ATOM     43  C   UNL A   1      39.955  25.982  27.512  1.00  0.00     0.198 A 
ATOM     44  C   UNL A   1      41.387  27.574  26.425  1.00  0.00     0.198 A 
ATOM     45  F   UNL A   1      42.049  29.528  27.555  1.00  0.00    -0.203 F 
ATOM     46  F   UNL A   1      39.309  24.809  27.505  1.00  0.00    -0.200 F 
ATOM     47  C   UNL A   1      40.695  26.372  26.405  1.00  0.00     0.200 A 
ATOM     48  F   UNL A   1      42.094  27.956  25.353  1.00  0.00    -0.200 F 
ATOM     49  F   UNL A   1      40.748  25.585  25.322  1.00  0.00    -0.200 F 
ENDBRANCH  25  39
BRANCH  26  50
ATOM     50  C   UNL A   1      39.730  33.849  36.746  1.00  0.00     0.064 A 
ATOM     51  C   UNL A   1      40.328  35.111  36.854  1.00  0.00     0.173 A 
ATOM     52  C   UNL A   1      38.894  33.426  37.791  1.00  0.00     0.173 A 
ATOM     53  F   UNL A   1      41.146  35.548  35.886  1.00  0.00    -0.203 F 
ATOM     54  C   UNL A   1      40.095  35.922  37.962  1.00  0.00     0.198 A 
ATOM     55  C   UNL A   1      38.644  34.248  38.886  1.00  0.00     0.198 A 
ATOM     56  F   UNL A   1      38.293  32.229  37.727  1.00  0.00    -0.203 F 
ATOM     57  F   UNL A   1      40.689  37.119  38.050  1.00  0.00    -0.200 F 
ATOM     58  C   UNL A   1      39.245  35.494  38.973  1.00  0.00     0.200 A 
ATOM     59  F   UNL A   1      37.809  33.839  39.852  1.00  0.00    -0.200 F 
ATOM     60  F   UNL A   1      39.003  36.285  40.027  1.00  0.00    -0.200 F 
ENDBRANCH  26  50
BRANCH  38  61
ATOM     61  C   UNL A   1      44.057  28.660  34.985  1.00  0.00     0.064 A 
ATOM     62  C   UNL A   1      43.864  27.517  35.774  1.00  0.00     0.173 A 
ATOM     63  C   UNL A   1      45.365  29.138  34.823  1.00  0.00     0.173 A 
ATOM     64  F   UNL A   1      42.628  27.034  35.971  1.00  0.00    -0.203 F 
ATOM     65  C   UNL A   1      44.942  26.881  36.382  1.00  0.00     0.198 A 
ATOM     66  C   UNL A   1      46.443  28.487  35.413  1.00  0.00     0.198 A 
ATOM     67  F   UNL A   1      45.599  30.227  34.073  1.00  0.00    -0.203 F 
ATOM     68  F   UNL A   1      44.734  25.804  37.153  1.00  0.00    -0.200 F 
ATOM     69  C   UNL A   1      46.230  27.360  36.194  1.00  0.00     0.200 A 
ATOM     70  F   UNL A   1      47.688  28.945  35.223  1.00  0.00    -0.200 F 
ATOM     71  F   UNL A   1      47.269  26.738  36.769  1.00  0.00    -0.200 F 
ENDBRANCH  38  61
ENDBRANCH  12  13
ENDBRANCH   5   7
ENDBRANCH   2   3
ENDBRANCH   1   2
BRANCH   1  72
ATOM     72  C   UNL A   1      31.541  30.742  26.067  1.00  0.00     0.117 C 
BRANCH  72  73
ATOM     73  N   UNL A   1      30.905  30.504  24.781  1.00  0.00    -0.356 N 
ATOM     74  C   UNL A   1      30.656  29.412  24.024  1.00  0.00     0.224 C 
ATOM     75  H   UNL A   1      30.581  31.334  24.364  1.00  0.00     0.163 HD
ATOM     76  O   UNL A   1      30.139  29.653  22.923  1.00  0.00    -0.275 OA
BRANCH  74  77
ATOM     77  C   UNL A   1      30.928  27.957  24.409  1.00  0.00     0.098 C 
ATOM     78  C   UNL A   1      29.851  27.056  23.781  1.00  0.00     0.017 C 
ATOM     79  C   UNL A   1      32.305  27.378  24.136  1.00  0.00     0.133 C 
ATOM     80  C   UNL A   1      29.999  25.613  24.259  1.00  0.00     0.022 C 
ATOM     81  N   UNL A   1      32.433  25.971  24.505  1.00  0.00    -0.338 N 
ATOM     82  C   UNL A   1      31.400  25.068  24.000  1.00  0.00     0.120 C 
BRANCH  81  83
ATOM     83  C   UNL A   1      33.591  25.588  25.185  1.00  0.00     0.254 C 
ATOM     84  O   UNL A   1      34.141  26.293  26.030  1.00  0.00    -0.269 OA
BRANCH  83  85
ATOM     85  C   UNL A   1      34.214  24.290  24.887  1.00  0.00     0.049 A 
ATOM     86  C   UNL A   1      34.972  24.121  23.717  1.00  0.00     0.014 A 
ATOM     87  C   UNL A   1      34.130  23.247  25.833  1.00  0.00     0.012 A 
ATOM     88  C   UNL A   1      35.609  22.908  23.466  1.00  0.00     0.003 A 
ATOM     89  C   UNL A   1      34.786  22.047  25.551  1.00  0.00     0.046 A 
ATOM     90  C   UNL A   1      33.509  23.092  27.106  1.00  0.00     0.029 A 
ATOM     91  C   UNL A   1      35.524  21.847  24.376  1.00  0.00     0.027 A 
ATOM     92  N   UNL A   1      34.562  21.202  26.616  1.00  0.00    -0.361 N 
ATOM     93  C   UNL A   1      33.791  21.824  27.561  1.00  0.00     0.083 A 
ATOM     94  H   UNL A   1      34.907  20.283  26.687  1.00  0.00     0.166 HD
ENDBRANCH  83  85
ENDBRANCH  81  83
ENDBRANCH  74  77
ENDBRANCH  72  73
ENDBRANCH   1  72
TORSDOF 12
ENDMDL
MODEL 2
REMARK VINA RESULT:     -13.3      0.295      1.619
REMARK SMILES O=C(NCCCNC(=O)[C@H]1CCCN(C(=O)c2cccc3[nH]ccc23)C1)c1ccc(-c2c3nc(c(-c4c(F)c(F)c(F)c(F)c4F)c4ccc([nH]4)c(-c4c(F)c(F)c(F)c(F)c4F)c4nc(c(-c5c(F)c(F)c(F)c(F)c5F)c5ccc2[nH]5)C=C4)C=C3)cc1
REMARK SMILES IDX 5 1 4 2 3 3 1 4 2 5 27 7 28 8 89 9 29 10 88 11 30 12 31 13
REMARK SMILES IDX 32 14 82 15 33 16 87 17 81 18 83 19 34 20 86 21 80 22 79 23
REMARK SMILES IDX 35 25 67 26 47 27 66 28 48 29 51 30 65 31 84 32 49 33 50 34
REMARK SMILES IDX 64 36 85 37 52 38 36 39 37 40 45 41 38 42 39 43 43 44 46 45
REMARK SMILES IDX 40 46 41 47 44 48 42 49 68 50 69 51 77 52 70 53 71 54 75 55
REMARK SMILES IDX 78 56 72 57 73 58 76 59 74 60 53 61 54 62 62 63 55 64 56 65
REMARK SMILES IDX 60 66 63 67 57 68 58 69 61 70 59 71 6 72 7 73 8 74 9 76
REMARK SMILES IDX 10 77 11 78 26 79 12 80 14 81 13 82 15 83 16 84 17 85 18 86
REMARK SMILES IDX 25 87 19 88 21 89 24 90 20 91 22 92 23 93
REMARK H PARENT 3 6 83 24 51 35 7 75 22 94
REMARK Flexibility Score: inf
ROOT
ATOM      1  C   UNL A   1      31.402  32.069  26.495  1.00  0.00     0.042 C 
ENDROOT
BRANCH   1   2
ATOM      2  C   UNL A   1      32.628  32.574  27.251  1.00  0.00     0.118 C 
BRANCH   2   3
ATOM      3  N   UNL A   1      32.495  33.982  27.600  1.00  0.00    -0.352 N 
ATOM      4  O   UNL A   1      32.570  35.788  28.931  1.00  0.00    -0.269 OA
ATOM      5  C   UNL A   1      33.042  34.694  28.635  1.00  0.00     0.251 C 
ATOM      6  H   UNL A   1      31.922  34.506  26.996  1.00  0.00     0.163 HD
BRANCH   5   7
ATOM      7  C   UNL A   1      34.204  34.175  29.386  1.00  0.00     0.039 A 
ATOM      8  C   UNL A   1      34.032  33.359  30.507  1.00  0.00     0.014 A 
ATOM      9  C   UNL A   1      35.487  34.414  28.884  1.00  0.00     0.014 A 
ATOM     10  C   UNL A   1      35.142  32.848  31.176  1.00  0.00     0.010 A 
ATOM     11  C   UNL A   1      36.597  33.852  29.517  1.00  0.00     0.010 A 
ATOM     12  C   UNL A   1      36.432  33.072  30.672  1.00  0.00    -0.014 A 
BRANCH  12  13
ATOM     13  C   UNL A   1      37.603  32.424  31.308  1.00  0.00     0.031 A 
ATOM     14  C   UNL A   1      38.296  31.277  30.640  1.00  0.00     0.074 A 
ATOM     15  C   UNL A   1      38.005  32.854  32.518  1.00  0.00     0.049 A 
ATOM     16  N   UNL A   1      39.281  30.536  31.082  1.00  0.00    -0.248 NA
ATOM     17  C   UNL A   1      37.813  30.905  29.302  1.00  0.00     0.031 C 
ATOM     18  C   UNL A   1      37.391  33.951  33.267  1.00  0.00     0.029 A 
ATOM     19  N   UNL A   1      39.015  32.415  33.336  1.00  0.00    -0.354 N 
ATOM     20  C   UNL A   1      39.520  29.596  30.090  1.00  0.00     0.074 A 
ATOM     21  C   UNL A   1      38.566  29.847  29.030  1.00  0.00     0.031 C 
ATOM     22  C   UNL A   1      38.036  34.102  34.433  1.00  0.00     0.029 A 
ATOM     23  C   UNL A   1      39.075  33.082  34.533  1.00  0.00     0.049 A 
ATOM     24  H   UNL A   1      39.634  31.691  33.088  1.00  0.00     0.167 HD
ATOM     25  C   UNL A   1      40.454  28.616  30.070  1.00  0.00     0.037 A 
ATOM     26  C   UNL A   1      39.860  32.876  35.608  1.00  0.00     0.037 A 
ATOM     27  C   UNL A   1      41.406  28.385  31.125  1.00  0.00     0.049 A 
ATOM     28  C   UNL A   1      40.879  31.775  35.568  1.00  0.00     0.074 A 
ATOM     29  C   UNL A   1      42.428  27.453  31.177  1.00  0.00     0.029 A 
ATOM     30  N   UNL A   1      41.446  29.089  32.320  1.00  0.00    -0.354 N 
ATOM     31  N   UNL A   1      41.129  30.920  34.607  1.00  0.00    -0.248 NA
ATOM     32  C   UNL A   1      41.724  31.609  36.758  1.00  0.00     0.031 C 
ATOM     33  C   UNL A   1      43.060  27.566  32.421  1.00  0.00     0.029 A 
ATOM     34  C   UNL A   1      42.459  28.596  33.127  1.00  0.00     0.049 A 
ATOM     35  H   UNL A   1      40.842  29.829  32.560  1.00  0.00     0.167 HD
ATOM     36  C   UNL A   1      42.167  30.124  35.065  1.00  0.00     0.074 A 
ATOM     37  C   UNL A   1      42.508  30.603  36.390  1.00  0.00     0.031 C 
ATOM     38  C   UNL A   1      42.783  29.090  34.442  1.00  0.00     0.037 A 
BRANCH  25  39
ATOM     39  C   UNL A   1      40.472  27.704  28.879  1.00  0.00     0.064 A 
ATOM     40  C   UNL A   1      41.269  27.971  27.756  1.00  0.00     0.173 A 
ATOM     41  C   UNL A   1      39.693  26.537  28.869  1.00  0.00     0.173 A 
ATOM     42  F   UNL A   1      42.023  29.080  27.712  1.00  0.00    -0.203 F 
ATOM     43  C   UNL A   1      41.262  27.120  26.654  1.00  0.00     0.198 A 
ATOM     44  C   UNL A   1      39.706  25.675  27.775  1.00  0.00     0.198 A 
ATOM     45  F   UNL A   1      38.916  26.233  29.919  1.00  0.00    -0.203 F 
ATOM     46  F   UNL A   1      41.992  27.421  25.572  1.00  0.00    -0.200 F 
ATOM     47  C   UNL A   1      40.483  25.972  26.666  1.00  0.00     0.200 A 
ATOM     48  F   UNL A   1      38.961  24.562  27.792  1.00  0.00    -0.200 F 
ATOM     49  F   UNL A   1      40.476  25.155  25.604  1.00  0.00    -0.200 F 
ENDBRANCH  25  39
BRANCH  26  50
ATOM     50  C   UNL A   1      39.687  33.738  36.802  1.00  0.00     0.064 A 
ATOM     51  C   UNL A   1      40.303  34.994  36.880  1.00  0.00     0.173 A 
ATOM     52  C   UNL A   1      38.848  33.351  37.858  1.00  0.00     0.173 A 
ATOM     53  F   UNL A   1      41.125  35.397  35.901  1.00  0.00    -0.203 F 
ATOM     54  C   UNL A   1      40.083  35.833  37.970  1.00  0.00     0.198 A 
ATOM     55  C   UNL A   1      38.611  34.201  38.935  1.00  0.00     0.198 A 
ATOM     56  F   UNL A   1      38.230  32.162  37.823  1.00  0.00    -0.203 F 
ATOM     57  F   UNL A   1      40.694  37.024  38.030  1.00  0.00    -0.200 F 
ATOM     58  C   UNL A   1      39.229  35.441  38.991  1.00  0.00     0.200 A 
ATOM     59  F   UNL A   1      37.772  33.826  39.910  1.00  0.00    -0.200 F 
ATOM     60  F   UNL A   1      39.001  36.258  40.028  1.00  0.00    -0.200 F 
ENDBRANCH  26  50
BRANCH  38  61
ATOM     61  C   UNL A   1      43.907  28.421  35.172  1.00  0.00     0.064 A 
ATOM     62  C   UNL A   1      45.225  28.889  35.072  1.00  0.00     0.173 A 
ATOM     63  C   UNL A   1      43.652  27.342  36.030  1.00  0.00     0.173 A 
ATOM     64  F   UNL A   1      45.520  29.908  34.251  1.00  0.00    -0.203 F 
ATOM     65  C   UNL A   1      46.250  28.292  35.801  1.00  0.00     0.198 A 
ATOM     66  C   UNL A   1      44.675  26.762  36.774  1.00  0.00     0.198 A 
ATOM     67  F   UNL A   1      42.406  26.862  36.161  1.00  0.00    -0.203 F 
ATOM     68  F   UNL A   1      47.508  28.738  35.672  1.00  0.00    -0.200 F 
ATOM     69  C   UNL A   1      45.973  27.237  36.657  1.00  0.00     0.200 A 
ATOM     70  F   UNL A   1      44.405  25.749  37.608  1.00  0.00    -0.200 F 
ATOM     71  F   UNL A   1      46.959  26.673  37.369  1.00  0.00    -0.200 F 
ENDBRANCH  38  61
ENDBRANCH  12  13
ENDBRANCH   5   7
ENDBRANCH   2   3
ENDBRANCH   1   2
BRANCH   1  72
ATOM     72  C   UNL A   1      31.568  30.637  25.992  1.00  0.00     0.117 C 
BRANCH  72  73
ATOM     73  N   UNL A   1      30.915  30.436  24.709  1.00  0.00    -0.356 N 
ATOM     74  C   UNL A   1      30.650  29.365  23.928  1.00  0.00     0.224 C 
ATOM     75  H   UNL A   1      30.589  31.278  24.318  1.00  0.00     0.163 HD
ATOM     76  O   UNL A   1      30.120  29.636  22.841  1.00  0.00    -0.275 OA
BRANCH  74  77
ATOM     77  C   UNL A   1      30.920  27.899  24.271  1.00  0.00     0.098 C 
ATOM     78  C   UNL A   1      29.936  27.006  23.496  1.00  0.00     0.017 C 
ATOM     79  C   UNL A   1      32.333  27.364  24.115  1.00  0.00     0.133 C 
ATOM     80  C   UNL A   1      30.073  25.545  23.920  1.00  0.00     0.022 C 
ATOM     81  N   UNL A   1      32.460  25.944  24.430  1.00  0.00    -0.338 N 
ATOM     82  C   UNL A   1      31.507  25.044  23.781  1.00  0.00     0.120 C 
BRANCH  81  83
ATOM     83  C   UNL A   1      33.552  25.553  25.207  1.00  0.00     0.254 C 
ATOM     84  O   UNL A   1      34.025  26.249  26.103  1.00  0.00    -0.269 OA
BRANCH  83  85
ATOM     85  C   UNL A   1      34.200  24.258  24.952  1.00  0.00     0.049 A 
ATOM     86  C   UNL A   1      35.020  24.085  23.825  1.00  0.00     0.014 A 
ATOM     87  C   UNL A   1      34.074  23.222  25.901  1.00  0.00     0.012 A 
ATOM     88  C   UNL A   1      35.678  22.876  23.618  1.00  0.00     0.003 A 
ATOM     89  C   UNL A   1      34.752  22.025  25.663  1.00  0.00     0.046 A 
ATOM     90  C   UNL A   1      33.388  23.071  27.140  1.00  0.00     0.029 A 
ATOM     91  C   UNL A   1      35.553  21.821  24.531  1.00  0.00     0.027 A 
ATOM     92  N   UNL A   1      34.479  21.186  26.722  1.00  0.00    -0.361 N 
ATOM     93  C   UNL A   1      33.655  21.810  27.620  1.00  0.00     0.083 A 
ATOM     94  H   UNL A   1      34.827  20.270  26.818  1.00  0.00     0.166 HD
ENDBRANCH  83  85
ENDBRANCH  81  83
ENDBRANCH  74  77
ENDBRANCH  72  73
ENDBRANCH   1  72
TORSDOF 12
ENDMDL
MODEL 3
REMARK VINA RESULT:     -13.2      1.056      1.659
REMARK SMILES O=C(NCCCNC(=O)[C@H]1CCCN(C(=O)c2cccc3[nH]ccc23)C1)c1ccc(-c2c3nc(c(-c4c(F)c(F)c(F)c(F)c4F)c4ccc([nH]4)c(-c4c(F)c(F)c(F)c(F)c4F)c4nc(c(-c5c(F)c(F)c(F)c(F)c5F)c5ccc2[nH]5)C=C4)C=C3)cc1
REMARK SMILES IDX 5 1 4 2 3 3 1 4 2 5 27 7 28 8 89 9 29 10 88 11 30 12 31 13
REMARK SMILES IDX 32 14 82 15 33 16 87 17 81 18 83 19 34 20 86 21 80 22 79 23
REMARK SMILES IDX 35 25 67 26 47 27 66 28 48 29 51 30 65 31 84 32 49 33 50 34
REMARK SMILES IDX 64 36 85 37 52 38 36 39 37 40 45 41 38 42 39 43 43 44 46 45
REMARK SMILES IDX 40 46 41 47 44 48 42 49 68 50 69 51 77 52 70 53 71 54 75 55
REMARK SMILES IDX 78 56 72 57 73 58 76 59 74 60 53 61 54 62 62 63 55 64 56 65
REMARK SMILES IDX 60 66 63 67 57 68 58 69 61 70 59 71 6 72 7 73 8 74 9 76
REMARK SMILES IDX 10 77 11 78 26 79 12 80 14 81 13 82 15 83 16 84 17 85 18 86
REMARK SMILES IDX 25 87 19 88 21 89 24 90 20 91 22 92 23 93
REMARK H PARENT 3 6 83 24 51 35 7 75 22 94
REMARK Flexibility Score: inf
ROOT
ATOM      1  C   UNL A   1      31.408  32.308  26.489  1.00  0.00     0.042 C 
ENDROOT
BRANCH   1   2
ATOM      2  C   UNL A   1      32.641  32.807  27.239  1.00  0.00     0.118 C 
BRANCH   2   3
ATOM      3  N   UNL A   1      32.498  34.202  27.630  1.00  0.00    -0.352 N 
ATOM      4  O   UNL A   1      32.554  35.967  29.016  1.00  0.00    -0.269 OA
ATOM      5  C   UNL A   1      33.035  34.886  28.689  1.00  0.00     0.251 C 
ATOM      6  H   UNL A   1      31.924  34.741  27.039  1.00  0.00     0.163 HD
BRANCH   5   7
ATOM      7  C   UNL A   1      34.197  34.351  29.429  1.00  0.00     0.039 A 
ATOM      8  C   UNL A   1      34.024  33.552  30.563  1.00  0.00     0.014 A 
ATOM      9  C   UNL A   1      35.477  34.557  28.907  1.00  0.00     0.014 A 
ATOM     10  C   UNL A   1      35.133  33.025  31.222  1.00  0.00     0.010 A 
ATOM     11  C   UNL A   1      36.584  33.980  29.531  1.00  0.00     0.010 A 
ATOM     12  C   UNL A   1      36.420  33.217  30.697  1.00  0.00    -0.014 A 
BRANCH  12  13
ATOM     13  C   UNL A   1      37.586  32.552  31.324  1.00  0.00     0.031 A 
ATOM     14  C   UNL A   1      38.271  31.409  30.640  1.00  0.00     0.074 A 
ATOM     15  C   UNL A   1      37.991  32.962  32.540  1.00  0.00     0.049 A 
ATOM     16  N   UNL A   1      39.251  30.655  31.072  1.00  0.00    -0.248 NA
ATOM     17  C   UNL A   1      37.786  31.058  29.297  1.00  0.00     0.031 C 
ATOM     18  C   UNL A   1      37.385  34.053  33.304  1.00  0.00     0.029 A 
ATOM     19  N   UNL A   1      38.997  32.504  33.352  1.00  0.00    -0.354 N 
ATOM     20  C   UNL A   1      39.483  29.727  30.067  1.00  0.00     0.074 A 
ATOM     21  C   UNL A   1      38.531  30.000  29.011  1.00  0.00     0.031 C 
ATOM     22  C   UNL A   1      38.030  34.182  34.472  1.00  0.00     0.029 A 
ATOM     23  C   UNL A   1      39.063  33.154  34.558  1.00  0.00     0.049 A 
ATOM     24  H   UNL A   1      39.612  31.779  33.094  1.00  0.00     0.167 HD
ATOM     25  C   UNL A   1      40.410  28.741  30.034  1.00  0.00     0.037 A 
ATOM     26  C   UNL A   1      39.845  32.928  35.630  1.00  0.00     0.037 A 
ATOM     27  C   UNL A   1      41.361  28.488  31.085  1.00  0.00     0.049 A 
ATOM     28  C   UNL A   1      40.857  31.820  35.575  1.00  0.00     0.074 A 
ATOM     29  C   UNL A   1      42.376  27.549  31.125  1.00  0.00     0.029 A 
ATOM     30  N   UNL A   1      41.405  29.176  32.290  1.00  0.00    -0.354 N 
ATOM     31  N   UNL A   1      41.101  30.977  34.602  1.00  0.00    -0.248 NA
ATOM     32  C   UNL A   1      41.701  31.632  36.762  1.00  0.00     0.031 C 
ATOM     33  C   UNL A   1      43.008  27.640  32.369  1.00  0.00     0.029 A 
ATOM     34  C   UNL A   1      42.415  28.665  33.089  1.00  0.00     0.049 A 
ATOM     35  H   UNL A   1      40.807  29.917  32.540  1.00  0.00     0.167 HD
ATOM     36  C   UNL A   1      42.134  30.167  35.049  1.00  0.00     0.074 A 
ATOM     37  C   UNL A   1      42.477  30.626  36.380  1.00  0.00     0.031 C 
ATOM     38  C   UNL A   1      42.742  29.138  34.412  1.00  0.00     0.037 A 
BRANCH  25  39
ATOM     39  C   UNL A   1      40.422  27.845  28.830  1.00  0.00     0.064 A 
ATOM     40  C   UNL A   1      41.194  28.141  27.697  1.00  0.00     0.173 A 
ATOM     41  C   UNL A   1      39.662  26.665  28.817  1.00  0.00     0.173 A 
ATOM     42  F   UNL A   1      41.927  29.263  27.654  1.00  0.00    -0.203 F 
ATOM     43  C   UNL A   1      41.181  27.305  26.583  1.00  0.00     0.198 A 
ATOM     44  C   UNL A   1      39.670  25.819  27.712  1.00  0.00     0.198 A 
ATOM     45  F   UNL A   1      38.911  26.334  29.878  1.00  0.00    -0.203 F 
ATOM     46  F   UNL A   1      41.886  27.633  25.493  1.00  0.00    -0.200 F 
ATOM     47  C   UNL A   1      40.422  26.143  26.593  1.00  0.00     0.200 A 
ATOM     48  F   UNL A   1      38.945  24.692  27.727  1.00  0.00    -0.200 F 
ATOM     49  F   UNL A   1      40.409  25.341  25.520  1.00  0.00    -0.200 F 
ENDBRANCH  25  39
BRANCH  26  50
ATOM     50  C   UNL A   1      39.679  33.774  36.836  1.00  0.00     0.064 A 
ATOM     51  C   UNL A   1      40.290  35.032  36.925  1.00  0.00     0.173 A 
ATOM     52  C   UNL A   1      38.849  33.371  37.893  1.00  0.00     0.173 A 
ATOM     53  F   UNL A   1      41.103  35.450  35.944  1.00  0.00    -0.203 F 
ATOM     54  C   UNL A   1      40.075  35.857  38.026  1.00  0.00     0.198 A 
ATOM     55  C   UNL A   1      38.617  34.207  38.982  1.00  0.00     0.198 A 
ATOM     56  F   UNL A   1      38.236  32.180  37.848  1.00  0.00    -0.203 F 
ATOM     57  F   UNL A   1      40.682  37.049  38.096  1.00  0.00    -0.200 F 
ATOM     58  C   UNL A   1      39.231  35.448  39.049  1.00  0.00     0.200 A 
ATOM     59  F   UNL A   1      37.788  33.816  39.960  1.00  0.00    -0.200 F 
ATOM     60  F   UNL A   1      39.007  36.252  40.098  1.00  0.00    -0.200 F 
ENDBRANCH  26  50
BRANCH  38  61
ATOM     61  C   UNL A   1      43.862  28.451  35.132  1.00  0.00     0.064 A 
ATOM     62  C   UNL A   1      43.633  27.320  35.929  1.00  0.00     0.173 A 
ATOM     63  C   UNL A   1      45.184  28.889  34.970  1.00  0.00     0.173 A 
ATOM     64  F   UNL A   1      42.383  26.874  36.126  1.00  0.00    -0.203 F 
ATOM     65  C   UNL A   1      44.691  26.658  36.546  1.00  0.00     0.198 A 
ATOM     66  C   UNL A   1      46.240  28.213  35.570  1.00  0.00     0.198 A 
ATOM     67  F   UNL A   1      45.451  29.965  34.213  1.00  0.00    -0.203 F 
ATOM     68  F   UNL A   1      44.450  25.594  37.325  1.00  0.00    -0.200 F 
ATOM     69  C   UNL A   1      45.993  27.099  36.359  1.00  0.00     0.200 A 
ATOM     70  F   UNL A   1      47.498  28.633  35.381  1.00  0.00    -0.200 F 
ATOM     71  F   UNL A   1      47.011  26.451  36.942  1.00  0.00    -0.200 F 
ENDBRANCH  38  61
ENDBRANCH  12  13
ENDBRANCH   5   7
ENDBRANCH   2   3
ENDBRANCH   1   2
BRANCH   1  72
ATOM     72  C   UNL A   1      31.488  30.822  26.146  1.00  0.00     0.117 C 
BRANCH  72  73
ATOM     73  N   UNL A   1      32.751  30.238  26.568  1.00  0.00    -0.356 N 
ATOM     74  C   UNL A   1      33.473  29.154  26.204  1.00  0.00     0.224 C 
ATOM     75  H   UNL A   1      33.180  30.753  27.288  1.00  0.00     0.163 HD
ATOM     76  O   UNL A   1      34.493  28.962  26.881  1.00  0.00    -0.275 OA
BRANCH  74  77
ATOM     77  C   UNL A   1      33.158  28.195  25.055  1.00  0.00     0.098 C 
ATOM     78  C   UNL A   1      33.514  28.870  23.719  1.00  0.00     0.017 C 
ATOM     79  C   UNL A   1      33.743  26.795  25.095  1.00  0.00     0.133 C 
ATOM     80  C   UNL A   1      33.079  28.006  22.537  1.00  0.00     0.022 C 
ATOM     81  N   UNL A   1      33.410  25.987  23.926  1.00  0.00    -0.338 N 
ATOM     82  C   UNL A   1      33.657  26.596  22.620  1.00  0.00     0.120 C 
BRANCH  81  83
ATOM     83  C   UNL A   1      33.019  24.665  24.148  1.00  0.00     0.254 C 
ATOM     84  O   UNL A   1      31.846  24.295  24.117  1.00  0.00    -0.269 OA
BRANCH  83  85
ATOM     85  C   UNL A   1      34.035  23.646  24.453  1.00  0.00     0.049 A 
ATOM     86  C   UNL A   1      35.082  23.398  23.552  1.00  0.00     0.014 A 
ATOM     87  C   UNL A   1      34.006  22.993  25.703  1.00  0.00     0.012 A 
ATOM     88  C   UNL A   1      36.073  22.474  23.870  1.00  0.00     0.003 A 
ATOM     89  C   UNL A   1      35.020  22.076  25.991  1.00  0.00     0.046 A 
ATOM     90  C   UNL A   1      33.150  23.035  26.841  1.00  0.00     0.029 A 
ATOM     91  C   UNL A   1      36.059  21.792  25.093  1.00  0.00     0.027 A 
ATOM     92  N   UNL A   1      34.777  21.585  27.255  1.00  0.00    -0.361 N 
ATOM     93  C   UNL A   1      33.649  22.159  27.778  1.00  0.00     0.083 A 
ATOM     94  H   UNL A   1      35.335  20.918  27.716  1.00  0.00     0.166 HD
ENDBRANCH  83  85
ENDBRANCH  81  83
ENDBRANCH  74  77
ENDBRANCH  72  73
ENDBRANCH   1  72
TORSDOF 12
ENDMDL
