MODEL 1
REMARK VINA RESULT:     -11.5      0.000      0.000
REMARK SMILES CCC[C@H](Nc1cc(C)c(N)c(C(=O)NCCCNC(=O)c2ccc(-c3c4nc(c(-c5c(F)c(F)c(F)c(F)c5F)c5ccc([nH]5)c(-c5c(F)c(F)c(F)c(F)c5F)c5nc(c(-c6c(F)c(F)c(F)c(F)c6F)c6ccc3[nH]6)C=C5)C=C4)cc2)c1)c1cccs1
REMARK SMILES IDX 16 1 15 2 13 3 14 4 12 6 6 7 7 8 85 9 8 10 9 11 10 12 5 13
REMARK SMILES IDX 4 15 3 16 2 17 1 18 86 19 87 20 90 21 88 22 89 23 11 24
REMARK SMILES IDX 17 27 18 28 19 29 20 30 21 32 22 33 23 34 84 35 24 36 83 37
REMARK SMILES IDX 25 38 26 39 27 40 77 41 28 42 82 43 76 44 78 45 29 46 81 47
REMARK SMILES IDX 75 48 74 49 30 51 62 52 42 53 61 54 43 55 46 56 60 57 79 58
REMARK SMILES IDX 44 59 45 60 59 62 80 63 47 64 31 65 32 66 40 67 33 68 34 69
REMARK SMILES IDX 38 70 41 71 35 72 36 73 39 74 37 75 63 76 64 77 72 78 65 79
REMARK SMILES IDX 66 80 70 81 73 82 67 83 68 84 71 85 69 86 48 87 49 88 57 89
REMARK SMILES IDX 50 90 51 91 55 92 58 93 52 94 53 95 56 96 54 97
REMARK H PARENT 15 5 5 14 11 25 11 26 19 31 78 50 46 61
REMARK Flexibility Score: inf
ROOT
ATOM      1  C   UNL A   1      32.360  27.410  26.828  1.00  0.00     0.118 C 
ENDROOT
BRANCH   1   2
ATOM      2  N   UNL A   1      31.306  26.415  26.880  1.00  0.00    -0.352 N 
ATOM      3  C   UNL A   1      30.941  25.352  26.089  1.00  0.00     0.253 C 
ATOM      4  O   UNL A   1      29.960  24.719  26.494  1.00  0.00    -0.269 OA
ATOM      5  H   UNL A   1      30.719  26.526  27.662  1.00  0.00     0.163 HD
BRANCH   3   6
ATOM      6  C   UNL A   1      31.631  24.929  24.822  1.00  0.00     0.065 A 
ATOM      7  C   UNL A   1      33.272  23.518  23.637  1.00  0.00     0.036 A 
ATOM      8  C   UNL A   1      33.015  24.239  22.477  1.00  0.00     0.031 A 
ATOM      9  C   UNL A   1      32.599  23.915  24.803  1.00  0.00     0.041 A 
ATOM     10  C   UNL A   1      32.053  25.265  22.441  1.00  0.00    -0.025 A 
ATOM     11  C   UNL A   1      31.784  25.950  21.127  1.00  0.00     0.046 C 
ATOM     12  C   UNL A   1      31.365  25.631  23.618  1.00  0.00     0.047 A 
BRANCH   7  13
ATOM     13  N   UNL A   1      34.177  22.476  23.737  1.00  0.00    -0.377 N 
ATOM     14  H   UNL A   1      34.474  22.077  22.887  1.00  0.00     0.161 HD
BRANCH  13  15
ATOM     15  C   UNL A   1      34.746  21.891  24.958  1.00  0.00     0.119 C 
BRANCH  15  16
ATOM     16  C   UNL A   1      34.618  20.350  24.985  1.00  0.00     0.030 C 
BRANCH  16  17
ATOM     17  C   UNL A   1      33.187  19.843  24.747  1.00  0.00    -0.001 C 
ATOM     18  C   UNL A   1      32.899  18.547  25.497  1.00  0.00     0.004 C 
ENDBRANCH  16  17
ENDBRANCH  15  16
BRANCH  15  19
ATOM     19  C   UNL A   1      36.113  22.395  25.420  1.00  0.00     0.027 A 
ATOM     20  C   UNL A   1      36.446  23.677  25.832  1.00  0.00     0.017 A 
ATOM     21  S   UNL A   1      37.520  21.404  25.378  1.00  0.00    -0.147 S 
ATOM     22  C   UNL A   1      37.832  23.827  26.133  1.00  0.00     0.012 A 
ATOM     23  C   UNL A   1      38.528  22.659  25.935  1.00  0.00     0.065 A 
ENDBRANCH  15  19
ENDBRANCH  13  15
ENDBRANCH   7  13
BRANCH  12  24
ATOM     24  N   UNL A   1      30.332  26.574  23.536  1.00  0.00    -0.398 N 
ATOM     25  H   UNL A   1      30.472  27.488  23.875  1.00  0.00     0.156 HD
ATOM     26  H   UNL A   1      29.466  26.322  23.140  1.00  0.00     0.156 HD
ENDBRANCH  12  24
ENDBRANCH   3   6
ENDBRANCH   1   2
BRANCH   1  27
ATOM     27  C   UNL A   1      31.986  28.575  25.904  1.00  0.00     0.042 C 
BRANCH  27  28
ATOM     28  C   UNL A   1      33.129  29.566  25.663  1.00  0.00     0.118 C 
BRANCH  28  29
ATOM     29  N   UNL A   1      32.804  30.898  26.150  1.00  0.00    -0.352 N 
ATOM     30  C   UNL A   1      33.347  31.647  27.159  1.00  0.00     0.251 C 
ATOM     31  H   UNL A   1      32.064  31.337  25.670  1.00  0.00     0.163 HD
ATOM     32  O   UNL A   1      32.758  32.662  27.523  1.00  0.00    -0.269 OA
BRANCH  30  33
ATOM     33  C   UNL A   1      34.619  31.275  27.820  1.00  0.00     0.039 A 
ATOM     34  C   UNL A   1      34.716  29.992  28.374  1.00  0.00     0.014 A 
ATOM     35  C   UNL A   1      35.665  32.186  28.002  1.00  0.00     0.014 A 
ATOM     36  C   UNL A   1      35.859  29.615  29.081  1.00  0.00     0.010 A 
ATOM     37  C   UNL A   1      36.830  31.792  28.669  1.00  0.00     0.010 A 
ATOM     38  C   UNL A   1      36.933  30.508  29.224  1.00  0.00    -0.014 A 
BRANCH  38  39
ATOM     39  C   UNL A   1      38.157  30.089  29.953  1.00  0.00     0.031 A 
ATOM     40  C   UNL A   1      38.430  30.575  31.348  1.00  0.00     0.074 A 
ATOM     41  C   UNL A   1      39.035  29.271  29.343  1.00  0.00     0.049 A 
ATOM     42  N   UNL A   1      39.428  30.281  32.145  1.00  0.00    -0.248 NA
ATOM     43  C   UNL A   1      37.468  31.529  31.918  1.00  0.00     0.031 C 
ATOM     44  C   UNL A   1      38.909  28.772  27.973  1.00  0.00     0.029 A 
ATOM     45  N   UNL A   1      40.203  28.711  29.796  1.00  0.00    -0.354 N 
ATOM     46  C   UNL A   1      39.219  31.020  33.303  1.00  0.00     0.074 A 
ATOM     47  C   UNL A   1      38.023  31.806  33.090  1.00  0.00     0.031 C 
ATOM     48  C   UNL A   1      39.943  27.959  27.705  1.00  0.00     0.029 A 
ATOM     49  C   UNL A   1      40.813  27.894  28.877  1.00  0.00     0.049 A 
ATOM     50  H   UNL A   1      40.570  28.881  30.693  1.00  0.00     0.167 HD
ATOM     51  C   UNL A   1      39.950  31.027  34.444  1.00  0.00     0.037 A 
ATOM     52  C   UNL A   1      41.941  27.165  28.971  1.00  0.00     0.037 A 
ATOM     53  C   UNL A   1      41.126  30.226  34.665  1.00  0.00     0.049 A 
ATOM     54  C   UNL A   1      42.711  27.162  30.261  1.00  0.00     0.074 A 
ATOM     55  C   UNL A   1      41.896  30.116  35.811  1.00  0.00     0.029 A 
ATOM     56  N   UNL A   1      41.702  29.394  33.717  1.00  0.00    -0.354 N 
ATOM     57  N   UNL A   1      42.463  27.808  31.374  1.00  0.00    -0.248 NA
ATOM     58  C   UNL A   1      43.912  26.318  30.311  1.00  0.00     0.031 C 
ATOM     59  C   UNL A   1      42.958  29.244  35.545  1.00  0.00     0.029 A 
ATOM     60  C   UNL A   1      42.828  28.782  34.246  1.00  0.00     0.049 A 
ATOM     61  H   UNL A   1      41.363  29.258  32.803  1.00  0.00     0.167 HD
ATOM     62  C   UNL A   1      43.464  27.440  32.260  1.00  0.00     0.074 A 
ATOM     63  C   UNL A   1      44.313  26.494  31.563  1.00  0.00     0.031 C 
ATOM     64  C   UNL A   1      43.666  27.849  33.536  1.00  0.00     0.037 A 
BRANCH  51  65
ATOM     65  C   UNL A   1      39.493  31.931  35.552  1.00  0.00     0.064 A 
ATOM     66  C   UNL A   1      39.941  33.257  35.648  1.00  0.00     0.173 A 
ATOM     67  C   UNL A   1      38.567  31.479  36.505  1.00  0.00     0.173 A 
ATOM     68  F   UNL A   1      40.833  33.734  34.767  1.00  0.00    -0.203 F 
ATOM     69  C   UNL A   1      39.499  34.090  36.673  1.00  0.00     0.198 A 
ATOM     70  C   UNL A   1      38.109  32.323  37.514  1.00  0.00     0.198 A 
ATOM     71  F   UNL A   1      38.103  30.222  36.453  1.00  0.00    -0.203 F 
ATOM     72  F   UNL A   1      39.972  35.341  36.770  1.00  0.00    -0.200 F 
ATOM     73  C   UNL A   1      38.579  33.625  37.601  1.00  0.00     0.200 A 
ATOM     74  F   UNL A   1      37.212  31.875  38.404  1.00  0.00    -0.200 F 
ATOM     75  F   UNL A   1      38.150  34.429  38.584  1.00  0.00    -0.200 F 
ENDBRANCH  51  65
BRANCH  52  76
ATOM     76  C   UNL A   1      42.379  26.338  27.819  1.00  0.00     0.064 A 
ATOM     77  C   UNL A   1      41.824  25.072  27.593  1.00  0.00     0.173 A 
ATOM     78  C   UNL A   1      43.347  26.802  26.917  1.00  0.00     0.173 A 
ATOM     79  F   UNL A   1      40.909  24.581  28.442  1.00  0.00    -0.203 F 
ATOM     80  C   UNL A   1      42.230  24.293  26.512  1.00  0.00     0.198 A 
ATOM     81  C   UNL A   1      43.735  26.031  25.824  1.00  0.00     0.198 A 
ATOM     82  F   UNL A   1      43.902  28.011  27.090  1.00  0.00    -0.203 F 
ATOM     83  F   UNL A   1      41.709  23.071  26.336  1.00  0.00    -0.200 F 
ATOM     84  C   UNL A   1      43.181  24.776  25.626  1.00  0.00     0.200 A 
ATOM     85  F   UNL A   1      44.646  26.506  24.962  1.00  0.00    -0.200 F 
ATOM     86  F   UNL A   1      43.566  24.028  24.582  1.00  0.00    -0.200 F 
ENDBRANCH  52  76
BRANCH  64  87
ATOM     87  C   UNL A   1      44.844  27.267  34.259  1.00  0.00     0.064 A 
ATOM     88  C   UNL A   1      46.089  27.910  34.259  1.00  0.00     0.173 A 
ATOM     89  C   UNL A   1      44.721  26.065  34.971  1.00  0.00     0.173 A 
ATOM     90  F   UNL A   1      46.259  29.054  33.578  1.00  0.00    -0.203 F 
ATOM     91  C   UNL A   1      47.180  27.355  34.924  1.00  0.00     0.198 A 
ATOM     92  C   UNL A   1      45.807  25.526  35.654  1.00  0.00     0.198 A 
ATOM     93  F   UNL A   1      43.548  25.414  35.003  1.00  0.00    -0.203 F 
ATOM     94  F   UNL A   1      48.374  27.961  34.871  1.00  0.00    -0.200 F 
ATOM     95  C   UNL A   1      47.036  26.167  35.624  1.00  0.00     0.200 A 
ATOM     96  F   UNL A   1      45.666  24.381  36.336  1.00  0.00    -0.200 F 
ATOM     97  F   UNL A   1      48.088  25.633  36.262  1.00  0.00    -0.200 F 
ENDBRANCH  64  87
ENDBRANCH  38  39
ENDBRANCH  30  33
ENDBRANCH  28  29
ENDBRANCH  27  28
ENDBRANCH   1  27
TORSDOF 16
ENDMDL
MODEL 2
REMARK VINA RESULT:     -11.4      1.911      3.065
REMARK SMILES CCC[C@H](Nc1cc(C)c(N)c(C(=O)NCCCNC(=O)c2ccc(-c3c4nc(c(-c5c(F)c(F)c(F)c(F)c5F)c5ccc([nH]5)c(-c5c(F)c(F)c(F)c(F)c5F)c5nc(c(-c6c(F)c(F)c(F)c(F)c6F)c6ccc3[nH]6)C=C5)C=C4)cc2)c1)c1cccs1
REMARK SMILES IDX 16 1 15 2 13 3 14 4 12 6 6 7 7 8 85 9 8 10 9 11 10 12 5 13
REMARK SMILES IDX 4 15 3 16 2 17 1 18 86 19 87 20 90 21 88 22 89 23 11 24
REMARK SMILES IDX 17 27 18 28 19 29 20 30 21 32 22 33 23 34 84 35 24 36 83 37
REMARK SMILES IDX 25 38 26 39 27 40 77 41 28 42 82 43 76 44 78 45 29 46 81 47
REMARK SMILES IDX 75 48 74 49 30 51 62 52 42 53 61 54 43 55 46 56 60 57 79 58
REMARK SMILES IDX 44 59 45 60 59 62 80 63 47 64 31 65 32 66 40 67 33 68 34 69
REMARK SMILES IDX 38 70 41 71 35 72 36 73 39 74 37 75 63 76 64 77 72 78 65 79
REMARK SMILES IDX 66 80 70 81 73 82 67 83 68 84 71 85 69 86 48 87 49 88 57 89
REMARK SMILES IDX 50 90 51 91 55 92 58 93 52 94 53 95 56 96 54 97
REMARK H PARENT 15 5 5 14 11 25 11 26 19 31 78 50 46 61
REMARK Flexibility Score: inf
ROOT
ATOM      1  C   UNL A   1      31.740  30.455  26.716  1.00  0.00     0.118 C 
ENDROOT
BRANCH   1   2
ATOM      2  N   UNL A   1      33.099  30.128  27.102  1.00  0.00    -0.352 N 
ATOM      3  C   UNL A   1      33.998  29.154  26.741  1.00  0.00     0.253 C 
ATOM      4  O   UNL A   1      35.095  29.227  27.306  1.00  0.00    -0.269 OA
ATOM      5  H   UNL A   1      33.461  30.748  27.776  1.00  0.00     0.163 HD
BRANCH   3   6
ATOM      6  C   UNL A   1      33.743  28.057  25.744  1.00  0.00     0.065 A 
ATOM      7  C   UNL A   1      33.434  25.668  25.210  1.00  0.00     0.036 A 
ATOM      8  C   UNL A   1      33.407  26.000  23.861  1.00  0.00     0.031 A 
ATOM      9  C   UNL A   1      33.649  26.711  26.124  1.00  0.00     0.041 A 
ATOM     10  C   UNL A   1      33.496  27.335  23.425  1.00  0.00    -0.025 A 
ATOM     11  C   UNL A   1      33.385  27.617  21.949  1.00  0.00     0.046 C 
ATOM     12  C   UNL A   1      33.682  28.374  24.362  1.00  0.00     0.047 A 
BRANCH   7  13
ATOM     13  N   UNL A   1      33.317  24.384  25.711  1.00  0.00    -0.377 N 
ATOM     14  H   UNL A   1      32.512  24.200  26.248  1.00  0.00     0.161 HD
BRANCH  13  15
ATOM     15  C   UNL A   1      34.248  23.261  25.539  1.00  0.00     0.119 C 
BRANCH  15  16
ATOM     16  C   UNL A   1      35.348  23.239  26.627  1.00  0.00     0.030 C 
BRANCH  16  17
ATOM     17  C   UNL A   1      36.777  23.196  26.062  1.00  0.00    -0.001 C 
ATOM     18  C   UNL A   1      36.848  23.700  24.625  1.00  0.00     0.004 C 
ENDBRANCH  16  17
ENDBRANCH  15  16
BRANCH  15  19
ATOM     19  C   UNL A   1      33.659  21.882  25.245  1.00  0.00     0.027 A 
ATOM     20  C   UNL A   1      34.324  20.765  24.761  1.00  0.00     0.017 A 
ATOM     21  S   UNL A   1      31.974  21.554  25.379  1.00  0.00    -0.147 S 
ATOM     22  C   UNL A   1      33.460  19.654  24.533  1.00  0.00     0.012 A 
ATOM     23  C   UNL A   1      32.154  19.949  24.839  1.00  0.00     0.065 A 
ENDBRANCH  15  19
ENDBRANCH  13  15
ENDBRANCH   7  13
BRANCH  12  24
ATOM     24  N   UNL A   1      33.653  29.703  23.919  1.00  0.00    -0.398 N 
ATOM     25  H   UNL A   1      33.158  29.938  23.101  1.00  0.00     0.156 HD
ATOM     26  H   UNL A   1      34.128  30.401  24.425  1.00  0.00     0.156 HD
ENDBRANCH  12  24
ENDBRANCH   3   6
ENDBRANCH   1   2
BRANCH   1  27
ATOM     27  C   UNL A   1      31.455  31.953  26.882  1.00  0.00     0.042 C 
BRANCH  27  28
ATOM     28  C   UNL A   1      32.712  32.828  26.875  1.00  0.00     0.118 C 
BRANCH  28  29
ATOM     29  N   UNL A   1      32.499  34.089  27.569  1.00  0.00    -0.352 N 
ATOM     30  C   UNL A   1      33.029  34.581  28.732  1.00  0.00     0.251 C 
ATOM     31  H   UNL A   1      31.864  34.695  27.124  1.00  0.00     0.163 HD
ATOM     32  O   UNL A   1      32.530  35.587  29.228  1.00  0.00    -0.269 OA
BRANCH  30  33
ATOM     33  C   UNL A   1      34.182  33.940  29.405  1.00  0.00     0.039 A 
ATOM     34  C   UNL A   1      35.468  34.308  28.990  1.00  0.00     0.014 A 
ATOM     35  C   UNL A   1      34.028  32.917  30.347  1.00  0.00     0.014 A 
ATOM     36  C   UNL A   1      36.590  33.677  29.530  1.00  0.00     0.010 A 
ATOM     37  C   UNL A   1      35.153  32.318  30.924  1.00  0.00     0.010 A 
ATOM     38  C   UNL A   1      36.443  32.684  30.512  1.00  0.00    -0.014 A 
BRANCH  38  39
ATOM     39  C   UNL A   1      37.643  32.039  31.102  1.00  0.00     0.031 A 
ATOM     40  C   UNL A   1      38.109  32.394  32.486  1.00  0.00     0.074 A 
ATOM     41  C   UNL A   1      38.325  31.134  30.376  1.00  0.00     0.049 A 
ATOM     42  N   UNL A   1      39.113  31.904  33.172  1.00  0.00    -0.248 NA
ATOM     43  C   UNL A   1      37.363  33.449  33.186  1.00  0.00     0.031 C 
ATOM     44  C   UNL A   1      38.005  30.741  29.003  1.00  0.00     0.029 A 
ATOM     45  N   UNL A   1      39.425  30.375  30.692  1.00  0.00    -0.354 N 
ATOM     46  C   UNL A   1      39.124  32.595  34.376  1.00  0.00     0.074 A 
ATOM     47  C   UNL A   1      38.053  33.568  34.313  1.00  0.00     0.031 C 
ATOM     48  C   UNL A   1      38.870  29.797  28.603  1.00  0.00     0.029 A 
ATOM     49  C   UNL A   1      39.817  29.530  29.684  1.00  0.00     0.049 A 
ATOM     50  H   UNL A   1      39.889  30.433  31.558  1.00  0.00     0.167 HD
ATOM     51  C   UNL A   1      39.941  32.423  35.443  1.00  0.00     0.037 A 
ATOM     52  C   UNL A   1      40.818  28.632  29.639  1.00  0.00     0.037 A 
ATOM     53  C   UNL A   1      40.990  31.439  35.516  1.00  0.00     0.049 A 
ATOM     54  C   UNL A   1      41.686  28.434  30.849  1.00  0.00     0.074 A 
ATOM     55  C   UNL A   1      41.828  31.144  36.578  1.00  0.00     0.029 A 
ATOM     56  N   UNL A   1      41.344  30.586  34.482  1.00  0.00    -0.354 N 
ATOM     57  N   UNL A   1      41.640  29.043  32.008  1.00  0.00    -0.248 NA
ATOM     58  C   UNL A   1      42.738  27.414  30.748  1.00  0.00     0.031 C 
ATOM     59  C   UNL A   1      42.712  30.137  36.174  1.00  0.00     0.029 A 
ATOM     60  C   UNL A   1      42.399  29.777  34.875  1.00  0.00     0.049 A 
ATOM     61  H   UNL A   1      40.910  30.558  33.598  1.00  0.00     0.167 HD
ATOM     62  C   UNL A   1      42.642  28.473  32.779  1.00  0.00     0.074 A 
ATOM     63  C   UNL A   1      43.267  27.452  31.963  1.00  0.00     0.031 C 
ATOM     64  C   UNL A   1      43.015  28.771  34.048  1.00  0.00     0.037 A 
BRANCH  51  65
ATOM     65  C   UNL A   1      39.730  33.319  36.629  1.00  0.00     0.064 A 
ATOM     66  C   UNL A   1      40.411  34.539  36.756  1.00  0.00     0.173 A 
ATOM     67  C   UNL A   1      38.808  32.973  37.629  1.00  0.00     0.173 A 
ATOM     68  F   UNL A   1      41.309  34.911  35.832  1.00  0.00    -0.203 F 
ATOM     69  C   UNL A   1      40.196  35.368  37.854  1.00  0.00     0.198 A 
ATOM     70  C   UNL A   1      38.578  33.817  38.713  1.00  0.00     0.198 A 
ATOM     71  F   UNL A   1      38.127  31.821  37.550  1.00  0.00    -0.203 F 
ATOM     72  F   UNL A   1      40.888  36.510  37.976  1.00  0.00    -0.200 F 
ATOM     73  C   UNL A   1      39.276  35.010  38.828  1.00  0.00     0.200 A 
ATOM     74  F   UNL A   1      37.681  33.473  39.648  1.00  0.00    -0.200 F 
ATOM     75  F   UNL A   1      39.066  35.811  39.882  1.00  0.00    -0.200 F 
ENDBRANCH  51  65
BRANCH  52  76
ATOM     76  C   UNL A   1      41.019  27.817  28.415  1.00  0.00     0.064 A 
ATOM     77  C   UNL A   1      41.915  28.228  27.420  1.00  0.00     0.173 A 
ATOM     78  C   UNL A   1      40.335  26.608  28.224  1.00  0.00     0.173 A 
ATOM     79  F   UNL A   1      42.577  29.387  27.552  1.00  0.00    -0.203 F 
ATOM     80  C   UNL A   1      42.110  27.467  26.270  1.00  0.00     0.198 A 
ATOM     81  C   UNL A   1      40.548  25.837  27.084  1.00  0.00     0.198 A 
ATOM     82  F   UNL A   1      39.471  26.171  29.152  1.00  0.00    -0.203 F 
ATOM     83  F   UNL A   1      42.946  27.898  25.316  1.00  0.00    -0.200 F 
ATOM     84  C   UNL A   1      41.430  26.269  26.106  1.00  0.00     0.200 A 
ATOM     85  F   UNL A   1      39.899  24.674  26.934  1.00  0.00    -0.200 F 
ATOM     86  F   UNL A   1      41.624  25.534  25.002  1.00  0.00    -0.200 F 
ENDBRANCH  52  76
BRANCH  64  87
ATOM     87  C   UNL A   1      44.143  27.973  34.630  1.00  0.00     0.064 A 
ATOM     88  C   UNL A   1      45.471  28.411  34.534  1.00  0.00     0.173 A 
ATOM     89  C   UNL A   1      43.892  26.769  35.302  1.00  0.00     0.173 A 
ATOM     90  F   UNL A   1      45.762  29.549  33.885  1.00  0.00    -0.203 F 
ATOM     91  C   UNL A   1      46.513  27.657  35.068  1.00  0.00     0.198 A 
ATOM     92  C   UNL A   1      44.934  26.029  35.856  1.00  0.00     0.198 A 
ATOM     93  F   UNL A   1      42.637  26.309  35.423  1.00  0.00    -0.203 F 
ATOM     94  F   UNL A   1      47.779  28.069  34.923  1.00  0.00    -0.200 F 
ATOM     95  C   UNL A   1      46.242  26.470  35.731  1.00  0.00     0.200 A 
ATOM     96  F   UNL A   1      44.671  24.885  36.503  1.00  0.00    -0.200 F 
ATOM     97  F   UNL A   1      47.247  25.743  36.243  1.00  0.00    -0.200 F 
ENDBRANCH  64  87
ENDBRANCH  38  39
ENDBRANCH  30  33
ENDBRANCH  28  29
ENDBRANCH  27  28
ENDBRANCH   1  27
TORSDOF 16
ENDMDL
MODEL 3
REMARK VINA RESULT:     -11.4      4.765     10.058
REMARK SMILES CCC[C@H](Nc1cc(C)c(N)c(C(=O)NCCCNC(=O)c2ccc(-c3c4nc(c(-c5c(F)c(F)c(F)c(F)c5F)c5ccc([nH]5)c(-c5c(F)c(F)c(F)c(F)c5F)c5nc(c(-c6c(F)c(F)c(F)c(F)c6F)c6ccc3[nH]6)C=C5)C=C4)cc2)c1)c1cccs1
REMARK SMILES IDX 16 1 15 2 13 3 14 4 12 6 6 7 7 8 85 9 8 10 9 11 10 12 5 13
REMARK SMILES IDX 4 15 3 16 2 17 1 18 86 19 87 20 90 21 88 22 89 23 11 24
REMARK SMILES IDX 17 27 18 28 19 29 20 30 21 32 22 33 23 34 84 35 24 36 83 37
REMARK SMILES IDX 25 38 26 39 27 40 77 41 28 42 82 43 76 44 78 45 29 46 81 47
REMARK SMILES IDX 75 48 74 49 30 51 62 52 42 53 61 54 43 55 46 56 60 57 79 58
REMARK SMILES IDX 44 59 45 60 59 62 80 63 47 64 31 65 32 66 40 67 33 68 34 69
REMARK SMILES IDX 38 70 41 71 35 72 36 73 39 74 37 75 63 76 64 77 72 78 65 79
REMARK SMILES IDX 66 80 70 81 73 82 67 83 68 84 71 85 69 86 48 87 49 88 57 89
REMARK SMILES IDX 50 90 51 91 55 92 58 93 52 94 53 95 56 96 54 97
REMARK H PARENT 15 5 5 14 11 25 11 26 19 31 78 50 46 61
REMARK Flexibility Score: inf
ROOT
ATOM      1  C   UNL A   1      37.436  21.304  24.629  1.00  0.00     0.118 C 
ENDROOT
BRANCH   1   2
ATOM      2  N   UNL A   1      36.533  21.476  25.751  1.00  0.00    -0.352 N 
ATOM      3  C   UNL A   1      35.167  21.485  25.898  1.00  0.00     0.253 C 
ATOM      4  O   UNL A   1      34.772  21.654  27.057  1.00  0.00    -0.269 OA
ATOM      5  H   UNL A   1      37.008  21.618  26.601  1.00  0.00     0.163 HD
BRANCH   3   6
ATOM      6  C   UNL A   1      34.168  21.306  24.789  1.00  0.00     0.065 A 
ATOM      7  C   UNL A   1      32.694  22.251  23.050  1.00  0.00     0.036 A 
ATOM      8  C   UNL A   1      32.199  20.975  22.813  1.00  0.00     0.031 A 
ATOM      9  C   UNL A   1      33.644  22.391  24.074  1.00  0.00     0.041 A 
ATOM     10  C   UNL A   1      32.690  19.849  23.501  1.00  0.00    -0.025 A 
ATOM     11  C   UNL A   1      32.151  18.492  23.134  1.00  0.00     0.046 C 
ATOM     12  C   UNL A   1      33.667  20.008  24.507  1.00  0.00     0.047 A 
BRANCH   7  13
ATOM     13  N   UNL A   1      32.284  23.394  22.388  1.00  0.00    -0.377 N 
ATOM     14  H   UNL A   1      32.580  23.484  21.454  1.00  0.00     0.161 HD
BRANCH  13  15
ATOM     15  C   UNL A   1      31.460  24.491  22.912  1.00  0.00     0.119 C 
BRANCH  15  16
ATOM     16  C   UNL A   1      30.655  24.074  24.165  1.00  0.00     0.030 C 
BRANCH  16  17
ATOM     17  C   UNL A   1      31.089  24.797  25.450  1.00  0.00    -0.001 C 
ATOM     18  C   UNL A   1      31.549  23.828  26.534  1.00  0.00     0.004 C 
ENDBRANCH  16  17
ENDBRANCH  15  16
BRANCH  15  19
ATOM     19  C   UNL A   1      32.104  25.872  23.038  1.00  0.00     0.027 A 
ATOM     20  C   UNL A   1      33.402  26.165  23.429  1.00  0.00     0.017 A 
ATOM     21  S   UNL A   1      31.214  27.327  22.806  1.00  0.00    -0.147 S 
ATOM     22  C   UNL A   1      33.661  27.565  23.508  1.00  0.00     0.012 A 
ATOM     23  C   UNL A   1      32.553  28.310  23.183  1.00  0.00     0.065 A 
ENDBRANCH  15  19
ENDBRANCH  13  15
ENDBRANCH   7  13
BRANCH  12  24
ATOM     24  N   UNL A   1      34.225  18.867  25.099  1.00  0.00    -0.398 N 
ATOM     25  H   UNL A   1      34.808  18.274  24.571  1.00  0.00     0.156 HD
ATOM     26  H   UNL A   1      34.033  18.657  26.042  1.00  0.00     0.156 HD
ENDBRANCH  12  24
ENDBRANCH   3   6
ENDBRANCH   1   2
BRANCH   1  27
ATOM     27  C   UNL A   1      38.263  20.020  24.768  1.00  0.00     0.042 C 
BRANCH  27  28
ATOM     28  C   UNL A   1      38.953  19.871  26.126  1.00  0.00     0.118 C 
BRANCH  28  29
ATOM     29  N   UNL A   1      40.200  19.128  26.023  1.00  0.00    -0.352 N 
ATOM     30  C   UNL A   1      41.504  19.545  26.047  1.00  0.00     0.251 C 
ATOM     31  H   UNL A   1      40.087  18.155  25.918  1.00  0.00     0.163 HD
ATOM     32  O   UNL A   1      42.384  18.751  25.725  1.00  0.00    -0.269 OA
BRANCH  30  33
ATOM     33  C   UNL A   1      41.885  20.918  26.452  1.00  0.00     0.039 A 
ATOM     34  C   UNL A   1      41.989  21.889  25.448  1.00  0.00     0.014 A 
ATOM     35  C   UNL A   1      42.243  21.242  27.764  1.00  0.00     0.014 A 
ATOM     36  C   UNL A   1      42.424  23.179  25.758  1.00  0.00     0.010 A 
ATOM     37  C   UNL A   1      42.633  22.547  28.084  1.00  0.00     0.010 A 
ATOM     38  C   UNL A   1      42.738  23.524  27.082  1.00  0.00    -0.014 A 
BRANCH  38  39
ATOM     39  C   UNL A   1      43.172  24.906  27.408  1.00  0.00     0.031 A 
ATOM     40  C   UNL A   1      44.570  25.367  27.112  1.00  0.00     0.074 A 
ATOM     41  C   UNL A   1      42.296  25.748  27.988  1.00  0.00     0.049 A 
ATOM     42  N   UNL A   1      45.109  26.548  27.295  1.00  0.00    -0.248 NA
ATOM     43  C   UNL A   1      45.493  24.368  26.554  1.00  0.00     0.031 C 
ATOM     44  C   UNL A   1      40.926  25.406  28.372  1.00  0.00     0.029 A 
ATOM     45  N   UNL A   1      42.424  27.066  28.351  1.00  0.00    -0.354 N 
ATOM     46  C   UNL A   1      46.430  26.431  26.886  1.00  0.00     0.074 A 
ATOM     47  C   UNL A   1      46.626  25.054  26.482  1.00  0.00     0.031 C 
ATOM     48  C   UNL A   1      40.332  26.491  28.892  1.00  0.00     0.029 A 
ATOM     49  C   UNL A   1      41.283  27.600  28.894  1.00  0.00     0.049 A 
ATOM     50  H   UNL A   1      43.257  27.578  28.234  1.00  0.00     0.167 HD
ATOM     51  C   UNL A   1      47.388  27.388  26.835  1.00  0.00     0.037 A 
ATOM     52  C   UNL A   1      41.026  28.845  29.334  1.00  0.00     0.037 A 
ATOM     53  C   UNL A   1      47.186  28.764  27.212  1.00  0.00     0.049 A 
ATOM     54  C   UNL A   1      42.094  29.897  29.232  1.00  0.00     0.074 A 
ATOM     55  C   UNL A   1      48.077  29.822  27.135  1.00  0.00     0.029 A 
ATOM     56  N   UNL A   1      46.009  29.272  27.740  1.00  0.00    -0.354 N 
ATOM     57  N   UNL A   1      43.317  29.792  28.774  1.00  0.00    -0.248 NA
ATOM     58  C   UNL A   1      41.740  31.246  29.695  1.00  0.00     0.031 C 
ATOM     59  C   UNL A   1      47.448  30.963  27.648  1.00  0.00     0.029 A 
ATOM     60  C   UNL A   1      46.155  30.624  28.008  1.00  0.00     0.049 A 
ATOM     61  H   UNL A   1      45.190  28.750  27.900  1.00  0.00     0.167 HD
ATOM     62  C   UNL A   1      43.874  31.058  28.880  1.00  0.00     0.074 A 
ATOM     63  C   UNL A   1      42.847  31.923  29.425  1.00  0.00     0.031 C 
ATOM     64  C   UNL A   1      45.125  31.468  28.558  1.00  0.00     0.037 A 
BRANCH  51  65
ATOM     65  C   UNL A   1      48.747  26.983  26.345  1.00  0.00     0.064 A 
ATOM     66  C   UNL A   1      49.713  26.456  27.216  1.00  0.00     0.173 A 
ATOM     67  C   UNL A   1      49.075  27.084  24.984  1.00  0.00     0.173 A 
ATOM     68  F   UNL A   1      49.452  26.347  28.527  1.00  0.00    -0.203 F 
ATOM     69  C   UNL A   1      50.966  26.070  26.747  1.00  0.00     0.198 A 
ATOM     70  C   UNL A   1      50.320  26.674  24.515  1.00  0.00     0.198 A 
ATOM     71  F   UNL A   1      48.184  27.575  24.110  1.00  0.00    -0.203 F 
ATOM     72  F   UNL A   1      51.888  25.608  27.604  1.00  0.00    -0.200 F 
ATOM     73  C   UNL A   1      51.267  26.173  25.397  1.00  0.00     0.200 A 
ATOM     74  F   UNL A   1      50.605  26.765  23.208  1.00  0.00    -0.200 F 
ATOM     75  F   UNL A   1      52.471  25.797  24.946  1.00  0.00    -0.200 F 
ENDBRANCH  51  65
BRANCH  52  76
ATOM     76  C   UNL A   1      39.681  29.174  29.868  1.00  0.00     0.064 A 
ATOM     77  C   UNL A   1      38.645  29.564  29.010  1.00  0.00     0.173 A 
ATOM     78  C   UNL A   1      39.402  29.089  31.240  1.00  0.00     0.173 A 
ATOM     79  F   UNL A   1      38.873  29.678  27.694  1.00  0.00    -0.203 F 
ATOM     80  C   UNL A   1      37.380  29.872  29.506  1.00  0.00     0.198 A 
ATOM     81  C   UNL A   1      38.130  29.374  31.731  1.00  0.00     0.198 A 
ATOM     82  F   UNL A   1      40.361  28.713  32.099  1.00  0.00    -0.203 F 
ATOM     83  F   UNL A   1      36.415  30.276  28.669  1.00  0.00    -0.200 F 
ATOM     84  C   UNL A   1      37.123  29.771  30.865  1.00  0.00     0.200 A 
ATOM     85  F   UNL A   1      37.881  29.263  33.043  1.00  0.00    -0.200 F 
ATOM     86  F   UNL A   1      35.903  30.060  31.340  1.00  0.00    -0.200 F 
ENDBRANCH  52  76
BRANCH  64  87
ATOM     87  C   UNL A   1      45.444  32.917  28.779  1.00  0.00     0.064 A 
ATOM     88  C   UNL A   1      45.187  33.880  27.793  1.00  0.00     0.173 A 
ATOM     89  C   UNL A   1      45.996  33.348  29.994  1.00  0.00     0.173 A 
ATOM     90  F   UNL A   1      44.675  33.512  26.608  1.00  0.00    -0.203 F 
ATOM     91  C   UNL A   1      45.497  35.220  28.005  1.00  0.00     0.198 A 
ATOM     92  C   UNL A   1      46.283  34.692  30.212  1.00  0.00     0.198 A 
ATOM     93  F   UNL A   1      46.257  32.464  30.970  1.00  0.00    -0.203 F 
ATOM     94  F   UNL A   1      45.289  36.116  27.031  1.00  0.00    -0.200 F 
ATOM     95  C   UNL A   1      46.041  35.625  29.215  1.00  0.00     0.200 A 
ATOM     96  F   UNL A   1      46.801  35.084  31.384  1.00  0.00    -0.200 F 
ATOM     97  F   UNL A   1      46.341  36.917  29.416  1.00  0.00    -0.200 F 
ENDBRANCH  64  87
ENDBRANCH  38  39
ENDBRANCH  30  33
ENDBRANCH  28  29
ENDBRANCH  27  28
ENDBRANCH   1  27
TORSDOF 16
ENDMDL
