MODEL 1
REMARK VINA RESULT:     -11.8      0.000      0.000
REMARK SMILES CCC[NH+]1CCC(NC(=O)NC2(CC(=O)NCCCNC(=O)c3ccc(-c4c5nc(c(-c6c(F)c(F)c(F)c(F)c6F)c6ccc([nH]6)c(-c6c(F)c(F)c(F)c(F)c6F)c6nc(c(-c7c(F)c(F)c(F)c(F)c7F)c7ccc4[nH]7)C=C6)C=C5)cc3)CCC2)CC1
REMARK SMILES IDX 14 1 15 2 16 3 13 5 12 6 86 7 88 8 87 9 11 10 8 11 9 12
REMARK SMILES IDX 10 14 7 16 4 17 5 18 90 19 6 21 89 22 3 23 2 24 1 25 17 26
REMARK SMILES IDX 18 27 19 28 20 29 21 30 22 32 23 33 24 34 85 35 25 36 84 37
REMARK SMILES IDX 26 38 27 39 28 40 78 41 29 42 83 43 77 44 79 45 30 46 82 47
REMARK SMILES IDX 76 48 75 49 31 51 63 52 43 53 62 54 44 55 47 56 61 57 80 58
REMARK SMILES IDX 45 59 46 60 60 62 81 63 48 64 32 65 33 66 41 67 34 68 35 69
REMARK SMILES IDX 39 70 42 71 36 72 37 73 40 74 38 75 64 76 65 77 73 78 66 79
REMARK SMILES IDX 67 80 71 81 74 82 68 83 69 84 72 85 70 86 49 87 50 88 58 89
REMARK SMILES IDX 51 90 52 91 56 92 59 93 53 94 54 95 57 96 55 97
REMARK H PARENT 16 4 8 13 11 15 4 20 20 31 79 50 47 61
REMARK Flexibility Score: inf
ROOT
ATOM      1  C   UNL A   1      32.698  29.185  24.293  1.00  0.00     0.222 C 
ATOM      2  O   UNL A   1      32.922  29.308  23.085  1.00  0.00    -0.275 OA
ATOM      3  N   UNL A   1      31.877  30.098  24.876  1.00  0.00    -0.356 N 
ATOM      4  H   UNL A   1      31.433  30.712  24.248  1.00  0.00     0.163 HD
ENDROOT
BRANCH   1   5
ATOM      5  C   UNL A   1      33.367  28.070  25.074  1.00  0.00     0.128 C 
BRANCH   5   6
ATOM      6  C   UNL A   1      33.091  26.625  24.581  1.00  0.00     0.051 C 
ATOM      7  C   UNL A   1      31.649  26.128  24.888  1.00  0.00     0.029 C 
ATOM      8  C   UNL A   1      33.617  25.629  25.635  1.00  0.00     0.029 C 
ATOM      9  C   UNL A   1      32.181  25.354  26.101  1.00  0.00     0.005 C 
BRANCH   6  10
ATOM     10  N   UNL A   1      33.474  26.502  23.140  1.00  0.00    -0.332 N 
ATOM     11  N   UNL A   1      32.965  24.383  22.143  1.00  0.00    -0.335 N 
ATOM     12  C   UNL A   1      33.273  25.683  22.092  1.00  0.00     0.315 C 
ATOM     13  H   UNL A   1      32.560  24.031  21.317  1.00  0.00     0.165 HD
ATOM     14  O   UNL A   1      33.414  26.176  20.968  1.00  0.00    -0.249 OA
ATOM     15  H   UNL A   1      34.054  27.254  22.878  1.00  0.00     0.165 HD
BRANCH  11  16
ATOM     16  C   UNL A   1      33.120  23.407  23.189  1.00  0.00     0.095 C 
ATOM     17  N   UNL A   1      33.690  21.033  24.780  1.00  0.00    -0.335 N 
ATOM     18  C   UNL A   1      32.317  21.409  24.373  1.00  0.00     0.264 C 
ATOM     19  C   UNL A   1      34.707  22.067  24.562  1.00  0.00     0.264 C 
ATOM     20  H   UNL A   1      33.986  20.271  24.170  1.00  0.00     0.348 HD
ATOM     21  C   UNL A   1      32.217  22.192  23.060  1.00  0.00     0.086 C 
ATOM     22  C   UNL A   1      34.552  22.900  23.292  1.00  0.00     0.086 C 
BRANCH  17  23
ATOM     23  C   UNL A   1      33.652  20.597  26.198  1.00  0.00     0.261 C 
BRANCH  23  24
ATOM     24  C   UNL A   1      34.157  21.589  27.258  1.00  0.00     0.058 C 
ATOM     25  C   UNL A   1      33.072  22.370  27.991  1.00  0.00     0.010 C 
ENDBRANCH  23  24
ENDBRANCH  17  23
ENDBRANCH  11  16
ENDBRANCH   6  10
ENDBRANCH   5   6
ENDBRANCH   1   5
BRANCH   3  26
ATOM     26  C   UNL A   1      31.549  30.312  26.270  1.00  0.00     0.117 C 
BRANCH  26  27
ATOM     27  C   UNL A   1      31.445  31.802  26.607  1.00  0.00     0.042 C 
BRANCH  27  28
ATOM     28  C   UNL A   1      32.766  32.454  27.001  1.00  0.00     0.118 C 
BRANCH  28  29
ATOM     29  N   UNL A   1      32.578  33.812  27.491  1.00  0.00    -0.352 N 
ATOM     30  C   UNL A   1      33.158  34.467  28.547  1.00  0.00     0.251 C 
ATOM     31  H   UNL A   1      31.930  34.347  26.980  1.00  0.00     0.163 HD
ATOM     32  O   UNL A   1      32.701  35.561  28.883  1.00  0.00    -0.269 OA
BRANCH  30  33
ATOM     33  C   UNL A   1      34.303  33.899  29.299  1.00  0.00     0.039 A 
ATOM     34  C   UNL A   1      35.595  34.320  28.957  1.00  0.00     0.014 A 
ATOM     35  C   UNL A   1      34.141  32.907  30.271  1.00  0.00     0.014 A 
ATOM     36  C   UNL A   1      36.710  33.779  29.604  1.00  0.00     0.010 A 
ATOM     37  C   UNL A   1      35.252  32.414  30.963  1.00  0.00     0.010 A 
ATOM     38  C   UNL A   1      36.548  32.834  30.627  1.00  0.00    -0.014 A 
BRANCH  38  39
ATOM     39  C   UNL A   1      37.722  32.261  31.337  1.00  0.00     0.031 A 
ATOM     40  C   UNL A   1      38.522  31.152  30.710  1.00  0.00     0.074 A 
ATOM     41  C   UNL A   1      38.040  32.704  32.568  1.00  0.00     0.049 A 
ATOM     42  N   UNL A   1      39.537  30.484  31.198  1.00  0.00    -0.248 NA
ATOM     43  C   UNL A   1      38.113  30.722  29.364  1.00  0.00     0.031 C 
ATOM     44  C   UNL A   1      37.327  33.750  33.300  1.00  0.00     0.029 A 
ATOM     45  N   UNL A   1      39.041  32.321  33.426  1.00  0.00    -0.354 N 
ATOM     46  C   UNL A   1      39.869  29.539  30.234  1.00  0.00     0.074 A 
ATOM     47  C   UNL A   1      38.928  29.699  29.146  1.00  0.00     0.031 C 
ATOM     48  C   UNL A   1      37.925  33.941  34.487  1.00  0.00     0.029 A 
ATOM     49  C   UNL A   1      39.042  33.008  34.614  1.00  0.00     0.049 A 
ATOM     50  H   UNL A   1      39.699  31.620  33.208  1.00  0.00     0.167 HD
ATOM     51  C   UNL A   1      40.877  28.634  30.247  1.00  0.00     0.037 A 
ATOM     52  C   UNL A   1      39.846  32.896  35.688  1.00  0.00     0.037 A 
ATOM     53  C   UNL A   1      41.839  28.503  31.310  1.00  0.00     0.049 A 
ATOM     54  C   UNL A   1      40.961  31.885  35.674  1.00  0.00     0.074 A 
ATOM     55  C   UNL A   1      42.945  27.672  31.376  1.00  0.00     0.029 A 
ATOM     56  N   UNL A   1      41.811  29.225  32.494  1.00  0.00    -0.354 N 
ATOM     57  N   UNL A   1      41.305  31.046  34.729  1.00  0.00    -0.248 NA
ATOM     58  C   UNL A   1      41.800  31.809  36.879  1.00  0.00     0.031 C 
ATOM     59  C   UNL A   1      43.563  27.862  32.617  1.00  0.00     0.029 A 
ATOM     60  C   UNL A   1      42.866  28.842  33.306  1.00  0.00     0.049 A 
ATOM     61  H   UNL A   1      41.141  29.908  32.722  1.00  0.00     0.167 HD
ATOM     62  C   UNL A   1      42.413  30.363  35.210  1.00  0.00     0.074 A 
ATOM     63  C   UNL A   1      42.692  30.893  36.530  1.00  0.00     0.031 C 
ATOM     64  C   UNL A   1      43.136  29.384  34.613  1.00  0.00     0.037 A 
BRANCH  51  65
ATOM     65  C   UNL A   1      40.992  27.705  29.074  1.00  0.00     0.064 A 
ATOM     66  C   UNL A   1      41.946  27.907  28.065  1.00  0.00     0.173 A 
ATOM     67  C   UNL A   1      40.162  26.578  28.977  1.00  0.00     0.173 A 
ATOM     68  F   UNL A   1      42.757  28.976  28.107  1.00  0.00    -0.203 F 
ATOM     69  C   UNL A   1      42.046  27.030  26.987  1.00  0.00     0.198 A 
ATOM     70  C   UNL A   1      40.283  25.689  27.912  1.00  0.00     0.198 A 
ATOM     71  F   UNL A   1      39.239  26.335  29.919  1.00  0.00    -0.203 F 
ATOM     72  F   UNL A   1      42.933  27.268  26.013  1.00  0.00    -0.200 F 
ATOM     73  C   UNL A   1      41.218  25.919  26.915  1.00  0.00     0.200 A 
ATOM     74  F   UNL A   1      39.491  24.609  27.850  1.00  0.00    -0.200 F 
ATOM     75  F   UNL A   1      41.320  25.073  25.880  1.00  0.00    -0.200 F 
ENDBRANCH  51  65
BRANCH  52  76
ATOM     76  C   UNL A   1      39.648  33.789  36.857  1.00  0.00     0.064 A 
ATOM     77  C   UNL A   1      38.818  33.403  37.918  1.00  0.00     0.173 A 
ATOM     78  C   UNL A   1      40.279  35.038  36.939  1.00  0.00     0.173 A 
ATOM     79  F   UNL A   1      38.176  32.226  37.873  1.00  0.00    -0.203 F 
ATOM     80  C   UNL A   1      38.617  34.240  39.014  1.00  0.00     0.198 A 
ATOM     81  C   UNL A   1      40.094  35.864  38.045  1.00  0.00     0.198 A 
ATOM     82  F   UNL A   1      41.081  35.451  35.948  1.00  0.00    -0.203 F 
ATOM     83  F   UNL A   1      37.788  33.863  39.998  1.00  0.00    -0.200 F 
ATOM     84  C   UNL A   1      39.259  35.467  39.080  1.00  0.00     0.200 A 
ATOM     85  F   UNL A   1      40.723  37.046  38.111  1.00  0.00    -0.200 F 
ATOM     86  F   UNL A   1      39.066  36.269  40.135  1.00  0.00    -0.200 F 
ENDBRANCH  52  76
BRANCH  64  87
ATOM     87  C   UNL A   1      44.317  28.847  35.364  1.00  0.00     0.064 A 
ATOM     88  C   UNL A   1      45.587  29.432  35.251  1.00  0.00     0.173 A 
ATOM     89  C   UNL A   1      44.168  27.758  36.236  1.00  0.00     0.173 A 
ATOM     90  F   UNL A   1      45.782  30.465  34.417  1.00  0.00    -0.203 F 
ATOM     91  C   UNL A   1      46.670  28.932  35.968  1.00  0.00     0.198 A 
ATOM     92  C   UNL A   1      45.249  27.277  36.972  1.00  0.00     0.198 A 
ATOM     93  F   UNL A   1      42.973  27.168  36.383  1.00  0.00    -0.203 F 
ATOM     94  F   UNL A   1      47.883  29.480  35.814  1.00  0.00    -0.200 F 
ATOM     95  C   UNL A   1      46.498  27.860  36.833  1.00  0.00     0.200 A 
ATOM     96  F   UNL A   1      45.079  26.248  37.814  1.00  0.00    -0.200 F 
ATOM     97  F   UNL A   1      47.541  27.384  37.527  1.00  0.00    -0.200 F 
ENDBRANCH  64  87
ENDBRANCH  38  39
ENDBRANCH  30  33
ENDBRANCH  28  29
ENDBRANCH  27  28
ENDBRANCH  26  27
ENDBRANCH   3  26
TORSDOF 15
ENDMDL
MODEL 2
REMARK VINA RESULT:     -11.7      3.474      8.548
REMARK SMILES CCC[NH+]1CCC(NC(=O)NC2(CC(=O)NCCCNC(=O)c3ccc(-c4c5nc(c(-c6c(F)c(F)c(F)c(F)c6F)c6ccc([nH]6)c(-c6c(F)c(F)c(F)c(F)c6F)c6nc(c(-c7c(F)c(F)c(F)c(F)c7F)c7ccc4[nH]7)C=C6)C=C5)cc3)CCC2)CC1
REMARK SMILES IDX 14 1 15 2 16 3 13 5 12 6 86 7 88 8 87 9 11 10 8 11 9 12
REMARK SMILES IDX 10 14 7 16 4 17 5 18 90 19 6 21 89 22 3 23 2 24 1 25 17 26
REMARK SMILES IDX 18 27 19 28 20 29 21 30 22 32 23 33 24 34 85 35 25 36 84 37
REMARK SMILES IDX 26 38 27 39 28 40 78 41 29 42 83 43 77 44 79 45 30 46 82 47
REMARK SMILES IDX 76 48 75 49 31 51 63 52 43 53 62 54 44 55 47 56 61 57 80 58
REMARK SMILES IDX 45 59 46 60 60 62 81 63 48 64 32 65 33 66 41 67 34 68 35 69
REMARK SMILES IDX 39 70 42 71 36 72 37 73 40 74 38 75 64 76 65 77 73 78 66 79
REMARK SMILES IDX 67 80 71 81 74 82 68 83 69 84 72 85 70 86 49 87 50 88 58 89
REMARK SMILES IDX 51 90 52 91 56 92 59 93 53 94 54 95 57 96 55 97
REMARK H PARENT 16 4 8 13 11 15 4 20 20 31 79 50 47 61
REMARK Flexibility Score: inf
ROOT
ATOM      1  C   UNL A   1      30.746  28.418  23.101  1.00  0.00     0.222 C 
ATOM      2  O   UNL A   1      30.442  28.540  21.910  1.00  0.00    -0.275 OA
ATOM      3  N   UNL A   1      31.513  29.393  23.656  1.00  0.00    -0.356 N 
ATOM      4  H   UNL A   1      31.658  30.179  23.083  1.00  0.00     0.163 HD
ENDROOT
BRANCH   1   5
ATOM      5  C   UNL A   1      30.299  27.190  23.871  1.00  0.00     0.128 C 
BRANCH   5   6
ATOM      6  C   UNL A   1      31.162  25.913  23.689  1.00  0.00     0.051 C 
ATOM      7  C   UNL A   1      30.326  24.601  23.630  1.00  0.00     0.029 C 
ATOM      8  C   UNL A   1      31.690  25.468  25.068  1.00  0.00     0.029 C 
ATOM      9  C   UNL A   1      30.662  24.328  25.101  1.00  0.00     0.005 C 
BRANCH   6  10
ATOM     10  N   UNL A   1      32.085  26.089  22.525  1.00  0.00    -0.332 N 
ATOM     11  N   UNL A   1      33.003  24.054  21.654  1.00  0.00    -0.335 N 
ATOM     12  C   UNL A   1      32.694  25.353  21.579  1.00  0.00     0.315 C 
ATOM     13  H   UNL A   1      33.154  23.623  20.782  1.00  0.00     0.165 HD
ATOM     14  O   UNL A   1      33.025  25.942  20.545  1.00  0.00    -0.249 OA
ATOM     15  H   UNL A   1      32.321  27.040  22.420  1.00  0.00     0.165 HD
BRANCH  11  16
ATOM     16  C   UNL A   1      33.155  23.175  22.784  1.00  0.00     0.095 C 
ATOM     17  N   UNL A   1      33.861  21.022  24.616  1.00  0.00    -0.335 N 
ATOM     18  C   UNL A   1      32.524  21.130  23.991  1.00  0.00     0.264 C 
ATOM     19  C   UNL A   1      34.714  22.206  24.467  1.00  0.00     0.264 C 
ATOM     20  H   UNL A   1      34.370  20.293  24.115  1.00  0.00     0.348 HD
ATOM     21  C   UNL A   1      32.497  21.816  22.621  1.00  0.00     0.086 C 
ATOM     22  C   UNL A   1      34.619  22.933  23.127  1.00  0.00     0.086 C 
BRANCH  17  23
ATOM     23  C   UNL A   1      33.678  20.659  26.044  1.00  0.00     0.261 C 
BRANCH  23  24
ATOM     24  C   UNL A   1      34.149  21.673  27.098  1.00  0.00     0.058 C 
ATOM     25  C   UNL A   1      33.040  22.334  27.908  1.00  0.00     0.010 C 
ENDBRANCH  23  24
ENDBRANCH  17  23
ENDBRANCH  11  16
ENDBRANCH   6  10
ENDBRANCH   5   6
ENDBRANCH   1   5
BRANCH   3  26
ATOM     26  C   UNL A   1      32.151  29.461  24.955  1.00  0.00     0.117 C 
BRANCH  26  27
ATOM     27  C   UNL A   1      33.482  28.707  24.975  1.00  0.00     0.042 C 
BRANCH  27  28
ATOM     28  C   UNL A   1      34.168  28.671  26.337  1.00  0.00     0.118 C 
BRANCH  28  29
ATOM     29  N   UNL A   1      33.962  29.903  27.084  1.00  0.00    -0.352 N 
ATOM     30  C   UNL A   1      34.745  30.514  28.029  1.00  0.00     0.251 C 
ATOM     31  H   UNL A   1      33.124  30.374  26.876  1.00  0.00     0.163 HD
ATOM     32  O   UNL A   1      34.273  31.460  28.663  1.00  0.00    -0.269 OA
BRANCH  30  33
ATOM     33  C   UNL A   1      36.130  30.069  28.319  1.00  0.00     0.039 A 
ATOM     34  C   UNL A   1      36.393  29.499  29.572  1.00  0.00     0.014 A 
ATOM     35  C   UNL A   1      37.184  30.272  27.424  1.00  0.00     0.014 A 
ATOM     36  C   UNL A   1      37.692  29.107  29.912  1.00  0.00     0.010 A 
ATOM     37  C   UNL A   1      38.470  29.821  27.739  1.00  0.00     0.010 A 
ATOM     38  C   UNL A   1      38.740  29.247  28.990  1.00  0.00    -0.014 A 
BRANCH  38  39
ATOM     39  C   UNL A   1      40.123  28.820  29.329  1.00  0.00     0.031 A 
ATOM     40  C   UNL A   1      41.007  29.703  30.167  1.00  0.00     0.074 A 
ATOM     41  C   UNL A   1      40.603  27.660  28.842  1.00  0.00     0.049 A 
ATOM     42  N   UNL A   1      42.258  29.532  30.516  1.00  0.00    -0.248 NA
ATOM     43  C   UNL A   1      40.412  30.953  30.663  1.00  0.00     0.031 C 
ATOM     44  C   UNL A   1      39.860  26.729  27.992  1.00  0.00     0.029 A 
ATOM     45  N   UNL A   1      41.834  27.070  28.985  1.00  0.00    -0.354 N 
ATOM     46  C   UNL A   1      42.607  30.663  31.244  1.00  0.00     0.074 A 
ATOM     47  C   UNL A   1      41.447  31.528  31.261  1.00  0.00     0.031 C 
ATOM     48  C   UNL A   1      40.643  25.677  27.706  1.00  0.00     0.029 A 
ATOM     49  C   UNL A   1      41.952  25.874  28.323  1.00  0.00     0.049 A 
ATOM     50  H   UNL A   1      42.564  27.469  29.513  1.00  0.00     0.167 HD
ATOM     51  C   UNL A   1      43.782  30.946  31.857  1.00  0.00     0.037 A 
ATOM     52  C   UNL A   1      42.998  25.032  28.219  1.00  0.00     0.037 A 
ATOM     53  C   UNL A   1      44.922  30.068  31.876  1.00  0.00     0.049 A 
ATOM     54  C   UNL A   1      44.290  25.370  28.913  1.00  0.00     0.074 A 
ATOM     55  C   UNL A   1      46.127  30.232  32.538  1.00  0.00     0.029 A 
ATOM     56  N   UNL A   1      44.999  28.859  31.200  1.00  0.00    -0.354 N 
ATOM     57  N   UNL A   1      44.584  26.409  29.654  1.00  0.00    -0.248 NA
ATOM     58  C   UNL A   1      45.394  24.412  28.757  1.00  0.00     0.031 C 
ATOM     59  C   UNL A   1      46.947  29.140  32.232  1.00  0.00     0.029 A 
ATOM     60  C   UNL A   1      46.238  28.278  31.412  1.00  0.00     0.049 A 
ATOM     61  H   UNL A   1      44.279  28.472  30.652  1.00  0.00     0.167 HD
ATOM     62  C   UNL A   1      45.893  26.220  30.074  1.00  0.00     0.074 A 
ATOM     63  C   UNL A   1      46.335  24.959  29.514  1.00  0.00     0.031 C 
ATOM     64  C   UNL A   1      46.661  27.019  30.855  1.00  0.00     0.037 A 
BRANCH  51  65
ATOM     65  C   UNL A   1      43.898  32.268  32.559  1.00  0.00     0.064 A 
ATOM     66  C   UNL A   1      43.543  32.418  33.908  1.00  0.00     0.173 A 
ATOM     67  C   UNL A   1      44.405  33.389  31.884  1.00  0.00     0.173 A 
ATOM     68  F   UNL A   1      43.044  31.380  34.595  1.00  0.00    -0.203 F 
ATOM     69  C   UNL A   1      43.666  33.650  34.548  1.00  0.00     0.198 A 
ATOM     70  C   UNL A   1      44.552  34.611  32.534  1.00  0.00     0.198 A 
ATOM     71  F   UNL A   1      44.767  33.295  30.596  1.00  0.00    -0.203 F 
ATOM     72  F   UNL A   1      43.279  33.781  35.823  1.00  0.00    -0.200 F 
ATOM     73  C   UNL A   1      44.175  34.743  33.862  1.00  0.00     0.200 A 
ATOM     74  F   UNL A   1      45.056  35.663  31.875  1.00  0.00    -0.200 F 
ATOM     75  F   UNL A   1      44.298  35.926  34.481  1.00  0.00    -0.200 F 
ENDBRANCH  51  65
BRANCH  52  76
ATOM     76  C   UNL A   1      42.858  23.769  27.451  1.00  0.00     0.064 A 
ATOM     77  C   UNL A   1      42.239  22.650  28.024  1.00  0.00     0.173 A 
ATOM     78  C   UNL A   1      43.335  23.653  26.138  1.00  0.00     0.173 A 
ATOM     79  F   UNL A   1      41.787  22.708  29.286  1.00  0.00    -0.203 F 
ATOM     80  C   UNL A   1      42.113  21.457  27.317  1.00  0.00     0.198 A 
ATOM     81  C   UNL A   1      43.189  22.467  25.424  1.00  0.00     0.198 A 
ATOM     82  F   UNL A   1      43.935  24.697  25.548  1.00  0.00    -0.203 F 
ATOM     83  F   UNL A   1      41.551  20.390  27.901  1.00  0.00    -0.200 F 
ATOM     84  C   UNL A   1      42.583  21.368  26.015  1.00  0.00     0.200 A 
ATOM     85  F   UNL A   1      43.636  22.386  24.163  1.00  0.00    -0.200 F 
ATOM     86  F   UNL A   1      42.459  20.220  25.334  1.00  0.00    -0.200 F 
ENDBRANCH  52  76
BRANCH  64  87
ATOM     87  C   UNL A   1      48.044  26.539  31.178  1.00  0.00     0.064 A 
ATOM     88  C   UNL A   1      48.295  25.713  32.284  1.00  0.00     0.173 A 
ATOM     89  C   UNL A   1      49.125  26.877  30.349  1.00  0.00     0.173 A 
ATOM     90  F   UNL A   1      47.297  25.375  33.114  1.00  0.00    -0.203 F 
ATOM     91  C   UNL A   1      49.583  25.261  32.560  1.00  0.00     0.198 A 
ATOM     92  C   UNL A   1      50.407  26.403  30.615  1.00  0.00     0.198 A 
ATOM     93  F   UNL A   1      48.935  27.660  29.277  1.00  0.00    -0.203 F 
ATOM     94  F   UNL A   1      49.807  24.508  33.645  1.00  0.00    -0.200 F 
ATOM     95  C   UNL A   1      50.635  25.601  31.722  1.00  0.00     0.200 A 
ATOM     96  F   UNL A   1      51.420  26.723  29.799  1.00  0.00    -0.200 F 
ATOM     97  F   UNL A   1      51.873  25.161  31.987  1.00  0.00    -0.200 F 
ENDBRANCH  64  87
ENDBRANCH  38  39
ENDBRANCH  30  33
ENDBRANCH  28  29
ENDBRANCH  27  28
ENDBRANCH  26  27
ENDBRANCH   3  26
TORSDOF 15
ENDMDL
MODEL 3
REMARK VINA RESULT:     -11.6      0.755      1.763
REMARK SMILES CCC[NH+]1CCC(NC(=O)NC2(CC(=O)NCCCNC(=O)c3ccc(-c4c5nc(c(-c6c(F)c(F)c(F)c(F)c6F)c6ccc([nH]6)c(-c6c(F)c(F)c(F)c(F)c6F)c6nc(c(-c7c(F)c(F)c(F)c(F)c7F)c7ccc4[nH]7)C=C6)C=C5)cc3)CCC2)CC1
REMARK SMILES IDX 14 1 15 2 16 3 13 5 12 6 86 7 88 8 87 9 11 10 8 11 9 12
REMARK SMILES IDX 10 14 7 16 4 17 5 18 90 19 6 21 89 22 3 23 2 24 1 25 17 26
REMARK SMILES IDX 18 27 19 28 20 29 21 30 22 32 23 33 24 34 85 35 25 36 84 37
REMARK SMILES IDX 26 38 27 39 28 40 78 41 29 42 83 43 77 44 79 45 30 46 82 47
REMARK SMILES IDX 76 48 75 49 31 51 63 52 43 53 62 54 44 55 47 56 61 57 80 58
REMARK SMILES IDX 45 59 46 60 60 62 81 63 48 64 32 65 33 66 41 67 34 68 35 69
REMARK SMILES IDX 39 70 42 71 36 72 37 73 40 74 38 75 64 76 65 77 73 78 66 79
REMARK SMILES IDX 67 80 71 81 74 82 68 83 69 84 72 85 70 86 49 87 50 88 58 89
REMARK SMILES IDX 51 90 52 91 56 92 59 93 53 94 54 95 57 96 55 97
REMARK H PARENT 16 4 8 13 11 15 4 20 20 31 79 50 47 61
REMARK Flexibility Score: inf
ROOT
ATOM      1  C   UNL A   1      32.842  29.016  26.073  1.00  0.00     0.222 C 
ATOM      2  O   UNL A   1      34.027  28.763  26.308  1.00  0.00    -0.275 OA
ATOM      3  N   UNL A   1      32.514  30.310  25.817  1.00  0.00    -0.356 N 
ATOM      4  H   UNL A   1      33.282  30.918  25.723  1.00  0.00     0.163 HD
ENDROOT
BRANCH   1   5
ATOM      5  C   UNL A   1      31.810  27.905  26.119  1.00  0.00     0.128 C 
BRANCH   5   6
ATOM      6  C   UNL A   1      32.052  26.703  25.167  1.00  0.00     0.051 C 
ATOM      7  C   UNL A   1      30.740  26.019  24.684  1.00  0.00     0.029 C 
ATOM      8  C   UNL A   1      32.350  25.448  26.013  1.00  0.00     0.029 C 
ATOM      9  C   UNL A   1      30.937  24.917  25.733  1.00  0.00     0.005 C 
BRANCH   6  10
ATOM     10  N   UNL A   1      32.958  27.118  24.051  1.00  0.00    -0.332 N 
ATOM     11  N   UNL A   1      33.615  25.345  22.579  1.00  0.00    -0.335 N 
ATOM     12  C   UNL A   1      33.454  26.634  22.898  1.00  0.00     0.315 C 
ATOM     13  H   UNL A   1      33.692  25.175  21.612  1.00  0.00     0.165 HD
ATOM     14  O   UNL A   1      33.822  27.463  22.061  1.00  0.00    -0.249 OA
ATOM     15  H   UNL A   1      33.297  28.029  24.210  1.00  0.00     0.165 HD
BRANCH  11  16
ATOM     16  C   UNL A   1      33.696  24.163  23.396  1.00  0.00     0.095 C 
ATOM     17  N   UNL A   1      34.107  21.479  24.454  1.00  0.00    -0.335 N 
ATOM     18  C   UNL A   1      32.765  22.008  24.123  1.00  0.00     0.264 C 
ATOM     19  C   UNL A   1      35.182  22.477  24.468  1.00  0.00     0.264 C 
ATOM     20  H   UNL A   1      34.375  20.847  23.699  1.00  0.00     0.348 HD
ATOM     21  C   UNL A   1      32.733  23.056  23.005  1.00  0.00     0.086 C 
ATOM     22  C   UNL A   1      35.097  23.566  23.402  1.00  0.00     0.086 C 
BRANCH  17  23
ATOM     23  C   UNL A   1      34.017  20.757  25.747  1.00  0.00     0.261 C 
BRANCH  23  24
ATOM     24  C   UNL A   1      34.427  21.522  27.016  1.00  0.00     0.058 C 
ATOM     25  C   UNL A   1      33.290  22.229  27.746  1.00  0.00     0.010 C 
ENDBRANCH  23  24
ENDBRANCH  17  23
ENDBRANCH  11  16
ENDBRANCH   6  10
ENDBRANCH   5   6
ENDBRANCH   1   5
BRANCH   3  26
ATOM     26  C   UNL A   1      31.218  30.938  25.660  1.00  0.00     0.117 C 
BRANCH  26  27
ATOM     27  C   UNL A   1      31.118  32.240  26.459  1.00  0.00     0.042 C 
BRANCH  27  28
ATOM     28  C   UNL A   1      32.433  32.707  27.075  1.00  0.00     0.118 C 
BRANCH  28  29
ATOM     29  N   UNL A   1      32.370  34.094  27.510  1.00  0.00    -0.352 N 
ATOM     30  C   UNL A   1      33.055  34.750  28.500  1.00  0.00     0.251 C 
ATOM     31  H   UNL A   1      31.731  34.651  27.012  1.00  0.00     0.163 HD
ATOM     32  O   UNL A   1      32.696  35.888  28.810  1.00  0.00    -0.269 OA
BRANCH  30  33
ATOM     33  C   UNL A   1      34.200  34.134  29.212  1.00  0.00     0.039 A 
ATOM     34  C   UNL A   1      35.496  34.474  28.802  1.00  0.00     0.014 A 
ATOM     35  C   UNL A   1      34.030  33.173  30.214  1.00  0.00     0.014 A 
ATOM     36  C   UNL A   1      36.608  33.885  29.411  1.00  0.00     0.010 A 
ATOM     37  C   UNL A   1      35.141  32.632  30.865  1.00  0.00     0.010 A 
ATOM     38  C   UNL A   1      36.442  32.971  30.462  1.00  0.00    -0.014 A 
BRANCH  38  39
ATOM     39  C   UNL A   1      37.614  32.347  31.130  1.00  0.00     0.031 A 
ATOM     40  C   UNL A   1      38.395  31.263  30.440  1.00  0.00     0.074 A 
ATOM     41  C   UNL A   1      37.948  32.721  32.381  1.00  0.00     0.049 A 
ATOM     42  N   UNL A   1      39.406  30.557  30.884  1.00  0.00    -0.248 NA
ATOM     43  C   UNL A   1      37.971  30.909  29.077  1.00  0.00     0.031 C 
ATOM     44  C   UNL A   1      37.254  33.737  33.172  1.00  0.00     0.029 A 
ATOM     45  N   UNL A   1      38.951  32.282  33.209  1.00  0.00    -0.354 N 
ATOM     46  C   UNL A   1      39.718  29.661  29.870  1.00  0.00     0.074 A 
ATOM     47  C   UNL A   1      38.770  29.888  28.800  1.00  0.00     0.031 C 
ATOM     48  C   UNL A   1      37.863  33.858  34.362  1.00  0.00     0.029 A 
ATOM     49  C   UNL A   1      38.969  32.906  34.431  1.00  0.00     0.049 A 
ATOM     50  H   UNL A   1      39.597  31.585  32.950  1.00  0.00     0.167 HD
ATOM     51  C   UNL A   1      40.714  28.744  29.827  1.00  0.00     0.037 A 
ATOM     52  C   UNL A   1      39.780  32.728  35.491  1.00  0.00     0.037 A 
ATOM     53  C   UNL A   1      41.683  28.546  30.873  1.00  0.00     0.049 A 
ATOM     54  C   UNL A   1      40.882  31.705  35.415  1.00  0.00     0.074 A 
ATOM     55  C   UNL A   1      42.778  27.698  30.887  1.00  0.00     0.029 A 
ATOM     56  N   UNL A   1      41.673  29.205  32.093  1.00  0.00    -0.354 N 
ATOM     57  N   UNL A   1      41.208  30.913  34.425  1.00  0.00    -0.248 NA
ATOM     58  C   UNL A   1      41.729  31.557  36.607  1.00  0.00     0.031 C 
ATOM     59  C   UNL A   1      43.408  27.816  32.131  1.00  0.00     0.029 A 
ATOM     60  C   UNL A   1      42.729  28.767  32.876  1.00  0.00     0.049 A 
ATOM     61  H   UNL A   1      41.013  29.884  32.363  1.00  0.00     0.167 HD
ATOM     62  C   UNL A   1      42.311  30.192  34.860  1.00  0.00     0.074 A 
ATOM     63  C   UNL A   1      42.606  30.649  36.203  1.00  0.00     0.031 C 
ATOM     64  C   UNL A   1      43.016  29.237  34.207  1.00  0.00     0.037 A 
BRANCH  51  65
ATOM     65  C   UNL A   1      40.808  27.876  28.606  1.00  0.00     0.064 A 
ATOM     66  C   UNL A   1      40.110  26.663  28.510  1.00  0.00     0.173 A 
ATOM     67  C   UNL A   1      41.576  28.282  27.504  1.00  0.00     0.173 A 
ATOM     68  F   UNL A   1      39.370  26.226  29.540  1.00  0.00    -0.203 F 
ATOM     69  C   UNL A   1      40.200  25.873  27.365  1.00  0.00     0.198 A 
ATOM     70  C   UNL A   1      41.642  27.503  26.351  1.00  0.00     0.198 A 
ATOM     71  F   UNL A   1      42.255  29.437  27.542  1.00  0.00    -0.203 F 
ATOM     72  F   UNL A   1      39.562  24.697  27.314  1.00  0.00    -0.200 F 
ATOM     73  C   UNL A   1      40.961  26.297  26.285  1.00  0.00     0.200 A 
ATOM     74  F   UNL A   1      42.367  27.920  25.304  1.00  0.00    -0.200 F 
ATOM     75  F   UNL A   1      41.042  25.539  25.183  1.00  0.00    -0.200 F 
ENDBRANCH  51  65
BRANCH  52  76
ATOM     76  C   UNL A   1      39.603  33.561  36.706  1.00  0.00     0.064 A 
ATOM     77  C   UNL A   1      38.814  33.110  37.773  1.00  0.00     0.173 A 
ATOM     78  C   UNL A   1      40.213  34.818  36.829  1.00  0.00     0.173 A 
ATOM     79  F   UNL A   1      38.192  31.924  37.691  1.00  0.00    -0.203 F 
ATOM     80  C   UNL A   1      38.631  33.890  38.913  1.00  0.00     0.198 A 
ATOM     81  C   UNL A   1      40.048  35.587  37.978  1.00  0.00     0.198 A 
ATOM     82  F   UNL A   1      40.976  35.292  35.834  1.00  0.00    -0.203 F 
ATOM     83  F   UNL A   1      37.841  33.452  39.902  1.00  0.00    -0.200 F 
ATOM     84  C   UNL A   1      39.253  35.125  39.017  1.00  0.00     0.200 A 
ATOM     85  F   UNL A   1      40.657  36.776  38.080  1.00  0.00    -0.200 F 
ATOM     86  F   UNL A   1      39.079  35.873  40.115  1.00  0.00    -0.200 F 
ENDBRANCH  52  76
BRANCH  64  87
ATOM     87  C   UNL A   1      44.196  28.647  34.918  1.00  0.00     0.064 A 
ATOM     88  C   UNL A   1      44.079  27.488  35.700  1.00  0.00     0.173 A 
ATOM     89  C   UNL A   1      45.468  29.227  34.786  1.00  0.00     0.173 A 
ATOM     90  F   UNL A   1      42.882  26.906  35.869  1.00  0.00    -0.203 F 
ATOM     91  C   UNL A   1      45.188  26.943  36.340  1.00  0.00     0.198 A 
ATOM     92  C   UNL A   1      46.579  28.664  35.408  1.00  0.00     0.198 A 
ATOM     93  F   UNL A   1      45.632  30.333  34.046  1.00  0.00    -0.203 F 
ATOM     94  F   UNL A   1      45.046  25.859  37.116  1.00  0.00    -0.200 F 
ATOM     95  C   UNL A   1      46.438  27.527  36.188  1.00  0.00     0.200 A 
ATOM     96  F   UNL A   1      47.787  29.224  35.252  1.00  0.00    -0.200 F 
ATOM     97  F   UNL A   1      47.505  26.997  36.802  1.00  0.00    -0.200 F 
ENDBRANCH  64  87
ENDBRANCH  38  39
ENDBRANCH  30  33
ENDBRANCH  28  29
ENDBRANCH  27  28
ENDBRANCH  26  27
ENDBRANCH   3  26
TORSDOF 15
ENDMDL
