MODEL 1
REMARK VINA RESULT:     -11.6      0.000      0.000
REMARK SMILES CC[C@@H]1CCCC[C@@]1(O)[C@H](F)C(=O)NCCCNC(=O)c1ccc(-c2c3nc(c(-c4c(F)c(F)c(F)c(F)c4F)c4ccc([nH]4)c(-c4c(F)c(F)c(F)c(F)c4F)c4nc(c(-c5c(F)c(F)c(F)c(F)c5F)c5ccc2[nH]5)C=C4)C=C3)cc1
REMARK SMILES IDX 16 1 15 2 14 3 12 4 13 5 10 7 11 8 8 9 3 10 4 11 5 12 7 13
REMARK SMILES IDX 6 14 2 15 1 16 9 17 17 19 18 20 19 21 20 23 21 24 22 25
REMARK SMILES IDX 83 26 23 27 82 28 24 29 25 30 26 31 76 32 27 33 81 34 75 35
REMARK SMILES IDX 77 36 28 37 80 38 74 39 73 40 29 42 61 43 41 44 60 45 42 46
REMARK SMILES IDX 45 47 59 48 78 49 43 50 44 51 58 53 79 54 46 55 30 56 31 57
REMARK SMILES IDX 39 58 32 59 33 60 37 61 40 62 34 63 35 64 38 65 36 66 62 67
REMARK SMILES IDX 63 68 71 69 64 70 65 71 69 72 72 73 66 74 67 75 70 76 68 77
REMARK SMILES IDX 47 78 48 79 56 80 49 81 50 82 54 83 57 84 51 85 52 86 55 87
REMARK SMILES IDX 53 88
REMARK H PARENT 14 6 9 18 18 22 77 41 45 52
REMARK Flexibility Score: inf
ROOT
ATOM      1  C   UNL A   1      33.417  28.935  24.070  1.00  0.00     0.042 C 
ENDROOT
BRANCH   1   2
ATOM      2  C   UNL A   1      32.316  28.366  23.202  1.00  0.00     0.117 C 
BRANCH   2   3
ATOM      3  N   UNL A   1      32.809  27.648  22.045  1.00  0.00    -0.353 N 
ATOM      4  C   UNL A   1      32.851  26.302  21.838  1.00  0.00     0.257 C 
ATOM      5  O   UNL A   1      33.278  25.908  20.749  1.00  0.00    -0.272 OA
ATOM      6  H   UNL A   1      33.159  28.205  21.313  1.00  0.00     0.163 HD
BRANCH   4   7
ATOM      7  C   UNL A   1      32.334  25.324  22.888  1.00  0.00     0.287 C 
ATOM      8  F   UNL A   1      31.065  24.895  22.602  1.00  0.00    -0.234 F 
BRANCH   7   9
ATOM      9  C   UNL A   1      33.261  24.090  23.147  1.00  0.00     0.108 C 
ATOM     10  C   UNL A   1      34.628  24.460  23.812  1.00  0.00     0.024 C 
ATOM     11  C   UNL A   1      34.401  25.005  25.231  1.00  0.00     0.007 C 
ATOM     12  C   UNL A   1      33.563  24.095  26.126  1.00  0.00     0.001 C 
ATOM     13  C   UNL A   1      32.513  23.081  24.045  1.00  0.00     0.039 C 
ATOM     14  C   UNL A   1      32.285  23.590  25.466  1.00  0.00     0.003 C 
BRANCH  10  15
ATOM     15  C   UNL A   1      35.694  23.328  23.656  1.00  0.00     0.003 C 
ATOM     16  C   UNL A   1      36.832  23.245  24.654  1.00  0.00     0.004 C 
ENDBRANCH  10  15
BRANCH   9  17
ATOM     17  O   UNL A   1      33.507  23.380  21.918  1.00  0.00    -0.386 OA
ATOM     18  H   UNL A   1      32.903  22.625  21.856  1.00  0.00     0.211 HD
ENDBRANCH   9  17
ENDBRANCH   7   9
ENDBRANCH   4   7
ENDBRANCH   2   3
ENDBRANCH   1   2
BRANCH   1  19
ATOM     19  C   UNL A   1      33.069  29.024  25.543  1.00  0.00     0.118 C 
BRANCH  19  20
ATOM     20  N   UNL A   1      32.715  30.369  25.976  1.00  0.00    -0.352 N 
ATOM     21  C   UNL A   1      33.287  31.179  26.926  1.00  0.00     0.251 C 
ATOM     22  H   UNL A   1      31.941  30.761  25.511  1.00  0.00     0.163 HD
ATOM     23  O   UNL A   1      32.733  32.227  27.241  1.00  0.00    -0.269 OA
BRANCH  21  24
ATOM     24  C   UNL A   1      34.548  30.784  27.592  1.00  0.00     0.039 A 
ATOM     25  C   UNL A   1      35.532  31.752  27.803  1.00  0.00     0.014 A 
ATOM     26  C   UNL A   1      34.771  29.469  28.001  1.00  0.00     0.014 A 
ATOM     27  C   UNL A   1      36.706  31.410  28.477  1.00  0.00     0.010 A 
ATOM     28  C   UNL A   1      35.877  29.161  28.785  1.00  0.00     0.010 A 
ATOM     29  C   UNL A   1      36.874  30.119  29.006  1.00  0.00    -0.014 A 
BRANCH  29  30
ATOM     30  C   UNL A   1      38.105  29.746  29.748  1.00  0.00     0.031 A 
ATOM     31  C   UNL A   1      38.339  30.284  31.138  1.00  0.00     0.074 A 
ATOM     32  C   UNL A   1      39.031  28.964  29.160  1.00  0.00     0.049 A 
ATOM     33  N   UNL A   1      39.357  30.090  31.939  1.00  0.00    -0.248 NA
ATOM     34  C   UNL A   1      37.316  31.188  31.688  1.00  0.00     0.031 C 
ATOM     35  C   UNL A   1      38.958  28.446  27.792  1.00  0.00     0.029 A 
ATOM     36  N   UNL A   1      40.219  28.469  29.637  1.00  0.00    -0.354 N 
ATOM     37  C   UNL A   1      39.103  30.860  33.066  1.00  0.00     0.074 A 
ATOM     38  C   UNL A   1      37.872  31.577  32.823  1.00  0.00     0.031 C 
ATOM     39  C   UNL A   1      40.034  27.680  27.553  1.00  0.00     0.029 A 
ATOM     40  C   UNL A   1      40.889  27.679  28.734  1.00  0.00     0.049 A 
ATOM     41  H   UNL A   1      40.558  28.661  30.542  1.00  0.00     0.167 HD
ATOM     42  C   UNL A   1      39.814  30.939  34.214  1.00  0.00     0.037 A 
ATOM     43  C   UNL A   1      42.063  27.028  28.850  1.00  0.00     0.037 A 
ATOM     44  C   UNL A   1      41.011  30.185  34.472  1.00  0.00     0.049 A 
ATOM     45  C   UNL A   1      42.812  27.102  30.155  1.00  0.00     0.074 A 
ATOM     46  C   UNL A   1      41.755  30.120  35.637  1.00  0.00     0.029 A 
ATOM     47  N   UNL A   1      41.640  29.365  33.549  1.00  0.00    -0.354 N 
ATOM     48  N   UNL A   1      42.506  27.753  31.252  1.00  0.00    -0.248 NA
ATOM     49  C   UNL A   1      44.062  26.335  30.244  1.00  0.00     0.031 C 
ATOM     50  C   UNL A   1      42.865  29.305  35.401  1.00  0.00     0.029 A 
ATOM     51  C   UNL A   1      42.780  28.812  34.109  1.00  0.00     0.049 A 
ATOM     52  H   UNL A   1      41.325  29.200  32.631  1.00  0.00     0.167 HD
ATOM     53  C   UNL A   1      43.509  27.456  32.165  1.00  0.00     0.074 A 
ATOM     54  C   UNL A   1      44.418  26.544  31.502  1.00  0.00     0.031 C 
ATOM     55  C   UNL A   1      43.670  27.904  33.434  1.00  0.00     0.037 A 
BRANCH  42  56
ATOM     56  C   UNL A   1      39.314  31.862  35.289  1.00  0.00     0.064 A 
ATOM     57  C   UNL A   1      39.616  33.232  35.286  1.00  0.00     0.173 A 
ATOM     58  C   UNL A   1      38.474  31.379  36.305  1.00  0.00     0.173 A 
ATOM     59  F   UNL A   1      40.425  33.744  34.346  1.00  0.00    -0.203 F 
ATOM     60  C   UNL A   1      39.115  34.080  36.271  1.00  0.00     0.198 A 
ATOM     61  C   UNL A   1      37.949  32.235  37.269  1.00  0.00     0.198 A 
ATOM     62  F   UNL A   1      38.151  30.078  36.354  1.00  0.00    -0.203 F 
ATOM     63  F   UNL A   1      39.453  35.376  36.272  1.00  0.00    -0.200 F 
ATOM     64  C   UNL A   1      38.274  33.583  37.255  1.00  0.00     0.200 A 
ATOM     65  F   UNL A   1      37.126  31.755  38.212  1.00  0.00    -0.200 F 
ATOM     66  F   UNL A   1      37.780  34.402  38.193  1.00  0.00    -0.200 F 
ENDBRANCH  42  56
BRANCH  43  67
ATOM     67  C   UNL A   1      42.597  26.235  27.711  1.00  0.00     0.064 A 
ATOM     68  C   UNL A   1      43.539  26.779  26.826  1.00  0.00     0.173 A 
ATOM     69  C   UNL A   1      42.155  24.926  27.466  1.00  0.00     0.173 A 
ATOM     70  F   UNL A   1      43.980  28.034  27.007  1.00  0.00    -0.203 F 
ATOM     71  C   UNL A   1      43.990  26.061  25.721  1.00  0.00     0.198 A 
ATOM     72  C   UNL A   1      42.632  24.197  26.379  1.00  0.00     0.198 A 
ATOM     73  F   UNL A   1      41.261  24.355  28.285  1.00  0.00    -0.203 F 
ATOM     74  F   UNL A   1      44.841  26.631  24.857  1.00  0.00    -0.200 F 
ATOM     75  C   UNL A   1      43.539  24.769  25.500  1.00  0.00     0.200 A 
ATOM     76  F   UNL A   1      42.207  22.941  26.178  1.00  0.00    -0.200 F 
ATOM     77  F   UNL A   1      43.970  24.080  24.435  1.00  0.00    -0.200 F 
ENDBRANCH  43  67
BRANCH  55  78
ATOM     78  C   UNL A   1      44.858  27.388  34.196  1.00  0.00     0.064 A 
ATOM     79  C   UNL A   1      46.083  28.069  34.201  1.00  0.00     0.173 A 
ATOM     80  C   UNL A   1      44.759  26.208  34.949  1.00  0.00     0.173 A 
ATOM     81  F   UNL A   1      46.232  29.196  33.488  1.00  0.00    -0.203 F 
ATOM     82  C   UNL A   1      47.179  27.567  34.898  1.00  0.00     0.198 A 
ATOM     83  C   UNL A   1      45.846  25.729  35.675  1.00  0.00     0.198 A 
ATOM     84  F   UNL A   1      43.607  25.522  34.988  1.00  0.00    -0.203 F 
ATOM     85  F   UNL A   1      48.358  28.202  34.836  1.00  0.00    -0.200 F 
ATOM     86  C   UNL A   1      47.058  26.402  35.640  1.00  0.00     0.200 A 
ATOM     87  F   UNL A   1      45.722  24.612  36.406  1.00  0.00    -0.200 F 
ATOM     88  F   UNL A   1      48.112  25.921  36.313  1.00  0.00    -0.200 F 
ENDBRANCH  55  78
ENDBRANCH  29  30
ENDBRANCH  21  24
ENDBRANCH  19  20
ENDBRANCH   1  19
TORSDOF 13
ENDMDL
MODEL 2
REMARK VINA RESULT:     -11.5      0.182      2.027
REMARK SMILES CC[C@@H]1CCCC[C@@]1(O)[C@H](F)C(=O)NCCCNC(=O)c1ccc(-c2c3nc(c(-c4c(F)c(F)c(F)c(F)c4F)c4ccc([nH]4)c(-c4c(F)c(F)c(F)c(F)c4F)c4nc(c(-c5c(F)c(F)c(F)c(F)c5F)c5ccc2[nH]5)C=C4)C=C3)cc1
REMARK SMILES IDX 16 1 15 2 14 3 12 4 13 5 10 7 11 8 8 9 3 10 4 11 5 12 7 13
REMARK SMILES IDX 6 14 2 15 1 16 9 17 17 19 18 20 19 21 20 23 21 24 22 25
REMARK SMILES IDX 83 26 23 27 82 28 24 29 25 30 26 31 76 32 27 33 81 34 75 35
REMARK SMILES IDX 77 36 28 37 80 38 74 39 73 40 29 42 61 43 41 44 60 45 42 46
REMARK SMILES IDX 45 47 59 48 78 49 43 50 44 51 58 53 79 54 46 55 30 56 31 57
REMARK SMILES IDX 39 58 32 59 33 60 37 61 40 62 34 63 35 64 38 65 36 66 62 67
REMARK SMILES IDX 63 68 71 69 64 70 65 71 69 72 72 73 66 74 67 75 70 76 68 77
REMARK SMILES IDX 47 78 48 79 56 80 49 81 50 82 54 83 57 84 51 85 52 86 55 87
REMARK SMILES IDX 53 88
REMARK H PARENT 14 6 9 18 18 22 77 41 45 52
REMARK Flexibility Score: inf
ROOT
ATOM      1  C   UNL A   1      33.282  29.065  23.827  1.00  0.00     0.042 C 
ENDROOT
BRANCH   1   2
ATOM      2  C   UNL A   1      32.253  28.180  23.158  1.00  0.00     0.117 C 
BRANCH   2   3
ATOM      3  N   UNL A   1      32.765  27.473  22.003  1.00  0.00    -0.353 N 
ATOM      4  C   UNL A   1      32.837  26.129  21.795  1.00  0.00     0.257 C 
ATOM      5  O   UNL A   1      33.277  25.744  20.708  1.00  0.00    -0.272 OA
ATOM      6  H   UNL A   1      33.108  28.038  21.272  1.00  0.00     0.163 HD
BRANCH   4   7
ATOM      7  C   UNL A   1      32.336  25.140  22.843  1.00  0.00     0.287 C 
ATOM      8  F   UNL A   1      31.128  24.597  22.493  1.00  0.00    -0.234 F 
BRANCH   7   9
ATOM      9  C   UNL A   1      33.343  23.996  23.200  1.00  0.00     0.108 C 
ATOM     10  C   UNL A   1      34.592  24.487  24.005  1.00  0.00     0.024 C 
ATOM     11  C   UNL A   1      34.166  24.996  25.392  1.00  0.00     0.007 C 
ATOM     12  C   UNL A   1      33.329  24.003  26.194  1.00  0.00     0.001 C 
ATOM     13  C   UNL A   1      32.604  22.914  24.015  1.00  0.00     0.039 C 
ATOM     14  C   UNL A   1      32.181  23.386  25.403  1.00  0.00     0.003 C 
BRANCH  10  15
ATOM     15  C   UNL A   1      35.770  23.462  23.963  1.00  0.00     0.003 C 
ATOM     16  C   UNL A   1      36.886  23.581  24.984  1.00  0.00     0.004 C 
ENDBRANCH  10  15
BRANCH   9  17
ATOM     17  O   UNL A   1      33.783  23.324  22.004  1.00  0.00    -0.386 OA
ATOM     18  H   UNL A   1      33.084  22.727  21.695  1.00  0.00     0.211 HD
ENDBRANCH   9  17
ENDBRANCH   7   9
ENDBRANCH   4   7
ENDBRANCH   2   3
ENDBRANCH   1   2
BRANCH   1  19
ATOM     19  C   UNL A   1      33.180  29.109  25.339  1.00  0.00     0.118 C 
BRANCH  19  20
ATOM     20  N   UNL A   1      32.763  30.407  25.855  1.00  0.00    -0.352 N 
ATOM     21  C   UNL A   1      33.282  31.171  26.871  1.00  0.00     0.251 C 
ATOM     22  H   UNL A   1      31.983  30.799  25.401  1.00  0.00     0.163 HD
ATOM     23  O   UNL A   1      32.680  32.172  27.244  1.00  0.00    -0.269 OA
BRANCH  21  24
ATOM     24  C   UNL A   1      34.545  30.780  27.536  1.00  0.00     0.039 A 
ATOM     25  C   UNL A   1      35.549  31.738  27.695  1.00  0.00     0.014 A 
ATOM     26  C   UNL A   1      34.751  29.480  27.996  1.00  0.00     0.014 A 
ATOM     27  C   UNL A   1      36.726  31.403  28.367  1.00  0.00     0.010 A 
ATOM     28  C   UNL A   1      35.862  29.185  28.777  1.00  0.00     0.010 A 
ATOM     29  C   UNL A   1      36.879  30.133  28.946  1.00  0.00    -0.014 A 
BRANCH  29  30
ATOM     30  C   UNL A   1      38.113  29.768  29.687  1.00  0.00     0.031 A 
ATOM     31  C   UNL A   1      38.356  30.327  31.067  1.00  0.00     0.074 A 
ATOM     32  C   UNL A   1      39.034  28.975  29.106  1.00  0.00     0.049 A 
ATOM     33  N   UNL A   1      39.378  30.143  31.866  1.00  0.00    -0.248 NA
ATOM     34  C   UNL A   1      37.338  31.241  31.609  1.00  0.00     0.031 C 
ATOM     35  C   UNL A   1      38.952  28.437  27.746  1.00  0.00     0.029 A 
ATOM     36  N   UNL A   1      40.223  28.485  29.584  1.00  0.00    -0.354 N 
ATOM     37  C   UNL A   1      39.132  30.931  32.982  1.00  0.00     0.074 A 
ATOM     38  C   UNL A   1      37.901  31.646  32.735  1.00  0.00     0.031 C 
ATOM     39  C   UNL A   1      40.025  27.664  27.513  1.00  0.00     0.029 A 
ATOM     40  C   UNL A   1      40.887  27.680  28.690  1.00  0.00     0.049 A 
ATOM     41  H   UNL A   1      40.568  28.690  30.484  1.00  0.00     0.167 HD
ATOM     42  C   UNL A   1      39.849  31.026  34.125  1.00  0.00     0.037 A 
ATOM     43  C   UNL A   1      42.060  27.028  28.809  1.00  0.00     0.037 A 
ATOM     44  C   UNL A   1      41.046  30.274  34.388  1.00  0.00     0.049 A 
ATOM     45  C   UNL A   1      42.816  27.120  30.109  1.00  0.00     0.074 A 
ATOM     46  C   UNL A   1      41.796  30.225  35.550  1.00  0.00     0.029 A 
ATOM     47  N   UNL A   1      41.669  29.438  33.474  1.00  0.00    -0.354 N 
ATOM     48  N   UNL A   1      42.518  27.789  31.197  1.00  0.00    -0.248 NA
ATOM     49  C   UNL A   1      44.065  26.353  30.202  1.00  0.00     0.031 C 
ATOM     50  C   UNL A   1      42.904  29.403  35.320  1.00  0.00     0.029 A 
ATOM     51  C   UNL A   1      42.810  28.891  34.036  1.00  0.00     0.049 A 
ATOM     52  H   UNL A   1      41.347  29.259  32.560  1.00  0.00     0.167 HD
ATOM     53  C   UNL A   1      43.525  27.504  32.109  1.00  0.00     0.074 A 
ATOM     54  C   UNL A   1      44.428  26.579  31.456  1.00  0.00     0.031 C 
ATOM     55  C   UNL A   1      43.695  27.970  33.371  1.00  0.00     0.037 A 
BRANCH  42  56
ATOM     56  C   UNL A   1      39.357  31.966  35.188  1.00  0.00     0.064 A 
ATOM     57  C   UNL A   1      38.554  31.526  36.251  1.00  0.00     0.173 A 
ATOM     58  C   UNL A   1      39.743  33.316  35.174  1.00  0.00     0.173 A 
ATOM     59  F   UNL A   1      38.147  30.249  36.306  1.00  0.00    -0.203 F 
ATOM     60  C   UNL A   1      38.136  32.405  37.246  1.00  0.00     0.198 A 
ATOM     61  C   UNL A   1      39.350  34.185  36.188  1.00  0.00     0.198 A 
ATOM     62  F   UNL A   1      40.512  33.790  34.183  1.00  0.00    -0.203 F 
ATOM     63  F   UNL A   1      37.333  31.971  38.227  1.00  0.00    -0.200 F 
ATOM     64  C   UNL A   1      38.543  33.731  37.221  1.00  0.00     0.200 A 
ATOM     65  F   UNL A   1      39.754  35.463  36.169  1.00  0.00    -0.200 F 
ATOM     66  F   UNL A   1      38.153  34.572  38.187  1.00  0.00    -0.200 F 
ENDBRANCH  42  56
BRANCH  43  67
ATOM     67  C   UNL A   1      42.586  26.217  27.680  1.00  0.00     0.064 A 
ATOM     68  C   UNL A   1      42.176  24.890  27.487  1.00  0.00     0.173 A 
ATOM     69  C   UNL A   1      43.532  26.741  26.786  1.00  0.00     0.173 A 
ATOM     70  F   UNL A   1      41.285  24.336  28.325  1.00  0.00    -0.203 F 
ATOM     71  C   UNL A   1      42.717  24.107  26.469  1.00  0.00     0.198 A 
ATOM     72  C   UNL A   1      44.049  25.968  25.748  1.00  0.00     0.198 A 
ATOM     73  F   UNL A   1      43.954  28.006  26.920  1.00  0.00    -0.203 F 
ATOM     74  F   UNL A   1      42.354  22.824  26.349  1.00  0.00    -0.200 F 
ATOM     75  C   UNL A   1      43.650  24.648  25.598  1.00  0.00     0.200 A 
ATOM     76  F   UNL A   1      44.938  26.499  24.898  1.00  0.00    -0.200 F 
ATOM     77  F   UNL A   1      44.175  23.895  24.622  1.00  0.00    -0.200 F 
ENDBRANCH  43  67
BRANCH  55  78
ATOM     78  C   UNL A   1      44.885  27.463  34.134  1.00  0.00     0.064 A 
ATOM     79  C   UNL A   1      44.826  26.289  34.898  1.00  0.00     0.173 A 
ATOM     80  C   UNL A   1      46.108  28.151  34.080  1.00  0.00     0.173 A 
ATOM     81  F   UNL A   1      43.677  25.602  34.991  1.00  0.00    -0.203 F 
ATOM     82  C   UNL A   1      45.933  25.843  35.613  1.00  0.00     0.198 A 
ATOM     83  C   UNL A   1      47.224  27.681  34.767  1.00  0.00     0.198 A 
ATOM     84  F   UNL A   1      46.223  29.274  33.355  1.00  0.00    -0.203 F 
ATOM     85  F   UNL A   1      45.834  24.754  36.387  1.00  0.00    -0.200 F 
ATOM     86  C   UNL A   1      47.133  26.535  35.542  1.00  0.00     0.200 A 
ATOM     87  F   UNL A   1      48.387  28.342  34.683  1.00  0.00    -0.200 F 
ATOM     88  F   UNL A   1      48.199  26.103  36.229  1.00  0.00    -0.200 F 
ENDBRANCH  55  78
ENDBRANCH  29  30
ENDBRANCH  21  24
ENDBRANCH  19  20
ENDBRANCH   1  19
TORSDOF 13
ENDMDL
MODEL 3
REMARK VINA RESULT:     -11.5      4.201      7.064
REMARK SMILES CC[C@@H]1CCCC[C@@]1(O)[C@H](F)C(=O)NCCCNC(=O)c1ccc(-c2c3nc(c(-c4c(F)c(F)c(F)c(F)c4F)c4ccc([nH]4)c(-c4c(F)c(F)c(F)c(F)c4F)c4nc(c(-c5c(F)c(F)c(F)c(F)c5F)c5ccc2[nH]5)C=C4)C=C3)cc1
REMARK SMILES IDX 16 1 15 2 14 3 12 4 13 5 10 7 11 8 8 9 3 10 4 11 5 12 7 13
REMARK SMILES IDX 6 14 2 15 1 16 9 17 17 19 18 20 19 21 20 23 21 24 22 25
REMARK SMILES IDX 83 26 23 27 82 28 24 29 25 30 26 31 76 32 27 33 81 34 75 35
REMARK SMILES IDX 77 36 28 37 80 38 74 39 73 40 29 42 61 43 41 44 60 45 42 46
REMARK SMILES IDX 45 47 59 48 78 49 43 50 44 51 58 53 79 54 46 55 30 56 31 57
REMARK SMILES IDX 39 58 32 59 33 60 37 61 40 62 34 63 35 64 38 65 36 66 62 67
REMARK SMILES IDX 63 68 71 69 64 70 65 71 69 72 72 73 66 74 67 75 70 76 68 77
REMARK SMILES IDX 47 78 48 79 56 80 49 81 50 82 54 83 57 84 51 85 52 86 55 87
REMARK SMILES IDX 53 88
REMARK H PARENT 14 6 9 18 18 22 77 41 45 52
REMARK Flexibility Score: inf
ROOT
ATOM      1  C   UNL A   1      33.688  33.832  28.336  1.00  0.00     0.042 C 
ENDROOT
BRANCH   1   2
ATOM      2  C   UNL A   1      33.989  34.896  29.368  1.00  0.00     0.117 C 
BRANCH   2   3
ATOM      3  N   UNL A   1      33.088  34.869  30.502  1.00  0.00    -0.353 N 
ATOM      4  C   UNL A   1      33.393  34.951  31.827  1.00  0.00     0.257 C 
ATOM      5  O   UNL A   1      32.453  34.949  32.627  1.00  0.00    -0.272 OA
ATOM      6  H   UNL A   1      32.132  34.778  30.287  1.00  0.00     0.163 HD
BRANCH   4   7
ATOM      7  C   UNL A   1      34.835  35.101  32.299  1.00  0.00     0.287 C 
ATOM      8  F   UNL A   1      34.987  36.175  33.136  1.00  0.00    -0.234 F 
BRANCH   7   9
ATOM      9  C   UNL A   1      35.443  33.823  32.967  1.00  0.00     0.108 C 
ATOM     10  C   UNL A   1      35.861  32.716  31.942  1.00  0.00     0.024 C 
ATOM     11  C   UNL A   1      37.021  33.213  31.064  1.00  0.00     0.007 C 
ATOM     12  C   UNL A   1      38.220  33.740  31.849  1.00  0.00     0.001 C 
ATOM     13  C   UNL A   1      36.674  34.232  33.805  1.00  0.00     0.039 C 
ATOM     14  C   UNL A   1      37.848  34.716  32.959  1.00  0.00     0.003 C 
BRANCH  10  15
ATOM     15  C   UNL A   1      36.035  31.316  32.613  1.00  0.00     0.003 C 
ATOM     16  C   UNL A   1      37.430  30.842  32.975  1.00  0.00     0.004 C 
ENDBRANCH  10  15
BRANCH   9  17
ATOM     17  O   UNL A   1      34.516  33.265  33.918  1.00  0.00    -0.386 OA
ATOM     18  H   UNL A   1      33.638  33.650  33.776  1.00  0.00     0.211 HD
ENDBRANCH   9  17
ENDBRANCH   7   9
ENDBRANCH   4   7
ENDBRANCH   2   3
ENDBRANCH   1   2
BRANCH   1  19
ATOM     19  C   UNL A   1      34.637  32.649  28.363  1.00  0.00     0.118 C 
BRANCH  19  20
ATOM     20  N   UNL A   1      33.986  31.377  28.082  1.00  0.00    -0.352 N 
ATOM     21  C   UNL A   1      34.512  30.114  27.958  1.00  0.00     0.251 C 
ATOM     22  H   UNL A   1      33.011  31.431  27.961  1.00  0.00     0.163 HD
ATOM     23  O   UNL A   1      33.799  29.197  27.565  1.00  0.00    -0.269 OA
BRANCH  21  24
ATOM     24  C   UNL A   1      35.936  29.859  28.267  1.00  0.00     0.039 A 
ATOM     25  C   UNL A   1      36.274  29.353  29.524  1.00  0.00     0.014 A 
ATOM     26  C   UNL A   1      36.940  30.121  27.334  1.00  0.00     0.014 A 
ATOM     27  C   UNL A   1      37.607  29.056  29.816  1.00  0.00     0.010 A 
ATOM     28  C   UNL A   1      38.243  29.703  27.577  1.00  0.00     0.010 A 
ATOM     29  C   UNL A   1      38.600  29.195  28.832  1.00  0.00    -0.014 A 
BRANCH  29  30
ATOM     30  C   UNL A   1      40.018  28.859  29.116  1.00  0.00     0.031 A 
ATOM     31  C   UNL A   1      40.879  29.820  29.896  1.00  0.00     0.074 A 
ATOM     32  C   UNL A   1      40.544  27.715  28.637  1.00  0.00     0.049 A 
ATOM     33  N   UNL A   1      42.141  29.717  30.230  1.00  0.00    -0.248 NA
ATOM     34  C   UNL A   1      40.253  31.081  30.328  1.00  0.00     0.031 C 
ATOM     35  C   UNL A   1      39.837  26.741  27.802  1.00  0.00     0.029 A 
ATOM     36  N   UNL A   1      41.799  27.177  28.780  1.00  0.00    -0.354 N 
ATOM     37  C   UNL A   1      42.457  30.900  30.884  1.00  0.00     0.074 A 
ATOM     38  C   UNL A   1      41.279  31.736  30.846  1.00  0.00     0.031 C 
ATOM     39  C   UNL A   1      40.656  25.711  27.538  1.00  0.00     0.029 A 
ATOM     40  C   UNL A   1      41.955  25.965  28.152  1.00  0.00     0.049 A 
ATOM     41  H   UNL A   1      42.519  27.618  29.287  1.00  0.00     0.167 HD
ATOM     42  C   UNL A   1      43.615  31.247  31.493  1.00  0.00     0.037 A 
ATOM     43  C   UNL A   1      43.026  25.152  28.082  1.00  0.00     0.037 A 
ATOM     44  C   UNL A   1      44.768  30.392  31.574  1.00  0.00     0.049 A 
ATOM     45  C   UNL A   1      44.289  25.546  28.804  1.00  0.00     0.074 A 
ATOM     46  C   UNL A   1      45.957  30.609  32.248  1.00  0.00     0.029 A 
ATOM     47  N   UNL A   1      44.877  29.155  30.959  1.00  0.00    -0.354 N 
ATOM     48  N   UNL A   1      44.540  26.623  29.507  1.00  0.00    -0.248 NA
ATOM     49  C   UNL A   1      45.412  24.601  28.733  1.00  0.00     0.031 C 
ATOM     50  C   UNL A   1      46.806  29.528  31.994  1.00  0.00     0.029 A 
ATOM     51  C   UNL A   1      46.124  28.609  31.214  1.00  0.00     0.049 A 
ATOM     52  H   UNL A   1      44.172  28.726  30.420  1.00  0.00     0.167 HD
ATOM     53  C   UNL A   1      45.836  26.475  29.983  1.00  0.00     0.074 A 
ATOM     54  C   UNL A   1      46.308  25.190  29.510  1.00  0.00     0.031 C 
ATOM     55  C   UNL A   1      46.574  27.327  30.736  1.00  0.00     0.037 A 
BRANCH  42  56
ATOM     56  C   UNL A   1      43.694  32.604  32.132  1.00  0.00     0.064 A 
ATOM     57  C   UNL A   1      43.345  32.810  33.475  1.00  0.00     0.173 A 
ATOM     58  C   UNL A   1      44.181  33.702  31.406  1.00  0.00     0.173 A 
ATOM     59  F   UNL A   1      42.861  31.798  34.211  1.00  0.00    -0.203 F 
ATOM     60  C   UNL A   1      43.458  34.068  34.061  1.00  0.00     0.198 A 
ATOM     61  C   UNL A   1      44.324  34.951  32.004  1.00  0.00     0.198 A 
ATOM     62  F   UNL A   1      44.533  33.561  30.120  1.00  0.00    -0.203 F 
ATOM     63  F   UNL A   1      43.076  34.250  35.332  1.00  0.00    -0.200 F 
ATOM     64  C   UNL A   1      43.957  35.135  33.329  1.00  0.00     0.200 A 
ATOM     65  F   UNL A   1      44.819  35.978  31.299  1.00  0.00    -0.200 F 
ATOM     66  F   UNL A   1      44.080  36.341  33.898  1.00  0.00    -0.200 F 
ENDBRANCH  42  56
BRANCH  43  67
ATOM     67  C   UNL A   1      42.953  23.878  27.319  1.00  0.00     0.064 A 
ATOM     68  C   UNL A   1      42.495  22.697  27.920  1.00  0.00     0.173 A 
ATOM     69  C   UNL A   1      43.367  23.807  25.980  1.00  0.00     0.173 A 
ATOM     70  F   UNL A   1      42.104  22.709  29.204  1.00  0.00    -0.203 F 
ATOM     71  C   UNL A   1      42.489  21.489  27.227  1.00  0.00     0.198 A 
ATOM     72  C   UNL A   1      43.329  22.605  25.277  1.00  0.00     0.198 A 
ATOM     73  F   UNL A   1      43.807  24.907  25.354  1.00  0.00    -0.203 F 
ATOM     74  F   UNL A   1      42.107  20.365  27.847  1.00  0.00    -0.200 F 
ATOM     75  C   UNL A   1      42.902  21.444  25.905  1.00  0.00     0.200 A 
ATOM     76  F   UNL A   1      43.713  22.569  23.993  1.00  0.00    -0.200 F 
ATOM     77  F   UNL A   1      42.900  20.282  25.238  1.00  0.00    -0.200 F 
ENDBRANCH  43  67
BRANCH  55  78
ATOM     78  C   UNL A   1      47.957  26.881  31.118  1.00  0.00     0.064 A 
ATOM     79  C   UNL A   1      48.191  26.096  32.256  1.00  0.00     0.173 A 
ATOM     80  C   UNL A   1      49.059  27.226  30.321  1.00  0.00     0.173 A 
ATOM     81  F   UNL A   1      47.172  25.749  33.058  1.00  0.00    -0.203 F 
ATOM     82  C   UNL A   1      49.481  25.707  32.605  1.00  0.00     0.198 A 
ATOM     83  C   UNL A   1      50.343  26.804  30.652  1.00  0.00     0.198 A 
ATOM     84  F   UNL A   1      48.891  27.967  29.215  1.00  0.00    -0.203 F 
ATOM     85  F   UNL A   1      49.686  25.010  33.731  1.00  0.00    -0.200 F 
ATOM     86  C   UNL A   1      50.555  26.055  31.800  1.00  0.00     0.200 A 
ATOM     87  F   UNL A   1      51.378  27.126  29.863  1.00  0.00    -0.200 F 
ATOM     88  F   UNL A   1      51.796  25.676  32.135  1.00  0.00    -0.200 F 
ENDBRANCH  55  78
ENDBRANCH  29  30
ENDBRANCH  21  24
ENDBRANCH  19  20
ENDBRANCH   1  19
TORSDOF 13
ENDMDL
