MODEL 1
REMARK VINA RESULT:     -14.0      0.000      0.000
REMARK SMILES Cc1c(Cl)cccc1NC(=O)C[C@H](C(=O)NCCCNC(=O)c1ccc(-c2c3nc(c(-c4c(F)c(F)c(F)c(F)c4F)c4ccc([nH]4)c(-c4c(F)c(F)c(F)c(F)c4F)c4nc(c(-c5c(F)c(F)c(F)c(F)c5F)c5ccc2[nH]5)C=C4)C=C3)cc1)[C@H](C)c1ccccc1
REMARK SMILES IDX 17 1 16 2 14 3 15 4 13 6 12 7 10 8 9 9 11 11 8 12 1 13 2 14
REMARK SMILES IDX 3 15 4 16 5 17 7 18 6 19 86 20 87 21 88 22 89 23 93 24 90 25
REMARK SMILES IDX 92 26 91 27 18 28 19 29 20 30 21 31 22 33 23 34 24 35 85 36
REMARK SMILES IDX 25 37 84 38 26 39 27 40 28 41 78 42 29 43 83 44 77 45 79 46
REMARK SMILES IDX 30 47 82 48 76 49 75 50 31 52 63 53 43 54 62 55 44 56 47 57
REMARK SMILES IDX 61 58 80 59 45 60 46 61 60 63 81 64 48 65 32 66 33 67 41 68
REMARK SMILES IDX 34 69 35 70 39 71 42 72 36 73 37 74 40 75 38 76 64 77 65 78
REMARK SMILES IDX 73 79 66 80 67 81 71 82 74 83 68 84 69 85 72 86 70 87 49 88
REMARK SMILES IDX 50 89 58 90 51 91 52 92 56 93 59 94 53 95 54 96 57 97 55 98
REMARK H PARENT 16 5 9 10 20 32 79 51 47 62
REMARK Flexibility Score: inf
ROOT
ATOM      1  C   UNL A   1      31.262  29.772  25.098  1.00  0.00     0.117 C 
ENDROOT
BRANCH   1   2
ATOM      2  N   UNL A   1      32.255  29.209  23.960  1.00  0.00    -0.356 N 
ATOM      3  C   UNL A   1      32.846  28.011  23.732  1.00  0.00     0.224 C 
ATOM      4  O   UNL A   1      33.742  27.973  22.887  1.00  0.00    -0.275 OA
ATOM      5  H   UNL A   1      32.483  29.884  23.281  1.00  0.00     0.163 HD
BRANCH   3   6
ATOM      6  C   UNL A   1      32.427  26.770  24.497  1.00  0.00     0.095 C 
BRANCH   6   7
ATOM      7  C   UNL A   1      31.696  25.827  23.508  1.00  0.00     0.114 C 
BRANCH   7   8
ATOM      8  C   UNL A   1      30.414  25.093  23.832  1.00  0.00     0.225 C 
ATOM      9  N   UNL A   1      30.386  23.908  24.507  1.00  0.00    -0.326 N 
ATOM     10  H   UNL A   1      29.533  23.416  24.494  1.00  0.00     0.169 HD
ATOM     11  O   UNL A   1      29.326  25.579  23.504  1.00  0.00    -0.275 OA
BRANCH   9  12
ATOM     12  C   UNL A   1      31.432  23.317  25.213  1.00  0.00     0.045 A 
ATOM     13  C   UNL A   1      32.128  21.769  22.896  1.00  0.00     0.048 C 
ATOM     14  C   UNL A   1      32.310  21.982  24.371  1.00  0.00    -0.009 A 
ATOM     15  C   UNL A   1      33.394  20.884  25.292  1.00  0.00     0.046 A 
ATOM     16  Cl  UNL A   1      34.229  19.612  24.497  1.00  0.00    -0.084 Cl
ATOM     17  C   UNL A   1      33.651  21.141  27.054  1.00  0.00     0.021 A 
ATOM     18  C   UNL A   1      31.722  23.625  26.962  1.00  0.00     0.026 A 
ATOM     19  C   UNL A   1      32.823  22.523  27.902  1.00  0.00     0.004 A 
ENDBRANCH   9  12
ENDBRANCH   7   8
ENDBRANCH   6   7
BRANCH   6  20
ATOM     20  C   UNL A   1      33.559  26.384  25.505  1.00  0.00     0.029 C 
ATOM     21  C   UNL A   1      34.420  27.526  26.038  1.00  0.00     0.013 C 
BRANCH  20  22
ATOM     22  C   UNL A   1      34.376  25.158  25.069  1.00  0.00    -0.044 A 
ATOM     23  C   UNL A   1      35.233  24.532  25.997  1.00  0.00     0.004 A 
ATOM     24  C   UNL A   1      34.422  24.727  23.738  1.00  0.00     0.004 A 
ATOM     25  C   UNL A   1      36.145  23.557  25.593  1.00  0.00     0.000 A 
ATOM     26  C   UNL A   1      35.346  23.764  23.331  1.00  0.00     0.000 A 
ATOM     27  C   UNL A   1      36.217  23.190  24.255  1.00  0.00     0.000 A 
ENDBRANCH  20  22
ENDBRANCH   6  20
ENDBRANCH   3   6
ENDBRANCH   1   2
BRANCH   1  28
ATOM     28  C   UNL A   1      31.383  31.568  26.340  1.00  0.00     0.042 C 
BRANCH  28  29
ATOM     29  C   UNL A   1      32.659  32.388  27.168  1.00  0.00     0.118 C 
BRANCH  29  30
ATOM     30  N   UNL A   1      32.552  33.838  27.404  1.00  0.00    -0.352 N 
ATOM     31  C   UNL A   1      33.051  34.581  28.438  1.00  0.00     0.251 C 
ATOM     32  H   UNL A   1      32.053  34.342  26.722  1.00  0.00     0.163 HD
ATOM     33  O   UNL A   1      32.557  35.651  28.763  1.00  0.00    -0.269 OA
BRANCH  31  34
ATOM     34  C   UNL A   1      34.262  34.069  29.076  1.00  0.00     0.039 A 
ATOM     35  C   UNL A   1      35.519  34.566  28.747  1.00  0.00     0.014 A 
ATOM     36  C   UNL A   1      34.088  33.083  30.053  1.00  0.00     0.014 A 
ATOM     37  C   UNL A   1      36.620  34.071  29.435  1.00  0.00     0.010 A 
ATOM     38  C   UNL A   1      35.151  32.719  30.838  1.00  0.00     0.010 A 
ATOM     39  C   UNL A   1      36.431  33.156  30.485  1.00  0.00    -0.014 A 
BRANCH  39  40
ATOM     40  C   UNL A   1      37.558  32.522  31.184  1.00  0.00     0.031 A 
ATOM     41  C   UNL A   1      38.291  31.408  30.487  1.00  0.00     0.074 A 
ATOM     42  C   UNL A   1      37.827  32.881  32.449  1.00  0.00     0.049 A 
ATOM     43  N   UNL A   1      39.220  30.615  30.946  1.00  0.00    -0.248 NA
ATOM     44  C   UNL A   1      37.870  31.095  29.107  1.00  0.00     0.031 C 
ATOM     45  C   UNL A   1      37.098  33.891  33.220  1.00  0.00     0.029 A 
ATOM     46  N   UNL A   1      38.783  32.426  33.311  1.00  0.00    -0.354 N 
ATOM     47  C   UNL A   1      39.459  29.699  29.930  1.00  0.00     0.074 A 
ATOM     48  C   UNL A   1      38.513  29.964  28.875  1.00  0.00     0.031 C 
ATOM     49  C   UNL A   1      37.667  34.012  34.429  1.00  0.00     0.029 A 
ATOM     50  C   UNL A   1      38.772  33.065  34.524  1.00  0.00     0.049 A 
ATOM     51  H   UNL A   1      39.419  31.710  33.084  1.00  0.00     0.167 HD
ATOM     52  C   UNL A   1      40.423  28.753  29.868  1.00  0.00     0.037 A 
ATOM     53  C   UNL A   1      39.585  32.899  35.581  1.00  0.00     0.037 A 
ATOM     54  C   UNL A   1      41.389  28.562  30.913  1.00  0.00     0.049 A 
ATOM     55  C   UNL A   1      40.693  31.888  35.460  1.00  0.00     0.074 A 
ATOM     56  C   UNL A   1      42.463  27.694  30.954  1.00  0.00     0.029 A 
ATOM     57  N   UNL A   1      41.397  29.277  32.104  1.00  0.00    -0.354 N 
ATOM     58  N   UNL A   1      40.967  31.072  34.470  1.00  0.00    -0.248 NA
ATOM     59  C   UNL A   1      41.617  31.791  36.594  1.00  0.00     0.031 C 
ATOM     60  C   UNL A   1      43.099  27.858  32.190  1.00  0.00     0.029 A 
ATOM     61  C   UNL A   1      42.456  28.867  32.893  1.00  0.00     0.049 A 
ATOM     62  H   UNL A   1      40.746  29.974  32.350  1.00  0.00     0.167 HD
ATOM     63  C   UNL A   1      42.114  30.387  34.843  1.00  0.00     0.074 A 
ATOM     64  C   UNL A   1      42.491  30.901  36.145  1.00  0.00     0.031 C 
ATOM     65  C   UNL A   1      42.795  29.419  34.181  1.00  0.00     0.037 A 
BRANCH  52  66
ATOM     66  C   UNL A   1      40.479  27.894  28.636  1.00  0.00     0.064 A 
ATOM     67  C   UNL A   1      39.802  26.665  28.558  1.00  0.00     0.173 A 
ATOM     68  C   UNL A   1      41.223  28.299  27.518  1.00  0.00     0.173 A 
ATOM     69  F   UNL A   1      39.089  26.217  29.603  1.00  0.00    -0.203 F 
ATOM     70  C   UNL A   1      39.902  25.857  27.428  1.00  0.00     0.198 A 
ATOM     71  C   UNL A   1      41.289  27.506  26.374  1.00  0.00     0.198 A 
ATOM     72  F   UNL A   1      41.893  29.460  27.535  1.00  0.00    -0.203 F 
ATOM     73  F   UNL A   1      39.305  24.657  27.409  1.00  0.00    -0.200 F 
ATOM     74  C   UNL A   1      40.639  26.282  26.334  1.00  0.00     0.200 A 
ATOM     75  F   UNL A   1      41.994  27.922  25.313  1.00  0.00    -0.200 F 
ATOM     76  F   UNL A   1      40.733  25.507  25.245  1.00  0.00    -0.200 F 
ENDBRANCH  52  66
BRANCH  53  77
ATOM     77  C   UNL A   1      39.422  33.750  36.786  1.00  0.00     0.064 A 
ATOM     78  C   UNL A   1      38.720  33.280  37.905  1.00  0.00     0.173 A 
ATOM     79  C   UNL A   1      39.979  35.034  36.859  1.00  0.00     0.173 A 
ATOM     80  F   UNL A   1      38.166  32.058  37.884  1.00  0.00    -0.203 F 
ATOM     81  C   UNL A   1      38.554  34.074  39.039  1.00  0.00     0.198 A 
ATOM     82  C   UNL A   1      39.839  35.815  38.005  1.00  0.00     0.198 A 
ATOM     83  F   UNL A   1      40.680  35.523  35.826  1.00  0.00    -0.203 F 
ATOM     84  F   UNL A   1      37.839  33.616  40.076  1.00  0.00    -0.200 F 
ATOM     85  C   UNL A   1      39.118  35.339  39.089  1.00  0.00     0.200 A 
ATOM     86  F   UNL A   1      40.406  37.029  38.060  1.00  0.00    -0.200 F 
ATOM     87  F   UNL A   1      38.964  36.100  40.181  1.00  0.00    -0.200 F 
ENDBRANCH  53  77
BRANCH  65  88
ATOM     88  C   UNL A   1      44.037  28.899  34.841  1.00  0.00     0.064 A 
ATOM     89  C   UNL A   1      44.007  27.791  35.701  1.00  0.00     0.173 A 
ATOM     90  C   UNL A   1      45.277  29.504  34.585  1.00  0.00     0.173 A 
ATOM     91  F   UNL A   1      42.842  27.188  35.984  1.00  0.00    -0.203 F 
ATOM     92  C   UNL A   1      45.168  27.335  36.315  1.00  0.00     0.198 A 
ATOM     93  C   UNL A   1      46.441  29.021  35.170  1.00  0.00     0.198 A 
ATOM     94  F   UNL A   1      45.359  30.558  33.757  1.00  0.00    -0.203 F 
ATOM     95  F   UNL A   1      45.107  26.319  37.186  1.00  0.00    -0.200 F 
ATOM     96  C   UNL A   1      46.384  27.945  36.045  1.00  0.00     0.200 A 
ATOM     97  F   UNL A   1      47.619  29.598  34.892  1.00  0.00    -0.200 F 
ATOM     98  F   UNL A   1      47.502  27.502  36.635  1.00  0.00    -0.200 F 
ENDBRANCH  65  88
ENDBRANCH  39  40
ENDBRANCH  31  34
ENDBRANCH  29  30
ENDBRANCH  28  29
ENDBRANCH   1  28
TORSDOF 15
ENDMDL
MODEL 2
REMARK VINA RESULT:     -14.0      5.458     10.666
REMARK SMILES Cc1c(Cl)cccc1NC(=O)C[C@H](C(=O)NCCCNC(=O)c1ccc(-c2c3nc(c(-c4c(F)c(F)c(F)c(F)c4F)c4ccc([nH]4)c(-c4c(F)c(F)c(F)c(F)c4F)c4nc(c(-c5c(F)c(F)c(F)c(F)c5F)c5ccc2[nH]5)C=C4)C=C3)cc1)[C@H](C)c1ccccc1
REMARK SMILES IDX 17 1 16 2 14 3 15 4 13 6 12 7 10 8 9 9 11 11 8 12 1 13 2 14
REMARK SMILES IDX 3 15 4 16 5 17 7 18 6 19 86 20 87 21 88 22 89 23 93 24 90 25
REMARK SMILES IDX 92 26 91 27 18 28 19 29 20 30 21 31 22 33 23 34 24 35 85 36
REMARK SMILES IDX 25 37 84 38 26 39 27 40 28 41 78 42 29 43 83 44 77 45 79 46
REMARK SMILES IDX 30 47 82 48 76 49 75 50 31 52 63 53 43 54 62 55 44 56 47 57
REMARK SMILES IDX 61 58 80 59 45 60 46 61 60 63 81 64 48 65 32 66 33 67 41 68
REMARK SMILES IDX 34 69 35 70 39 71 42 72 36 73 37 74 40 75 38 76 64 77 65 78
REMARK SMILES IDX 73 79 66 80 67 81 71 82 74 83 68 84 69 85 72 86 70 87 49 88
REMARK SMILES IDX 50 89 58 90 51 91 52 92 56 93 59 94 53 95 54 96 57 97 55 98
REMARK H PARENT 16 5 9 10 20 32 79 51 47 62
REMARK Flexibility Score: inf
ROOT
ATOM      1  C   UNL A   1      35.306  20.644  25.314  1.00  0.00     0.117 C 
ENDROOT
BRANCH   1   2
ATOM      2  N   UNL A   1      34.566  21.122  26.665  1.00  0.00    -0.356 N 
ATOM      3  C   UNL A   1      33.870  22.229  27.017  1.00  0.00     0.224 C 
ATOM      4  O   UNL A   1      33.625  22.388  28.214  1.00  0.00    -0.275 OA
ATOM      5  H   UNL A   1      34.637  20.465  27.395  1.00  0.00     0.163 HD
BRANCH   3   6
ATOM      6  C   UNL A   1      33.419  23.238  25.977  1.00  0.00     0.095 C 
BRANCH   6   7
ATOM      7  C   UNL A   1      32.543  24.297  26.692  1.00  0.00     0.114 C 
BRANCH   7   8
ATOM      8  C   UNL A   1      31.036  24.215  26.796  1.00  0.00     0.225 C 
ATOM      9  N   UNL A   1      30.203  25.165  26.280  1.00  0.00    -0.326 N 
ATOM     10  H   UNL A   1      29.262  25.127  26.568  1.00  0.00     0.169 HD
ATOM     11  O   UNL A   1      30.508  23.243  27.346  1.00  0.00    -0.275 OA
BRANCH   9  12
ATOM     12  C   UNL A   1      30.536  26.183  25.389  1.00  0.00     0.045 A 
ATOM     13  C   UNL A   1      31.623  27.727  27.554  1.00  0.00     0.048 C 
ATOM     14  C   UNL A   1      31.178  27.705  26.121  1.00  0.00    -0.009 A 
ATOM     15  C   UNL A   1      31.271  29.213  25.148  1.00  0.00     0.046 A 
ATOM     16  Cl  UNL A   1      31.876  30.663  25.838  1.00  0.00    -0.084 Cl
ATOM     17  C   UNL A   1      30.772  29.201  23.419  1.00  0.00     0.021 A 
ATOM     18  C   UNL A   1      30.089  26.138  23.648  1.00  0.00     0.026 A 
ATOM     19  C   UNL A   1      30.185  27.658  22.651  1.00  0.00     0.004 A 
ENDBRANCH   9  12
ENDBRANCH   7   8
ENDBRANCH   6   7
BRANCH   6  20
ATOM     20  C   UNL A   1      34.595  23.505  24.981  1.00  0.00     0.029 C 
ATOM     21  C   UNL A   1      35.847  24.158  25.559  1.00  0.00     0.013 C 
BRANCH  20  22
ATOM     22  C   UNL A   1      34.142  24.128  23.652  1.00  0.00    -0.044 A 
ATOM     23  C   UNL A   1      34.097  25.532  23.525  1.00  0.00     0.004 A 
ATOM     24  C   UNL A   1      33.622  23.356  22.606  1.00  0.00     0.004 A 
ATOM     25  C   UNL A   1      33.497  26.137  22.420  1.00  0.00     0.000 A 
ATOM     26  C   UNL A   1      33.007  23.963  21.509  1.00  0.00     0.000 A 
ATOM     27  C   UNL A   1      32.931  25.352  21.424  1.00  0.00     0.000 A 
ENDBRANCH  20  22
ENDBRANCH   6  20
ENDBRANCH   3   6
ENDBRANCH   1   2
BRANCH   1  28
ATOM     28  C   UNL A   1      37.398  20.134  24.934  1.00  0.00     0.042 C 
BRANCH  28  29
ATOM     29  C   UNL A   1      38.902  20.530  25.689  1.00  0.00     0.118 C 
BRANCH  29  30
ATOM     30  N   UNL A   1      39.879  19.462  25.956  1.00  0.00    -0.352 N 
ATOM     31  C   UNL A   1      41.243  19.539  26.024  1.00  0.00     0.251 C 
ATOM     32  H   UNL A   1      39.498  18.568  26.109  1.00  0.00     0.163 HD
ATOM     33  O   UNL A   1      41.957  18.569  25.819  1.00  0.00    -0.269 OA
BRANCH  31  34
ATOM     34  C   UNL A   1      41.796  20.826  26.441  1.00  0.00     0.039 A 
ATOM     35  C   UNL A   1      42.216  21.043  27.750  1.00  0.00     0.014 A 
ATOM     36  C   UNL A   1      41.914  21.810  25.453  1.00  0.00     0.014 A 
ATOM     37  C   UNL A   1      42.783  22.273  28.061  1.00  0.00     0.010 A 
ATOM     38  C   UNL A   1      42.619  22.954  25.723  1.00  0.00     0.010 A 
ATOM     39  C   UNL A   1      42.992  23.221  27.044  1.00  0.00    -0.014 A 
BRANCH  39  40
ATOM     40  C   UNL A   1      43.496  24.573  27.324  1.00  0.00     0.031 A 
ATOM     41  C   UNL A   1      42.539  25.583  27.895  1.00  0.00     0.074 A 
ATOM     42  C   UNL A   1      44.750  24.889  26.966  1.00  0.00     0.049 A 
ATOM     43  N   UNL A   1      42.711  26.861  28.100  1.00  0.00    -0.248 NA
ATOM     44  C   UNL A   1      41.178  25.107  28.213  1.00  0.00     0.031 C 
ATOM     45  C   UNL A   1      45.705  23.984  26.323  1.00  0.00     0.029 A 
ATOM     46  N   UNL A   1      45.431  26.066  27.086  1.00  0.00    -0.354 N 
ATOM     47  C   UNL A   1      41.477  27.335  28.529  1.00  0.00     0.074 A 
ATOM     48  C   UNL A   1      40.543  26.240  28.457  1.00  0.00     0.031 C 
ATOM     49  C   UNL A   1      46.869  24.629  26.149  1.00  0.00     0.029 A 
ATOM     50  C   UNL A   1      46.724  25.997  26.634  1.00  0.00     0.049 A 
ATOM     51  H   UNL A   1      45.035  26.886  27.461  1.00  0.00     0.167 HD
ATOM     52  C   UNL A   1      41.172  28.568  28.991  1.00  0.00     0.037 A 
ATOM     53  C   UNL A   1      47.678  26.943  26.634  1.00  0.00     0.037 A 
ATOM     54  C   UNL A   1      42.147  29.615  29.107  1.00  0.00     0.049 A 
ATOM     55  C   UNL A   1      47.332  28.286  27.218  1.00  0.00     0.074 A 
ATOM     56  C   UNL A   1      41.997  30.887  29.625  1.00  0.00     0.029 A 
ATOM     57  N   UNL A   1      43.471  29.492  28.708  1.00  0.00    -0.354 N 
ATOM     58  N   UNL A   1      46.186  28.714  27.694  1.00  0.00    -0.248 NA
ATOM     59  C   UNL A   1      48.416  29.270  27.285  1.00  0.00     0.031 C 
ATOM     60  C   UNL A   1      43.224  31.548  29.501  1.00  0.00     0.029 A 
ATOM     61  C   UNL A   1      44.152  30.668  28.961  1.00  0.00     0.049 A 
ATOM     62  H   UNL A   1      43.868  28.686  28.304  1.00  0.00     0.167 HD
ATOM     63  C   UNL A   1      46.416  30.004  28.148  1.00  0.00     0.074 A 
ATOM     64  C   UNL A   1      47.820  30.278  27.906  1.00  0.00     0.031 C 
ATOM     65  C   UNL A   1      45.554  30.888  28.710  1.00  0.00     0.037 A 
BRANCH  52  66
ATOM     66  C   UNL A   1      39.752  28.821  29.414  1.00  0.00     0.064 A 
ATOM     67  C   UNL A   1      39.312  28.566  30.724  1.00  0.00     0.173 A 
ATOM     68  C   UNL A   1      38.814  29.322  28.499  1.00  0.00     0.173 A 
ATOM     69  F   UNL A   1      40.159  28.068  31.638  1.00  0.00    -0.203 F 
ATOM     70  C   UNL A   1      37.981  28.759  31.088  1.00  0.00     0.198 A 
ATOM     71  C   UNL A   1      37.493  29.552  28.878  1.00  0.00     0.198 A 
ATOM     72  F   UNL A   1      39.174  29.581  27.234  1.00  0.00    -0.203 F 
ATOM     73  F   UNL A   1      37.574  28.439  32.324  1.00  0.00    -0.200 F 
ATOM     74  C   UNL A   1      37.075  29.260  30.168  1.00  0.00     0.200 A 
ATOM     75  F   UNL A   1      36.619  30.045  27.990  1.00  0.00    -0.200 F 
ATOM     76  F   UNL A   1      35.796  29.450  30.519  1.00  0.00    -0.200 F 
ENDBRANCH  52  66
BRANCH  53  77
ATOM     77  C   UNL A   1      49.041  26.626  26.139  1.00  0.00     0.064 A 
ATOM     78  C   UNL A   1      49.422  26.951  24.830  1.00  0.00     0.173 A 
ATOM     79  C   UNL A   1      49.998  26.016  26.963  1.00  0.00     0.173 A 
ATOM     80  F   UNL A   1      48.542  27.533  24.001  1.00  0.00    -0.203 F 
ATOM     81  C   UNL A   1      50.697  26.650  24.353  1.00  0.00     0.198 A 
ATOM     82  C   UNL A   1      51.282  25.744  26.495  1.00  0.00     0.198 A 
ATOM     83  F   UNL A   1      49.693  25.706  28.232  1.00  0.00    -0.203 F 
ATOM     84  F   UNL A   1      51.018  26.931  23.083  1.00  0.00    -0.200 F 
ATOM     85  C   UNL A   1      51.627  26.051  25.188  1.00  0.00     0.200 A 
ATOM     86  F   UNL A   1      52.187  25.187  27.313  1.00  0.00    -0.200 F 
ATOM     87  F   UNL A   1      52.855  25.768  24.732  1.00  0.00    -0.200 F 
ENDBRANCH  53  77
BRANCH  65  88
ATOM     88  C   UNL A   1      46.127  32.206  29.138  1.00  0.00     0.064 A 
ATOM     89  C   UNL A   1      46.138  33.318  28.283  1.00  0.00     0.173 A 
ATOM     90  C   UNL A   1      46.647  32.361  30.432  1.00  0.00     0.173 A 
ATOM     91  F   UNL A   1      45.662  33.213  27.033  1.00  0.00    -0.203 F 
ATOM     92  C   UNL A   1      46.688  34.527  28.695  1.00  0.00     0.198 A 
ATOM     93  C   UNL A   1      47.160  33.582  30.853  1.00  0.00     0.198 A 
ATOM     94  F   UNL A   1      46.645  31.330  31.291  1.00  0.00    -0.203 F 
ATOM     95  F   UNL A   1      46.749  35.557  27.841  1.00  0.00    -0.200 F 
ATOM     96  C   UNL A   1      47.192  34.660  29.980  1.00  0.00     0.200 A 
ATOM     97  F   UNL A   1      47.629  33.715  32.102  1.00  0.00    -0.200 F 
ATOM     98  F   UNL A   1      47.719  35.826  30.376  1.00  0.00    -0.200 F 
ENDBRANCH  65  88
ENDBRANCH  39  40
ENDBRANCH  31  34
ENDBRANCH  29  30
ENDBRANCH  28  29
ENDBRANCH   1  28
TORSDOF 15
ENDMDL
MODEL 3
REMARK VINA RESULT:     -13.9      0.642      7.249
REMARK SMILES Cc1c(Cl)cccc1NC(=O)C[C@H](C(=O)NCCCNC(=O)c1ccc(-c2c3nc(c(-c4c(F)c(F)c(F)c(F)c4F)c4ccc([nH]4)c(-c4c(F)c(F)c(F)c(F)c4F)c4nc(c(-c5c(F)c(F)c(F)c(F)c5F)c5ccc2[nH]5)C=C4)C=C3)cc1)[C@H](C)c1ccccc1
REMARK SMILES IDX 17 1 16 2 14 3 15 4 13 6 12 7 10 8 9 9 11 11 8 12 1 13 2 14
REMARK SMILES IDX 3 15 4 16 5 17 7 18 6 19 86 20 87 21 88 22 89 23 93 24 90 25
REMARK SMILES IDX 92 26 91 27 18 28 19 29 20 30 21 31 22 33 23 34 24 35 85 36
REMARK SMILES IDX 25 37 84 38 26 39 27 40 28 41 78 42 29 43 83 44 77 45 79 46
REMARK SMILES IDX 30 47 82 48 76 49 75 50 31 52 63 53 43 54 62 55 44 56 47 57
REMARK SMILES IDX 61 58 80 59 45 60 46 61 60 63 81 64 48 65 32 66 33 67 41 68
REMARK SMILES IDX 34 69 35 70 39 71 42 72 36 73 37 74 40 75 38 76 64 77 65 78
REMARK SMILES IDX 73 79 66 80 67 81 71 82 74 83 68 84 69 85 72 86 70 87 49 88
REMARK SMILES IDX 50 89 58 90 51 91 52 92 56 93 59 94 53 95 54 96 57 97 55 98
REMARK H PARENT 16 5 9 10 20 32 79 51 47 62
REMARK Flexibility Score: inf
ROOT
ATOM      1  C   UNL A   1      31.132  29.904  25.060  1.00  0.00     0.117 C 
ENDROOT
BRANCH   1   2
ATOM      2  N   UNL A   1      32.072  29.324  23.886  1.00  0.00    -0.356 N 
ATOM      3  C   UNL A   1      32.649  28.122  23.646  1.00  0.00     0.224 C 
ATOM      4  O   UNL A   1      33.506  28.070  22.762  1.00  0.00    -0.275 OA
ATOM      5  H   UNL A   1      32.270  29.990  23.188  1.00  0.00     0.163 HD
BRANCH   3   6
ATOM      6  C   UNL A   1      32.262  26.891  24.445  1.00  0.00     0.095 C 
BRANCH   6   7
ATOM      7  C   UNL A   1      31.551  25.906  23.484  1.00  0.00     0.114 C 
BRANCH   7   8
ATOM      8  C   UNL A   1      30.283  25.155  23.830  1.00  0.00     0.225 C 
ATOM      9  N   UNL A   1      30.284  23.956  24.481  1.00  0.00    -0.326 N 
ATOM     10  H   UNL A   1      29.435  23.458  24.483  1.00  0.00     0.169 HD
ATOM     11  O   UNL A   1      29.183  25.639  23.542  1.00  0.00    -0.275 OA
BRANCH   9  12
ATOM     12  C   UNL A   1      31.355  23.360  25.145  1.00  0.00     0.045 A 
ATOM     13  C   UNL A   1      31.862  21.706  22.852  1.00  0.00     0.048 C 
ATOM     14  C   UNL A   1      32.141  21.969  24.304  1.00  0.00    -0.009 A 
ATOM     15  C   UNL A   1      33.249  20.873  25.199  1.00  0.00     0.046 A 
ATOM     16  Cl  UNL A   1      33.996  19.547  24.406  1.00  0.00    -0.084 Cl
ATOM     17  C   UNL A   1      33.621  21.188  26.931  1.00  0.00     0.021 A 
ATOM     18  C   UNL A   1      31.761  23.725  26.859  1.00  0.00     0.026 A 
ATOM     19  C   UNL A   1      32.887  22.625  27.774  1.00  0.00     0.004 A 
ENDBRANCH   9  12
ENDBRANCH   7   8
ENDBRANCH   6   7
BRANCH   6  20
ATOM     20  C   UNL A   1      33.407  26.558  25.457  1.00  0.00     0.029 C 
ATOM     21  C   UNL A   1      34.128  27.745  26.090  1.00  0.00     0.013 C 
BRANCH  20  22
ATOM     22  C   UNL A   1      34.360  25.459  24.964  1.00  0.00    -0.044 A 
ATOM     23  C   UNL A   1      34.233  24.972  23.647  1.00  0.00     0.004 A 
ATOM     24  C   UNL A   1      35.255  24.808  25.822  1.00  0.00     0.004 A 
ATOM     25  C   UNL A   1      34.929  23.839  23.227  1.00  0.00     0.000 A 
ATOM     26  C   UNL A   1      35.937  23.663  25.405  1.00  0.00     0.000 A 
ATOM     27  C   UNL A   1      35.763  23.171  24.114  1.00  0.00     0.000 A 
ENDBRANCH  20  22
ENDBRANCH   6  20
ENDBRANCH   3   6
ENDBRANCH   1   2
BRANCH   1  28
ATOM     28  C   UNL A   1      31.406  31.611  26.398  1.00  0.00     0.042 C 
BRANCH  28  29
ATOM     29  C   UNL A   1      32.775  32.389  27.111  1.00  0.00     0.118 C 
BRANCH  29  30
ATOM     30  N   UNL A   1      32.663  33.790  27.548  1.00  0.00    -0.352 N 
ATOM     31  C   UNL A   1      33.172  34.386  28.669  1.00  0.00     0.251 C 
ATOM     32  H   UNL A   1      32.152  34.381  26.949  1.00  0.00     0.163 HD
ATOM     33  O   UNL A   1      32.677  35.397  29.145  1.00  0.00    -0.269 OA
BRANCH  31  34
ATOM     34  C   UNL A   1      34.394  33.798  29.214  1.00  0.00     0.039 A 
ATOM     35  C   UNL A   1      35.648  34.312  28.897  1.00  0.00     0.014 A 
ATOM     36  C   UNL A   1      34.235  32.722  30.093  1.00  0.00     0.014 A 
ATOM     37  C   UNL A   1      36.762  33.738  29.497  1.00  0.00     0.010 A 
ATOM     38  C   UNL A   1      35.316  32.269  30.804  1.00  0.00     0.010 A 
ATOM     39  C   UNL A   1      36.592  32.724  30.456  1.00  0.00    -0.014 A 
BRANCH  39  40
ATOM     40  C   UNL A   1      37.730  32.011  31.052  1.00  0.00     0.031 A 
ATOM     41  C   UNL A   1      38.162  32.398  32.440  1.00  0.00     0.074 A 
ATOM     42  C   UNL A   1      38.407  31.122  30.308  1.00  0.00     0.049 A 
ATOM     43  N   UNL A   1      39.208  32.012  33.118  1.00  0.00    -0.248 NA
ATOM     44  C   UNL A   1      37.346  33.414  33.133  1.00  0.00     0.031 C 
ATOM     45  C   UNL A   1      38.098  30.764  28.922  1.00  0.00     0.029 A 
ATOM     46  N   UNL A   1      39.500  30.366  30.615  1.00  0.00    -0.354 N 
ATOM     47  C   UNL A   1      39.188  32.763  34.288  1.00  0.00     0.074 A 
ATOM     48  C   UNL A   1      38.095  33.696  34.185  1.00  0.00     0.031 C 
ATOM     49  C   UNL A   1      38.958  29.818  28.514  1.00  0.00     0.029 A 
ATOM     50  C   UNL A   1      39.893  29.536  29.597  1.00  0.00     0.049 A 
ATOM     51  H   UNL A   1      39.963  30.410  31.483  1.00  0.00     0.167 HD
ATOM     52  C   UNL A   1      39.987  32.641  35.371  1.00  0.00     0.037 A 
ATOM     53  C   UNL A   1      40.894  28.640  29.566  1.00  0.00     0.037 A 
ATOM     54  C   UNL A   1      41.026  31.654  35.461  1.00  0.00     0.049 A 
ATOM     55  C   UNL A   1      41.724  28.475  30.810  1.00  0.00     0.074 A 
ATOM     56  C   UNL A   1      41.862  31.369  36.523  1.00  0.00     0.029 A 
ATOM     57  N   UNL A   1      41.354  30.775  34.437  1.00  0.00    -0.354 N 
ATOM     58  N   UNL A   1      41.659  29.132  31.944  1.00  0.00    -0.248 NA
ATOM     59  C   UNL A   1      42.751  27.430  30.779  1.00  0.00     0.031 C 
ATOM     60  C   UNL A   1      42.724  30.340  36.125  1.00  0.00     0.029 A 
ATOM     61  C   UNL A   1      42.386  29.947  34.838  1.00  0.00     0.049 A 
ATOM     62  H   UNL A   1      40.916  30.745  33.556  1.00  0.00     0.167 HD
ATOM     63  C   UNL A   1      42.612  28.561  32.775  1.00  0.00     0.074 A 
ATOM     64  C   UNL A   1      43.226  27.490  32.015  1.00  0.00     0.031 C 
ATOM     65  C   UNL A   1      42.956  28.887  34.046  1.00  0.00     0.037 A 
BRANCH  52  66
ATOM     66  C   UNL A   1      39.743  33.574  36.525  1.00  0.00     0.064 A 
ATOM     67  C   UNL A   1      38.879  33.238  37.580  1.00  0.00     0.173 A 
ATOM     68  C   UNL A   1      40.377  34.824  36.576  1.00  0.00     0.173 A 
ATOM     69  F   UNL A   1      38.229  32.063  37.575  1.00  0.00    -0.203 F 
ATOM     70  C   UNL A   1      38.625  34.132  38.617  1.00  0.00     0.198 A 
ATOM     71  C   UNL A   1      40.151  35.701  37.636  1.00  0.00     0.198 A 
ATOM     72  F   UNL A   1      41.210  35.202  35.596  1.00  0.00    -0.203 F 
ATOM     73  F   UNL A   1      37.740  33.814  39.572  1.00  0.00    -0.200 F 
ATOM     74  C   UNL A   1      39.268  35.359  38.648  1.00  0.00     0.200 A 
ATOM     75  F   UNL A   1      40.781  36.883  37.670  1.00  0.00    -0.200 F 
ATOM     76  F   UNL A   1      39.027  36.218  39.648  1.00  0.00    -0.200 F 
ENDBRANCH  52  66
BRANCH  53  77
ATOM     77  C   UNL A   1      41.104  27.800  28.361  1.00  0.00     0.064 A 
ATOM     78  C   UNL A   1      42.022  28.182  27.373  1.00  0.00     0.173 A 
ATOM     79  C   UNL A   1      40.417  26.591  28.179  1.00  0.00     0.173 A 
ATOM     80  F   UNL A   1      42.703  29.331  27.499  1.00  0.00    -0.203 F 
ATOM     81  C   UNL A   1      42.221  27.404  26.233  1.00  0.00     0.198 A 
ATOM     82  C   UNL A   1      40.640  25.799  27.054  1.00  0.00     0.198 A 
ATOM     83  F   UNL A   1      39.545  26.168  29.105  1.00  0.00    -0.203 F 
ATOM     84  F   UNL A   1      43.071  27.817  25.283  1.00  0.00    -0.200 F 
ATOM     85  C   UNL A   1      41.533  26.211  26.077  1.00  0.00     0.200 A 
ATOM     86  F   UNL A   1      39.990  24.634  26.918  1.00  0.00    -0.200 F 
ATOM     87  F   UNL A   1      41.729  25.460  24.985  1.00  0.00    -0.200 F 
ENDBRANCH  53  77
BRANCH  65  88
ATOM     88  C   UNL A   1      44.011  28.041  34.695  1.00  0.00     0.064 A 
ATOM     89  C   UNL A   1      43.691  26.856  35.374  1.00  0.00     0.173 A 
ATOM     90  C   UNL A   1      45.361  28.411  34.610  1.00  0.00     0.173 A 
ATOM     91  F   UNL A   1      42.411  26.469  35.491  1.00  0.00    -0.203 F 
ATOM     92  C   UNL A   1      44.683  26.095  35.983  1.00  0.00     0.198 A 
ATOM     93  C   UNL A   1      46.353  27.626  35.186  1.00  0.00     0.198 A 
ATOM     94  F   UNL A   1      45.718  29.528  33.958  1.00  0.00    -0.203 F 
ATOM     95  F   UNL A   1      44.349  25.003  36.684  1.00  0.00    -0.200 F 
ATOM     96  C   UNL A   1      46.013  26.476  35.883  1.00  0.00     0.200 A 
ATOM     97  F   UNL A   1      47.640  27.985  35.072  1.00  0.00    -0.200 F 
ATOM     98  F   UNL A   1      46.967  25.740  36.467  1.00  0.00    -0.200 F 
ENDBRANCH  65  88
ENDBRANCH  39  40
ENDBRANCH  31  34
ENDBRANCH  29  30
ENDBRANCH  28  29
ENDBRANCH   1  28
TORSDOF 15
ENDMDL
