MODEL 1
REMARK VINA RESULT:     -13.5      0.000      0.000
REMARK SMILES CC1=C(C#N)C(=O)N(C)C(=O)/C1=C\Nc1ccc(C(=O)NCCCNC(=O)c2ccc(-c3c4nc(c(-c5c(F)c(F)c(F)c(F)c5F)c5ccc([nH]5)c(-c5c(F)c(F)c(F)c(F)c5F)c5nc(c(-c6c(F)c(F)c(F)c(F)c6F)c6ccc3[nH]6)C=C5)C=C4)cc2)c(O)c1
REMARK SMILES IDX 22 1 21 2 19 3 20 4 18 6 15 7 16 8 93 9 17 10 91 11 14 12
REMARK SMILES IDX 13 14 1 15 2 16 3 17 12 18 6 19 10 20 7 21 8 22 11 23 9 24
REMARK SMILES IDX 4 25 5 26 92 27 23 29 24 30 25 31 26 32 27 34 28 35 29 36
REMARK SMILES IDX 90 37 30 38 89 39 31 40 32 41 33 42 83 43 34 44 88 45 82 46
REMARK SMILES IDX 84 47 35 48 87 49 81 50 80 51 36 53 68 54 48 55 67 56 49 57
REMARK SMILES IDX 52 58 66 59 85 60 50 61 51 62 65 64 86 65 53 66 37 67 38 68
REMARK SMILES IDX 46 69 39 70 40 71 44 72 47 73 41 74 42 75 45 76 43 77 69 78
REMARK SMILES IDX 70 79 78 80 71 81 72 82 76 83 79 84 73 85 74 86 77 87 75 88
REMARK SMILES IDX 54 89 55 90 63 91 56 92 57 93 61 94 64 95 58 96 59 97 62 98
REMARK SMILES IDX 60 99
REMARK H PARENT 21 5 14 13 92 28 25 33 84 52 52 63
REMARK Flexibility Score: inf
ROOT
ATOM      1  C   UNL A   1      31.452  30.878  26.265  1.00  0.00     0.118 C 
ENDROOT
BRANCH   1   2
ATOM      2  N   UNL A   1      30.997  30.467  24.944  1.00  0.00    -0.352 N 
ATOM      3  C   UNL A   1      31.133  29.272  24.284  1.00  0.00     0.255 C 
ATOM      4  O   UNL A   1      30.687  29.172  23.143  1.00  0.00    -0.269 OA
ATOM      5  H   UNL A   1      30.511  31.161  24.441  1.00  0.00     0.163 HD
BRANCH   3   6
ATOM      6  C   UNL A   1      31.848  28.128  24.890  1.00  0.00     0.081 A 
ATOM      7  C   UNL A   1      33.050  25.758  25.825  1.00  0.00     0.042 A 
ATOM      8  C   UNL A   1      31.657  25.871  25.756  1.00  0.00     0.027 A 
ATOM      9  C   UNL A   1      33.826  26.873  25.490  1.00  0.00     0.073 A 
ATOM     10  C   UNL A   1      31.060  27.042  25.287  1.00  0.00     0.020 A 
ATOM     11  C   UNL A   1      33.229  28.062  25.081  1.00  0.00     0.130 A 
BRANCH   7  12
ATOM     12  N   UNL A   1      33.707  24.569  26.152  1.00  0.00    -0.361 N 
ATOM     13  H   UNL A   1      34.510  24.668  26.714  1.00  0.00     0.166 HD
BRANCH  12  14
ATOM     14  C   UNL A   1      33.386  23.284  25.800  1.00  0.00     0.097 C 
ATOM     15  C   UNL A   1      32.295  20.660  24.792  1.00  0.00     0.047 C 
ATOM     16  C   UNL A   1      33.762  20.961  25.028  1.00  0.00    -0.013 C 
ATOM     17  C   UNL A   1      34.677  19.991  24.847  1.00  0.00     0.121 C 
ATOM     18  C   UNL A   1      34.214  22.287  25.431  1.00  0.00     0.060 C 
ATOM     19  C   UNL A   1      36.131  20.209  25.026  1.00  0.00     0.271 C 
ATOM     20  C   UNL A   1      35.696  22.592  25.450  1.00  0.00     0.262 C 
ATOM     21  O   UNL A   1      36.915  19.270  24.901  1.00  0.00    -0.268 OA
ATOM     22  N   UNL A   1      36.540  21.502  25.307  1.00  0.00    -0.277 N 
ATOM     23  O   UNL A   1      36.114  23.743  25.591  1.00  0.00    -0.269 OA
ATOM     24  C   UNL A   1      37.974  21.716  25.421  1.00  0.00     0.157 C 
BRANCH  17  25
ATOM     25  C   UNL A   1      34.250  18.585  24.460  1.00  0.00     0.105 C 
ATOM     26  N   UNL A   1      33.895  17.417  24.139  1.00  0.00    -0.192 NA
ENDBRANCH  17  25
ENDBRANCH  12  14
ENDBRANCH   7  12
BRANCH  11  27
ATOM     27  O   UNL A   1      34.079  29.120  24.911  1.00  0.00    -0.507 OA
ATOM     28  H   UNL A   1      34.168  29.762  25.587  1.00  0.00     0.293 HD
ENDBRANCH  11  27
ENDBRANCH   3   6
ENDBRANCH   1   2
BRANCH   1  29
ATOM     29  C   UNL A   1      31.389  32.376  26.508  1.00  0.00     0.042 C 
BRANCH  29  30
ATOM     30  C   UNL A   1      32.593  32.959  27.227  1.00  0.00     0.118 C 
BRANCH  30  31
ATOM     31  N   UNL A   1      32.390  34.316  27.722  1.00  0.00    -0.352 N 
ATOM     32  C   UNL A   1      33.023  35.025  28.717  1.00  0.00     0.251 C 
ATOM     33  H   UNL A   1      31.673  34.811  27.264  1.00  0.00     0.163 HD
ATOM     34  O   UNL A   1      32.593  36.128  29.042  1.00  0.00    -0.269 OA
BRANCH  32  35
ATOM     35  C   UNL A   1      34.187  34.455  29.429  1.00  0.00     0.039 A 
ATOM     36  C   UNL A   1      33.980  33.758  30.624  1.00  0.00     0.014 A 
ATOM     37  C   UNL A   1      35.479  34.591  28.928  1.00  0.00     0.014 A 
ATOM     38  C   UNL A   1      35.054  33.117  31.251  1.00  0.00     0.010 A 
ATOM     39  C   UNL A   1      36.516  33.842  29.470  1.00  0.00     0.010 A 
ATOM     40  C   UNL A   1      36.321  33.105  30.645  1.00  0.00    -0.014 A 
BRANCH  40  41
ATOM     41  C   UNL A   1      37.462  32.349  31.224  1.00  0.00     0.031 A 
ATOM     42  C   UNL A   1      37.973  32.691  32.599  1.00  0.00     0.074 A 
ATOM     43  C   UNL A   1      38.096  31.418  30.485  1.00  0.00     0.049 A 
ATOM     44  N   UNL A   1      39.008  32.215  33.245  1.00  0.00    -0.248 NA
ATOM     45  C   UNL A   1      37.246  33.741  33.331  1.00  0.00     0.031 C 
ATOM     46  C   UNL A   1      37.736  31.032  29.120  1.00  0.00     0.029 A 
ATOM     47  N   UNL A   1      39.181  30.629  30.776  1.00  0.00    -0.354 N 
ATOM     48  C   UNL A   1      39.070  32.927  34.435  1.00  0.00     0.074 A 
ATOM     49  C   UNL A   1      38.016  33.915  34.393  1.00  0.00     0.031 C 
ATOM     50  C   UNL A   1      38.553  30.047  28.711  1.00  0.00     0.029 A 
ATOM     51  C   UNL A   1      39.525  29.768  29.763  1.00  0.00     0.049 A 
ATOM     52  H   UNL A   1      39.667  30.678  31.631  1.00  0.00     0.167 HD
ATOM     53  C   UNL A   1      39.909  32.754  35.485  1.00  0.00     0.037 A 
ATOM     54  C   UNL A   1      40.512  28.854  29.693  1.00  0.00     0.037 A 
ATOM     55  C   UNL A   1      40.933  31.745  35.537  1.00  0.00     0.049 A 
ATOM     56  C   UNL A   1      41.440  28.689  30.866  1.00  0.00     0.074 A 
ATOM     57  C   UNL A   1      41.783  31.430  36.581  1.00  0.00     0.029 A 
ATOM     58  N   UNL A   1      41.249  30.888  34.491  1.00  0.00    -0.354 N 
ATOM     59  N   UNL A   1      41.438  29.309  32.020  1.00  0.00    -0.248 NA
ATOM     60  C   UNL A   1      42.509  27.690  30.723  1.00  0.00     0.031 C 
ATOM     61  C   UNL A   1      42.655  30.424  36.146  1.00  0.00     0.029 A 
ATOM     62  C   UNL A   1      42.306  30.068  34.853  1.00  0.00     0.049 A 
ATOM     63  H   UNL A   1      40.790  30.867  33.620  1.00  0.00     0.167 HD
ATOM     64  C   UNL A   1      42.478  28.755  32.754  1.00  0.00     0.074 A 
ATOM     65  C   UNL A   1      43.083  27.739  31.917  1.00  0.00     0.031 C 
ATOM     66  C   UNL A   1      42.892  29.057  34.009  1.00  0.00     0.037 A 
BRANCH  53  67
ATOM     67  C   UNL A   1      39.751  33.684  36.656  1.00  0.00     0.064 A 
ATOM     68  C   UNL A   1      38.917  33.375  37.744  1.00  0.00     0.173 A 
ATOM     69  C   UNL A   1      40.441  34.906  36.690  1.00  0.00     0.173 A 
ATOM     70  F   UNL A   1      38.225  32.225  37.760  1.00  0.00    -0.203 F 
ATOM     71  C   UNL A   1      38.739  34.276  38.790  1.00  0.00     0.198 A 
ATOM     72  C   UNL A   1      40.290  35.786  37.758  1.00  0.00     0.198 A 
ATOM     73  F   UNL A   1      41.257  35.251  35.683  1.00  0.00    -0.203 F 
ATOM     74  F   UNL A   1      37.877  33.990  39.777  1.00  0.00    -0.200 F 
ATOM     75  C   UNL A   1      39.429  35.478  38.800  1.00  0.00     0.200 A 
ATOM     76  F   UNL A   1      40.971  36.941  37.773  1.00  0.00    -0.200 F 
ATOM     77  F   UNL A   1      39.254  36.345  39.807  1.00  0.00    -0.200 F 
ENDBRANCH  53  67
BRANCH  54  78
ATOM     78  C   UNL A   1      40.638  27.989  28.491  1.00  0.00     0.064 A 
ATOM     79  C   UNL A   1      40.005  26.738  28.445  1.00  0.00     0.173 A 
ATOM     80  C   UNL A   1      41.380  28.386  27.370  1.00  0.00     0.173 A 
ATOM     81  F   UNL A   1      39.300  26.306  29.501  1.00  0.00    -0.203 F 
ATOM     82  C   UNL A   1      40.120  25.913  27.329  1.00  0.00     0.198 A 
ATOM     83  C   UNL A   1      41.471  27.571  26.242  1.00  0.00     0.198 A 
ATOM     84  F   UNL A   1      42.001  29.574  27.361  1.00  0.00    -0.203 F 
ATOM     85  F   UNL A   1      39.537  24.706  27.328  1.00  0.00    -0.200 F 
ATOM     86  C   UNL A   1      40.847  26.332  26.226  1.00  0.00     0.200 A 
ATOM     87  F   UNL A   1      42.162  27.986  25.172  1.00  0.00    -0.200 F 
ATOM     88  F   UNL A   1      40.951  25.541  25.149  1.00  0.00    -0.200 F 
ENDBRANCH  54  78
BRANCH  66  89
ATOM     89  C   UNL A   1      44.029  28.252  34.572  1.00  0.00     0.064 A 
ATOM     90  C   UNL A   1      43.820  27.024  35.215  1.00  0.00     0.173 A 
ATOM     91  C   UNL A   1      45.352  28.700  34.429  1.00  0.00     0.173 A 
ATOM     92  F   UNL A   1      42.573  26.557  35.392  1.00  0.00    -0.203 F 
ATOM     93  C   UNL A   1      44.890  26.288  35.719  1.00  0.00     0.198 A 
ATOM     94  C   UNL A   1      46.421  27.946  34.902  1.00  0.00     0.198 A 
ATOM     95  F   UNL A   1      45.609  29.866  33.816  1.00  0.00    -0.203 F 
ATOM     96  F   UNL A   1      44.661  25.143  36.378  1.00  0.00    -0.200 F 
ATOM     97  C   UNL A   1      46.189  26.745  35.555  1.00  0.00     0.200 A 
ATOM     98  F   UNL A   1      47.676  28.381  34.728  1.00  0.00    -0.200 F 
ATOM     99  F   UNL A   1      47.217  26.030  36.032  1.00  0.00    -0.200 F 
ENDBRANCH  66  89
ENDBRANCH  40  41
ENDBRANCH  32  35
ENDBRANCH  30  31
ENDBRANCH  29  30
ENDBRANCH   1  29
TORSDOF 14
ENDMDL
MODEL 2
REMARK VINA RESULT:     -13.2      0.685      7.295
REMARK SMILES CC1=C(C#N)C(=O)N(C)C(=O)/C1=C\Nc1ccc(C(=O)NCCCNC(=O)c2ccc(-c3c4nc(c(-c5c(F)c(F)c(F)c(F)c5F)c5ccc([nH]5)c(-c5c(F)c(F)c(F)c(F)c5F)c5nc(c(-c6c(F)c(F)c(F)c(F)c6F)c6ccc3[nH]6)C=C5)C=C4)cc2)c(O)c1
REMARK SMILES IDX 22 1 21 2 19 3 20 4 18 6 15 7 16 8 93 9 17 10 91 11 14 12
REMARK SMILES IDX 13 14 1 15 2 16 3 17 12 18 6 19 10 20 7 21 8 22 11 23 9 24
REMARK SMILES IDX 4 25 5 26 92 27 23 29 24 30 25 31 26 32 27 34 28 35 29 36
REMARK SMILES IDX 90 37 30 38 89 39 31 40 32 41 33 42 83 43 34 44 88 45 82 46
REMARK SMILES IDX 84 47 35 48 87 49 81 50 80 51 36 53 68 54 48 55 67 56 49 57
REMARK SMILES IDX 52 58 66 59 85 60 50 61 51 62 65 64 86 65 53 66 37 67 38 68
REMARK SMILES IDX 46 69 39 70 40 71 44 72 47 73 41 74 42 75 45 76 43 77 69 78
REMARK SMILES IDX 70 79 78 80 71 81 72 82 76 83 79 84 73 85 74 86 77 87 75 88
REMARK SMILES IDX 54 89 55 90 63 91 56 92 57 93 61 94 64 95 58 96 59 97 62 98
REMARK SMILES IDX 60 99
REMARK H PARENT 21 5 14 13 92 28 25 33 84 52 52 63
REMARK Flexibility Score: inf
ROOT
ATOM      1  C   UNL A   1      31.697  30.663  26.128  1.00  0.00     0.118 C 
ENDROOT
BRANCH   1   2
ATOM      2  N   UNL A   1      31.082  30.487  24.820  1.00  0.00    -0.352 N 
ATOM      3  C   UNL A   1      30.968  29.372  24.028  1.00  0.00     0.255 C 
ATOM      4  O   UNL A   1      30.426  29.480  22.929  1.00  0.00    -0.269 OA
ATOM      5  H   UNL A   1      30.680  31.303  24.441  1.00  0.00     0.163 HD
BRANCH   3   6
ATOM      6  C   UNL A   1      31.529  28.067  24.440  1.00  0.00     0.081 A 
ATOM      7  C   UNL A   1      32.740  25.745  25.476  1.00  0.00     0.042 A 
ATOM      8  C   UNL A   1      33.509  26.871  25.164  1.00  0.00     0.027 A 
ATOM      9  C   UNL A   1      31.371  25.775  25.192  1.00  0.00     0.073 A 
ATOM     10  C   UNL A   1      32.910  28.025  24.657  1.00  0.00     0.020 A 
ATOM     11  C   UNL A   1      30.782  26.903  24.628  1.00  0.00     0.130 A 
BRANCH   7  12
ATOM     12  N   UNL A   1      33.259  24.615  26.113  1.00  0.00    -0.361 N 
ATOM     13  H   UNL A   1      33.823  24.793  26.901  1.00  0.00     0.166 HD
BRANCH  12  14
ATOM     14  C   UNL A   1      33.091  23.293  25.793  1.00  0.00     0.097 C 
ATOM     15  C   UNL A   1      32.312  20.536  24.853  1.00  0.00     0.047 C 
ATOM     16  C   UNL A   1      33.734  21.012  25.076  1.00  0.00    -0.013 C 
ATOM     17  C   UNL A   1      34.756  20.152  24.914  1.00  0.00     0.121 C 
ATOM     18  C   UNL A   1      34.029  22.392  25.445  1.00  0.00     0.060 C 
ATOM     19  C   UNL A   1      36.175  20.543  25.081  1.00  0.00     0.271 C 
ATOM     20  C   UNL A   1      35.465  22.868  25.449  1.00  0.00     0.262 C 
ATOM     21  O   UNL A   1      37.063  19.698  24.975  1.00  0.00    -0.268 OA
ATOM     22  N   UNL A   1      36.431  21.881  25.328  1.00  0.00    -0.277 N 
ATOM     23  O   UNL A   1      35.745  24.063  25.560  1.00  0.00    -0.269 OA
ATOM     24  C   UNL A   1      37.829  22.263  25.430  1.00  0.00     0.157 C 
BRANCH  17  25
ATOM     25  C   UNL A   1      34.496  18.696  24.563  1.00  0.00     0.105 C 
ATOM     26  N   UNL A   1      34.279  17.488  24.271  1.00  0.00    -0.192 NA
ENDBRANCH  17  25
ENDBRANCH  12  14
ENDBRANCH   7  12
BRANCH  11  27
ATOM     27  O   UNL A   1      29.469  26.768  24.272  1.00  0.00    -0.507 OA
ATOM     28  H   UNL A   1      29.213  26.096  23.671  1.00  0.00     0.293 HD
ENDBRANCH  11  27
ENDBRANCH   3   6
ENDBRANCH   1   2
BRANCH   1  29
ATOM     29  C   UNL A   1      31.413  32.006  26.776  1.00  0.00     0.042 C 
BRANCH  29  30
ATOM     30  C   UNL A   1      32.639  32.745  27.283  1.00  0.00     0.118 C 
BRANCH  30  31
ATOM     31  N   UNL A   1      32.391  34.138  27.635  1.00  0.00    -0.352 N 
ATOM     32  C   UNL A   1      32.991  34.963  28.559  1.00  0.00     0.251 C 
ATOM     33  H   UNL A   1      31.666  34.562  27.123  1.00  0.00     0.163 HD
ATOM     34  O   UNL A   1      32.525  36.081  28.766  1.00  0.00    -0.269 OA
BRANCH  32  35
ATOM     35  C   UNL A   1      34.162  34.504  29.337  1.00  0.00     0.039 A 
ATOM     36  C   UNL A   1      33.962  33.955  30.608  1.00  0.00     0.014 A 
ATOM     37  C   UNL A   1      35.453  34.600  28.824  1.00  0.00     0.014 A 
ATOM     38  C   UNL A   1      35.045  33.413  31.309  1.00  0.00     0.010 A 
ATOM     39  C   UNL A   1      36.500  33.940  29.455  1.00  0.00     0.010 A 
ATOM     40  C   UNL A   1      36.314  33.348  30.711  1.00  0.00    -0.014 A 
BRANCH  40  41
ATOM     41  C   UNL A   1      37.465  32.688  31.379  1.00  0.00     0.031 A 
ATOM     42  C   UNL A   1      38.183  31.553  30.699  1.00  0.00     0.074 A 
ATOM     43  C   UNL A   1      37.810  33.047  32.632  1.00  0.00     0.049 A 
ATOM     44  N   UNL A   1      39.148  30.791  31.147  1.00  0.00    -0.248 NA
ATOM     45  C   UNL A   1      37.726  31.201  29.345  1.00  0.00     0.031 C 
ATOM     46  C   UNL A   1      37.160  34.092  33.424  1.00  0.00     0.029 A 
ATOM     47  N   UNL A   1      38.793  32.566  33.462  1.00  0.00    -0.354 N 
ATOM     48  C   UNL A   1      39.388  29.857  30.148  1.00  0.00     0.074 A 
ATOM     49  C   UNL A   1      38.421  30.101  29.101  1.00  0.00     0.031 C 
ATOM     50  C   UNL A   1      37.791  34.208  34.603  1.00  0.00     0.029 A 
ATOM     51  C   UNL A   1      38.856  33.212  34.672  1.00  0.00     0.049 A 
ATOM     52  H   UNL A   1      39.394  31.828  33.212  1.00  0.00     0.167 HD
ATOM     53  C   UNL A   1      40.346  28.902  30.090  1.00  0.00     0.037 A 
ATOM     54  C   UNL A   1      39.683  33.024  35.719  1.00  0.00     0.037 A 
ATOM     55  C   UNL A   1      41.329  28.686  31.119  1.00  0.00     0.049 A 
ATOM     56  C   UNL A   1      40.731  31.947  35.639  1.00  0.00     0.074 A 
ATOM     57  C   UNL A   1      42.392  27.802  31.127  1.00  0.00     0.029 A 
ATOM     58  N   UNL A   1      41.362  29.363  32.330  1.00  0.00    -0.354 N 
ATOM     59  N   UNL A   1      41.003  31.125  34.655  1.00  0.00    -0.248 NA
ATOM     60  C   UNL A   1      41.590  31.776  36.818  1.00  0.00     0.031 C 
ATOM     61  C   UNL A   1      43.032  27.901  32.367  1.00  0.00     0.029 A 
ATOM     62  C   UNL A   1      42.408  28.892  33.108  1.00  0.00     0.049 A 
ATOM     63  H   UNL A   1      40.735  30.075  32.598  1.00  0.00     0.167 HD
ATOM     64  C   UNL A   1      42.083  30.364  35.080  1.00  0.00     0.074 A 
ATOM     65  C   UNL A   1      42.424  30.831  36.408  1.00  0.00     0.031 C 
ATOM     66  C   UNL A   1      42.737  29.372  34.427  1.00  0.00     0.037 A 
BRANCH  53  67
ATOM     67  C   UNL A   1      40.368  28.017  28.874  1.00  0.00     0.064 A 
ATOM     68  C   UNL A   1      39.681  26.792  28.834  1.00  0.00     0.173 A 
ATOM     69  C   UNL A   1      41.091  28.396  27.732  1.00  0.00     0.173 A 
ATOM     70  F   UNL A   1      38.983  26.373  29.901  1.00  0.00    -0.203 F 
ATOM     71  C   UNL A   1      39.762  25.959  27.722  1.00  0.00     0.198 A 
ATOM     72  C   UNL A   1      41.136  27.579  26.606  1.00  0.00     0.198 A 
ATOM     73  F   UNL A   1      41.760  29.558  27.710  1.00  0.00    -0.203 F 
ATOM     74  F   UNL A   1      39.161  24.760  27.740  1.00  0.00    -0.200 F 
ATOM     75  C   UNL A   1      40.484  26.355  26.607  1.00  0.00     0.200 A 
ATOM     76  F   UNL A   1      41.822  27.970  25.524  1.00  0.00    -0.200 F 
ATOM     77  F   UNL A   1      40.563  25.550  25.537  1.00  0.00    -0.200 F 
ENDBRANCH  53  67
BRANCH  54  78
ATOM     78  C   UNL A   1      39.587  33.909  36.909  1.00  0.00     0.064 A 
ATOM     79  C   UNL A   1      40.275  35.130  36.945  1.00  0.00     0.173 A 
ATOM     80  C   UNL A   1      38.810  33.565  38.024  1.00  0.00     0.173 A 
ATOM     81  F   UNL A   1      41.048  35.493  35.910  1.00  0.00    -0.203 F 
ATOM     82  C   UNL A   1      40.202  35.967  38.056  1.00  0.00     0.198 A 
ATOM     83  C   UNL A   1      38.715  34.417  39.125  1.00  0.00     0.198 A 
ATOM     84  F   UNL A   1      38.128  32.411  38.040  1.00  0.00    -0.203 F 
ATOM     85  F   UNL A   1      40.903  37.109  38.079  1.00  0.00    -0.200 F 
ATOM     86  C   UNL A   1      39.417  35.613  39.142  1.00  0.00     0.200 A 
ATOM     87  F   UNL A   1      37.943  34.079  40.166  1.00  0.00    -0.200 F 
ATOM     88  F   UNL A   1      39.340  36.422  40.208  1.00  0.00    -0.200 F 
ENDBRANCH  54  78
BRANCH  66  89
ATOM     89  C   UNL A   1      43.915  28.748  35.122  1.00  0.00     0.064 A 
ATOM     90  C   UNL A   1      45.210  29.271  34.996  1.00  0.00     0.173 A 
ATOM     91  C   UNL A   1      43.734  27.636  35.959  1.00  0.00     0.173 A 
ATOM     92  F   UNL A   1      45.439  30.324  34.197  1.00  0.00    -0.203 F 
ATOM     93  C   UNL A   1      46.285  28.684  35.659  1.00  0.00     0.198 A 
ATOM     94  C   UNL A   1      44.805  27.074  36.648  1.00  0.00     0.198 A 
ATOM     95  F   UNL A   1      42.514  27.101  36.120  1.00  0.00    -0.203 F 
ATOM     96  F   UNL A   1      47.523  29.168  35.482  1.00  0.00    -0.200 F 
ATOM     97  C   UNL A   1      46.081  27.593  36.491  1.00  0.00     0.200 A 
ATOM     98  F   UNL A   1      44.602  26.030  37.463  1.00  0.00    -0.200 F 
ATOM     99  F   UNL A   1      47.116  27.037  37.135  1.00  0.00    -0.200 F 
ENDBRANCH  66  89
ENDBRANCH  40  41
ENDBRANCH  32  35
ENDBRANCH  30  31
ENDBRANCH  29  30
ENDBRANCH   1  29
TORSDOF 14
ENDMDL
MODEL 3
REMARK VINA RESULT:     -13.0      5.134     10.379
REMARK SMILES CC1=C(C#N)C(=O)N(C)C(=O)/C1=C\Nc1ccc(C(=O)NCCCNC(=O)c2ccc(-c3c4nc(c(-c5c(F)c(F)c(F)c(F)c5F)c5ccc([nH]5)c(-c5c(F)c(F)c(F)c(F)c5F)c5nc(c(-c6c(F)c(F)c(F)c(F)c6F)c6ccc3[nH]6)C=C5)C=C4)cc2)c(O)c1
REMARK SMILES IDX 22 1 21 2 19 3 20 4 18 6 15 7 16 8 93 9 17 10 91 11 14 12
REMARK SMILES IDX 13 14 1 15 2 16 3 17 12 18 6 19 10 20 7 21 8 22 11 23 9 24
REMARK SMILES IDX 4 25 5 26 92 27 23 29 24 30 25 31 26 32 27 34 28 35 29 36
REMARK SMILES IDX 90 37 30 38 89 39 31 40 32 41 33 42 83 43 34 44 88 45 82 46
REMARK SMILES IDX 84 47 35 48 87 49 81 50 80 51 36 53 68 54 48 55 67 56 49 57
REMARK SMILES IDX 52 58 66 59 85 60 50 61 51 62 65 64 86 65 53 66 37 67 38 68
REMARK SMILES IDX 46 69 39 70 40 71 44 72 47 73 41 74 42 75 45 76 43 77 69 78
REMARK SMILES IDX 70 79 78 80 71 81 72 82 76 83 79 84 73 85 74 86 77 87 75 88
REMARK SMILES IDX 54 89 55 90 63 91 56 92 57 93 61 94 64 95 58 96 59 97 62 98
REMARK SMILES IDX 60 99
REMARK H PARENT 21 5 14 13 92 28 25 33 84 52 52 63
REMARK Flexibility Score: inf
ROOT
ATOM      1  C   UNL A   1      36.868  20.456  25.073  1.00  0.00     0.118 C 
ENDROOT
BRANCH   1   2
ATOM      2  N   UNL A   1      35.799  19.474  24.952  1.00  0.00    -0.352 N 
ATOM      3  C   UNL A   1      34.436  19.633  24.952  1.00  0.00     0.255 C 
ATOM      4  O   UNL A   1      33.725  18.633  24.869  1.00  0.00    -0.269 OA
ATOM      5  H   UNL A   1      36.104  18.543  24.854  1.00  0.00     0.163 HD
BRANCH   3   6
ATOM      6  C   UNL A   1      33.810  20.964  25.104  1.00  0.00     0.081 A 
ATOM      7  C   UNL A   1      32.341  23.361  25.266  1.00  0.00     0.042 A 
ATOM      8  C   UNL A   1      32.454  22.677  24.051  1.00  0.00     0.027 A 
ATOM      9  C   UNL A   1      33.035  22.867  26.376  1.00  0.00     0.073 A 
ATOM     10  C   UNL A   1      33.176  21.485  23.970  1.00  0.00     0.020 A 
ATOM     11  C   UNL A   1      33.805  21.712  26.281  1.00  0.00     0.130 A 
BRANCH   7  12
ATOM     12  N   UNL A   1      31.522  24.479  25.442  1.00  0.00    -0.361 N 
ATOM     13  H   UNL A   1      30.595  24.380  25.125  1.00  0.00     0.166 HD
BRANCH  12  14
ATOM     14  C   UNL A   1      31.831  25.695  25.995  1.00  0.00     0.097 C 
ATOM     15  C   UNL A   1      32.937  28.153  27.345  1.00  0.00     0.047 C 
ATOM     16  C   UNL A   1      31.997  28.160  26.156  1.00  0.00    -0.013 C 
ATOM     17  C   UNL A   1      31.545  29.332  25.672  1.00  0.00     0.121 C 
ATOM     18  C   UNL A   1      31.580  26.924  25.505  1.00  0.00     0.060 C 
ATOM     19  C   UNL A   1      30.650  29.429  24.496  1.00  0.00     0.271 C 
ATOM     20  C   UNL A   1      30.815  26.993  24.201  1.00  0.00     0.262 C 
ATOM     21  O   UNL A   1      30.225  30.525  24.134  1.00  0.00    -0.268 OA
ATOM     22  N   UNL A   1      30.355  28.249  23.835  1.00  0.00    -0.277 N 
ATOM     23  O   UNL A   1      30.615  25.987  23.519  1.00  0.00    -0.269 OA
ATOM     24  C   UNL A   1      29.525  28.364  22.647  1.00  0.00     0.157 C 
BRANCH  17  25
ATOM     25  C   UNL A   1      31.925  30.644  26.339  1.00  0.00     0.105 C 
ATOM     26  N   UNL A   1      32.241  31.733  26.892  1.00  0.00    -0.192 NA
ENDBRANCH  17  25
ENDBRANCH  12  14
ENDBRANCH   7  12
BRANCH  11  27
ATOM     27  O   UNL A   1      34.542  21.402  27.391  1.00  0.00    -0.507 OA
ATOM     28  H   UNL A   1      34.273  20.702  27.951  1.00  0.00     0.293 HD
ENDBRANCH  11  27
ENDBRANCH   3   6
ENDBRANCH   1   2
BRANCH   1  29
ATOM     29  C   UNL A   1      38.250  19.917  24.749  1.00  0.00     0.042 C 
BRANCH  29  30
ATOM     30  C   UNL A   1      39.307  20.185  25.807  1.00  0.00     0.118 C 
BRANCH  30  31
ATOM     31  N   UNL A   1      40.315  19.138  25.918  1.00  0.00    -0.352 N 
ATOM     32  C   UNL A   1      41.670  19.201  26.152  1.00  0.00     0.251 C 
ATOM     33  H   UNL A   1      39.966  18.225  25.805  1.00  0.00     0.163 HD
ATOM     34  O   UNL A   1      42.346  18.178  26.082  1.00  0.00    -0.269 OA
BRANCH  32  35
ATOM     35  C   UNL A   1      42.328  20.493  26.442  1.00  0.00     0.039 A 
ATOM     36  C   UNL A   1      42.880  21.229  25.388  1.00  0.00     0.014 A 
ATOM     37  C   UNL A   1      42.401  20.992  27.740  1.00  0.00     0.014 A 
ATOM     38  C   UNL A   1      43.405  22.503  25.628  1.00  0.00     0.010 A 
ATOM     39  C   UNL A   1      42.792  22.307  27.956  1.00  0.00     0.010 A 
ATOM     40  C   UNL A   1      43.311  23.077  26.906  1.00  0.00    -0.014 A 
BRANCH  40  41
ATOM     41  C   UNL A   1      43.762  24.466  27.179  1.00  0.00     0.031 A 
ATOM     42  C   UNL A   1      42.780  25.494  27.676  1.00  0.00     0.074 A 
ATOM     43  C   UNL A   1      45.030  24.828  26.898  1.00  0.00     0.049 A 
ATOM     44  N   UNL A   1      42.952  26.775  27.888  1.00  0.00    -0.248 NA
ATOM     45  C   UNL A   1      41.408  25.028  27.929  1.00  0.00     0.031 C 
ATOM     46  C   UNL A   1      46.064  23.943  26.361  1.00  0.00     0.029 A 
ATOM     47  N   UNL A   1      45.663  26.040  27.022  1.00  0.00    -0.354 N 
ATOM     48  C   UNL A   1      41.709  27.265  28.266  1.00  0.00     0.074 A 
ATOM     49  C   UNL A   1      40.778  26.163  28.185  1.00  0.00     0.031 C 
ATOM     50  C   UNL A   1      47.213  24.627  26.248  1.00  0.00     0.029 A 
ATOM     51  C   UNL A   1      46.986  26.010  26.655  1.00  0.00     0.049 A 
ATOM     52  H   UNL A   1      45.210  26.853  27.343  1.00  0.00     0.167 HD
ATOM     53  C   UNL A   1      41.377  28.513  28.676  1.00  0.00     0.037 A 
ATOM     54  C   UNL A   1      47.911  26.989  26.651  1.00  0.00     0.037 A 
ATOM     55  C   UNL A   1      42.316  29.597  28.789  1.00  0.00     0.049 A 
ATOM     56  C   UNL A   1      47.517  28.371  27.096  1.00  0.00     0.074 A 
ATOM     57  C   UNL A   1      42.104  30.877  29.269  1.00  0.00     0.029 A 
ATOM     58  N   UNL A   1      43.650  29.527  28.410  1.00  0.00    -0.354 N 
ATOM     59  N   UNL A   1      46.359  28.804  27.532  1.00  0.00    -0.248 NA
ATOM     60  C   UNL A   1      48.564  29.401  27.051  1.00  0.00     0.031 C 
ATOM     61  C   UNL A   1      43.294  31.600  29.124  1.00  0.00     0.029 A 
ATOM     62  C   UNL A   1      44.265  30.753  28.613  1.00  0.00     0.049 A 
ATOM     63  H   UNL A   1      44.094  28.725  28.050  1.00  0.00     0.167 HD
ATOM     64  C   UNL A   1      46.545  30.143  27.845  1.00  0.00     0.074 A 
ATOM     65  C   UNL A   1      47.932  30.449  27.559  1.00  0.00     0.031 C 
ATOM     66  C   UNL A   1      45.649  31.039  28.329  1.00  0.00     0.037 A 
BRANCH  53  67
ATOM     67  C   UNL A   1      39.936  28.766  29.022  1.00  0.00     0.064 A 
ATOM     68  C   UNL A   1      39.428  28.526  30.310  1.00  0.00     0.173 A 
ATOM     69  C   UNL A   1      39.047  29.251  28.051  1.00  0.00     0.173 A 
ATOM     70  F   UNL A   1      40.231  28.052  31.276  1.00  0.00    -0.203 F 
ATOM     71  C   UNL A   1      38.078  28.711  30.596  1.00  0.00     0.198 A 
ATOM     72  C   UNL A   1      37.705  29.473  28.352  1.00  0.00     0.198 A 
ATOM     73  F   UNL A   1      39.477  29.506  26.807  1.00  0.00    -0.203 F 
ATOM     74  F   UNL A   1      37.604  28.400  31.811  1.00  0.00    -0.200 F 
ATOM     75  C   UNL A   1      37.219  29.189  29.619  1.00  0.00     0.200 A 
ATOM     76  F   UNL A   1      36.880  29.950  27.410  1.00  0.00    -0.200 F 
ATOM     77  F   UNL A   1      35.919  29.363  29.895  1.00  0.00    -0.200 F 
ENDBRANCH  53  67
BRANCH  54  78
ATOM     78  C   UNL A   1      49.313  26.683  26.261  1.00  0.00     0.064 A 
ATOM     79  C   UNL A   1      49.737  26.853  24.935  1.00  0.00     0.173 A 
ATOM     80  C   UNL A   1      50.255  26.224  27.193  1.00  0.00     0.173 A 
ATOM     81  F   UNL A   1      48.866  27.271  24.004  1.00  0.00    -0.203 F 
ATOM     82  C   UNL A   1      51.044  26.563  24.553  1.00  0.00     0.198 A 
ATOM     83  C   UNL A   1      51.571  25.962  26.814  1.00  0.00     0.198 A 
ATOM     84  F   UNL A   1      49.903  26.048  28.474  1.00  0.00    -0.203 F 
ATOM     85  F   UNL A   1      51.410  26.698  23.271  1.00  0.00    -0.200 F 
ATOM     86  C   UNL A   1      51.962  26.124  25.494  1.00  0.00     0.200 A 
ATOM     87  F   UNL A   1      52.460  25.552  27.730  1.00  0.00    -0.200 F 
ATOM     88  F   UNL A   1      53.223  25.853  25.127  1.00  0.00    -0.200 F 
ENDBRANCH  54  78
BRANCH  66  89
ATOM     89  C   UNL A   1      46.149  32.425  28.621  1.00  0.00     0.064 A 
ATOM     90  C   UNL A   1      46.701  32.766  29.864  1.00  0.00     0.173 A 
ATOM     91  C   UNL A   1      46.111  33.415  27.626  1.00  0.00     0.173 A 
ATOM     92  F   UNL A   1      46.747  31.862  30.854  1.00  0.00    -0.203 F 
ATOM     93  C   UNL A   1      47.170  34.055  30.109  1.00  0.00     0.198 A 
ATOM     94  C   UNL A   1      46.613  34.691  27.863  1.00  0.00     0.198 A 
ATOM     95  F   UNL A   1      45.599  33.139  26.417  1.00  0.00    -0.203 F 
ATOM     96  F   UNL A   1      47.644  34.373  31.322  1.00  0.00    -0.200 F 
ATOM     97  C   UNL A   1      47.133  35.013  29.107  1.00  0.00     0.200 A 
ATOM     98  F   UNL A   1      46.591  35.610  26.888  1.00  0.00    -0.200 F 
ATOM     99  F   UNL A   1      47.594  36.249  29.342  1.00  0.00    -0.200 F 
ENDBRANCH  66  89
ENDBRANCH  40  41
ENDBRANCH  32  35
ENDBRANCH  30  31
ENDBRANCH  29  30
ENDBRANCH   1  29
TORSDOF 14
ENDMDL
