MODEL 1
REMARK VINA RESULT:     -13.2      0.000      0.000
REMARK SMILES COc1ccc(NC(=O)[C@@H]2[C@@H](C(=O)NCCCNC(=O)c3ccc(-c4c5nc(c(-c6c(F)c(F)c(F)c(F)c6F)c6ccc([nH]6)c(-c6c(F)c(F)c(F)c(F)c6F)c6nc(c(-c7c(F)c(F)c(F)c(F)c7F)c7ccc4[nH]7)C=C6)C=C5)cc3)[C@H]3C=C[C@@H]2C3)cc1O
REMARK SMILES IDX 15 1 14 2 12 3 13 4 11 6 10 7 87 8 84 9 86 10 88 11 85 12
REMARK SMILES IDX 8 13 7 14 9 16 6 17 3 18 4 19 90 20 5 21 89 22 2 23 1 24
REMARK SMILES IDX 91 25 16 27 17 28 18 29 19 30 20 32 21 33 22 34 83 35 23 36
REMARK SMILES IDX 82 37 24 38 25 39 26 40 76 41 27 42 81 43 75 44 77 45 28 46
REMARK SMILES IDX 80 47 74 48 73 49 29 51 61 52 41 53 60 54 42 55 45 56 59 57
REMARK SMILES IDX 78 58 43 59 44 60 58 62 79 63 46 64 30 65 31 66 39 67 32 68
REMARK SMILES IDX 33 69 37 70 40 71 34 72 35 73 38 74 36 75 62 76 63 77 71 78
REMARK SMILES IDX 64 79 65 80 69 81 72 82 66 83 67 84 70 85 68 86 47 87 48 88
REMARK SMILES IDX 56 89 49 90 50 91 54 92 57 93 51 94 52 95 55 96 53 97
REMARK H PARENT 14 5 7 15 91 26 18 31 77 50 45 61
REMARK Flexibility Score: inf
ROOT
ATOM      1  C   UNL A   1      32.500  26.939  26.989  1.00  0.00     0.117 C 
ENDROOT
BRANCH   1   2
ATOM      2  N   UNL A   1      31.814  25.677  26.981  1.00  0.00    -0.356 N 
ATOM      3  C   UNL A   1      32.209  24.570  26.274  1.00  0.00     0.224 C 
ATOM      4  O   UNL A   1      31.782  23.484  26.667  1.00  0.00    -0.275 OA
ATOM      5  H   UNL A   1      30.996  25.600  27.523  1.00  0.00     0.163 HD
BRANCH   3   6
ATOM      6  C   UNL A   1      33.232  24.717  25.125  1.00  0.00     0.098 C 
ATOM      7  C   UNL A   1      32.932  23.888  23.831  1.00  0.00     0.099 C 
ATOM      8  C   UNL A   1      34.175  22.934  23.776  1.00  0.00     0.025 C 
ATOM      9  C   UNL A   1      34.656  24.220  25.531  1.00  0.00     0.025 C 
ATOM     10  C   UNL A   1      34.220  22.036  24.990  1.00  0.00    -0.027 C 
ATOM     11  C   UNL A   1      35.282  23.920  24.167  1.00  0.00     0.017 C 
ATOM     12  C   UNL A   1      34.569  22.799  26.032  1.00  0.00    -0.027 C 
BRANCH   7  13
ATOM     13  C   UNL A   1      32.786  24.451  22.383  1.00  0.00     0.228 C 
ATOM     14  N   UNL A   1      31.986  25.438  21.903  1.00  0.00    -0.326 N 
ATOM     15  H   UNL A   1      31.891  25.391  20.923  1.00  0.00     0.169 HD
ATOM     16  O   UNL A   1      33.334  23.801  21.471  1.00  0.00    -0.274 OA
BRANCH  14  17
ATOM     17  C   UNL A   1      31.262  26.502  22.446  1.00  0.00     0.045 A 
ATOM     18  C   UNL A   1      29.498  28.597  22.864  1.00  0.00     0.160 A 
ATOM     19  C   UNL A   1      29.264  27.373  23.481  1.00  0.00     0.052 A 
ATOM     20  C   UNL A   1      30.716  28.833  22.228  1.00  0.00     0.159 A 
ATOM     21  C   UNL A   1      30.178  26.332  23.300  1.00  0.00     0.030 A 
ATOM     22  C   UNL A   1      31.622  27.795  22.046  1.00  0.00     0.076 A 
BRANCH  18  23
ATOM     23  O   UNL A   1      28.428  29.388  22.540  1.00  0.00    -0.493 OA
ATOM     24  C   UNL A   1      27.195  28.945  23.082  1.00  0.00     0.278 C 
ENDBRANCH  18  23
BRANCH  20  25
ATOM     25  O   UNL A   1      30.987  30.035  21.639  1.00  0.00    -0.504 OA
ATOM     26  H   UNL A   1      31.175  30.076  20.721  1.00  0.00     0.293 HD
ENDBRANCH  20  25
ENDBRANCH  14  17
ENDBRANCH   7  13
ENDBRANCH   3   6
ENDBRANCH   1   2
BRANCH   1  27
ATOM     27  C   UNL A   1      31.825  28.076  26.255  1.00  0.00     0.042 C 
BRANCH  27  28
ATOM     28  C   UNL A   1      32.758  29.189  25.800  1.00  0.00     0.118 C 
BRANCH  28  29
ATOM     29  N   UNL A   1      32.444  30.514  26.336  1.00  0.00    -0.352 N 
ATOM     30  C   UNL A   1      33.142  31.387  27.145  1.00  0.00     0.251 C 
ATOM     31  H   UNL A   1      31.560  30.850  26.064  1.00  0.00     0.163 HD
ATOM     32  O   UNL A   1      32.592  32.395  27.566  1.00  0.00    -0.269 OA
BRANCH  30  33
ATOM     33  C   UNL A   1      34.505  31.085  27.625  1.00  0.00     0.039 A 
ATOM     34  C   UNL A   1      35.427  32.138  27.709  1.00  0.00     0.014 A 
ATOM     35  C   UNL A   1      34.879  29.806  28.014  1.00  0.00     0.014 A 
ATOM     36  C   UNL A   1      36.668  31.932  28.307  1.00  0.00     0.010 A 
ATOM     37  C   UNL A   1      36.046  29.633  28.738  1.00  0.00     0.010 A 
ATOM     38  C   UNL A   1      36.951  30.695  28.896  1.00  0.00    -0.014 A 
BRANCH  38  39
ATOM     39  C   UNL A   1      38.183  30.446  29.678  1.00  0.00     0.031 A 
ATOM     40  C   UNL A   1      39.208  29.504  29.118  1.00  0.00     0.074 A 
ATOM     41  C   UNL A   1      38.292  30.931  30.928  1.00  0.00     0.049 A 
ATOM     42  N   UNL A   1      40.193  28.893  29.720  1.00  0.00    -0.248 NA
ATOM     43  C   UNL A   1      39.054  29.146  27.697  1.00  0.00     0.031 C 
ATOM     44  C   UNL A   1      37.327  31.818  31.583  1.00  0.00     0.029 A 
ATOM     45  N   UNL A   1      39.248  30.717  31.887  1.00  0.00    -0.354 N 
ATOM     46  C   UNL A   1      40.734  28.036  28.769  1.00  0.00     0.074 A 
ATOM     47  C   UNL A   1      39.932  28.163  27.574  1.00  0.00     0.031 C 
ATOM     48  C   UNL A   1      37.745  32.079  32.832  1.00  0.00     0.029 A 
ATOM     49  C   UNL A   1      38.972  31.334  33.084  1.00  0.00     0.049 A 
ATOM     50  H   UNL A   1      40.054  30.174  31.733  1.00  0.00     0.167 HD
ATOM     51  C   UNL A   1      41.818  27.235  28.883  1.00  0.00     0.037 A 
ATOM     52  C   UNL A   1      39.627  31.277  34.258  1.00  0.00     0.037 A 
ATOM     53  C   UNL A   1      42.631  27.176  30.068  1.00  0.00     0.049 A 
ATOM     54  C   UNL A   1      40.861  30.423  34.347  1.00  0.00     0.074 A 
ATOM     55  C   UNL A   1      43.789  26.455  30.289  1.00  0.00     0.029 A 
ATOM     56  N   UNL A   1      42.371  27.889  31.232  1.00  0.00    -0.354 N 
ATOM     57  N   UNL A   1      41.389  29.638  33.437  1.00  0.00    -0.248 NA
ATOM     58  C   UNL A   1      41.595  30.446  35.618  1.00  0.00     0.031 C 
ATOM     59  C   UNL A   1      44.216  26.711  31.597  1.00  0.00     0.029 A 
ATOM     60  C   UNL A   1      43.349  27.626  32.176  1.00  0.00     0.049 A 
ATOM     61  H   UNL A   1      41.605  28.492  31.366  1.00  0.00     0.167 HD
ATOM     62  C   UNL A   1      42.527  29.095  34.013  1.00  0.00     0.074 A 
ATOM     63  C   UNL A   1      42.621  29.650  35.349  1.00  0.00     0.031 C 
ATOM     64  C   UNL A   1      43.416  28.215  33.489  1.00  0.00     0.037 A 
BRANCH  51  65
ATOM     65  C   UNL A   1      42.175  26.380  27.701  1.00  0.00     0.064 A 
ATOM     66  C   UNL A   1      41.555  25.142  27.470  1.00  0.00     0.173 A 
ATOM     67  C   UNL A   1      43.163  26.793  26.794  1.00  0.00     0.173 A 
ATOM     68  F   UNL A   1      40.615  24.690  28.314  1.00  0.00    -0.203 F 
ATOM     69  C   UNL A   1      41.944  24.328  26.409  1.00  0.00     0.198 A 
ATOM     70  C   UNL A   1      43.523  25.994  25.711  1.00  0.00     0.198 A 
ATOM     71  F   UNL A   1      43.788  27.968  26.960  1.00  0.00    -0.203 F 
ATOM     72  F   UNL A   1      41.390  23.118  26.259  1.00  0.00    -0.200 F 
ATOM     73  C   UNL A   1      42.924  24.756  25.527  1.00  0.00     0.200 A 
ATOM     74  F   UNL A   1      44.461  26.415  24.851  1.00  0.00    -0.200 F 
ATOM     75  F   UNL A   1      43.300  23.972  24.508  1.00  0.00    -0.200 F 
ENDBRANCH  51  65
BRANCH  52  76
ATOM     76  C   UNL A   1      39.141  32.068  35.420  1.00  0.00     0.064 A 
ATOM     77  C   UNL A   1      38.372  31.466  36.425  1.00  0.00     0.173 A 
ATOM     78  C   UNL A   1      39.457  33.427  35.570  1.00  0.00     0.173 A 
ATOM     79  F   UNL A   1      38.033  30.173  36.321  1.00  0.00    -0.203 F 
ATOM     80  C   UNL A   1      37.922  32.194  37.525  1.00  0.00     0.198 A 
ATOM     81  C   UNL A   1      39.030  34.148  36.684  1.00  0.00     0.198 A 
ATOM     82  F   UNL A   1      40.200  34.051  34.643  1.00  0.00    -0.203 F 
ATOM     83  F   UNL A   1      37.158  31.600  38.451  1.00  0.00    -0.200 F 
ATOM     84  C   UNL A   1      38.258  33.533  37.658  1.00  0.00     0.200 A 
ATOM     85  F   UNL A   1      39.372  35.437  36.818  1.00  0.00    -0.200 F 
ATOM     86  F   UNL A   1      37.834  34.230  38.721  1.00  0.00    -0.200 F 
ENDBRANCH  52  76
BRANCH  64  87
ATOM     87  C   UNL A   1      44.587  27.837  34.344  1.00  0.00     0.064 A 
ATOM     88  C   UNL A   1      45.767  28.595  34.351  1.00  0.00     0.173 A 
ATOM     89  C   UNL A   1      44.497  26.744  35.219  1.00  0.00     0.173 A 
ATOM     90  F   UNL A   1      45.903  29.640  33.521  1.00  0.00    -0.203 F 
ATOM     91  C   UNL A   1      46.822  28.262  35.194  1.00  0.00     0.198 A 
ATOM     92  C   UNL A   1      45.543  26.431  36.080  1.00  0.00     0.198 A 
ATOM     93  F   UNL A   1      43.386  25.995  35.252  1.00  0.00    -0.203 F 
ATOM     94  F   UNL A   1      47.955  28.977  35.160  1.00  0.00    -0.200 F 
ATOM     95  C   UNL A   1      46.706  27.187  36.064  1.00  0.00     0.200 A 
ATOM     96  F   UNL A   1      45.423  25.402  36.931  1.00  0.00    -0.200 F 
ATOM     97  F   UNL A   1      47.718  26.878  36.886  1.00  0.00    -0.200 F 
ENDBRANCH  64  87
ENDBRANCH  38  39
ENDBRANCH  30  33
ENDBRANCH  28  29
ENDBRANCH  27  28
ENDBRANCH   1  27
TORSDOF 14
ENDMDL
MODEL 2
REMARK VINA RESULT:     -13.2      1.932      7.801
REMARK SMILES COc1ccc(NC(=O)[C@@H]2[C@@H](C(=O)NCCCNC(=O)c3ccc(-c4c5nc(c(-c6c(F)c(F)c(F)c(F)c6F)c6ccc([nH]6)c(-c6c(F)c(F)c(F)c(F)c6F)c6nc(c(-c7c(F)c(F)c(F)c(F)c7F)c7ccc4[nH]7)C=C6)C=C5)cc3)[C@H]3C=C[C@@H]2C3)cc1O
REMARK SMILES IDX 15 1 14 2 12 3 13 4 11 6 10 7 87 8 84 9 86 10 88 11 85 12
REMARK SMILES IDX 8 13 7 14 9 16 6 17 3 18 4 19 90 20 5 21 89 22 2 23 1 24
REMARK SMILES IDX 91 25 16 27 17 28 18 29 19 30 20 32 21 33 22 34 83 35 23 36
REMARK SMILES IDX 82 37 24 38 25 39 26 40 76 41 27 42 81 43 75 44 77 45 28 46
REMARK SMILES IDX 80 47 74 48 73 49 29 51 61 52 41 53 60 54 42 55 45 56 59 57
REMARK SMILES IDX 78 58 43 59 44 60 58 62 79 63 46 64 30 65 31 66 39 67 32 68
REMARK SMILES IDX 33 69 37 70 40 71 34 72 35 73 38 74 36 75 62 76 63 77 71 78
REMARK SMILES IDX 64 79 65 80 69 81 72 82 66 83 67 84 70 85 68 86 47 87 48 88
REMARK SMILES IDX 56 89 49 90 50 91 54 92 57 93 51 94 52 95 55 96 53 97
REMARK H PARENT 14 5 7 15 91 26 18 31 77 50 45 61
REMARK Flexibility Score: inf
ROOT
ATOM      1  C   UNL A   1      31.713  30.828  26.246  1.00  0.00     0.117 C 
ENDROOT
BRANCH   1   2
ATOM      2  N   UNL A   1      31.455  29.803  27.219  1.00  0.00    -0.356 N 
ATOM      3  C   UNL A   1      31.625  28.458  27.011  1.00  0.00     0.224 C 
ATOM      4  O   UNL A   1      31.758  27.757  28.014  1.00  0.00    -0.275 OA
ATOM      5  H   UNL A   1      31.132  30.087  28.104  1.00  0.00     0.163 HD
BRANCH   3   6
ATOM      6  C   UNL A   1      31.752  27.915  25.570  1.00  0.00     0.098 C 
ATOM      7  C   UNL A   1      31.452  26.389  25.384  1.00  0.00     0.099 C 
ATOM      8  C   UNL A   1      32.837  25.857  24.878  1.00  0.00     0.025 C 
ATOM      9  C   UNL A   1      33.204  28.051  25.010  1.00  0.00     0.025 C 
ATOM     10  C   UNL A   1      33.910  26.070  25.921  1.00  0.00    -0.027 C 
ATOM     11  C   UNL A   1      33.216  26.985  23.912  1.00  0.00     0.017 C 
ATOM     12  C   UNL A   1      34.172  27.381  25.955  1.00  0.00    -0.027 C 
BRANCH   7  13
ATOM     13  C   UNL A   1      30.397  25.763  24.419  1.00  0.00     0.228 C 
ATOM     14  N   UNL A   1      29.388  26.349  23.724  1.00  0.00    -0.326 N 
ATOM     15  H   UNL A   1      28.716  25.692  23.427  1.00  0.00     0.169 HD
ATOM     16  O   UNL A   1      30.325  24.518  24.399  1.00  0.00    -0.274 OA
BRANCH  14  17
ATOM     17  C   UNL A   1      29.059  27.646  23.325  1.00  0.00     0.045 A 
ATOM     18  C   UNL A   1      28.382  29.905  21.870  1.00  0.00     0.160 A 
ATOM     19  C   UNL A   1      27.422  29.292  22.668  1.00  0.00     0.052 A 
ATOM     20  C   UNL A   1      29.719  29.522  21.974  1.00  0.00     0.159 A 
ATOM     21  C   UNL A   1      27.779  28.178  23.432  1.00  0.00     0.030 A 
ATOM     22  C   UNL A   1      30.072  28.412  22.732  1.00  0.00     0.076 A 
BRANCH  18  23
ATOM     23  O   UNL A   1      27.978  30.565  20.740  1.00  0.00    -0.493 OA
ATOM     24  C   UNL A   1      27.979  31.978  20.864  1.00  0.00     0.278 C 
ENDBRANCH  18  23
BRANCH  20  25
ATOM     25  O   UNL A   1      30.689  30.126  21.226  1.00  0.00    -0.504 OA
ATOM     26  H   UNL A   1      31.526  30.313  21.606  1.00  0.00     0.293 HD
ENDBRANCH  20  25
ENDBRANCH  14  17
ENDBRANCH   7  13
ENDBRANCH   3   6
ENDBRANCH   1   2
BRANCH   1  27
ATOM     27  C   UNL A   1      31.490  32.254  26.697  1.00  0.00     0.042 C 
BRANCH  27  28
ATOM     28  C   UNL A   1      32.743  32.984  27.159  1.00  0.00     0.118 C 
BRANCH  28  29
ATOM     29  N   UNL A   1      32.512  34.322  27.704  1.00  0.00    -0.352 N 
ATOM     30  C   UNL A   1      33.083  35.022  28.747  1.00  0.00     0.251 C 
ATOM     31  H   UNL A   1      31.810  34.824  27.231  1.00  0.00     0.163 HD
ATOM     32  O   UNL A   1      32.609  36.097  29.088  1.00  0.00    -0.269 OA
BRANCH  30  33
ATOM     33  C   UNL A   1      34.184  34.458  29.552  1.00  0.00     0.039 A 
ATOM     34  C   UNL A   1      33.859  33.780  30.737  1.00  0.00     0.014 A 
ATOM     35  C   UNL A   1      35.510  34.558  29.155  1.00  0.00     0.014 A 
ATOM     36  C   UNL A   1      34.846  33.094  31.441  1.00  0.00     0.010 A 
ATOM     37  C   UNL A   1      36.461  33.759  29.766  1.00  0.00     0.010 A 
ATOM     38  C   UNL A   1      36.139  33.016  30.912  1.00  0.00    -0.014 A 
BRANCH  38  39
ATOM     39  C   UNL A   1      37.202  32.184  31.521  1.00  0.00     0.031 A 
ATOM     40  C   UNL A   1      37.701  32.550  32.888  1.00  0.00     0.074 A 
ATOM     41  C   UNL A   1      37.806  31.230  30.790  1.00  0.00     0.049 A 
ATOM     42  N   UNL A   1      38.800  32.190  33.496  1.00  0.00    -0.248 NA
ATOM     43  C   UNL A   1      36.880  33.512  33.643  1.00  0.00     0.031 C 
ATOM     44  C   UNL A   1      37.427  30.830  29.433  1.00  0.00     0.029 A 
ATOM     45  N   UNL A   1      38.894  30.445  31.074  1.00  0.00    -0.354 N 
ATOM     46  C   UNL A   1      38.831  32.928  34.673  1.00  0.00     0.074 A 
ATOM     47  C   UNL A   1      37.675  33.796  34.664  1.00  0.00     0.031 C 
ATOM     48  C   UNL A   1      38.263  29.869  29.006  1.00  0.00     0.029 A 
ATOM     49  C   UNL A   1      39.268  29.628  30.034  1.00  0.00     0.049 A 
ATOM     50  H   UNL A   1      39.362  30.465  31.940  1.00  0.00     0.167 HD
ATOM     51  C   UNL A   1      39.735  32.865  35.678  1.00  0.00     0.037 A 
ATOM     52  C   UNL A   1      40.322  28.800  29.920  1.00  0.00     0.037 A 
ATOM     53  C   UNL A   1      40.843  31.948  35.683  1.00  0.00     0.049 A 
ATOM     54  C   UNL A   1      41.284  28.705  31.071  1.00  0.00     0.074 A 
ATOM     55  C   UNL A   1      41.791  31.742  36.667  1.00  0.00     0.029 A 
ATOM     56  N   UNL A   1      41.134  31.068  34.649  1.00  0.00    -0.354 N 
ATOM     57  N   UNL A   1      41.294  29.381  32.197  1.00  0.00    -0.248 NA
ATOM     58  C   UNL A   1      42.378  27.734  30.945  1.00  0.00     0.031 C 
ATOM     59  C   UNL A   1      42.674  30.754  36.216  1.00  0.00     0.029 A 
ATOM     60  C   UNL A   1      42.249  30.314  34.971  1.00  0.00     0.049 A 
ATOM     61  H   UNL A   1      40.625  30.992  33.810  1.00  0.00     0.167 HD
ATOM     62  C   UNL A   1      42.374  28.901  32.922  1.00  0.00     0.074 A 
ATOM     63  C   UNL A   1      42.990  27.867  32.113  1.00  0.00     0.031 C 
ATOM     64  C   UNL A   1      42.820  29.280  34.145  1.00  0.00     0.037 A 
BRANCH  51  65
ATOM     65  C   UNL A   1      39.548  33.803  36.837  1.00  0.00     0.064 A 
ATOM     66  C   UNL A   1      40.121  35.085  36.850  1.00  0.00     0.173 A 
ATOM     67  C   UNL A   1      38.801  33.411  37.958  1.00  0.00     0.173 A 
ATOM     68  F   UNL A   1      40.858  35.505  35.811  1.00  0.00    -0.203 F 
ATOM     69  C   UNL A   1      39.998  35.917  37.959  1.00  0.00     0.198 A 
ATOM     70  C   UNL A   1      38.647  34.262  39.051  1.00  0.00     0.198 A 
ATOM     71  F   UNL A   1      38.226  32.201  38.002  1.00  0.00    -0.203 F 
ATOM     72  F   UNL A   1      40.621  37.103  37.976  1.00  0.00    -0.200 F 
ATOM     73  C   UNL A   1      39.257  35.508  39.057  1.00  0.00     0.200 A 
ATOM     74  F   UNL A   1      37.919  33.871  40.106  1.00  0.00    -0.200 F 
ATOM     75  F   UNL A   1      39.141  36.308  40.125  1.00  0.00    -0.200 F 
ENDBRANCH  51  65
BRANCH  52  76
ATOM     76  C   UNL A   1      40.499  27.987  28.687  1.00  0.00     0.064 A 
ATOM     77  C   UNL A   1      41.294  28.452  27.631  1.00  0.00     0.173 A 
ATOM     78  C   UNL A   1      39.908  26.722  28.548  1.00  0.00     0.173 A 
ATOM     79  F   UNL A   1      41.870  29.660  27.710  1.00  0.00    -0.203 F 
ATOM     80  C   UNL A   1      41.478  27.693  26.476  1.00  0.00     0.198 A 
ATOM     81  C   UNL A   1      40.115  25.952  27.404  1.00  0.00     0.198 A 
ATOM     82  F   UNL A   1      39.147  26.223  29.533  1.00  0.00    -0.203 F 
ATOM     83  F   UNL A   1      42.214  28.180  25.468  1.00  0.00    -0.200 F 
ATOM     84  C   UNL A   1      40.894  26.440  26.366  1.00  0.00     0.200 A 
ATOM     85  F   UNL A   1      39.564  24.734  27.309  1.00  0.00    -0.200 F 
ATOM     86  F   UNL A   1      41.080  25.707  25.261  1.00  0.00    -0.200 F 
ENDBRANCH  52  76
BRANCH  64  87
ATOM     87  C   UNL A   1      44.001  28.542  34.699  1.00  0.00     0.064 A 
ATOM     88  C   UNL A   1      45.310  29.010  34.520  1.00  0.00     0.173 A 
ATOM     89  C   UNL A   1      43.810  27.391  35.479  1.00  0.00     0.173 A 
ATOM     90  F   UNL A   1      45.541  30.098  33.771  1.00  0.00    -0.203 F 
ATOM     91  C   UNL A   1      46.389  28.342  35.091  1.00  0.00     0.198 A 
ATOM     92  C   UNL A   1      44.888  26.742  36.071  1.00  0.00     0.198 A 
ATOM     93  F   UNL A   1      42.574  26.910  35.682  1.00  0.00    -0.203 F 
ATOM     94  F   UNL A   1      47.636  28.785  34.879  1.00  0.00    -0.200 F 
ATOM     95  C   UNL A   1      46.176  27.215  35.873  1.00  0.00     0.200 A 
ATOM     96  F   UNL A   1      44.679  25.663  36.838  1.00  0.00    -0.200 F 
ATOM     97  F   UNL A   1      47.216  26.584  36.434  1.00  0.00    -0.200 F 
ENDBRANCH  64  87
ENDBRANCH  38  39
ENDBRANCH  30  33
ENDBRANCH  28  29
ENDBRANCH  27  28
ENDBRANCH   1  27
TORSDOF 14
ENDMDL
MODEL 3
REMARK VINA RESULT:     -13.1      2.007      3.128
REMARK SMILES COc1ccc(NC(=O)[C@@H]2[C@@H](C(=O)NCCCNC(=O)c3ccc(-c4c5nc(c(-c6c(F)c(F)c(F)c(F)c6F)c6ccc([nH]6)c(-c6c(F)c(F)c(F)c(F)c6F)c6nc(c(-c7c(F)c(F)c(F)c(F)c7F)c7ccc4[nH]7)C=C6)C=C5)cc3)[C@H]3C=C[C@@H]2C3)cc1O
REMARK SMILES IDX 15 1 14 2 12 3 13 4 11 6 10 7 87 8 84 9 86 10 88 11 85 12
REMARK SMILES IDX 8 13 7 14 9 16 6 17 3 18 4 19 90 20 5 21 89 22 2 23 1 24
REMARK SMILES IDX 91 25 16 27 17 28 18 29 19 30 20 32 21 33 22 34 83 35 23 36
REMARK SMILES IDX 82 37 24 38 25 39 26 40 76 41 27 42 81 43 75 44 77 45 28 46
REMARK SMILES IDX 80 47 74 48 73 49 29 51 61 52 41 53 60 54 42 55 45 56 59 57
REMARK SMILES IDX 78 58 43 59 44 60 58 62 79 63 46 64 30 65 31 66 39 67 32 68
REMARK SMILES IDX 33 69 37 70 40 71 34 72 35 73 38 74 36 75 62 76 63 77 71 78
REMARK SMILES IDX 64 79 65 80 69 81 72 82 66 83 67 84 70 85 68 86 47 87 48 88
REMARK SMILES IDX 56 89 49 90 50 91 54 92 57 93 51 94 52 95 55 96 53 97
REMARK H PARENT 14 5 7 15 91 26 18 31 77 50 45 61
REMARK Flexibility Score: inf
ROOT
ATOM      1  C   UNL A   1      32.166  30.289  26.335  1.00  0.00     0.117 C 
ENDROOT
BRANCH   1   2
ATOM      2  N   UNL A   1      31.709  29.240  27.205  1.00  0.00    -0.356 N 
ATOM      3  C   UNL A   1      31.697  27.906  26.890  1.00  0.00     0.224 C 
ATOM      4  O   UNL A   1      31.671  27.117  27.836  1.00  0.00    -0.275 OA
ATOM      5  H   UNL A   1      31.378  29.499  28.095  1.00  0.00     0.163 HD
BRANCH   3   6
ATOM      6  C   UNL A   1      31.829  27.462  25.416  1.00  0.00     0.098 C 
ATOM      7  C   UNL A   1      31.430  25.980  25.108  1.00  0.00     0.099 C 
ATOM      8  C   UNL A   1      32.790  25.390  24.597  1.00  0.00     0.025 C 
ATOM      9  C   UNL A   1      33.303  27.537  24.903  1.00  0.00     0.025 C 
ATOM     10  C   UNL A   1      33.844  25.449  25.678  1.00  0.00    -0.027 C 
ATOM     11  C   UNL A   1      33.274  26.557  23.728  1.00  0.00     0.017 C 
ATOM     12  C   UNL A   1      34.194  26.733  25.818  1.00  0.00    -0.027 C 
BRANCH   7  13
ATOM     13  C   UNL A   1      30.364  25.503  24.072  1.00  0.00     0.228 C 
ATOM     14  N   UNL A   1      29.375  26.195  23.451  1.00  0.00    -0.326 N 
ATOM     15  H   UNL A   1      28.687  25.597  23.076  1.00  0.00     0.169 HD
ATOM     16  O   UNL A   1      30.258  24.272  23.904  1.00  0.00    -0.274 OA
BRANCH  14  17
ATOM     17  C   UNL A   1      29.084  27.540  23.210  1.00  0.00     0.045 A 
ATOM     18  C   UNL A   1      28.434  29.966  22.039  1.00  0.00     0.160 A 
ATOM     19  C   UNL A   1      27.489  29.308  22.820  1.00  0.00     0.052 A 
ATOM     20  C   UNL A   1      29.756  29.524  22.029  1.00  0.00     0.159 A 
ATOM     21  C   UNL A   1      27.835  28.105  23.441  1.00  0.00     0.030 A 
ATOM     22  C   UNL A   1      30.097  28.325  22.646  1.00  0.00     0.076 A 
BRANCH  18  23
ATOM     23  O   UNL A   1      28.003  30.758  21.009  1.00  0.00    -0.493 OA
ATOM     24  C   UNL A   1      27.999  32.145  21.307  1.00  0.00     0.278 C 
ENDBRANCH  18  23
BRANCH  20  25
ATOM     25  O   UNL A   1      30.713  30.166  21.297  1.00  0.00    -0.504 OA
ATOM     26  H   UNL A   1      31.387  30.653  21.731  1.00  0.00     0.293 HD
ENDBRANCH  20  25
ENDBRANCH  14  17
ENDBRANCH   7  13
ENDBRANCH   3   6
ENDBRANCH   1   2
BRANCH   1  27
ATOM     27  C   UNL A   1      31.777  31.699  26.720  1.00  0.00     0.042 C 
BRANCH  27  28
ATOM     28  C   UNL A   1      32.887  32.520  27.358  1.00  0.00     0.118 C 
BRANCH  28  29
ATOM     29  N   UNL A   1      32.525  33.900  27.684  1.00  0.00    -0.352 N 
ATOM     30  C   UNL A   1      33.061  34.831  28.549  1.00  0.00     0.251 C 
ATOM     31  H   UNL A   1      31.744  34.230  27.184  1.00  0.00     0.163 HD
ATOM     32  O   UNL A   1      32.479  35.890  28.737  1.00  0.00    -0.269 OA
BRANCH  30  33
ATOM     33  C   UNL A   1      34.262  34.542  29.358  1.00  0.00     0.039 A 
ATOM     34  C   UNL A   1      34.084  34.004  30.641  1.00  0.00     0.014 A 
ATOM     35  C   UNL A   1      35.543  34.761  28.872  1.00  0.00     0.014 A 
ATOM     36  C   UNL A   1      35.185  33.566  31.372  1.00  0.00     0.010 A 
ATOM     37  C   UNL A   1      36.622  34.194  29.529  1.00  0.00     0.010 A 
ATOM     38  C   UNL A   1      36.454  33.587  30.783  1.00  0.00    -0.014 A 
BRANCH  38  39
ATOM     39  C   UNL A   1      37.647  33.002  31.436  1.00  0.00     0.031 A 
ATOM     40  C   UNL A   1      38.325  31.837  30.778  1.00  0.00     0.074 A 
ATOM     41  C   UNL A   1      38.003  33.411  32.668  1.00  0.00     0.049 A 
ATOM     42  N   UNL A   1      39.168  30.974  31.278  1.00  0.00    -0.248 NA
ATOM     43  C   UNL A   1      37.943  31.568  29.381  1.00  0.00     0.031 C 
ATOM     44  C   UNL A   1      37.377  34.504  33.416  1.00  0.00     0.029 A 
ATOM     45  N   UNL A   1      38.958  32.928  33.526  1.00  0.00    -0.354 N 
ATOM     46  C   UNL A   1      39.365  30.028  30.279  1.00  0.00     0.074 A 
ATOM     47  C   UNL A   1      38.512  30.391  29.171  1.00  0.00     0.031 C 
ATOM     48  C   UNL A   1      37.970  34.615  34.615  1.00  0.00     0.029 A 
ATOM     49  C   UNL A   1      38.974  33.566  34.743  1.00  0.00     0.049 A 
ATOM     50  H   UNL A   1      39.572  32.196  33.292  1.00  0.00     0.167 HD
ATOM     51  C   UNL A   1      40.204  28.966  30.285  1.00  0.00     0.037 A 
ATOM     52  C   UNL A   1      39.703  33.310  35.845  1.00  0.00     0.037 A 
ATOM     53  C   UNL A   1      41.085  28.665  31.381  1.00  0.00     0.049 A 
ATOM     54  C   UNL A   1      40.669  32.158  35.810  1.00  0.00     0.074 A 
ATOM     55  C   UNL A   1      42.026  27.659  31.485  1.00  0.00     0.029 A 
ATOM     56  N   UNL A   1      41.139  29.393  32.564  1.00  0.00    -0.354 N 
ATOM     57  N   UNL A   1      40.878  31.284  34.853  1.00  0.00    -0.248 NA
ATOM     58  C   UNL A   1      41.505  31.955  37.000  1.00  0.00     0.031 C 
ATOM     59  C   UNL A   1      42.632  27.761  32.742  1.00  0.00     0.029 A 
ATOM     60  C   UNL A   1      42.100  28.858  33.404  1.00  0.00     0.049 A 
ATOM     61  H   UNL A   1      40.577  30.173  32.774  1.00  0.00     0.167 HD
ATOM     62  C   UNL A   1      41.882  30.445  35.312  1.00  0.00     0.074 A 
ATOM     63  C   UNL A   1      42.251  30.923  36.631  1.00  0.00     0.031 C 
ATOM     64  C   UNL A   1      42.450  29.375  34.703  1.00  0.00     0.037 A 
BRANCH  51  65
ATOM     65  C   UNL A   1      40.204  28.077  29.074  1.00  0.00     0.064 A 
ATOM     66  C   UNL A   1      39.472  26.879  29.038  1.00  0.00     0.173 A 
ATOM     67  C   UNL A   1      40.957  28.415  27.940  1.00  0.00     0.173 A 
ATOM     68  F   UNL A   1      38.747  26.498  30.100  1.00  0.00    -0.203 F 
ATOM     69  C   UNL A   1      39.535  26.029  27.936  1.00  0.00     0.198 A 
ATOM     70  C   UNL A   1      40.987  27.582  26.823  1.00  0.00     0.198 A 
ATOM     71  F   UNL A   1      41.673  29.549  27.914  1.00  0.00    -0.203 F 
ATOM     72  F   UNL A   1      38.890  24.856  27.960  1.00  0.00    -0.200 F 
ATOM     73  C   UNL A   1      40.289  26.384  26.827  1.00  0.00     0.200 A 
ATOM     74  F   UNL A   1      41.705  27.932  25.747  1.00  0.00    -0.200 F 
ATOM     75  F   UNL A   1      40.351  25.565  25.769  1.00  0.00    -0.200 F 
ENDBRANCH  51  65
BRANCH  52  76
ATOM     76  C   UNL A   1      39.561  34.172  37.048  1.00  0.00     0.064 A 
ATOM     77  C   UNL A   1      38.763  33.769  38.127  1.00  0.00     0.173 A 
ATOM     78  C   UNL A   1      40.238  35.395  37.161  1.00  0.00     0.173 A 
ATOM     79  F   UNL A   1      38.086  32.614  38.062  1.00  0.00    -0.203 F 
ATOM     80  C   UNL A   1      38.634  34.562  39.266  1.00  0.00     0.198 A 
ATOM     81  C   UNL A   1      40.130  36.176  38.312  1.00  0.00     0.198 A 
ATOM     82  F   UNL A   1      41.025  35.824  36.163  1.00  0.00    -0.203 F 
ATOM     83  F   UNL A   1      37.835  34.168  40.267  1.00  0.00    -0.200 F 
ATOM     84  C   UNL A   1      39.322  35.762  39.361  1.00  0.00     0.200 A 
ATOM     85  F   UNL A   1      40.812  37.326  38.407  1.00  0.00    -0.200 F 
ATOM     86  F   UNL A   1      39.206  36.520  40.459  1.00  0.00    -0.200 F 
ENDBRANCH  52  76
BRANCH  64  87
ATOM     87  C   UNL A   1      43.557  28.681  35.436  1.00  0.00     0.064 A 
ATOM     88  C   UNL A   1      43.299  27.660  36.360  1.00  0.00     0.173 A 
ATOM     89  C   UNL A   1      44.895  28.996  35.153  1.00  0.00     0.173 A 
ATOM     90  F   UNL A   1      42.035  27.335  36.671  1.00  0.00    -0.203 F 
ATOM     91  C   UNL A   1      44.343  26.987  36.988  1.00  0.00     0.198 A 
ATOM     92  C   UNL A   1      45.935  28.303  35.762  1.00  0.00     0.198 A 
ATOM     93  F   UNL A   1      45.190  29.962  34.271  1.00  0.00    -0.203 F 
ATOM     94  F   UNL A   1      44.074  26.037  37.895  1.00  0.00    -0.200 F 
ATOM     95  C   UNL A   1      45.659  27.303  36.682  1.00  0.00     0.200 A 
ATOM     96  F   UNL A   1      47.206  28.598  35.454  1.00  0.00    -0.200 F 
ATOM     97  F   UNL A   1      46.661  26.642  37.277  1.00  0.00    -0.200 F 
ENDBRANCH  64  87
ENDBRANCH  38  39
ENDBRANCH  30  33
ENDBRANCH  28  29
ENDBRANCH  27  28
ENDBRANCH   1  27
TORSDOF 14
ENDMDL
