MODEL 1
REMARK VINA RESULT:     -12.4      0.000      0.000
REMARK SMILES CC(C)[NH2+][C@]1(C(=O)NCCCNC(=O)c2ccc(-c3c4nc(c(-c5c(F)c(F)c(F)c(F)c5F)c5ccc([nH]5)c(-c5c(F)c(F)c(F)c(F)c5F)c5nc(c(-c6c(F)c(F)c(F)c(F)c6F)c6ccc3[nH]6)C=C5)C=C4)cc2)CCC[C@@H](Sc2ccc(Cl)cc2)C1
REMARK SMILES IDX 10 1 9 2 8 3 6 4 7 5 5 7 78 8 90 9 79 10 81 11 80 12 4 13
REMARK SMILES IDX 2 16 1 17 3 18 82 19 83 20 84 21 89 22 85 23 88 24 86 25
REMARK SMILES IDX 87 26 11 27 12 28 13 29 14 31 15 32 16 33 77 34 17 35 76 36
REMARK SMILES IDX 18 37 19 38 20 39 70 40 21 41 75 42 69 43 71 44 22 45 74 46
REMARK SMILES IDX 68 47 67 48 23 50 55 51 35 52 54 53 36 54 39 55 53 56 72 57
REMARK SMILES IDX 37 58 38 59 52 61 73 62 40 63 24 64 25 65 33 66 26 67 27 68
REMARK SMILES IDX 31 69 34 70 28 71 29 72 32 73 30 74 56 75 57 76 65 77 58 78
REMARK SMILES IDX 59 79 63 80 66 81 60 82 61 83 64 84 62 85 41 86 42 87 50 88
REMARK SMILES IDX 43 89 44 90 48 91 51 92 45 93 46 94 49 95 47 96
REMARK H PARENT 8 6 4 14 4 15 12 30 71 49 39 60
REMARK Flexibility Score: inf
ROOT
ATOM      1  C   UNL A   1      37.586  19.520  25.043  1.00  0.00     0.042 C 
ENDROOT
BRANCH   1   2
ATOM      2  C   UNL A   1      36.377  20.473  24.988  1.00  0.00     0.118 C 
BRANCH   2   3
ATOM      3  N   UNL A   1      36.687  21.608  24.146  1.00  0.00    -0.351 N 
ATOM      4  C   UNL A   1      35.979  22.642  23.645  1.00  0.00     0.281 C 
ATOM      5  O   UNL A   1      36.591  23.219  22.728  1.00  0.00    -0.268 OA
ATOM      6  H   UNL A   1      37.634  21.630  23.877  1.00  0.00     0.163 HD
BRANCH   4   7
ATOM      7  C   UNL A   1      34.633  23.256  24.182  1.00  0.00     0.176 C 
ATOM      8  C   UNL A   1      34.985  23.937  25.546  1.00  0.00     0.079 C 
ATOM      9  C   UNL A   1      34.240  24.397  23.191  1.00  0.00     0.094 C 
ATOM     10  C   UNL A   1      33.946  24.953  26.048  1.00  0.00     0.008 C 
ATOM     11  C   UNL A   1      33.195  25.389  23.692  1.00  0.00     0.058 C 
ATOM     12  C   UNL A   1      33.630  26.030  25.009  1.00  0.00     0.015 C 
BRANCH   7  13
ATOM     13  N   UNL A   1      33.513  22.334  24.477  1.00  0.00    -0.332 N 
ATOM     14  H   UNL A   1      33.750  21.883  25.360  1.00  0.00     0.347 HD
ATOM     15  H   UNL A   1      32.717  22.968  24.409  1.00  0.00     0.347 HD
BRANCH  13  16
ATOM     16  C   UNL A   1      33.086  21.259  23.589  1.00  0.00     0.176 C 
ATOM     17  C   UNL A   1      32.573  20.106  24.465  1.00  0.00     0.075 C 
ATOM     18  C   UNL A   1      32.079  21.583  22.499  1.00  0.00     0.075 C 
ENDBRANCH  13  16
ENDBRANCH   7  13
BRANCH  11  19
ATOM     19  S   UNL A   1      32.735  26.633  22.395  1.00  0.00    -0.122 SA
BRANCH  19  20
ATOM     20  C   UNL A   1      31.071  27.134  22.815  1.00  0.00     0.008 A 
ATOM     21  C   UNL A   1      30.252  26.234  23.510  1.00  0.00     0.016 A 
ATOM     22  C   UNL A   1      30.517  28.340  22.372  1.00  0.00     0.016 A 
ATOM     23  C   UNL A   1      28.921  26.556  23.798  1.00  0.00     0.021 A 
ATOM     24  C   UNL A   1      29.194  28.676  22.678  1.00  0.00     0.021 A 
ATOM     25  C   UNL A   1      28.401  27.782  23.390  1.00  0.00     0.041 A 
ATOM     26  Cl  UNL A   1      26.766  28.182  23.747  1.00  0.00    -0.084 Cl
ENDBRANCH  19  20
ENDBRANCH  11  19
ENDBRANCH   4   7
ENDBRANCH   2   3
ENDBRANCH   1   2
BRANCH   1  27
ATOM     27  C   UNL A   1      38.903  20.205  25.404  1.00  0.00     0.118 C 
BRANCH  27  28
ATOM     28  N   UNL A   1      39.915  19.235  25.796  1.00  0.00    -0.352 N 
ATOM     29  C   UNL A   1      41.240  19.406  26.101  1.00  0.00     0.251 C 
ATOM     30  H   UNL A   1      39.596  18.305  25.852  1.00  0.00     0.163 HD
ATOM     31  O   UNL A   1      41.983  18.423  26.115  1.00  0.00    -0.269 OA
BRANCH  29  32
ATOM     32  C   UNL A   1      41.793  20.741  26.423  1.00  0.00     0.039 A 
ATOM     33  C   UNL A   1      42.043  21.061  27.762  1.00  0.00     0.014 A 
ATOM     34  C   UNL A   1      41.982  21.708  25.434  1.00  0.00     0.014 A 
ATOM     35  C   UNL A   1      42.514  22.331  28.104  1.00  0.00     0.010 A 
ATOM     36  C   UNL A   1      42.526  22.947  25.765  1.00  0.00     0.010 A 
ATOM     37  C   UNL A   1      42.781  23.280  27.104  1.00  0.00    -0.014 A 
BRANCH  37  38
ATOM     38  C   UNL A   1      43.298  24.633  27.436  1.00  0.00     0.031 A 
ATOM     39  C   UNL A   1      42.374  25.669  28.018  1.00  0.00     0.074 A 
ATOM     40  C   UNL A   1      44.575  24.949  27.148  1.00  0.00     0.049 A 
ATOM     41  N   UNL A   1      42.599  26.933  28.273  1.00  0.00    -0.248 NA
ATOM     42  C   UNL A   1      41.001  25.233  28.322  1.00  0.00     0.031 C 
ATOM     43  C   UNL A   1      45.552  24.045  26.539  1.00  0.00     0.029 A 
ATOM     44  N   UNL A   1      45.268  26.121  27.316  1.00  0.00    -0.354 N 
ATOM     45  C   UNL A   1      41.393  27.446  28.736  1.00  0.00     0.074 A 
ATOM     46  C   UNL A   1      40.426  26.372  28.678  1.00  0.00     0.031 C 
ATOM     47  C   UNL A   1      46.723  24.688  26.404  1.00  0.00     0.029 A 
ATOM     48  C   UNL A   1      46.569  26.060  26.879  1.00  0.00     0.049 A 
ATOM     49  H   UNL A   1      44.870  26.930  27.712  1.00  0.00     0.167 HD
ATOM     50  C   UNL A   1      41.124  28.693  29.192  1.00  0.00     0.037 A 
ATOM     51  C   UNL A   1      47.525  27.007  26.858  1.00  0.00     0.037 A 
ATOM     52  C   UNL A   1      42.103  29.743  29.289  1.00  0.00     0.049 A 
ATOM     53  C   UNL A   1      47.206  28.377  27.389  1.00  0.00     0.074 A 
ATOM     54  C   UNL A   1      41.953  31.021  29.796  1.00  0.00     0.029 A 
ATOM     55  N   UNL A   1      43.422  29.630  28.872  1.00  0.00    -0.354 N 
ATOM     56  N   UNL A   1      46.078  28.834  27.879  1.00  0.00    -0.248 NA
ATOM     57  C   UNL A   1      48.295  29.364  27.372  1.00  0.00     0.031 C 
ATOM     58  C   UNL A   1      43.171  31.694  29.653  1.00  0.00     0.029 A 
ATOM     59  C   UNL A   1      44.093  30.820  29.099  1.00  0.00     0.049 A 
ATOM     60  H   UNL A   1      43.822  28.823  28.474  1.00  0.00     0.167 HD
ATOM     61  C   UNL A   1      46.329  30.146  28.255  1.00  0.00     0.074 A 
ATOM     62  C   UNL A   1      47.721  30.409  27.951  1.00  0.00     0.031 C 
ATOM     63  C   UNL A   1      45.483  31.055  28.800  1.00  0.00     0.037 A 
BRANCH  50  64
ATOM     64  C   UNL A   1      39.717  28.987  29.631  1.00  0.00     0.064 A 
ATOM     65  C   UNL A   1      38.753  29.474  28.735  1.00  0.00     0.173 A 
ATOM     66  C   UNL A   1      39.318  28.751  30.955  1.00  0.00     0.173 A 
ATOM     67  F   UNL A   1      39.083  29.728  27.459  1.00  0.00    -0.203 F 
ATOM     68  C   UNL A   1      37.453  29.744  29.155  1.00  0.00     0.198 A 
ATOM     69  C   UNL A   1      38.008  28.991  31.365  1.00  0.00     0.198 A 
ATOM     70  F   UNL A   1      40.196  28.279  31.853  1.00  0.00    -0.203 F 
ATOM     71  F   UNL A   1      36.564  30.259  28.293  1.00  0.00    -0.200 F 
ATOM     72  C   UNL A   1      37.079  29.495  30.467  1.00  0.00     0.200 A 
ATOM     73  F   UNL A   1      37.645  28.737  32.630  1.00  0.00    -0.200 F 
ATOM     74  F   UNL A   1      35.826  29.749  30.868  1.00  0.00    -0.200 F 
ENDBRANCH  50  64
BRANCH  51  75
ATOM     75  C   UNL A   1      48.882  26.683  26.343  1.00  0.00     0.064 A 
ATOM     76  C   UNL A   1      49.227  26.954  25.011  1.00  0.00     0.173 A 
ATOM     77  C   UNL A   1      49.857  26.097  27.161  1.00  0.00     0.173 A 
ATOM     78  F   UNL A   1      48.323  27.498  24.183  1.00  0.00    -0.203 F 
ATOM     79  C   UNL A   1      50.487  26.631  24.512  1.00  0.00     0.198 A 
ATOM     80  C   UNL A   1      51.127  25.801  26.670  1.00  0.00     0.198 A 
ATOM     81  F   UNL A   1      49.581  25.824  28.445  1.00  0.00    -0.203 F 
ATOM     82  F   UNL A   1      50.773  26.858  23.223  1.00  0.00    -0.200 F 
ATOM     83  C   UNL A   1      51.438  26.059  25.343  1.00  0.00     0.200 A 
ATOM     84  F   UNL A   1      52.049  25.262  27.480  1.00  0.00    -0.200 F 
ATOM     85  F   UNL A   1      52.651  25.752  24.865  1.00  0.00    -0.200 F 
ENDBRANCH  51  75
BRANCH  63  86
ATOM     86  C   UNL A   1      46.049  32.401  29.141  1.00  0.00     0.064 A 
ATOM     87  C   UNL A   1      46.647  32.656  30.383  1.00  0.00     0.173 A 
ATOM     88  C   UNL A   1      46.028  33.438  28.194  1.00  0.00     0.173 A 
ATOM     89  F   UNL A   1      46.678  31.701  31.325  1.00  0.00    -0.203 F 
ATOM     90  C   UNL A   1      47.182  33.908  30.675  1.00  0.00     0.198 A 
ATOM     91  C   UNL A   1      46.591  34.678  28.479  1.00  0.00     0.198 A 
ATOM     92  F   UNL A   1      45.472  33.242  26.989  1.00  0.00    -0.203 F 
ATOM     93  F   UNL A   1      47.706  34.143  31.886  1.00  0.00    -0.200 F 
ATOM     94  C   UNL A   1      47.161  34.914  29.721  1.00  0.00     0.200 A 
ATOM     95  F   UNL A   1      46.581  35.645  27.552  1.00  0.00    -0.200 F 
ATOM     96  F   UNL A   1      47.683  36.116  30.001  1.00  0.00    -0.200 F 
ENDBRANCH  63  86
ENDBRANCH  37  38
ENDBRANCH  29  32
ENDBRANCH  27  28
ENDBRANCH   1  27
TORSDOF 14
ENDMDL
MODEL 2
REMARK VINA RESULT:     -12.4      0.917      2.245
REMARK SMILES CC(C)[NH2+][C@]1(C(=O)NCCCNC(=O)c2ccc(-c3c4nc(c(-c5c(F)c(F)c(F)c(F)c5F)c5ccc([nH]5)c(-c5c(F)c(F)c(F)c(F)c5F)c5nc(c(-c6c(F)c(F)c(F)c(F)c6F)c6ccc3[nH]6)C=C5)C=C4)cc2)CCC[C@@H](Sc2ccc(Cl)cc2)C1
REMARK SMILES IDX 10 1 9 2 8 3 6 4 7 5 5 7 78 8 90 9 79 10 81 11 80 12 4 13
REMARK SMILES IDX 2 16 1 17 3 18 82 19 83 20 84 21 89 22 85 23 88 24 86 25
REMARK SMILES IDX 87 26 11 27 12 28 13 29 14 31 15 32 16 33 77 34 17 35 76 36
REMARK SMILES IDX 18 37 19 38 20 39 70 40 21 41 75 42 69 43 71 44 22 45 74 46
REMARK SMILES IDX 68 47 67 48 23 50 55 51 35 52 54 53 36 54 39 55 53 56 72 57
REMARK SMILES IDX 37 58 38 59 52 61 73 62 40 63 24 64 25 65 33 66 26 67 27 68
REMARK SMILES IDX 31 69 34 70 28 71 29 72 32 73 30 74 56 75 57 76 65 77 58 78
REMARK SMILES IDX 59 79 63 80 66 81 60 82 61 83 64 84 62 85 41 86 42 87 50 88
REMARK SMILES IDX 43 89 44 90 48 91 51 92 45 93 46 94 49 95 47 96
REMARK H PARENT 8 6 4 14 4 15 12 30 71 49 39 60
REMARK Flexibility Score: inf
ROOT
ATOM      1  C   UNL A   1      37.608  19.595  25.099  1.00  0.00     0.042 C 
ENDROOT
BRANCH   1   2
ATOM      2  C   UNL A   1      36.397  20.546  25.047  1.00  0.00     0.118 C 
BRANCH   2   3
ATOM      3  N   UNL A   1      36.678  21.646  24.150  1.00  0.00    -0.351 N 
ATOM      4  C   UNL A   1      35.951  22.658  23.629  1.00  0.00     0.281 C 
ATOM      5  O   UNL A   1      36.532  23.197  22.670  1.00  0.00    -0.268 OA
ATOM      6  H   UNL A   1      37.616  21.659  23.850  1.00  0.00     0.163 HD
BRANCH   4   7
ATOM      7  C   UNL A   1      34.622  23.291  24.183  1.00  0.00     0.176 C 
ATOM      8  C   UNL A   1      34.991  23.926  25.564  1.00  0.00     0.079 C 
ATOM      9  C   UNL A   1      34.259  24.468  23.223  1.00  0.00     0.094 C 
ATOM     10  C   UNL A   1      33.978  24.955  26.094  1.00  0.00     0.008 C 
ATOM     11  C   UNL A   1      33.240  25.474  23.751  1.00  0.00     0.058 C 
ATOM     12  C   UNL A   1      33.690  26.068  25.085  1.00  0.00     0.015 C 
BRANCH   7  13
ATOM     13  N   UNL A   1      33.478  22.391  24.453  1.00  0.00    -0.332 N 
ATOM     14  H   UNL A   1      33.673  21.960  25.356  1.00  0.00     0.347 HD
ATOM     15  H   UNL A   1      32.694  23.033  24.337  1.00  0.00     0.347 HD
BRANCH  13  16
ATOM     16  C   UNL A   1      33.074  21.300  23.575  1.00  0.00     0.176 C 
ATOM     17  C   UNL A   1      32.601  20.138  24.461  1.00  0.00     0.075 C 
ATOM     18  C   UNL A   1      32.048  21.590  22.492  1.00  0.00     0.075 C 
ENDBRANCH  13  16
ENDBRANCH   7  13
BRANCH  11  19
ATOM     19  S   UNL A   1      32.812  26.764  22.488  1.00  0.00    -0.122 SA
BRANCH  19  20
ATOM     20  C   UNL A   1      31.088  27.133  22.781  1.00  0.00     0.008 A 
ATOM     21  C   UNL A   1      30.587  28.378  22.380  1.00  0.00     0.016 A 
ATOM     22  C   UNL A   1      30.250  26.274  23.503  1.00  0.00     0.016 A 
ATOM     23  C   UNL A   1      29.262  28.737  22.652  1.00  0.00     0.021 A 
ATOM     24  C   UNL A   1      28.918  26.619  23.755  1.00  0.00     0.021 A 
ATOM     25  C   UNL A   1      28.430  27.850  23.329  1.00  0.00     0.041 A 
ATOM     26  Cl  UNL A   1      26.799  28.287  23.661  1.00  0.00    -0.084 Cl
ENDBRANCH  19  20
ENDBRANCH  11  19
ENDBRANCH   4   7
ENDBRANCH   2   3
ENDBRANCH   1   2
BRANCH   1  27
ATOM     27  C   UNL A   1      38.933  20.290  25.410  1.00  0.00     0.118 C 
BRANCH  27  28
ATOM     28  N   UNL A   1      39.975  19.326  25.733  1.00  0.00    -0.352 N 
ATOM     29  C   UNL A   1      41.291  19.517  26.063  1.00  0.00     0.251 C 
ATOM     30  H   UNL A   1      39.687  18.385  25.712  1.00  0.00     0.163 HD
ATOM     31  O   UNL A   1      42.066  18.561  26.007  1.00  0.00    -0.269 OA
BRANCH  29  32
ATOM     32  C   UNL A   1      41.796  20.839  26.496  1.00  0.00     0.039 A 
ATOM     33  C   UNL A   1      41.901  21.104  27.866  1.00  0.00     0.014 A 
ATOM     34  C   UNL A   1      42.080  21.847  25.572  1.00  0.00     0.014 A 
ATOM     35  C   UNL A   1      42.324  22.361  28.306  1.00  0.00     0.010 A 
ATOM     36  C   UNL A   1      42.576  23.073  26.008  1.00  0.00     0.010 A 
ATOM     37  C   UNL A   1      42.687  23.351  27.379  1.00  0.00    -0.014 A 
BRANCH  37  38
ATOM     38  C   UNL A   1      43.155  24.691  27.819  1.00  0.00     0.031 A 
ATOM     39  C   UNL A   1      42.155  25.759  28.174  1.00  0.00     0.074 A 
ATOM     40  C   UNL A   1      44.473  24.968  27.828  1.00  0.00     0.049 A 
ATOM     41  N   UNL A   1      42.354  27.018  28.472  1.00  0.00    -0.248 NA
ATOM     42  C   UNL A   1      40.736  25.366  28.158  1.00  0.00     0.031 C 
ATOM     43  C   UNL A   1      45.536  24.031  27.458  1.00  0.00     0.029 A 
ATOM     44  N   UNL A   1      45.145  26.121  28.147  1.00  0.00    -0.354 N 
ATOM     45  C   UNL A   1      41.091  27.569  28.648  1.00  0.00     0.074 A 
ATOM     46  C   UNL A   1      40.130  26.523  28.373  1.00  0.00     0.031 C 
ATOM     47  C   UNL A   1      46.725  24.639  27.592  1.00  0.00     0.029 A 
ATOM     48  C   UNL A   1      46.508  26.018  28.018  1.00  0.00     0.049 A 
ATOM     49  H   UNL A   1      44.692  26.944  28.441  1.00  0.00     0.167 HD
ATOM     50  C   UNL A   1      40.762  28.827  29.029  1.00  0.00     0.037 A 
ATOM     51  C   UNL A   1      47.473  26.937  28.213  1.00  0.00     0.037 A 
ATOM     52  C   UNL A   1      41.726  29.849  29.345  1.00  0.00     0.049 A 
ATOM     53  C   UNL A   1      47.083  28.320  28.657  1.00  0.00     0.074 A 
ATOM     54  C   UNL A   1      41.502  31.135  29.803  1.00  0.00     0.029 A 
ATOM     55  N   UNL A   1      43.100  29.694  29.239  1.00  0.00    -0.354 N 
ATOM     56  N   UNL A   1      45.888  28.813  28.877  1.00  0.00    -0.248 NA
ATOM     57  C   UNL A   1      48.177  29.275  28.886  1.00  0.00     0.031 C 
ATOM     58  C   UNL A   1      42.741  31.771  29.939  1.00  0.00     0.029 A 
ATOM     59  C   UNL A   1      43.737  30.866  29.611  1.00  0.00     0.049 A 
ATOM     60  H   UNL A   1      43.555  28.873  28.944  1.00  0.00     0.167 HD
ATOM     61  C   UNL A   1      46.085  30.121  29.298  1.00  0.00     0.074 A 
ATOM     62  C   UNL A   1      47.517  30.341  29.318  1.00  0.00     0.031 C 
ATOM     63  C   UNL A   1      45.165  31.058  29.636  1.00  0.00     0.037 A 
BRANCH  50  64
ATOM     64  C   UNL A   1      39.302  29.166  29.136  1.00  0.00     0.064 A 
ATOM     65  C   UNL A   1      38.634  29.163  30.370  1.00  0.00     0.173 A 
ATOM     66  C   UNL A   1      38.568  29.529  27.997  1.00  0.00     0.173 A 
ATOM     67  F   UNL A   1      39.285  28.813  31.491  1.00  0.00    -0.203 F 
ATOM     68  C   UNL A   1      37.280  29.479  30.455  1.00  0.00     0.198 A 
ATOM     69  C   UNL A   1      37.222  29.875  28.090  1.00  0.00     0.198 A 
ATOM     70  F   UNL A   1      39.158  29.555  26.792  1.00  0.00    -0.203 F 
ATOM     71  F   UNL A   1      36.652  29.417  31.638  1.00  0.00    -0.200 F 
ATOM     72  C   UNL A   1      36.577  29.841  29.317  1.00  0.00     0.200 A 
ATOM     73  F   UNL A   1      36.548  30.239  26.990  1.00  0.00    -0.200 F 
ATOM     74  F   UNL A   1      35.277  30.151  29.401  1.00  0.00    -0.200 F 
ENDBRANCH  50  64
BRANCH  51  75
ATOM     75  C   UNL A   1      48.901  26.570  28.020  1.00  0.00     0.064 A 
ATOM     76  C   UNL A   1      49.711  26.238  29.116  1.00  0.00     0.173 A 
ATOM     77  C   UNL A   1      49.486  26.545  26.747  1.00  0.00     0.173 A 
ATOM     78  F   UNL A   1      49.201  26.265  30.357  1.00  0.00    -0.203 F 
ATOM     79  C   UNL A   1      51.056  25.918  28.948  1.00  0.00     0.198 A 
ATOM     80  C   UNL A   1      50.825  26.196  26.576  1.00  0.00     0.198 A 
ATOM     81  F   UNL A   1      48.755  26.847  25.665  1.00  0.00    -0.203 F 
ATOM     82  F   UNL A   1      51.817  25.650  30.017  1.00  0.00    -0.200 F 
ATOM     83  C   UNL A   1      51.611  25.892  27.678  1.00  0.00     0.200 A 
ATOM     84  F   UNL A   1      51.354  26.157  25.346  1.00  0.00    -0.200 F 
ATOM     85  F   UNL A   1      52.904  25.580  27.516  1.00  0.00    -0.200 F 
ENDBRANCH  51  75
BRANCH  63  86
ATOM     86  C   UNL A   1      45.680  32.390  30.094  1.00  0.00     0.064 A 
ATOM     87  C   UNL A   1      45.815  33.471  29.211  1.00  0.00     0.173 A 
ATOM     88  C   UNL A   1      46.004  32.598  31.444  1.00  0.00     0.173 A 
ATOM     89  F   UNL A   1      45.531  33.317  27.909  1.00  0.00    -0.203 F 
ATOM     90  C   UNL A   1      46.279  34.705  29.658  1.00  0.00     0.198 A 
ATOM     91  C   UNL A   1      46.440  33.841  31.892  1.00  0.00     0.198 A 
ATOM     92  F   UNL A   1      45.887  31.596  32.329  1.00  0.00    -0.203 F 
ATOM     93  F   UNL A   1      46.445  35.710  28.787  1.00  0.00    -0.200 F 
ATOM     94  C   UNL A   1      46.583  34.891  30.998  1.00  0.00     0.200 A 
ATOM     95  F   UNL A   1      46.721  34.022  33.190  1.00  0.00    -0.200 F 
ATOM     96  F   UNL A   1      47.023  36.081  31.427  1.00  0.00    -0.200 F 
ENDBRANCH  63  86
ENDBRANCH  37  38
ENDBRANCH  29  32
ENDBRANCH  27  28
ENDBRANCH   1  27
TORSDOF 14
ENDMDL
MODEL 3
REMARK VINA RESULT:     -12.2      5.531     10.771
REMARK SMILES CC(C)[NH2+][C@]1(C(=O)NCCCNC(=O)c2ccc(-c3c4nc(c(-c5c(F)c(F)c(F)c(F)c5F)c5ccc([nH]5)c(-c5c(F)c(F)c(F)c(F)c5F)c5nc(c(-c6c(F)c(F)c(F)c(F)c6F)c6ccc3[nH]6)C=C5)C=C4)cc2)CCC[C@@H](Sc2ccc(Cl)cc2)C1
REMARK SMILES IDX 10 1 9 2 8 3 6 4 7 5 5 7 78 8 90 9 79 10 81 11 80 12 4 13
REMARK SMILES IDX 2 16 1 17 3 18 82 19 83 20 84 21 89 22 85 23 88 24 86 25
REMARK SMILES IDX 87 26 11 27 12 28 13 29 14 31 15 32 16 33 77 34 17 35 76 36
REMARK SMILES IDX 18 37 19 38 20 39 70 40 21 41 75 42 69 43 71 44 22 45 74 46
REMARK SMILES IDX 68 47 67 48 23 50 55 51 35 52 54 53 36 54 39 55 53 56 72 57
REMARK SMILES IDX 37 58 38 59 52 61 73 62 40 63 24 64 25 65 33 66 26 67 27 68
REMARK SMILES IDX 31 69 34 70 28 71 29 72 32 73 30 74 56 75 57 76 65 77 58 78
REMARK SMILES IDX 59 79 63 80 66 81 60 82 61 83 64 84 62 85 41 86 42 87 50 88
REMARK SMILES IDX 43 89 44 90 48 91 51 92 45 93 46 94 49 95 47 96
REMARK H PARENT 8 6 4 14 4 15 12 30 71 49 39 60
REMARK Flexibility Score: inf
ROOT
ATOM      1  C   UNL A   1      31.351  31.778  26.134  1.00  0.00     0.042 C 
ENDROOT
BRANCH   1   2
ATOM      2  C   UNL A   1      31.522  30.337  25.619  1.00  0.00     0.118 C 
BRANCH   2   3
ATOM      3  N   UNL A   1      31.625  29.427  26.739  1.00  0.00    -0.351 N 
ATOM      4  C   UNL A   1      31.623  28.083  26.877  1.00  0.00     0.281 C 
ATOM      5  O   UNL A   1      31.438  27.741  28.059  1.00  0.00    -0.268 OA
ATOM      6  H   UNL A   1      31.717  29.896  27.600  1.00  0.00     0.163 HD
BRANCH   4   7
ATOM      7  C   UNL A   1      31.980  26.991  25.802  1.00  0.00     0.176 C 
ATOM      8  C   UNL A   1      33.432  27.320  25.321  1.00  0.00     0.079 C 
ATOM      9  C   UNL A   1      32.049  25.628  26.561  1.00  0.00     0.094 C 
ATOM     10  C   UNL A   1      34.149  26.168  24.597  1.00  0.00     0.008 C 
ATOM     11  C   UNL A   1      32.747  24.487  25.828  1.00  0.00     0.058 C 
ATOM     12  C   UNL A   1      34.167  24.879  25.421  1.00  0.00     0.015 C 
BRANCH   7  13
ATOM     13  N   UNL A   1      31.159  26.927  24.572  1.00  0.00    -0.332 N 
ATOM     14  H   UNL A   1      30.699  27.834  24.498  1.00  0.00     0.347 HD
ATOM     15  H   UNL A   1      31.858  26.636  23.888  1.00  0.00     0.347 HD
BRANCH  13  16
ATOM     16  C   UNL A   1      30.115  25.936  24.338  1.00  0.00     0.176 C 
ATOM     17  C   UNL A   1      28.831  26.690  23.963  1.00  0.00     0.075 C 
ATOM     18  C   UNL A   1      30.388  24.826  23.337  1.00  0.00     0.075 C 
ENDBRANCH  13  16
ENDBRANCH   7  13
BRANCH  11  19
ATOM     19  S   UNL A   1      32.678  22.897  26.781  1.00  0.00    -0.122 SA
BRANCH  19  20
ATOM     20  C   UNL A   1      32.665  21.618  25.533  1.00  0.00     0.008 A 
ATOM     21  C   UNL A   1      32.262  21.950  24.232  1.00  0.00     0.016 A 
ATOM     22  C   UNL A   1      32.925  20.276  25.832  1.00  0.00     0.016 A 
ATOM     23  C   UNL A   1      32.169  20.967  23.240  1.00  0.00     0.021 A 
ATOM     24  C   UNL A   1      32.857  19.294  24.839  1.00  0.00     0.021 A 
ATOM     25  C   UNL A   1      32.478  19.644  23.546  1.00  0.00     0.041 A 
ATOM     26  Cl  UNL A   1      32.369  18.434  22.327  1.00  0.00    -0.084 Cl
ENDBRANCH  19  20
ENDBRANCH  11  19
ENDBRANCH   4   7
ENDBRANCH   2   3
ENDBRANCH   1   2
BRANCH   1  27
ATOM     27  C   UNL A   1      32.367  32.184  27.201  1.00  0.00     0.118 C 
BRANCH  27  28
ATOM     28  N   UNL A   1      32.346  33.621  27.435  1.00  0.00    -0.352 N 
ATOM     29  C   UNL A   1      33.030  34.383  28.344  1.00  0.00     0.251 C 
ATOM     30  H   UNL A   1      31.743  34.126  26.843  1.00  0.00     0.163 HD
ATOM     31  O   UNL A   1      32.646  35.532  28.571  1.00  0.00    -0.269 OA
BRANCH  29  32
ATOM     32  C   UNL A   1      34.223  33.863  29.048  1.00  0.00     0.039 A 
ATOM     33  C   UNL A   1      35.485  34.343  28.680  1.00  0.00     0.014 A 
ATOM     34  C   UNL A   1      34.121  32.846  29.999  1.00  0.00     0.014 A 
ATOM     35  C   UNL A   1      36.635  33.833  29.288  1.00  0.00     0.010 A 
ATOM     36  C   UNL A   1      35.260  32.393  30.661  1.00  0.00     0.010 A 
ATOM     37  C   UNL A   1      36.530  32.867  30.301  1.00  0.00    -0.014 A 
BRANCH  37  38
ATOM     38  C   UNL A   1      37.735  32.318  30.977  1.00  0.00     0.031 A 
ATOM     39  C   UNL A   1      38.552  31.247  30.305  1.00  0.00     0.074 A 
ATOM     40  C   UNL A   1      38.049  32.731  32.220  1.00  0.00     0.049 A 
ATOM     41  N   UNL A   1      39.567  30.562  30.769  1.00  0.00    -0.248 NA
ATOM     42  C   UNL A   1      38.152  30.871  28.940  1.00  0.00     0.031 C 
ATOM     43  C   UNL A   1      37.306  33.727  32.993  1.00  0.00     0.029 A 
ATOM     44  N   UNL A   1      39.068  32.353  33.059  1.00  0.00    -0.354 N 
ATOM     45  C   UNL A   1      39.903  29.659  29.768  1.00  0.00     0.074 A 
ATOM     46  C   UNL A   1      38.954  29.846  28.693  1.00  0.00     0.031 C 
ATOM     47  C   UNL A   1      37.905  33.898  34.182  1.00  0.00     0.029 A 
ATOM     48  C   UNL A   1      39.049  32.996  34.272  1.00  0.00     0.049 A 
ATOM     49  H   UNL A   1      39.748  31.685  32.813  1.00  0.00     0.167 HD
ATOM     50  C   UNL A   1      40.927  28.773  29.737  1.00  0.00     0.037 A 
ATOM     51  C   UNL A   1      39.859  32.866  35.339  1.00  0.00     0.037 A 
ATOM     52  C   UNL A   1      41.895  28.625  30.793  1.00  0.00     0.049 A 
ATOM     53  C   UNL A   1      41.001  31.889  35.272  1.00  0.00     0.074 A 
ATOM     54  C   UNL A   1      43.008  27.805  30.836  1.00  0.00     0.029 A 
ATOM     55  N   UNL A   1      41.864  29.323  31.991  1.00  0.00    -0.354 N 
ATOM     56  N   UNL A   1      41.345  31.082  34.296  1.00  0.00    -0.248 NA
ATOM     57  C   UNL A   1      41.874  31.808  36.452  1.00  0.00     0.031 C 
ATOM     58  C   UNL A   1      43.630  27.979  32.077  1.00  0.00     0.029 A 
ATOM     59  C   UNL A   1      42.932  28.942  32.787  1.00  0.00     0.049 A 
ATOM     60  H   UNL A   1      41.185  29.991  32.239  1.00  0.00     0.167 HD
ATOM     61  C   UNL A   1      42.487  30.422  34.730  1.00  0.00     0.074 A 
ATOM     62  C   UNL A   1      42.787  30.934  36.052  1.00  0.00     0.031 C 
ATOM     63  C   UNL A   1      43.219  29.476  34.094  1.00  0.00     0.037 A 
BRANCH  50  64
ATOM     64  C   UNL A   1      41.060  27.901  28.521  1.00  0.00     0.064 A 
ATOM     65  C   UNL A   1      41.856  28.277  27.428  1.00  0.00     0.173 A 
ATOM     66  C   UNL A   1      40.410  26.659  28.458  1.00  0.00     0.173 A 
ATOM     67  F   UNL A   1      42.492  29.459  27.430  1.00  0.00    -0.203 F 
ATOM     68  C   UNL A   1      41.970  27.459  26.307  1.00  0.00     0.198 A 
ATOM     69  C   UNL A   1      40.551  25.828  27.349  1.00  0.00     0.198 A 
ATOM     70  F   UNL A   1      39.641  26.245  29.477  1.00  0.00    -0.203 F 
ATOM     71  F   UNL A   1      42.694  27.865  25.253  1.00  0.00    -0.200 F 
ATOM     72  C   UNL A   1      41.324  26.233  26.271  1.00  0.00     0.200 A 
ATOM     73  F   UNL A   1      39.938  24.637  27.322  1.00  0.00    -0.200 F 
ATOM     74  F   UNL A   1      41.440  25.445  25.194  1.00  0.00    -0.200 F 
ENDBRANCH  50  64
BRANCH  51  75
ATOM     75  C   UNL A   1      39.638  33.701  36.549  1.00  0.00     0.064 A 
ATOM     76  C   UNL A   1      38.866  33.224  37.619  1.00  0.00     0.173 A 
ATOM     77  C   UNL A   1      40.185  34.986  36.663  1.00  0.00     0.173 A 
ATOM     78  F   UNL A   1      38.306  32.008  37.549  1.00  0.00    -0.203 F 
ATOM     79  C   UNL A   1      38.632  34.010  38.745  1.00  0.00     0.198 A 
ATOM     80  C   UNL A   1      39.975  35.760  37.803  1.00  0.00     0.198 A 
ATOM     81  F   UNL A   1      40.937  35.487  35.672  1.00  0.00    -0.203 F 
ATOM     82  F   UNL A   1      37.852  33.547  39.731  1.00  0.00    -0.200 F 
ATOM     83  C   UNL A   1      39.191  35.275  38.839  1.00  0.00     0.200 A 
ATOM     84  F   UNL A   1      40.530  36.977  37.897  1.00  0.00    -0.200 F 
ATOM     85  F   UNL A   1      38.969  36.029  39.924  1.00  0.00    -0.200 F 
ENDBRANCH  51  75
BRANCH  63  86
ATOM     86  C   UNL A   1      44.439  28.963  34.801  1.00  0.00     0.064 A 
ATOM     87  C   UNL A   1      45.684  29.594  34.673  1.00  0.00     0.173 A 
ATOM     88  C   UNL A   1      44.349  27.849  35.650  1.00  0.00     0.173 A 
ATOM     89  F   UNL A   1      45.823  30.654  33.862  1.00  0.00    -0.203 F 
ATOM     90  C   UNL A   1      46.802  29.114  35.350  1.00  0.00     0.198 A 
ATOM     91  C   UNL A   1      45.462  27.390  36.348  1.00  0.00     0.198 A 
ATOM     92  F   UNL A   1      43.178  27.213  35.811  1.00  0.00    -0.203 F 
ATOM     93  F   UNL A   1      47.992  29.704  35.175  1.00  0.00    -0.200 F 
ATOM     94  C   UNL A   1      46.688  28.018  36.192  1.00  0.00     0.200 A 
ATOM     95  F   UNL A   1      45.347  26.339  37.171  1.00  0.00    -0.200 F 
ATOM     96  F   UNL A   1      47.763  27.562  36.848  1.00  0.00    -0.200 F 
ENDBRANCH  63  86
ENDBRANCH  37  38
ENDBRANCH  29  32
ENDBRANCH  27  28
ENDBRANCH   1  27
TORSDOF 14
ENDMDL
