MODEL 1
REMARK VINA RESULT:     -10.4      0.000      0.000
REMARK SMILES Cc1nc([C@H](C)[NH2+]CC(=O)NCCCNC(=O)c2ccc(-c3c4nc(c(-c5c(F)c(F)c(F)c(F)c5F)c5ccc([nH]5)c(-c5c(F)c(F)c(F)c(F)c5F)c5nc(c(-c6c(F)c(F)c(F)c(F)c6F)c6ccc3[nH]6)C=C5)C=C4)cc2)cs1
REMARK SMILES IDX 12 1 11 2 9 3 10 4 8 6 7 7 5 10 6 11 4 12 1 13 2 14 3 15
REMARK SMILES IDX 82 16 81 17 13 18 14 19 15 20 16 21 17 23 18 24 19 25 80 26
REMARK SMILES IDX 20 27 79 28 21 29 22 30 23 31 73 32 24 33 78 34 72 35 74 36
REMARK SMILES IDX 25 37 77 38 71 39 70 40 26 42 58 43 38 44 57 45 39 46 42 47
REMARK SMILES IDX 56 48 75 49 40 50 41 51 55 53 76 54 43 55 27 56 28 57 36 58
REMARK SMILES IDX 29 59 30 60 34 61 37 62 31 63 32 64 35 65 33 66 59 67 60 68
REMARK SMILES IDX 68 69 61 70 62 71 66 72 69 73 63 74 64 75 67 76 65 77 44 78
REMARK SMILES IDX 45 79 53 80 46 81 47 82 51 83 54 84 48 85 49 86 52 87 50 88
REMARK H PARENT 11 5 7 8 7 9 15 22 74 41 42 52
REMARK Flexibility Score: inf
ROOT
ATOM      1  C   UNL A   1      33.775  35.244  29.429  1.00  0.00     0.118 C 
ENDROOT
BRANCH   1   2
ATOM      2  N   UNL A   1      32.693  35.497  30.369  1.00  0.00    -0.351 N 
ATOM      3  C   UNL A   1      32.717  35.790  31.706  1.00  0.00     0.275 C 
ATOM      4  O   UNL A   1      31.720  36.335  32.190  1.00  0.00    -0.269 OA
ATOM      5  H   UNL A   1      31.791  35.449  29.976  1.00  0.00     0.163 HD
BRANCH   3   6
ATOM      6  C   UNL A   1      33.862  35.326  32.611  1.00  0.00     0.362 C 
BRANCH   6   7
ATOM      7  N   UNL A   1      33.543  34.030  33.256  1.00  0.00    -0.331 N 
ATOM      8  H   UNL A   1      33.339  34.194  34.242  1.00  0.00     0.347 HD
ATOM      9  H   UNL A   1      32.739  33.628  32.775  1.00  0.00     0.347 HD
BRANCH   7  10
ATOM     10  C   UNL A   1      34.656  33.077  33.155  1.00  0.00     0.230 C 
ATOM     11  C   UNL A   1      34.785  32.575  31.719  1.00  0.00     0.082 C 
BRANCH  10  12
ATOM     12  C   UNL A   1      35.950  33.596  33.754  1.00  0.00     0.108 A 
ATOM     13  C   UNL A   1      39.400  34.572  33.006  1.00  0.00     0.079 C 
ATOM     14  C   UNL A   1      38.090  34.203  33.600  1.00  0.00     0.090 A 
ATOM     15  N   UNL A   1      37.032  33.835  32.909  1.00  0.00    -0.240 NA
ATOM     16  S   UNL A   1      37.899  34.201  35.302  1.00  0.00    -0.127 S 
ATOM     17  C   UNL A   1      36.262  33.756  35.095  1.00  0.00     0.096 A 
ENDBRANCH  10  12
ENDBRANCH   7  10
ENDBRANCH   6   7
ENDBRANCH   3   6
ENDBRANCH   1   2
BRANCH   1  18
ATOM     18  C   UNL A   1      33.536  34.243  28.282  1.00  0.00     0.042 C 
BRANCH  18  19
ATOM     19  C   UNL A   1      34.474  33.037  28.152  1.00  0.00     0.118 C 
BRANCH  19  20
ATOM     20  N   UNL A   1      33.787  31.824  27.735  1.00  0.00    -0.352 N 
ATOM     21  C   UNL A   1      34.228  30.528  27.688  1.00  0.00     0.251 C 
ATOM     22  H   UNL A   1      32.857  31.956  27.440  1.00  0.00     0.163 HD
ATOM     23  O   UNL A   1      33.487  29.663  27.192  1.00  0.00    -0.269 OA
BRANCH  21  24
ATOM     24  C   UNL A   1      35.565  30.113  28.173  1.00  0.00     0.039 A 
ATOM     25  C   UNL A   1      36.615  30.062  27.248  1.00  0.00     0.014 A 
ATOM     26  C   UNL A   1      35.785  29.672  29.482  1.00  0.00     0.014 A 
ATOM     27  C   UNL A   1      37.888  29.626  27.640  1.00  0.00     0.010 A 
ATOM     28  C   UNL A   1      37.069  29.254  29.880  1.00  0.00     0.010 A 
ATOM     29  C   UNL A   1      38.138  29.240  28.967  1.00  0.00    -0.014 A 
BRANCH  29  30
ATOM     30  C   UNL A   1      39.530  28.915  29.403  1.00  0.00     0.031 A 
ATOM     31  C   UNL A   1      40.316  29.820  30.312  1.00  0.00     0.074 A 
ATOM     32  C   UNL A   1      40.106  27.780  28.956  1.00  0.00     0.049 A 
ATOM     33  N   UNL A   1      41.532  29.666  30.784  1.00  0.00    -0.248 NA
ATOM     34  C   UNL A   1      39.661  31.061  30.744  1.00  0.00     0.031 C 
ATOM     35  C   UNL A   1      39.472  26.819  28.055  1.00  0.00     0.029 A 
ATOM     36  N   UNL A   1      41.349  27.243  29.195  1.00  0.00    -0.354 N 
ATOM     37  C   UNL A   1      41.787  30.783  31.570  1.00  0.00     0.074 A 
ATOM     38  C   UNL A   1      40.611  31.626  31.479  1.00  0.00     0.031 C 
ATOM     39  C   UNL A   1      40.321  25.805  27.826  1.00  0.00     0.029 A 
ATOM     40  C   UNL A   1      41.573  26.058  28.535  1.00  0.00     0.049 A 
ATOM     41  H   UNL A   1      42.015  27.667  29.783  1.00  0.00     0.167 HD
ATOM     42  C   UNL A   1      42.889  31.074  32.306  1.00  0.00     0.037 A 
ATOM     43  C   UNL A   1      42.663  25.267  28.491  1.00  0.00     0.037 A 
ATOM     44  C   UNL A   1      44.062  30.238  32.403  1.00  0.00     0.049 A 
ATOM     45  C   UNL A   1      43.889  25.636  29.281  1.00  0.00     0.074 A 
ATOM     46  C   UNL A   1      45.198  30.432  33.174  1.00  0.00     0.029 A 
ATOM     47  N   UNL A   1      44.261  29.061  31.698  1.00  0.00    -0.354 N 
ATOM     48  N   UNL A   1      44.084  26.659  30.076  1.00  0.00    -0.248 NA
ATOM     49  C   UNL A   1      45.046  24.736  29.169  1.00  0.00     0.031 C 
ATOM     50  C   UNL A   1      46.106  29.404  32.891  1.00  0.00     0.029 A 
ATOM     51  C   UNL A   1      45.515  28.538  31.987  1.00  0.00     0.049 A 
ATOM     52  H   UNL A   1      43.610  28.655  31.083  1.00  0.00     0.167 HD
ATOM     53  C   UNL A   1      45.373  26.514  30.573  1.00  0.00     0.074 A 
ATOM     54  C   UNL A   1      45.907  25.294  30.010  1.00  0.00     0.031 C 
ATOM     55  C   UNL A   1      46.051  27.326  31.421  1.00  0.00     0.037 A 
BRANCH  42  56
ATOM     56  C   UNL A   1      42.896  32.364  33.078  1.00  0.00     0.064 A 
ATOM     57  C   UNL A   1      43.268  33.577  32.479  1.00  0.00     0.173 A 
ATOM     58  C   UNL A   1      42.455  32.401  34.411  1.00  0.00     0.173 A 
ATOM     59  F   UNL A   1      43.695  33.599  31.207  1.00  0.00    -0.203 F 
ATOM     60  C   UNL A   1      43.222  34.773  33.193  1.00  0.00     0.198 A 
ATOM     61  C   UNL A   1      42.384  33.602  35.111  1.00  0.00     0.198 A 
ATOM     62  F   UNL A   1      42.072  31.273  35.028  1.00  0.00    -0.203 F 
ATOM     63  F   UNL A   1      43.618  35.914  32.611  1.00  0.00    -0.200 F 
ATOM     64  C   UNL A   1      42.774  34.786  34.504  1.00  0.00     0.200 A 
ATOM     65  F   UNL A   1      41.933  33.615  36.373  1.00  0.00    -0.200 F 
ATOM     66  F   UNL A   1      42.721  35.939  35.186  1.00  0.00    -0.200 F 
ENDBRANCH  42  56
BRANCH  43  67
ATOM     67  C   UNL A   1      42.645  24.033  27.661  1.00  0.00     0.064 A 
ATOM     68  C   UNL A   1      42.267  22.800  28.209  1.00  0.00     0.173 A 
ATOM     69  C   UNL A   1      43.015  24.061  26.308  1.00  0.00     0.173 A 
ATOM     70  F   UNL A   1      41.930  22.719  29.505  1.00  0.00    -0.203 F 
ATOM     71  C   UNL A   1      42.278  21.638  27.441  1.00  0.00     0.198 A 
ATOM     72  C   UNL A   1      42.995  22.904  25.533  1.00  0.00     0.198 A 
ATOM     73  F   UNL A   1      43.385  25.216  25.737  1.00  0.00    -0.203 F 
ATOM     74  F   UNL A   1      41.957  20.464  28.003  1.00  0.00    -0.200 F 
ATOM     75  C   UNL A   1      42.634  21.692  26.102  1.00  0.00     0.200 A 
ATOM     76  F   UNL A   1      43.327  22.963  24.236  1.00  0.00    -0.200 F 
ATOM     77  F   UNL A   1      42.638  20.576  25.362  1.00  0.00    -0.200 F 
ENDBRANCH  43  67
BRANCH  55  78
ATOM     78  C   UNL A   1      47.444  26.913  31.808  1.00  0.00     0.064 A 
ATOM     79  C   UNL A   1      47.680  26.038  32.879  1.00  0.00     0.173 A 
ATOM     80  C   UNL A   1      48.554  27.378  31.087  1.00  0.00     0.173 A 
ATOM     81  F   UNL A   1      46.655  25.578  33.614  1.00  0.00    -0.203 F 
ATOM     82  C   UNL A   1      48.976  25.665  33.229  1.00  0.00     0.198 A 
ATOM     83  C   UNL A   1      49.846  26.978  31.420  1.00  0.00     0.198 A 
ATOM     84  F   UNL A   1      48.386  28.214  30.051  1.00  0.00    -0.203 F 
ATOM     85  F   UNL A   1      49.179  24.868  34.288  1.00  0.00    -0.200 F 
ATOM     86  C   UNL A   1      50.057  26.129  32.496  1.00  0.00     0.200 A 
ATOM     87  F   UNL A   1      50.889  27.420  30.703  1.00  0.00    -0.200 F 
ATOM     88  F   UNL A   1      51.303  25.766  32.831  1.00  0.00    -0.200 F 
ENDBRANCH  55  78
ENDBRANCH  29  30
ENDBRANCH  21  24
ENDBRANCH  19  20
ENDBRANCH  18  19
ENDBRANCH   1  18
TORSDOF 13
ENDMDL
MODEL 2
REMARK VINA RESULT:     -10.4      1.123      2.124
REMARK SMILES Cc1nc([C@H](C)[NH2+]CC(=O)NCCCNC(=O)c2ccc(-c3c4nc(c(-c5c(F)c(F)c(F)c(F)c5F)c5ccc([nH]5)c(-c5c(F)c(F)c(F)c(F)c5F)c5nc(c(-c6c(F)c(F)c(F)c(F)c6F)c6ccc3[nH]6)C=C5)C=C4)cc2)cs1
REMARK SMILES IDX 12 1 11 2 9 3 10 4 8 6 7 7 5 10 6 11 4 12 1 13 2 14 3 15
REMARK SMILES IDX 82 16 81 17 13 18 14 19 15 20 16 21 17 23 18 24 19 25 80 26
REMARK SMILES IDX 20 27 79 28 21 29 22 30 23 31 73 32 24 33 78 34 72 35 74 36
REMARK SMILES IDX 25 37 77 38 71 39 70 40 26 42 58 43 38 44 57 45 39 46 42 47
REMARK SMILES IDX 56 48 75 49 40 50 41 51 55 53 76 54 43 55 27 56 28 57 36 58
REMARK SMILES IDX 29 59 30 60 34 61 37 62 31 63 32 64 35 65 33 66 59 67 60 68
REMARK SMILES IDX 68 69 61 70 62 71 66 72 69 73 63 74 64 75 67 76 65 77 44 78
REMARK SMILES IDX 45 79 53 80 46 81 47 82 51 83 54 84 48 85 49 86 52 87 50 88
REMARK H PARENT 11 5 7 8 7 9 15 22 74 41 42 52
REMARK Flexibility Score: inf
ROOT
ATOM      1  C   UNL A   1      33.654  35.270  29.470  1.00  0.00     0.118 C 
ENDROOT
BRANCH   1   2
ATOM      2  N   UNL A   1      32.650  35.530  30.491  1.00  0.00    -0.351 N 
ATOM      3  C   UNL A   1      32.778  35.778  31.831  1.00  0.00     0.275 C 
ATOM      4  O   UNL A   1      31.839  36.342  32.401  1.00  0.00    -0.269 OA
ATOM      5  H   UNL A   1      31.722  35.527  30.162  1.00  0.00     0.163 HD
BRANCH   3   6
ATOM      6  C   UNL A   1      33.966  35.246  32.639  1.00  0.00     0.362 C 
BRANCH   6   7
ATOM      7  N   UNL A   1      33.617  33.983  33.333  1.00  0.00    -0.331 N 
ATOM      8  H   UNL A   1      33.515  34.173  34.330  1.00  0.00     0.347 HD
ATOM      9  H   UNL A   1      32.747  33.633  32.933  1.00  0.00     0.347 HD
BRANCH   7  10
ATOM     10  C   UNL A   1      34.648  32.953  33.151  1.00  0.00     0.230 C 
ATOM     11  C   UNL A   1      34.781  32.604  31.670  1.00  0.00     0.082 C 
BRANCH  10  12
ATOM     12  C   UNL A   1      35.961  33.286  33.834  1.00  0.00     0.108 A 
ATOM     13  C   UNL A   1      37.616  33.691  37.076  1.00  0.00     0.079 C 
ATOM     14  C   UNL A   1      37.203  33.644  35.650  1.00  0.00     0.090 A 
ATOM     15  N   UNL A   1      36.020  33.255  35.226  1.00  0.00    -0.240 NA
ATOM     16  S   UNL A   1      38.293  34.158  34.433  1.00  0.00    -0.127 S 
ATOM     17  C   UNL A   1      37.128  33.755  33.250  1.00  0.00     0.096 A 
ENDBRANCH  10  12
ENDBRANCH   7  10
ENDBRANCH   6   7
ENDBRANCH   3   6
ENDBRANCH   1   2
BRANCH   1  18
ATOM     18  C   UNL A   1      33.364  34.191  28.409  1.00  0.00     0.042 C 
BRANCH  18  19
ATOM     19  C   UNL A   1      34.389  33.068  28.205  1.00  0.00     0.118 C 
BRANCH  19  20
ATOM     20  N   UNL A   1      33.825  31.892  27.559  1.00  0.00    -0.352 N 
ATOM     21  C   UNL A   1      34.321  30.621  27.443  1.00  0.00     0.251 C 
ATOM     22  H   UNL A   1      32.945  32.034  27.137  1.00  0.00     0.163 HD
ATOM     23  O   UNL A   1      33.700  29.799  26.749  1.00  0.00    -0.269 OA
BRANCH  21  24
ATOM     24  C   UNL A   1      35.584  30.187  28.084  1.00  0.00     0.039 A 
ATOM     25  C   UNL A   1      36.747  30.173  27.305  1.00  0.00     0.014 A 
ATOM     26  C   UNL A   1      35.630  29.694  29.393  1.00  0.00     0.014 A 
ATOM     27  C   UNL A   1      37.959  29.722  27.845  1.00  0.00     0.010 A 
ATOM     28  C   UNL A   1      36.852  29.261  29.940  1.00  0.00     0.010 A 
ATOM     29  C   UNL A   1      38.033  29.283  29.178  1.00  0.00    -0.014 A 
BRANCH  29  30
ATOM     30  C   UNL A   1      39.357  28.941  29.781  1.00  0.00     0.031 A 
ATOM     31  C   UNL A   1      39.938  29.718  30.931  1.00  0.00     0.074 A 
ATOM     32  C   UNL A   1      40.061  27.911  29.270  1.00  0.00     0.049 A 
ATOM     33  N   UNL A   1      41.072  29.533  31.567  1.00  0.00    -0.248 NA
ATOM     34  C   UNL A   1      39.151  30.853  31.431  1.00  0.00     0.031 C 
ATOM     35  C   UNL A   1      39.633  27.082  28.143  1.00  0.00     0.029 A 
ATOM     36  N   UNL A   1      41.280  27.385  29.625  1.00  0.00    -0.354 N 
ATOM     37  C   UNL A   1      41.135  30.521  32.541  1.00  0.00     0.074 A 
ATOM     38  C   UNL A   1      39.941  31.328  32.387  1.00  0.00     0.031 C 
ATOM     39  C   UNL A   1      40.564  26.146  27.907  1.00  0.00     0.029 A 
ATOM     40  C   UNL A   1      41.674  26.327  28.841  1.00  0.00     0.049 A 
ATOM     41  H   UNL A   1      41.821  27.733  30.370  1.00  0.00     0.167 HD
ATOM     42  C   UNL A   1      42.090  30.730  33.482  1.00  0.00     0.037 A 
ATOM     43  C   UNL A   1      42.802  25.590  28.857  1.00  0.00     0.037 A 
ATOM     44  C   UNL A   1      43.281  29.930  33.643  1.00  0.00     0.049 A 
ATOM     45  C   UNL A   1      43.866  25.871  29.882  1.00  0.00     0.074 A 
ATOM     46  C   UNL A   1      44.270  30.038  34.609  1.00  0.00     0.029 A 
ATOM     47  N   UNL A   1      43.656  28.885  32.812  1.00  0.00    -0.354 N 
ATOM     48  N   UNL A   1      43.875  26.762  30.842  1.00  0.00    -0.248 NA
ATOM     49  C   UNL A   1      45.077  25.039  29.828  1.00  0.00     0.031 C 
ATOM     50  C   UNL A   1      45.269  29.099  34.328  1.00  0.00     0.029 A 
ATOM     51  C   UNL A   1      44.878  28.366  33.220  1.00  0.00     0.049 A 
ATOM     52  H   UNL A   1      43.133  28.558  32.045  1.00  0.00     0.167 HD
ATOM     53  C   UNL A   1      45.076  26.585  31.516  1.00  0.00     0.074 A 
ATOM     54  C   UNL A   1      45.762  25.487  30.870  1.00  0.00     0.031 C 
ATOM     55  C   UNL A   1      45.565  27.277  32.574  1.00  0.00     0.037 A 
BRANCH  42  56
ATOM     56  C   UNL A   1      41.901  31.883  34.429  1.00  0.00     0.064 A 
ATOM     57  C   UNL A   1      41.335  31.705  35.700  1.00  0.00     0.173 A 
ATOM     58  C   UNL A   1      42.358  33.166  34.091  1.00  0.00     0.173 A 
ATOM     59  F   UNL A   1      40.883  30.498  36.075  1.00  0.00    -0.203 F 
ATOM     60  C   UNL A   1      41.210  32.773  36.586  1.00  0.00     0.198 A 
ATOM     61  C   UNL A   1      42.258  34.225  34.989  1.00  0.00     0.198 A 
ATOM     62  F   UNL A   1      42.922  33.390  32.894  1.00  0.00    -0.203 F 
ATOM     63  F   UNL A   1      40.632  32.587  37.781  1.00  0.00    -0.200 F 
ATOM     64  C   UNL A   1      41.678  34.030  36.233  1.00  0.00     0.200 A 
ATOM     65  F   UNL A   1      42.728  35.435  34.653  1.00  0.00    -0.200 F 
ATOM     66  F   UNL A   1      41.567  35.054  37.091  1.00  0.00    -0.200 F 
ENDBRANCH  42  56
BRANCH  43  67
ATOM     67  C   UNL A   1      42.986  24.501  27.860  1.00  0.00     0.064 A 
ATOM     68  C   UNL A   1      43.519  24.766  26.592  1.00  0.00     0.173 A 
ATOM     69  C   UNL A   1      42.621  23.178  28.153  1.00  0.00     0.173 A 
ATOM     70  F   UNL A   1      43.859  26.020  26.257  1.00  0.00    -0.203 F 
ATOM     71  C   UNL A   1      43.665  23.753  25.647  1.00  0.00     0.198 A 
ATOM     72  C   UNL A   1      42.797  22.161  27.218  1.00  0.00     0.198 A 
ATOM     73  F   UNL A   1      42.105  22.874  29.353  1.00  0.00    -0.203 F 
ATOM     74  F   UNL A   1      44.134  24.042  24.425  1.00  0.00    -0.200 F 
ATOM     75  C   UNL A   1      43.310  22.450  25.964  1.00  0.00     0.200 A 
ATOM     76  F   UNL A   1      42.465  20.901  27.533  1.00  0.00    -0.200 F 
ATOM     77  F   UNL A   1      43.456  21.475  25.057  1.00  0.00    -0.200 F 
ENDBRANCH  43  67
BRANCH  55  78
ATOM     78  C   UNL A   1      46.902  26.855  33.117  1.00  0.00     0.064 A 
ATOM     79  C   UNL A   1      47.020  25.831  34.070  1.00  0.00     0.173 A 
ATOM     80  C   UNL A   1      48.083  27.464  32.664  1.00  0.00     0.173 A 
ATOM     81  F   UNL A   1      45.922  25.229  34.551  1.00  0.00    -0.203 F 
ATOM     82  C   UNL A   1      48.265  25.453  34.567  1.00  0.00     0.198 A 
ATOM     83  C   UNL A   1      49.328  27.061  33.140  1.00  0.00     0.198 A 
ATOM     84  F   UNL A   1      48.030  28.445  31.750  1.00  0.00    -0.203 F 
ATOM     85  F   UNL A   1      48.347  24.507  35.514  1.00  0.00    -0.200 F 
ATOM     86  C   UNL A   1      49.418  26.062  34.096  1.00  0.00     0.200 A 
ATOM     87  F   UNL A   1      50.442  27.643  32.675  1.00  0.00    -0.200 F 
ATOM     88  F   UNL A   1      50.615  25.693  34.573  1.00  0.00    -0.200 F 
ENDBRANCH  55  78
ENDBRANCH  29  30
ENDBRANCH  21  24
ENDBRANCH  19  20
ENDBRANCH  18  19
ENDBRANCH   1  18
TORSDOF 13
ENDMDL
MODEL 3
REMARK VINA RESULT:     -10.3      0.966      1.955
REMARK SMILES Cc1nc([C@H](C)[NH2+]CC(=O)NCCCNC(=O)c2ccc(-c3c4nc(c(-c5c(F)c(F)c(F)c(F)c5F)c5ccc([nH]5)c(-c5c(F)c(F)c(F)c(F)c5F)c5nc(c(-c6c(F)c(F)c(F)c(F)c6F)c6ccc3[nH]6)C=C5)C=C4)cc2)cs1
REMARK SMILES IDX 12 1 11 2 9 3 10 4 8 6 7 7 5 10 6 11 4 12 1 13 2 14 3 15
REMARK SMILES IDX 82 16 81 17 13 18 14 19 15 20 16 21 17 23 18 24 19 25 80 26
REMARK SMILES IDX 20 27 79 28 21 29 22 30 23 31 73 32 24 33 78 34 72 35 74 36
REMARK SMILES IDX 25 37 77 38 71 39 70 40 26 42 58 43 38 44 57 45 39 46 42 47
REMARK SMILES IDX 56 48 75 49 40 50 41 51 55 53 76 54 43 55 27 56 28 57 36 58
REMARK SMILES IDX 29 59 30 60 34 61 37 62 31 63 32 64 35 65 33 66 59 67 60 68
REMARK SMILES IDX 68 69 61 70 62 71 66 72 69 73 63 74 64 75 67 76 65 77 44 78
REMARK SMILES IDX 45 79 53 80 46 81 47 82 51 83 54 84 48 85 49 86 52 87 50 88
REMARK H PARENT 11 5 7 8 7 9 15 22 74 41 42 52
REMARK Flexibility Score: inf
ROOT
ATOM      1  C   UNL A   1      34.107  34.739  29.822  1.00  0.00     0.118 C 
ENDROOT
BRANCH   1   2
ATOM      2  N   UNL A   1      33.400  35.973  30.128  1.00  0.00    -0.351 N 
ATOM      3  C   UNL A   1      33.176  36.606  31.321  1.00  0.00     0.275 C 
ATOM      4  O   UNL A   1      32.898  37.809  31.288  1.00  0.00    -0.269 OA
ATOM      5  H   UNL A   1      33.018  36.431  29.344  1.00  0.00     0.163 HD
BRANCH   3   6
ATOM      6  C   UNL A   1      33.117  35.835  32.643  1.00  0.00     0.362 C 
BRANCH   6   7
ATOM      7  N   UNL A   1      34.384  35.974  33.401  1.00  0.00    -0.331 N 
ATOM      8  H   UNL A   1      35.053  36.491  32.831  1.00  0.00     0.347 HD
ATOM      9  H   UNL A   1      34.179  36.469  34.270  1.00  0.00     0.347 HD
BRANCH   7  10
ATOM     10  C   UNL A   1      34.963  34.670  33.747  1.00  0.00     0.230 C 
ATOM     11  C   UNL A   1      34.031  33.548  33.294  1.00  0.00     0.082 C 
BRANCH  10  12
ATOM     12  C   UNL A   1      36.402  34.509  33.293  1.00  0.00     0.108 A 
ATOM     13  C   UNL A   1      39.904  34.846  34.308  1.00  0.00     0.079 C 
ATOM     14  C   UNL A   1      38.601  34.665  33.618  1.00  0.00     0.090 A 
ATOM     15  N   UNL A   1      37.426  34.778  34.198  1.00  0.00    -0.240 NA
ATOM     16  S   UNL A   1      38.569  34.323  31.940  1.00  0.00    -0.127 S 
ATOM     17  C   UNL A   1      36.863  34.240  32.014  1.00  0.00     0.096 A 
ENDBRANCH  10  12
ENDBRANCH   7  10
ENDBRANCH   6   7
ENDBRANCH   3   6
ENDBRANCH   1   2
BRANCH   1  18
ATOM     18  C   UNL A   1      34.053  34.196  28.381  1.00  0.00     0.042 C 
BRANCH  18  19
ATOM     19  C   UNL A   1      34.937  32.997  28.014  1.00  0.00     0.118 C 
BRANCH  19  20
ATOM     20  N   UNL A   1      34.178  31.772  27.809  1.00  0.00    -0.352 N 
ATOM     21  C   UNL A   1      34.576  30.464  27.865  1.00  0.00     0.251 C 
ATOM     22  H   UNL A   1      33.225  31.906  27.595  1.00  0.00     0.163 HD
ATOM     23  O   UNL A   1      33.764  29.578  27.548  1.00  0.00    -0.269 OA
BRANCH  21  24
ATOM     24  C   UNL A   1      35.945  30.053  28.257  1.00  0.00     0.039 A 
ATOM     25  C   UNL A   1      36.953  30.111  27.288  1.00  0.00     0.014 A 
ATOM     26  C   UNL A   1      36.235  29.514  29.516  1.00  0.00     0.014 A 
ATOM     27  C   UNL A   1      38.254  29.685  27.589  1.00  0.00     0.010 A 
ATOM     28  C   UNL A   1      37.546  29.107  29.823  1.00  0.00     0.010 A 
ATOM     29  C   UNL A   1      38.574  29.201  28.868  1.00  0.00    -0.014 A 
BRANCH  29  30
ATOM     30  C   UNL A   1      39.992  28.887  29.216  1.00  0.00     0.031 A 
ATOM     31  C   UNL A   1      40.845  29.824  30.028  1.00  0.00     0.074 A 
ATOM     32  C   UNL A   1      40.532  27.730  28.779  1.00  0.00     0.049 A 
ATOM     33  N   UNL A   1      42.091  29.683  30.418  1.00  0.00    -0.248 NA
ATOM     34  C   UNL A   1      40.226  31.086  30.452  1.00  0.00     0.031 C 
ATOM     35  C   UNL A   1      39.832  26.736  27.967  1.00  0.00     0.029 A 
ATOM     36  N   UNL A   1      41.787  27.196  28.951  1.00  0.00    -0.354 N 
ATOM     37  C   UNL A   1      42.404  30.831  31.134  1.00  0.00     0.074 A 
ATOM     38  C   UNL A   1      41.228  31.677  31.092  1.00  0.00     0.031 C 
ATOM     39  C   UNL A   1      40.659  25.708  27.721  1.00  0.00     0.029 A 
ATOM     40  C   UNL A   1      41.960  25.983  28.328  1.00  0.00     0.049 A 
ATOM     41  H   UNL A   1      42.495  27.640  29.471  1.00  0.00     0.167 HD
ATOM     42  C   UNL A   1      43.557  31.146  31.777  1.00  0.00     0.037 A 
ATOM     43  C   UNL A   1      43.042  25.184  28.239  1.00  0.00     0.037 A 
ATOM     44  C   UNL A   1      44.732  30.308  31.825  1.00  0.00     0.049 A 
ATOM     45  C   UNL A   1      44.322  25.579  28.923  1.00  0.00     0.074 A 
ATOM     46  C   UNL A   1      45.921  30.527  32.504  1.00  0.00     0.029 A 
ATOM     47  N   UNL A   1      44.877  29.101  31.158  1.00  0.00    -0.354 N 
ATOM     48  N   UNL A   1      44.577  26.633  29.657  1.00  0.00    -0.248 NA
ATOM     49  C   UNL A   1      45.465  24.668  28.768  1.00  0.00     0.031 C 
ATOM     50  C   UNL A   1      46.803  29.483  32.201  1.00  0.00     0.029 A 
ATOM     51  C   UNL A   1      46.147  28.583  31.380  1.00  0.00     0.049 A 
ATOM     52  H   UNL A   1      44.182  28.673  30.610  1.00  0.00     0.167 HD
ATOM     53  C   UNL A   1      45.897  26.502  30.067  1.00  0.00     0.074 A 
ATOM     54  C   UNL A   1      46.385  25.256  29.519  1.00  0.00     0.031 C 
ATOM     55  C   UNL A   1      46.637  27.345  30.829  1.00  0.00     0.037 A 
BRANCH  42  56
ATOM     56  C   UNL A   1      43.623  32.468  32.490  1.00  0.00     0.064 A 
ATOM     57  C   UNL A   1      43.284  32.590  33.846  1.00  0.00     0.173 A 
ATOM     58  C   UNL A   1      44.101  33.612  31.831  1.00  0.00     0.173 A 
ATOM     59  F   UNL A   1      42.824  31.527  34.525  1.00  0.00    -0.203 F 
ATOM     60  C   UNL A   1      43.397  33.811  34.508  1.00  0.00     0.198 A 
ATOM     61  C   UNL A   1      44.239  34.824  32.502  1.00  0.00     0.198 A 
ATOM     62  F   UNL A   1      44.455  33.549  30.538  1.00  0.00    -0.203 F 
ATOM     63  F   UNL A   1      43.032  33.911  35.793  1.00  0.00    -0.200 F 
ATOM     64  C   UNL A   1      43.881  34.924  33.838  1.00  0.00     0.200 A 
ATOM     65  F   UNL A   1      44.725  35.894  31.858  1.00  0.00    -0.200 F 
ATOM     66  F   UNL A   1      43.998  36.096  34.479  1.00  0.00    -0.200 F 
ENDBRANCH  42  56
BRANCH  43  67
ATOM     67  C   UNL A   1      42.960  23.916  27.466  1.00  0.00     0.064 A 
ATOM     68  C   UNL A   1      43.374  23.858  26.129  1.00  0.00     0.173 A 
ATOM     69  C   UNL A   1      42.457  22.742  28.047  1.00  0.00     0.173 A 
ATOM     70  F   UNL A   1      43.838  24.962  25.523  1.00  0.00    -0.203 F 
ATOM     71  C   UNL A   1      43.272  22.678  25.395  1.00  0.00     0.198 A 
ATOM     72  C   UNL A   1      42.385  21.555  27.321  1.00  0.00     0.198 A 
ATOM     73  F   UNL A   1      42.048  22.747  29.324  1.00  0.00    -0.203 F 
ATOM     74  F   UNL A   1      43.630  22.662  24.104  1.00  0.00    -0.200 F 
ATOM     75  C   UNL A   1      42.784  21.526  25.994  1.00  0.00     0.200 A 
ATOM     76  F   UNL A   1      41.926  20.442  27.908  1.00  0.00    -0.200 F 
ATOM     77  F   UNL A   1      42.691  20.391  25.290  1.00  0.00    -0.200 F 
ENDBRANCH  43  67
BRANCH  55  78
ATOM     78  C   UNL A   1      48.052  26.941  31.132  1.00  0.00     0.064 A 
ATOM     79  C   UNL A   1      48.354  26.040  32.166  1.00  0.00     0.173 A 
ATOM     80  C   UNL A   1      49.119  27.439  30.369  1.00  0.00     0.173 A 
ATOM     81  F   UNL A   1      47.374  25.547  32.939  1.00  0.00    -0.203 F 
ATOM     82  C   UNL A   1      49.671  25.675  32.438  1.00  0.00     0.198 A 
ATOM     83  C   UNL A   1      50.431  27.048  30.624  1.00  0.00     0.198 A 
ATOM     84  F   UNL A   1      48.887  28.300  29.366  1.00  0.00    -0.203 F 
ATOM     85  F   UNL A   1      49.938  24.853  33.463  1.00  0.00    -0.200 F 
ATOM     86  C   UNL A   1      50.707  26.173  31.663  1.00  0.00     0.200 A 
ATOM     87  F   UNL A   1      51.430  27.522  29.867  1.00  0.00    -0.200 F 
ATOM     88  F   UNL A   1      51.972  25.818  31.925  1.00  0.00    -0.200 F 
ENDBRANCH  55  78
ENDBRANCH  29  30
ENDBRANCH  21  24
ENDBRANCH  19  20
ENDBRANCH  18  19
ENDBRANCH   1  18
TORSDOF 13
ENDMDL
