MODEL 1
REMARK VINA RESULT:     -12.4      0.000      0.000
REMARK SMILES Cc1cc(NCC(=O)NCCCNC(=O)c2ccc(-c3c4nc(c(-c5c(F)c(F)c(F)c(F)c5F)c5ccc([nH]5)c(-c5c(F)c(F)c(F)c(F)c5F)c5nc(c(-c6c(F)c(F)c(F)c(F)c6F)c6ccc3[nH]6)C=C5)C=C4)cc2)c2cc(S(=O)(=O)N(C)C)ccc2n1
REMARK SMILES IDX 10 1 9 2 7 3 8 4 6 6 5 7 4 9 1 10 2 11 3 12 91 13 90 14
REMARK SMILES IDX 79 15 89 16 80 17 88 18 81 19 82 20 83 21 84 22 85 23 86 24
REMARK SMILES IDX 87 25 11 26 12 27 13 28 14 29 15 31 16 32 17 33 78 34 18 35
REMARK SMILES IDX 77 36 19 37 20 38 21 39 71 40 22 41 76 42 70 43 72 44 23 45
REMARK SMILES IDX 75 46 69 47 68 48 24 50 56 51 36 52 55 53 37 54 40 55 54 56
REMARK SMILES IDX 73 57 38 58 39 59 53 61 74 62 41 63 25 64 26 65 34 66 27 67
REMARK SMILES IDX 28 68 32 69 35 70 29 71 30 72 33 73 31 74 57 75 58 76 66 77
REMARK SMILES IDX 59 78 60 79 64 80 67 81 61 82 62 83 65 84 63 85 42 86 43 87
REMARK SMILES IDX 51 88 44 89 45 90 49 91 52 92 46 93 47 94 50 95 48 96
REMARK H PARENT 9 5 5 8 13 30 72 49 40 60
REMARK Flexibility Score: inf
ROOT
ATOM      1  C   UNL A   1      31.566  30.863  26.082  1.00  0.00     0.117 C 
ENDROOT
BRANCH   1   2
ATOM      2  N   UNL A   1      32.784  30.186  26.474  1.00  0.00    -0.355 N 
ATOM      3  C   UNL A   1      32.957  29.039  27.192  1.00  0.00     0.239 C 
ATOM      4  O   UNL A   1      34.121  28.676  27.394  1.00  0.00    -0.273 OA
ATOM      5  H   UNL A   1      33.616  30.620  26.176  1.00  0.00     0.163 HD
BRANCH   3   6
ATOM      6  C   UNL A   1      31.777  28.187  27.691  1.00  0.00     0.213 C 
BRANCH   6   7
ATOM      7  N   UNL A   1      31.451  27.071  26.810  1.00  0.00    -0.376 N 
ATOM      8  H   UNL A   1      31.015  26.323  27.278  1.00  0.00     0.161 HD
BRANCH   7   9
ATOM      9  C   UNL A   1      31.625  26.839  25.454  1.00  0.00     0.046 A 
ATOM     10  C   UNL A   1      30.120  28.472  22.362  1.00  0.00     0.067 C 
ATOM     11  C   UNL A   1      30.937  27.576  23.243  1.00  0.00     0.040 A 
ATOM     12  C   UNL A   1      30.828  27.646  24.621  1.00  0.00     0.049 A 
ATOM     13  N   UNL A   1      31.800  26.744  22.633  1.00  0.00    -0.253 NA
ATOM     14  C   UNL A   1      32.578  25.959  23.388  1.00  0.00     0.073 A 
ATOM     15  C   UNL A   1      32.543  25.952  24.808  1.00  0.00     0.025 A 
ATOM     16  C   UNL A   1      33.476  25.139  22.706  1.00  0.00     0.030 A 
ATOM     17  C   UNL A   1      33.475  25.092  25.442  1.00  0.00     0.034 A 
ATOM     18  C   UNL A   1      34.383  24.301  23.358  1.00  0.00     0.024 A 
ATOM     19  C   UNL A   1      34.392  24.300  24.738  1.00  0.00     0.083 A 
BRANCH  19  20
ATOM     20  S   UNL A   1      35.534  23.359  25.718  1.00  0.00     0.242 S 
ATOM     21  O   UNL A   1      36.751  24.145  25.807  1.00  0.00    -0.207 OA
ATOM     22  O   UNL A   1      34.809  22.969  26.905  1.00  0.00    -0.207 OA
BRANCH  20  23
ATOM     23  N   UNL A   1      35.916  21.948  24.831  1.00  0.00    -0.204 NA
ATOM     24  C   UNL A   1      37.333  21.515  24.906  1.00  0.00     0.124 C 
ATOM     25  C   UNL A   1      35.013  20.818  25.182  1.00  0.00     0.124 C 
ENDBRANCH  20  23
ENDBRANCH  19  20
ENDBRANCH   7   9
ENDBRANCH   6   7
ENDBRANCH   3   6
ENDBRANCH   1   2
BRANCH   1  26
ATOM     26  C   UNL A   1      31.354  32.176  26.830  1.00  0.00     0.042 C 
BRANCH  26  27
ATOM     27  C   UNL A   1      32.654  32.901  27.164  1.00  0.00     0.118 C 
BRANCH  27  28
ATOM     28  N   UNL A   1      32.431  34.263  27.629  1.00  0.00    -0.352 N 
ATOM     29  C   UNL A   1      33.045  34.967  28.632  1.00  0.00     0.251 C 
ATOM     30  H   UNL A   1      31.729  34.757  27.146  1.00  0.00     0.163 HD
ATOM     31  O   UNL A   1      32.598  36.061  28.967  1.00  0.00    -0.269 OA
BRANCH  29  32
ATOM     32  C   UNL A   1      34.227  34.418  29.336  1.00  0.00     0.039 A 
ATOM     33  C   UNL A   1      34.029  33.752  30.550  1.00  0.00     0.014 A 
ATOM     34  C   UNL A   1      35.521  34.583  28.836  1.00  0.00     0.014 A 
ATOM     35  C   UNL A   1      35.118  33.204  31.233  1.00  0.00     0.010 A 
ATOM     36  C   UNL A   1      36.599  33.981  29.484  1.00  0.00     0.010 A 
ATOM     37  C   UNL A   1      36.409  33.287  30.688  1.00  0.00    -0.014 A 
BRANCH  37  38
ATOM     38  C   UNL A   1      37.570  32.650  31.361  1.00  0.00     0.031 A 
ATOM     39  C   UNL A   1      38.278  31.492  30.715  1.00  0.00     0.074 A 
ATOM     40  C   UNL A   1      37.938  33.067  32.589  1.00  0.00     0.049 A 
ATOM     41  N   UNL A   1      39.249  30.748  31.186  1.00  0.00    -0.248 NA
ATOM     42  C   UNL A   1      37.822  31.100  29.372  1.00  0.00     0.031 C 
ATOM     43  C   UNL A   1      37.299  34.148  33.342  1.00  0.00     0.029 A 
ATOM     44  N   UNL A   1      38.926  32.618  33.429  1.00  0.00    -0.354 N 
ATOM     45  C   UNL A   1      39.496  29.788  30.214  1.00  0.00     0.074 A 
ATOM     46  C   UNL A   1      38.557  30.022  29.139  1.00  0.00     0.031 C 
ATOM     47  C   UNL A   1      37.916  34.284  34.526  1.00  0.00     0.029 A 
ATOM     48  C   UNL A   1      38.970  33.280  34.632  1.00  0.00     0.049 A 
ATOM     49  H   UNL A   1      39.546  31.891  33.192  1.00  0.00     0.167 HD
ATOM     50  C   UNL A   1      40.432  28.810  30.215  1.00  0.00     0.037 A 
ATOM     51  C   UNL A   1      39.762  33.089  35.705  1.00  0.00     0.037 A 
ATOM     52  C   UNL A   1      41.401  28.613  31.261  1.00  0.00     0.049 A 
ATOM     53  C   UNL A   1      40.810  32.009  35.663  1.00  0.00     0.074 A 
ATOM     54  C   UNL A   1      42.449  27.710  31.305  1.00  0.00     0.029 A 
ATOM     55  N   UNL A   1      41.439  29.330  32.446  1.00  0.00    -0.354 N 
ATOM     56  N   UNL A   1      41.088  31.163  34.703  1.00  0.00    -0.248 NA
ATOM     57  C   UNL A   1      41.659  31.864  36.853  1.00  0.00     0.031 C 
ATOM     58  C   UNL A   1      43.099  27.854  32.535  1.00  0.00     0.029 A 
ATOM     59  C   UNL A   1      42.481  28.874  33.239  1.00  0.00     0.049 A 
ATOM     60  H   UNL A   1      40.820  30.056  32.689  1.00  0.00     0.167 HD
ATOM     61  C   UNL A   1      42.160  30.408  35.158  1.00  0.00     0.074 A 
ATOM     62  C   UNL A   1      42.493  30.904  36.476  1.00  0.00     0.031 C 
ATOM     63  C   UNL A   1      42.810  29.393  34.540  1.00  0.00     0.037 A 
BRANCH  50  64
ATOM     64  C   UNL A   1      40.472  27.873  29.045  1.00  0.00     0.064 A 
ATOM     65  C   UNL A   1      39.695  26.707  29.010  1.00  0.00     0.173 A 
ATOM     66  C   UNL A   1      41.239  28.188  27.913  1.00  0.00     0.173 A 
ATOM     67  F   UNL A   1      38.952  26.358  30.071  1.00  0.00    -0.203 F 
ATOM     68  C   UNL A   1      39.691  25.884  27.887  1.00  0.00     0.198 A 
ATOM     69  C   UNL A   1      41.214  27.376  26.783  1.00  0.00     0.198 A 
ATOM     70  F   UNL A   1      41.995  29.296  27.895  1.00  0.00    -0.203 F 
ATOM     71  F   UNL A   1      38.961  24.760  27.884  1.00  0.00    -0.200 F 
ATOM     72  C   UNL A   1      40.442  26.224  26.771  1.00  0.00     0.200 A 
ATOM     73  F   UNL A   1      41.930  27.712  25.701  1.00  0.00    -0.200 F 
ATOM     74  F   UNL A   1      40.423  25.439  25.684  1.00  0.00    -0.200 F 
ENDBRANCH  50  64
BRANCH  51  75
ATOM     75  C   UNL A   1      39.606  33.941  36.912  1.00  0.00     0.064 A 
ATOM     76  C   UNL A   1      38.819  33.519  37.993  1.00  0.00     0.173 A 
ATOM     77  C   UNL A   1      40.207  35.204  36.996  1.00  0.00     0.173 A 
ATOM     78  F   UNL A   1      38.206  32.327  37.949  1.00  0.00    -0.203 F 
ATOM     79  C   UNL A   1      38.616  34.341  39.100  1.00  0.00     0.198 A 
ATOM     80  C   UNL A   1      40.027  36.014  38.115  1.00  0.00     0.198 A 
ATOM     81  F   UNL A   1      40.973  35.652  35.990  1.00  0.00    -0.203 F 
ATOM     82  F   UNL A   1      37.815  33.936  40.094  1.00  0.00    -0.200 F 
ATOM     83  C   UNL A   1      39.223  35.586  39.161  1.00  0.00     0.200 A 
ATOM     84  F   UNL A   1      40.625  37.212  38.176  1.00  0.00    -0.200 F 
ATOM     85  F   UNL A   1      39.023  36.380  40.223  1.00  0.00    -0.200 F 
ENDBRANCH  51  75
BRANCH  63  86
ATOM     86  C   UNL A   1      43.972  28.780  35.262  1.00  0.00     0.064 A 
ATOM     87  C   UNL A   1      43.807  27.686  36.124  1.00  0.00     0.173 A 
ATOM     88  C   UNL A   1      45.272  29.266  35.058  1.00  0.00     0.173 A 
ATOM     89  F   UNL A   1      42.581  27.194  36.364  1.00  0.00    -0.203 F 
ATOM     90  C   UNL A   1      44.899  27.117  36.774  1.00  0.00     0.198 A 
ATOM     91  C   UNL A   1      46.365  28.678  35.687  1.00  0.00     0.198 A 
ATOM     92  F   UNL A   1      45.482  30.307  34.237  1.00  0.00    -0.203 F 
ATOM     93  F   UNL A   1      44.713  26.101  37.627  1.00  0.00    -0.200 F 
ATOM     94  C   UNL A   1      46.177  27.609  36.549  1.00  0.00     0.200 A 
ATOM     95  F   UNL A   1      47.599  29.146  35.460  1.00  0.00    -0.200 F 
ATOM     96  F   UNL A   1      47.227  27.055  37.170  1.00  0.00    -0.200 F 
ENDBRANCH  63  86
ENDBRANCH  37  38
ENDBRANCH  29  32
ENDBRANCH  27  28
ENDBRANCH  26  27
ENDBRANCH   1  26
TORSDOF 14
ENDMDL
MODEL 2
REMARK VINA RESULT:     -12.3      6.301     11.055
REMARK SMILES Cc1cc(NCC(=O)NCCCNC(=O)c2ccc(-c3c4nc(c(-c5c(F)c(F)c(F)c(F)c5F)c5ccc([nH]5)c(-c5c(F)c(F)c(F)c(F)c5F)c5nc(c(-c6c(F)c(F)c(F)c(F)c6F)c6ccc3[nH]6)C=C5)C=C4)cc2)c2cc(S(=O)(=O)N(C)C)ccc2n1
REMARK SMILES IDX 10 1 9 2 7 3 8 4 6 6 5 7 4 9 1 10 2 11 3 12 91 13 90 14
REMARK SMILES IDX 79 15 89 16 80 17 88 18 81 19 82 20 83 21 84 22 85 23 86 24
REMARK SMILES IDX 87 25 11 26 12 27 13 28 14 29 15 31 16 32 17 33 78 34 18 35
REMARK SMILES IDX 77 36 19 37 20 38 21 39 71 40 22 41 76 42 70 43 72 44 23 45
REMARK SMILES IDX 75 46 69 47 68 48 24 50 56 51 36 52 55 53 37 54 40 55 54 56
REMARK SMILES IDX 73 57 38 58 39 59 53 61 74 62 41 63 25 64 26 65 34 66 27 67
REMARK SMILES IDX 28 68 32 69 35 70 29 71 30 72 33 73 31 74 57 75 58 76 66 77
REMARK SMILES IDX 59 78 60 79 64 80 67 81 61 82 62 83 65 84 63 85 42 86 43 87
REMARK SMILES IDX 51 88 44 89 45 90 49 91 52 92 46 93 47 94 50 95 48 96
REMARK H PARENT 9 5 5 8 13 30 72 49 40 60
REMARK Flexibility Score: inf
ROOT
ATOM      1  C   UNL A   1      40.582  20.143  26.877  1.00  0.00     0.117 C 
ENDROOT
BRANCH   1   2
ATOM      2  N   UNL A   1      40.352  21.567  26.999  1.00  0.00    -0.355 N 
ATOM      3  C   UNL A   1      39.399  22.354  26.423  1.00  0.00     0.239 C 
ATOM      4  O   UNL A   1      39.429  23.559  26.694  1.00  0.00    -0.273 OA
ATOM      5  H   UNL A   1      40.981  22.041  27.590  1.00  0.00     0.163 HD
BRANCH   3   6
ATOM      6  C   UNL A   1      38.290  21.786  25.519  1.00  0.00     0.213 C 
BRANCH   6   7
ATOM      7  N   UNL A   1      36.966  21.826  26.127  1.00  0.00    -0.376 N 
ATOM      8  H   UNL A   1      36.956  21.501  27.056  1.00  0.00     0.161 HD
BRANCH   7   9
ATOM      9  C   UNL A   1      35.716  22.223  25.675  1.00  0.00     0.046 A 
ATOM     10  C   UNL A   1      34.099  25.649  25.296  1.00  0.00     0.067 C 
ATOM     11  C   UNL A   1      34.314  24.166  25.267  1.00  0.00     0.040 A 
ATOM     12  C   UNL A   1      35.490  23.611  25.741  1.00  0.00     0.049 A 
ATOM     13  N   UNL A   1      33.337  23.419  24.723  1.00  0.00    -0.253 NA
ATOM     14  C   UNL A   1      33.511  22.095  24.640  1.00  0.00     0.073 A 
ATOM     15  C   UNL A   1      34.677  21.426  25.099  1.00  0.00     0.025 A 
ATOM     16  C   UNL A   1      32.480  21.372  24.039  1.00  0.00     0.030 A 
ATOM     17  C   UNL A   1      34.708  20.025  24.883  1.00  0.00     0.034 A 
ATOM     18  C   UNL A   1      32.539  19.991  23.840  1.00  0.00     0.024 A 
ATOM     19  C   UNL A   1      33.676  19.323  24.247  1.00  0.00     0.083 A 
BRANCH  19  20
ATOM     20  S   UNL A   1      33.946  17.587  23.993  1.00  0.00     0.242 S 
ATOM     21  O   UNL A   1      33.650  17.321  22.597  1.00  0.00    -0.207 OA
ATOM     22  O   UNL A   1      35.249  17.304  24.548  1.00  0.00    -0.207 OA
BRANCH  20  23
ATOM     23  N   UNL A   1      32.773  16.753  24.918  1.00  0.00    -0.204 NA
ATOM     24  C   UNL A   1      33.033  15.307  25.120  1.00  0.00     0.124 C 
ATOM     25  C   UNL A   1      32.529  17.421  26.225  1.00  0.00     0.124 C 
ENDBRANCH  20  23
ENDBRANCH  19  20
ENDBRANCH   7   9
ENDBRANCH   6   7
ENDBRANCH   3   6
ENDBRANCH   1   2
BRANCH   1  26
ATOM     26  C   UNL A   1      41.554  19.796  25.754  1.00  0.00     0.042 C 
BRANCH  26  27
ATOM     27  C   UNL A   1      42.748  18.968  26.217  1.00  0.00     0.118 C 
BRANCH  27  28
ATOM     28  N   UNL A   1      43.650  18.627  25.126  1.00  0.00    -0.352 N 
ATOM     29  C   UNL A   1      44.510  19.417  24.408  1.00  0.00     0.251 C 
ATOM     30  H   UNL A   1      43.641  17.678  24.861  1.00  0.00     0.163 HD
ATOM     31  O   UNL A   1      45.072  18.958  23.417  1.00  0.00    -0.269 OA
BRANCH  29  32
ATOM     32  C   UNL A   1      44.753  20.826  24.796  1.00  0.00     0.039 A 
ATOM     33  C   UNL A   1      44.347  21.838  23.921  1.00  0.00     0.014 A 
ATOM     34  C   UNL A   1      45.407  21.156  25.986  1.00  0.00     0.014 A 
ATOM     35  C   UNL A   1      44.543  23.178  24.262  1.00  0.00     0.010 A 
ATOM     36  C   UNL A   1      45.545  22.493  26.356  1.00  0.00     0.010 A 
ATOM     37  C   UNL A   1      45.116  23.517  25.498  1.00  0.00    -0.014 A 
BRANCH  37  38
ATOM     38  C   UNL A   1      45.268  24.936  25.912  1.00  0.00     0.031 A 
ATOM     39  C   UNL A   1      46.612  25.606  25.842  1.00  0.00     0.074 A 
ATOM     40  C   UNL A   1      44.209  25.597  26.422  1.00  0.00     0.049 A 
ATOM     41  N   UNL A   1      46.962  26.803  26.243  1.00  0.00    -0.248 NA
ATOM     42  C   UNL A   1      47.716  24.820  25.268  1.00  0.00     0.031 C 
ATOM     43  C   UNL A   1      42.865  25.041  26.587  1.00  0.00     0.029 A 
ATOM     44  N   UNL A   1      44.103  26.874  26.914  1.00  0.00    -0.354 N 
ATOM     45  C   UNL A   1      48.326  26.901  25.998  1.00  0.00     0.074 A 
ATOM     46  C   UNL A   1      48.748  25.635  25.441  1.00  0.00     0.031 C 
ATOM     47  C   UNL A   1      42.068  25.974  27.132  1.00  0.00     0.029 A 
ATOM     48  C   UNL A   1      42.850  27.179  27.387  1.00  0.00     0.049 A 
ATOM     49  H   UNL A   1      44.853  27.511  26.925  1.00  0.00     0.167 HD
ATOM     50  C   UNL A   1      49.145  27.958  26.207  1.00  0.00     0.037 A 
ATOM     51  C   UNL A   1      42.388  28.300  27.975  1.00  0.00     0.037 A 
ATOM     52  C   UNL A   1      48.713  29.235  26.711  1.00  0.00     0.049 A 
ATOM     53  C   UNL A   1      43.320  29.466  28.168  1.00  0.00     0.074 A 
ATOM     54  C   UNL A   1      49.451  30.396  26.865  1.00  0.00     0.029 A 
ATOM     55  N   UNL A   1      47.426  29.518  27.142  1.00  0.00    -0.354 N 
ATOM     56  N   UNL A   1      44.587  29.574  27.855  1.00  0.00    -0.248 NA
ATOM     57  C   UNL A   1      42.753  30.670  28.792  1.00  0.00     0.031 C 
ATOM     58  C   UNL A   1      48.622  31.371  27.426  1.00  0.00     0.029 A 
ATOM     59  C   UNL A   1      47.356  30.831  27.583  1.00  0.00     0.049 A 
ATOM     60  H   UNL A   1      46.674  28.884  27.135  1.00  0.00     0.167 HD
ATOM     61  C   UNL A   1      44.960  30.863  28.212  1.00  0.00     0.074 A 
ATOM     62  C   UNL A   1      43.782  31.505  28.755  1.00  0.00     0.031 C 
ATOM     63  C   UNL A   1      46.171  31.459  28.102  1.00  0.00     0.037 A 
BRANCH  50  64
ATOM     64  C   UNL A   1      50.600  27.795  25.884  1.00  0.00     0.064 A 
ATOM     65  C   UNL A   1      51.088  27.970  24.581  1.00  0.00     0.173 A 
ATOM     66  C   UNL A   1      51.527  27.540  26.906  1.00  0.00     0.173 A 
ATOM     67  F   UNL A   1      50.241  28.207  23.569  1.00  0.00    -0.203 F 
ATOM     68  C   UNL A   1      52.452  27.885  24.312  1.00  0.00     0.198 A 
ATOM     69  C   UNL A   1      52.891  27.480  26.637  1.00  0.00     0.198 A 
ATOM     70  F   UNL A   1      51.111  27.372  28.170  1.00  0.00    -0.203 F 
ATOM     71  F   UNL A   1      52.895  28.028  23.055  1.00  0.00    -0.200 F 
ATOM     72  C   UNL A   1      53.353  27.649  25.341  1.00  0.00     0.200 A 
ATOM     73  F   UNL A   1      53.761  27.265  27.634  1.00  0.00    -0.200 F 
ATOM     74  F   UNL A   1      54.666  27.585  25.081  1.00  0.00    -0.200 F 
ENDBRANCH  50  64
BRANCH  51  75
ATOM     75  C   UNL A   1      40.973  28.384  28.417  1.00  0.00     0.064 A 
ATOM     76  C   UNL A   1      39.986  28.913  27.572  1.00  0.00     0.173 A 
ATOM     77  C   UNL A   1      40.583  27.973  29.699  1.00  0.00     0.173 A 
ATOM     78  F   UNL A   1      40.315  29.341  26.345  1.00  0.00    -0.203 F 
ATOM     79  C   UNL A   1      38.669  29.055  28.005  1.00  0.00     0.198 A 
ATOM     80  C   UNL A   1      39.260  28.089  30.121  1.00  0.00     0.198 A 
ATOM     81  F   UNL A   1      41.488  27.456  30.543  1.00  0.00    -0.203 F 
ATOM     82  F   UNL A   1      37.758  29.615  27.198  1.00  0.00    -0.200 F 
ATOM     83  C   UNL A   1      38.307  28.640  29.278  1.00  0.00     0.200 A 
ATOM     84  F   UNL A   1      38.911  27.676  31.347  1.00  0.00    -0.200 F 
ATOM     85  F   UNL A   1      37.041  28.782  29.696  1.00  0.00    -0.200 F 
ENDBRANCH  51  75
BRANCH  63  86
ATOM     86  C   UNL A   1      46.274  32.891  28.537  1.00  0.00     0.064 A 
ATOM     87  C   UNL A   1      46.636  33.236  29.848  1.00  0.00     0.173 A 
ATOM     88  C   UNL A   1      46.048  33.929  27.622  1.00  0.00     0.173 A 
ATOM     89  F   UNL A   1      46.847  32.278  30.764  1.00  0.00    -0.203 F 
ATOM     90  C   UNL A   1      46.744  34.570  30.231  1.00  0.00     0.198 A 
ATOM     91  C   UNL A   1      46.184  35.261  28.001  1.00  0.00     0.198 A 
ATOM     92  F   UNL A   1      45.706  33.650  26.355  1.00  0.00    -0.203 F 
ATOM     93  F   UNL A   1      47.047  34.877  31.500  1.00  0.00    -0.200 F 
ATOM     94  C   UNL A   1      46.525  35.580  29.306  1.00  0.00     0.200 A 
ATOM     95  F   UNL A   1      45.985  36.236  27.104  1.00  0.00    -0.200 F 
ATOM     96  F   UNL A   1      46.637  36.863  29.676  1.00  0.00    -0.200 F 
ENDBRANCH  63  86
ENDBRANCH  37  38
ENDBRANCH  29  32
ENDBRANCH  27  28
ENDBRANCH  26  27
ENDBRANCH   1  26
TORSDOF 14
ENDMDL
MODEL 3
REMARK VINA RESULT:     -12.3      5.525     11.216
REMARK SMILES Cc1cc(NCC(=O)NCCCNC(=O)c2ccc(-c3c4nc(c(-c5c(F)c(F)c(F)c(F)c5F)c5ccc([nH]5)c(-c5c(F)c(F)c(F)c(F)c5F)c5nc(c(-c6c(F)c(F)c(F)c(F)c6F)c6ccc3[nH]6)C=C5)C=C4)cc2)c2cc(S(=O)(=O)N(C)C)ccc2n1
REMARK SMILES IDX 10 1 9 2 7 3 8 4 6 6 5 7 4 9 1 10 2 11 3 12 91 13 90 14
REMARK SMILES IDX 79 15 89 16 80 17 88 18 81 19 82 20 83 21 84 22 85 23 86 24
REMARK SMILES IDX 87 25 11 26 12 27 13 28 14 29 15 31 16 32 17 33 78 34 18 35
REMARK SMILES IDX 77 36 19 37 20 38 21 39 71 40 22 41 76 42 70 43 72 44 23 45
REMARK SMILES IDX 75 46 69 47 68 48 24 50 56 51 36 52 55 53 37 54 40 55 54 56
REMARK SMILES IDX 73 57 38 58 39 59 53 61 74 62 41 63 25 64 26 65 34 66 27 67
REMARK SMILES IDX 28 68 32 69 35 70 29 71 30 72 33 73 31 74 57 75 58 76 66 77
REMARK SMILES IDX 59 78 60 79 64 80 67 81 61 82 62 83 65 84 63 85 42 86 43 87
REMARK SMILES IDX 51 88 44 89 45 90 49 91 52 92 46 93 47 94 50 95 48 96
REMARK H PARENT 9 5 5 8 13 30 72 49 40 60
REMARK Flexibility Score: inf
ROOT
ATOM      1  C   UNL A   1      36.745  20.247  25.007  1.00  0.00     0.117 C 
ENDROOT
BRANCH   1   2
ATOM      2  N   UNL A   1      36.842  21.592  25.535  1.00  0.00    -0.355 N 
ATOM      3  C   UNL A   1      36.631  22.792  24.922  1.00  0.00     0.239 C 
ATOM      4  O   UNL A   1      36.789  23.807  25.609  1.00  0.00    -0.273 OA
ATOM      5  H   UNL A   1      37.100  21.649  26.483  1.00  0.00     0.163 HD
BRANCH   3   6
ATOM      6  C   UNL A   1      36.161  22.905  23.460  1.00  0.00     0.213 C 
BRANCH   6   7
ATOM      7  N   UNL A   1      34.719  23.064  23.323  1.00  0.00    -0.376 N 
ATOM      8  H   UNL A   1      34.464  23.679  22.598  1.00  0.00     0.161 HD
BRANCH   7   9
ATOM      9  C   UNL A   1      33.628  22.534  23.996  1.00  0.00     0.046 A 
ATOM     10  C   UNL A   1      32.544  18.953  24.702  1.00  0.00     0.067 C 
ATOM     11  C   UNL A   1      32.574  20.452  24.674  1.00  0.00     0.040 A 
ATOM     12  C   UNL A   1      33.569  21.128  23.989  1.00  0.00     0.049 A 
ATOM     13  N   UNL A   1      31.624  21.094  25.376  1.00  0.00    -0.253 NA
ATOM     14  C   UNL A   1      31.643  22.431  25.410  1.00  0.00     0.073 A 
ATOM     15  C   UNL A   1      32.616  23.220  24.741  1.00  0.00     0.025 A 
ATOM     16  C   UNL A   1      30.653  23.044  26.178  1.00  0.00     0.030 A 
ATOM     17  C   UNL A   1      32.510  24.620  24.931  1.00  0.00     0.034 A 
ATOM     18  C   UNL A   1      30.573  24.429  26.346  1.00  0.00     0.024 A 
ATOM     19  C   UNL A   1      31.527  25.215  25.733  1.00  0.00     0.083 A 
BRANCH  19  20
ATOM     20  S   UNL A   1      31.619  26.978  25.913  1.00  0.00     0.242 S 
ATOM     21  O   UNL A   1      30.921  27.548  24.774  1.00  0.00    -0.207 OA
ATOM     22  O   UNL A   1      31.196  27.260  27.265  1.00  0.00    -0.207 OA
BRANCH  20  23
ATOM     23  N   UNL A   1      33.264  27.417  25.759  1.00  0.00    -0.204 NA
ATOM     24  C   UNL A   1      33.643  28.017  24.457  1.00  0.00     0.124 C 
ATOM     25  C   UNL A   1      33.705  28.294  26.878  1.00  0.00     0.124 C 
ENDBRANCH  20  23
ENDBRANCH  19  20
ENDBRANCH   7   9
ENDBRANCH   6   7
ENDBRANCH   3   6
ENDBRANCH   1   2
BRANCH   1  26
ATOM     26  C   UNL A   1      38.108  19.610  24.761  1.00  0.00     0.042 C 
BRANCH  26  27
ATOM     27  C   UNL A   1      39.159  20.006  25.795  1.00  0.00     0.118 C 
BRANCH  27  28
ATOM     28  N   UNL A   1      40.231  19.027  25.905  1.00  0.00    -0.352 N 
ATOM     29  C   UNL A   1      41.576  19.206  26.108  1.00  0.00     0.251 C 
ATOM     30  H   UNL A   1      39.947  18.088  25.821  1.00  0.00     0.163 HD
ATOM     31  O   UNL A   1      42.336  18.246  26.014  1.00  0.00    -0.269 OA
BRANCH  29  32
ATOM     32  C   UNL A   1      42.128  20.545  26.415  1.00  0.00     0.039 A 
ATOM     33  C   UNL A   1      42.553  21.350  25.353  1.00  0.00     0.014 A 
ATOM     34  C   UNL A   1      42.267  20.998  27.729  1.00  0.00     0.014 A 
ATOM     35  C   UNL A   1      43.062  22.627  25.602  1.00  0.00     0.010 A 
ATOM     36  C   UNL A   1      42.714  22.296  27.975  1.00  0.00     0.010 A 
ATOM     37  C   UNL A   1      43.117  23.122  26.915  1.00  0.00    -0.014 A 
BRANCH  37  38
ATOM     38  C   UNL A   1      43.587  24.502  27.197  1.00  0.00     0.031 A 
ATOM     39  C   UNL A   1      42.626  25.542  27.702  1.00  0.00     0.074 A 
ATOM     40  C   UNL A   1      44.865  24.838  26.926  1.00  0.00     0.049 A 
ATOM     41  N   UNL A   1      42.826  26.819  27.917  1.00  0.00    -0.248 NA
ATOM     42  C   UNL A   1      41.251  25.097  27.979  1.00  0.00     0.031 C 
ATOM     43  C   UNL A   1      45.881  23.933  26.387  1.00  0.00     0.029 A 
ATOM     44  N   UNL A   1      45.521  26.038  27.047  1.00  0.00    -0.354 N 
ATOM     45  C   UNL A   1      41.601  27.331  28.324  1.00  0.00     0.074 A 
ATOM     46  C   UNL A   1      40.655  26.237  28.299  1.00  0.00     0.031 C 
ATOM     47  C   UNL A   1      47.033  24.605  26.234  1.00  0.00     0.029 A 
ATOM     48  C   UNL A   1      46.829  25.995  26.629  1.00  0.00     0.049 A 
ATOM     49  H   UNL A   1      45.095  26.852  27.401  1.00  0.00     0.167 HD
ATOM     50  C   UNL A   1      41.299  28.597  28.698  1.00  0.00     0.037 A 
ATOM     51  C   UNL A   1      47.754  26.971  26.558  1.00  0.00     0.037 A 
ATOM     52  C   UNL A   1      42.253  29.671  28.774  1.00  0.00     0.049 A 
ATOM     53  C   UNL A   1      47.393  28.362  27.007  1.00  0.00     0.074 A 
ATOM     54  C   UNL A   1      42.061  30.963  29.234  1.00  0.00     0.029 A 
ATOM     55  N   UNL A   1      43.578  29.579  28.380  1.00  0.00    -0.354 N 
ATOM     56  N   UNL A   1      46.253  28.812  27.469  1.00  0.00    -0.248 NA
ATOM     57  C   UNL A   1      48.451  29.378  26.929  1.00  0.00     0.031 C 
ATOM     58  C   UNL A   1      43.261  31.665  29.082  1.00  0.00     0.029 A 
ATOM     59  C   UNL A   1      44.211  30.798  28.566  1.00  0.00     0.049 A 
ATOM     60  H   UNL A   1      44.008  28.769  28.023  1.00  0.00     0.167 HD
ATOM     61  C   UNL A   1      46.464  30.152  27.766  1.00  0.00     0.074 A 
ATOM     62  C   UNL A   1      47.846  30.440  27.445  1.00  0.00     0.031 C 
ATOM     63  C   UNL A   1      45.591  31.062  28.259  1.00  0.00     0.037 A 
BRANCH  50  64
ATOM     64  C   UNL A   1      39.878  28.902  29.068  1.00  0.00     0.064 A 
ATOM     65  C   UNL A   1      38.944  29.325  28.112  1.00  0.00     0.173 A 
ATOM     66  C   UNL A   1      39.428  28.690  30.380  1.00  0.00     0.173 A 
ATOM     67  F   UNL A   1      39.327  29.550  26.846  1.00  0.00    -0.203 F 
ATOM     68  C   UNL A   1      37.612  29.536  28.459  1.00  0.00     0.198 A 
ATOM     69  C   UNL A   1      38.091  28.879  30.718  1.00  0.00     0.198 A 
ATOM     70  F   UNL A   1      40.281  28.278  31.329  1.00  0.00    -0.203 F 
ATOM     71  F   UNL A   1      36.741  29.967  27.536  1.00  0.00    -0.200 F 
ATOM     72  C   UNL A   1      37.185  29.304  29.758  1.00  0.00     0.200 A 
ATOM     73  F   UNL A   1      37.677  28.642  31.970  1.00  0.00    -0.200 F 
ATOM     74  F   UNL A   1      35.898  29.492  30.085  1.00  0.00    -0.200 F 
ENDBRANCH  50  64
BRANCH  51  75
ATOM     75  C   UNL A   1      49.119  26.673  26.052  1.00  0.00     0.064 A 
ATOM     76  C   UNL A   1      49.455  26.911  24.711  1.00  0.00     0.173 A 
ATOM     77  C   UNL A   1      50.100  26.116  26.882  1.00  0.00     0.173 A 
ATOM     78  F   UNL A   1      48.543  27.423  23.873  1.00  0.00    -0.203 F 
ATOM     79  C   UNL A   1      50.713  26.573  24.214  1.00  0.00     0.198 A 
ATOM     80  C   UNL A   1      51.366  25.804  26.392  1.00  0.00     0.198 A 
ATOM     81  F   UNL A   1      49.829  25.873  28.174  1.00  0.00    -0.203 F 
ATOM     82  F   UNL A   1      50.989  26.758  22.917  1.00  0.00    -0.200 F 
ATOM     83  C   UNL A   1      51.668  26.023  25.056  1.00  0.00     0.200 A 
ATOM     84  F   UNL A   1      52.291  25.284  27.210  1.00  0.00    -0.200 F 
ATOM     85  F   UNL A   1      52.875  25.693  24.576  1.00  0.00    -0.200 F 
ENDBRANCH  51  75
BRANCH  63  86
ATOM     86  C   UNL A   1      46.113  32.443  28.523  1.00  0.00     0.064 A 
ATOM     87  C   UNL A   1      46.042  33.453  27.552  1.00  0.00     0.173 A 
ATOM     88  C   UNL A   1      46.654  32.771  29.774  1.00  0.00     0.173 A 
ATOM     89  F   UNL A   1      45.547  33.184  26.334  1.00  0.00    -0.203 F 
ATOM     90  C   UNL A   1      46.515  34.734  27.819  1.00  0.00     0.198 A 
ATOM     91  C   UNL A   1      47.101  34.060  30.047  1.00  0.00     0.198 A 
ATOM     92  F   UNL A   1      46.739  31.841  30.738  1.00  0.00    -0.203 F 
ATOM     93  F   UNL A   1      46.478  35.672  26.862  1.00  0.00    -0.200 F 
ATOM     94  C   UNL A   1      47.037  35.038  29.068  1.00  0.00     0.200 A 
ATOM     95  F   UNL A   1      47.595  34.356  31.257  1.00  0.00    -0.200 F 
ATOM     96  F   UNL A   1      47.486  36.275  29.323  1.00  0.00    -0.200 F 
ENDBRANCH  63  86
ENDBRANCH  37  38
ENDBRANCH  29  32
ENDBRANCH  27  28
ENDBRANCH  26  27
ENDBRANCH   1  26
TORSDOF 14
ENDMDL
