MODEL 1
REMARK VINA RESULT:     -12.7      0.000      0.000
REMARK SMILES N#C/C(=C\c1ccc(Oc2ccccc2Cl)c([N+](=O)[O-])c1)C(=O)NCCCNC(=O)c1ccc(-c2c3nc(c(-c4c(F)c(F)c(F)c(F)c4F)c4ccc([nH]4)c(-c4c(F)c(F)c(F)c(F)c4F)c4nc(c(-c5c(F)c(F)c(F)c(F)c5F)c5ccc2[nH]5)C=C4)C=C3)cc1
REMARK SMILES IDX 25 1 24 2 22 3 23 4 3 6 4 7 2 8 1 9 5 10 6 11 21 12 7 13
REMARK SMILES IDX 17 14 8 15 18 16 19 17 20 18 9 19 10 20 11 21 15 22 12 23
REMARK SMILES IDX 14 24 16 25 13 26 26 27 27 28 28 29 29 30 30 32 31 33 32 34
REMARK SMILES IDX 93 35 33 36 92 37 34 38 35 39 36 40 86 41 37 42 91 43 85 44
REMARK SMILES IDX 87 45 38 46 90 47 84 48 83 49 39 51 71 52 51 53 70 54 52 55
REMARK SMILES IDX 55 56 69 57 88 58 53 59 54 60 68 62 89 63 56 64 40 65 41 66
REMARK SMILES IDX 49 67 42 68 43 69 47 70 50 71 44 72 45 73 48 74 46 75 72 76
REMARK SMILES IDX 73 77 81 78 74 79 75 80 79 81 82 82 76 83 77 84 80 85 78 86
REMARK SMILES IDX 57 87 58 88 66 89 59 90 60 91 64 92 67 93 61 94 62 95 65 96
REMARK SMILES IDX 63 97
REMARK H PARENT 24 5 28 31 87 50 55 61
REMARK Flexibility Score: inf
ROOT
ATOM      1  C   UNL A   1      31.404  30.869  26.019  1.00  0.00     0.118 C 
ENDROOT
BRANCH   1   2
ATOM      2  N   UNL A   1      30.765  30.667  24.731  1.00  0.00    -0.351 N 
ATOM      3  C   UNL A   1      30.599  29.567  23.946  1.00  0.00     0.261 C 
ATOM      4  O   UNL A   1      29.939  29.711  22.917  1.00  0.00    -0.268 OA
ATOM      5  H   UNL A   1      30.374  31.487  24.352  1.00  0.00     0.163 HD
BRANCH   3   6
ATOM      6  C   UNL A   1      31.160  28.231  24.283  1.00  0.00     0.117 C 
ATOM      7  C   UNL A   1      32.469  27.901  24.413  1.00  0.00     0.033 C 
BRANCH   6   8
ATOM      8  C   UNL A   1      30.200  27.053  24.253  1.00  0.00     0.105 C 
ATOM      9  N   UNL A   1      29.404  26.075  24.228  1.00  0.00    -0.192 NA
ENDBRANCH   6   8
BRANCH   7  10
ATOM     10  C   UNL A   1      32.991  26.540  24.689  1.00  0.00    -0.017 A 
ATOM     11  C   UNL A   1      32.999  26.060  26.002  1.00  0.00     0.012 A 
ATOM     12  C   UNL A   1      33.437  25.689  23.673  1.00  0.00     0.098 A 
ATOM     13  C   UNL A   1      33.411  24.747  26.279  1.00  0.00     0.055 A 
ATOM     14  C   UNL A   1      33.761  24.348  23.951  1.00  0.00     0.312 A 
ATOM     15  C   UNL A   1      33.794  23.861  25.259  1.00  0.00     0.204 A 
BRANCH  14  16
ATOM     16  N   UNL A   1      33.918  23.503  22.785  1.00  0.00     0.066 N 
ATOM     17  O   UNL A   1      32.886  23.081  22.250  1.00  0.00    -0.258 OA
ATOM     18  O   UNL A   1      35.074  23.328  22.373  1.00  0.00    -0.258 OA
ENDBRANCH  14  16
BRANCH  15  19
ATOM     19  O   UNL A   1      34.134  22.617  25.744  1.00  0.00    -0.449 OA
BRANCH  19  20
ATOM     20  C   UNL A   1      35.394  22.104  25.563  1.00  0.00     0.146 A 
ATOM     21  C   UNL A   1      36.451  22.984  25.823  1.00  0.00     0.049 A 
ATOM     22  C   UNL A   1      35.660  20.814  25.092  1.00  0.00     0.083 A 
ATOM     23  C   UNL A   1      37.770  22.546  25.712  1.00  0.00     0.004 A 
ATOM     24  C   UNL A   1      36.983  20.371  25.003  1.00  0.00     0.024 A 
ATOM     25  Cl  UNL A   1      34.400  19.731  24.627  1.00  0.00    -0.080 Cl
ATOM     26  C   UNL A   1      38.036  21.233  25.324  1.00  0.00     0.002 A 
ENDBRANCH  19  20
ENDBRANCH  15  19
ENDBRANCH   7  10
ENDBRANCH   3   6
ENDBRANCH   1   2
BRANCH   1  27
ATOM     27  C   UNL A   1      31.313  32.328  26.473  1.00  0.00     0.042 C 
BRANCH  27  28
ATOM     28  C   UNL A   1      32.572  32.828  27.174  1.00  0.00     0.118 C 
BRANCH  28  29
ATOM     29  N   UNL A   1      32.429  34.203  27.626  1.00  0.00    -0.352 N 
ATOM     30  C   UNL A   1      33.032  34.857  28.669  1.00  0.00     0.251 C 
ATOM     31  H   UNL A   1      31.800  34.749  27.101  1.00  0.00     0.163 HD
ATOM     32  O   UNL A   1      32.601  35.952  29.021  1.00  0.00    -0.269 OA
BRANCH  30  33
ATOM     33  C   UNL A   1      34.188  34.263  29.376  1.00  0.00     0.039 A 
ATOM     34  C   UNL A   1      35.476  34.538  28.903  1.00  0.00     0.014 A 
ATOM     35  C   UNL A   1      34.013  33.387  30.450  1.00  0.00     0.014 A 
ATOM     36  C   UNL A   1      36.586  33.965  29.527  1.00  0.00     0.010 A 
ATOM     37  C   UNL A   1      35.123  32.868  31.113  1.00  0.00     0.010 A 
ATOM     38  C   UNL A   1      36.419  33.141  30.649  1.00  0.00    -0.014 A 
BRANCH  38  39
ATOM     39  C   UNL A   1      37.581  32.527  31.337  1.00  0.00     0.031 A 
ATOM     40  C   UNL A   1      38.305  31.373  30.698  1.00  0.00     0.074 A 
ATOM     41  C   UNL A   1      37.937  32.957  32.561  1.00  0.00     0.049 A 
ATOM     42  N   UNL A   1      39.265  30.626  31.182  1.00  0.00    -0.248 NA
ATOM     43  C   UNL A   1      37.870  30.991  29.345  1.00  0.00     0.031 C 
ATOM     44  C   UNL A   1      37.289  34.043  33.296  1.00  0.00     0.029 A 
ATOM     45  N   UNL A   1      38.922  32.519  33.411  1.00  0.00    -0.354 N 
ATOM     46  C   UNL A   1      39.529  29.674  30.207  1.00  0.00     0.074 A 
ATOM     47  C   UNL A   1      38.603  29.910  29.121  1.00  0.00     0.031 C 
ATOM     48  C   UNL A   1      37.900  34.195  34.482  1.00  0.00     0.029 A 
ATOM     49  C   UNL A   1      38.956  33.195  34.606  1.00  0.00     0.049 A 
ATOM     50  H   UNL A   1      39.544  31.791  33.186  1.00  0.00     0.167 HD
ATOM     51  C   UNL A   1      40.474  28.702  30.209  1.00  0.00     0.037 A 
ATOM     52  C   UNL A   1      39.743  33.017  35.683  1.00  0.00     0.037 A 
ATOM     53  C   UNL A   1      41.417  28.495  31.276  1.00  0.00     0.049 A 
ATOM     54  C   UNL A   1      40.790  31.938  35.658  1.00  0.00     0.074 A 
ATOM     55  C   UNL A   1      42.450  27.577  31.352  1.00  0.00     0.029 A 
ATOM     56  N   UNL A   1      41.441  29.222  32.458  1.00  0.00    -0.354 N 
ATOM     57  N   UNL A   1      41.066  31.076  34.709  1.00  0.00    -0.248 NA
ATOM     58  C   UNL A   1      41.640  31.811  36.850  1.00  0.00     0.031 C 
ATOM     59  C   UNL A   1      43.078  27.726  32.592  1.00  0.00     0.029 A 
ATOM     60  C   UNL A   1      42.464  28.765  33.273  1.00  0.00     0.049 A 
ATOM     61  H   UNL A   1      40.825  29.956  32.683  1.00  0.00     0.167 HD
ATOM     62  C   UNL A   1      42.136  30.325  35.175  1.00  0.00     0.074 A 
ATOM     63  C   UNL A   1      42.466  30.840  36.488  1.00  0.00     0.031 C 
ATOM     64  C   UNL A   1      42.785  29.300  34.571  1.00  0.00     0.037 A 
BRANCH  51  65
ATOM     65  C   UNL A   1      40.533  27.789  29.020  1.00  0.00     0.064 A 
ATOM     66  C   UNL A   1      41.391  28.042  27.939  1.00  0.00     0.173 A 
ATOM     67  C   UNL A   1      39.742  26.631  28.971  1.00  0.00     0.173 A 
ATOM     68  F   UNL A   1      42.159  29.142  27.931  1.00  0.00    -0.203 F 
ATOM     69  C   UNL A   1      41.434  27.186  26.842  1.00  0.00     0.198 A 
ATOM     70  C   UNL A   1      39.809  25.761  27.885  1.00  0.00     0.198 A 
ATOM     71  F   UNL A   1      38.908  26.338  29.980  1.00  0.00    -0.203 F 
ATOM     72  F   UNL A   1      42.225  27.476  25.799  1.00  0.00    -0.200 F 
ATOM     73  C   UNL A   1      40.648  26.044  26.818  1.00  0.00     0.200 A 
ATOM     74  F   UNL A   1      39.058  24.652  27.869  1.00  0.00    -0.200 F 
ATOM     75  F   UNL A   1      40.694  25.220  25.762  1.00  0.00    -0.200 F 
ENDBRANCH  51  65
BRANCH  52  76
ATOM     76  C   UNL A   1      39.585  33.900  36.867  1.00  0.00     0.064 A 
ATOM     77  C   UNL A   1      38.785  33.511  37.950  1.00  0.00     0.173 A 
ATOM     78  C   UNL A   1      40.230  35.143  36.945  1.00  0.00     0.173 A 
ATOM     79  F   UNL A   1      38.133  32.339  37.914  1.00  0.00    -0.203 F 
ATOM     80  C   UNL A   1      38.622  34.338  39.059  1.00  0.00     0.198 A 
ATOM     81  C   UNL A   1      40.087  35.958  38.065  1.00  0.00     0.198 A 
ATOM     82  F   UNL A   1      41.012  35.558  35.937  1.00  0.00    -0.203 F 
ATOM     83  F   UNL A   1      37.820  33.959  40.063  1.00  0.00    -0.200 F 
ATOM     84  C   UNL A   1      39.278  35.559  39.118  1.00  0.00     0.200 A 
ATOM     85  F   UNL A   1      40.734  37.130  38.126  1.00  0.00    -0.200 F 
ATOM     86  F   UNL A   1      39.125  36.352  40.188  1.00  0.00    -0.200 F 
ENDBRANCH  52  76
BRANCH  64  87
ATOM     87  C   UNL A   1      43.945  28.695  35.306  1.00  0.00     0.064 A 
ATOM     88  C   UNL A   1      43.781  27.597  36.161  1.00  0.00     0.173 A 
ATOM     89  C   UNL A   1      45.242  29.194  35.114  1.00  0.00     0.173 A 
ATOM     90  F   UNL A   1      42.558  27.095  36.388  1.00  0.00    -0.203 F 
ATOM     91  C   UNL A   1      44.872  27.034  36.817  1.00  0.00     0.198 A 
ATOM     92  C   UNL A   1      46.334  28.611  35.750  1.00  0.00     0.198 A 
ATOM     93  F   UNL A   1      45.451  30.240  34.300  1.00  0.00    -0.203 F 
ATOM     94  F   UNL A   1      44.687  26.011  37.664  1.00  0.00    -0.200 F 
ATOM     95  C   UNL A   1      46.148  27.535  36.605  1.00  0.00     0.200 A 
ATOM     96  F   UNL A   1      47.567  29.090  35.535  1.00  0.00    -0.200 F 
ATOM     97  F   UNL A   1      47.198  26.986  37.231  1.00  0.00    -0.200 F 
ENDBRANCH  64  87
ENDBRANCH  38  39
ENDBRANCH  30  33
ENDBRANCH  28  29
ENDBRANCH  27  28
ENDBRANCH   1  27
TORSDOF 15
ENDMDL
MODEL 2
REMARK VINA RESULT:     -12.6      0.269      1.924
REMARK SMILES N#C/C(=C\c1ccc(Oc2ccccc2Cl)c([N+](=O)[O-])c1)C(=O)NCCCNC(=O)c1ccc(-c2c3nc(c(-c4c(F)c(F)c(F)c(F)c4F)c4ccc([nH]4)c(-c4c(F)c(F)c(F)c(F)c4F)c4nc(c(-c5c(F)c(F)c(F)c(F)c5F)c5ccc2[nH]5)C=C4)C=C3)cc1
REMARK SMILES IDX 25 1 24 2 22 3 23 4 3 6 4 7 2 8 1 9 5 10 6 11 21 12 7 13
REMARK SMILES IDX 17 14 8 15 18 16 19 17 20 18 9 19 10 20 11 21 15 22 12 23
REMARK SMILES IDX 14 24 16 25 13 26 26 27 27 28 28 29 29 30 30 32 31 33 32 34
REMARK SMILES IDX 93 35 33 36 92 37 34 38 35 39 36 40 86 41 37 42 91 43 85 44
REMARK SMILES IDX 87 45 38 46 90 47 84 48 83 49 39 51 71 52 51 53 70 54 52 55
REMARK SMILES IDX 55 56 69 57 88 58 53 59 54 60 68 62 89 63 56 64 40 65 41 66
REMARK SMILES IDX 49 67 42 68 43 69 47 70 50 71 44 72 45 73 48 74 46 75 72 76
REMARK SMILES IDX 73 77 81 78 74 79 75 80 79 81 82 82 76 83 77 84 80 85 78 86
REMARK SMILES IDX 57 87 58 88 66 89 59 90 60 91 64 92 67 93 61 94 62 95 65 96
REMARK SMILES IDX 63 97
REMARK H PARENT 24 5 28 31 87 50 55 61
REMARK Flexibility Score: inf
ROOT
ATOM      1  C   UNL A   1      31.273  30.870  25.993  1.00  0.00     0.118 C 
ENDROOT
BRANCH   1   2
ATOM      2  N   UNL A   1      30.744  30.668  24.657  1.00  0.00    -0.351 N 
ATOM      3  C   UNL A   1      30.671  29.576  23.849  1.00  0.00     0.261 C 
ATOM      4  O   UNL A   1      30.092  29.716  22.771  1.00  0.00    -0.268 OA
ATOM      5  H   UNL A   1      30.362  31.483  24.257  1.00  0.00     0.163 HD
BRANCH   3   6
ATOM      6  C   UNL A   1      31.240  28.250  24.214  1.00  0.00     0.117 C 
ATOM      7  C   UNL A   1      32.551  27.919  24.306  1.00  0.00     0.033 C 
BRANCH   6   8
ATOM      8  C   UNL A   1      30.275  27.076  24.264  1.00  0.00     0.105 C 
ATOM      9  N   UNL A   1      29.475  26.103  24.306  1.00  0.00    -0.192 NA
ENDBRANCH   6   8
BRANCH   7  10
ATOM     10  C   UNL A   1      33.079  26.566  24.613  1.00  0.00    -0.017 A 
ATOM     11  C   UNL A   1      33.103  26.122  25.938  1.00  0.00     0.012 A 
ATOM     12  C   UNL A   1      33.515  25.689  23.615  1.00  0.00     0.098 A 
ATOM     13  C   UNL A   1      33.521  24.818  26.246  1.00  0.00     0.055 A 
ATOM     14  C   UNL A   1      33.844  24.356  23.926  1.00  0.00     0.312 A 
ATOM     15  C   UNL A   1      33.893  23.905  25.246  1.00  0.00     0.204 A 
BRANCH  14  16
ATOM     16  N   UNL A   1      33.990  23.481  22.781  1.00  0.00     0.066 N 
ATOM     17  O   UNL A   1      32.952  23.098  22.226  1.00  0.00    -0.258 OA
ATOM     18  O   UNL A   1      35.146  23.240  22.404  1.00  0.00    -0.258 OA
ENDBRANCH  14  16
BRANCH  15  19
ATOM     19  O   UNL A   1      34.241  22.675  25.761  1.00  0.00    -0.449 OA
BRANCH  19  20
ATOM     20  C   UNL A   1      35.496  22.155  25.569  1.00  0.00     0.146 A 
ATOM     21  C   UNL A   1      36.560  23.038  25.786  1.00  0.00     0.049 A 
ATOM     22  C   UNL A   1      35.750  20.851  25.128  1.00  0.00     0.083 A 
ATOM     23  C   UNL A   1      37.875  22.593  25.662  1.00  0.00     0.004 A 
ATOM     24  C   UNL A   1      37.070  20.403  25.025  1.00  0.00     0.024 A 
ATOM     25  Cl  UNL A   1      34.479  19.760  24.715  1.00  0.00    -0.080 Cl
ATOM     26  C   UNL A   1      38.131  21.270  25.303  1.00  0.00     0.002 A 
ENDBRANCH  19  20
ENDBRANCH  15  19
ENDBRANCH   7  10
ENDBRANCH   3   6
ENDBRANCH   1   2
BRANCH   1  27
ATOM     27  C   UNL A   1      31.221  32.343  26.407  1.00  0.00     0.042 C 
BRANCH  27  28
ATOM     28  C   UNL A   1      32.442  32.797  27.200  1.00  0.00     0.118 C 
BRANCH  28  29
ATOM     29  N   UNL A   1      32.342  34.193  27.594  1.00  0.00    -0.352 N 
ATOM     30  C   UNL A   1      32.998  34.882  28.581  1.00  0.00     0.251 C 
ATOM     31  H   UNL A   1      31.701  34.727  27.071  1.00  0.00     0.163 HD
ATOM     32  O   UNL A   1      32.602  35.999  28.900  1.00  0.00    -0.269 OA
BRANCH  30  33
ATOM     33  C   UNL A   1      34.172  34.298  29.267  1.00  0.00     0.039 A 
ATOM     34  C   UNL A   1      35.446  34.546  28.743  1.00  0.00     0.014 A 
ATOM     35  C   UNL A   1      34.026  33.456  30.372  1.00  0.00     0.014 A 
ATOM     36  C   UNL A   1      36.571  33.982  29.347  1.00  0.00     0.010 A 
ATOM     37  C   UNL A   1      35.153  32.946  31.013  1.00  0.00     0.010 A 
ATOM     38  C   UNL A   1      36.435  33.193  30.498  1.00  0.00    -0.014 A 
BRANCH  38  39
ATOM     39  C   UNL A   1      37.614  32.588  31.165  1.00  0.00     0.031 A 
ATOM     40  C   UNL A   1      38.364  31.471  30.492  1.00  0.00     0.074 A 
ATOM     41  C   UNL A   1      37.964  32.992  32.400  1.00  0.00     0.049 A 
ATOM     42  N   UNL A   1      39.344  30.734  30.952  1.00  0.00    -0.248 NA
ATOM     43  C   UNL A   1      37.934  31.117  29.130  1.00  0.00     0.031 C 
ATOM     44  C   UNL A   1      37.292  34.041  33.167  1.00  0.00     0.029 A 
ATOM     45  N   UNL A   1      38.962  32.555  33.234  1.00  0.00    -0.354 N 
ATOM     46  C   UNL A   1      39.628  29.817  29.949  1.00  0.00     0.074 A 
ATOM     47  C   UNL A   1      38.692  30.060  28.874  1.00  0.00     0.031 C 
ATOM     48  C   UNL A   1      37.903  34.175  34.355  1.00  0.00     0.029 A 
ATOM     49  C   UNL A   1      38.984  33.197  34.448  1.00  0.00     0.049 A 
ATOM     50  H   UNL A   1      39.601  31.849  32.987  1.00  0.00     0.167 HD
ATOM     51  C   UNL A   1      40.595  28.868  29.922  1.00  0.00     0.037 A 
ATOM     52  C   UNL A   1      39.779  33.009  35.518  1.00  0.00     0.037 A 
ATOM     53  C   UNL A   1      41.547  28.655  30.980  1.00  0.00     0.049 A 
ATOM     54  C   UNL A   1      40.852  31.957  35.458  1.00  0.00     0.074 A 
ATOM     55  C   UNL A   1      42.602  27.761  31.027  1.00  0.00     0.029 A 
ATOM     56  N   UNL A   1      41.558  29.349  32.182  1.00  0.00    -0.354 N 
ATOM     57  N   UNL A   1      41.145  31.129  34.485  1.00  0.00    -0.248 NA
ATOM     58  C   UNL A   1      41.708  31.817  36.644  1.00  0.00     0.031 C 
ATOM     59  C   UNL A   1      43.231  27.890  32.269  1.00  0.00     0.029 A 
ATOM     60  C   UNL A   1      42.594  28.894  32.981  1.00  0.00     0.049 A 
ATOM     61  H   UNL A   1      40.924  30.061  32.430  1.00  0.00     0.167 HD
ATOM     62  C   UNL A   1      42.235  30.391  34.927  1.00  0.00     0.074 A 
ATOM     63  C   UNL A   1      42.557  30.877  36.252  1.00  0.00     0.031 C 
ATOM     64  C   UNL A   1      42.907  29.400  34.293  1.00  0.00     0.037 A 
BRANCH  51  65
ATOM     65  C   UNL A   1      40.673  27.991  28.707  1.00  0.00     0.064 A 
ATOM     66  C   UNL A   1      39.977  26.775  28.632  1.00  0.00     0.173 A 
ATOM     67  C   UNL A   1      41.429  28.383  27.592  1.00  0.00     0.173 A 
ATOM     68  F   UNL A   1      39.250  26.348  29.675  1.00  0.00    -0.203 F 
ATOM     69  C   UNL A   1      40.059  25.971  27.498  1.00  0.00     0.198 A 
ATOM     70  C   UNL A   1      41.485  27.590  26.448  1.00  0.00     0.198 A 
ATOM     71  F   UNL A   1      42.109  29.539  27.609  1.00  0.00    -0.203 F 
ATOM     72  F   UNL A   1      39.426  24.789  27.470  1.00  0.00    -0.200 F 
ATOM     73  C   UNL A   1      40.807  26.381  26.405  1.00  0.00     0.200 A 
ATOM     74  F   UNL A   1      42.199  27.995  25.389  1.00  0.00    -0.200 F 
ATOM     75  F   UNL A   1      40.882  25.608  25.314  1.00  0.00    -0.200 F 
ENDBRANCH  51  65
BRANCH  52  76
ATOM     76  C   UNL A   1      39.604  33.855  36.726  1.00  0.00     0.064 A 
ATOM     77  C   UNL A   1      40.210  35.116  36.812  1.00  0.00     0.173 A 
ATOM     78  C   UNL A   1      38.829  33.427  37.814  1.00  0.00     0.173 A 
ATOM     79  F   UNL A   1      40.976  35.560  35.805  1.00  0.00    -0.203 F 
ATOM     80  C   UNL A   1      40.062  35.909  37.947  1.00  0.00     0.198 A 
ATOM     81  C   UNL A   1      38.661  34.232  38.937  1.00  0.00     0.198 A 
ATOM     82  F   UNL A   1      38.224  32.230  37.777  1.00  0.00    -0.203 F 
ATOM     83  F   UNL A   1      40.683  37.094  38.020  1.00  0.00    -0.200 F 
ATOM     84  C   UNL A   1      39.282  35.470  39.006  1.00  0.00     0.200 A 
ATOM     85  F   UNL A   1      37.894  33.810  39.952  1.00  0.00    -0.200 F 
ATOM     86  F   UNL A   1      39.135  36.237  40.095  1.00  0.00    -0.200 F 
ENDBRANCH  52  76
BRANCH  64  87
ATOM     87  C   UNL A   1      44.084  28.803  35.006  1.00  0.00     0.064 A 
ATOM     88  C   UNL A   1      45.369  29.350  34.890  1.00  0.00     0.173 A 
ATOM     89  C   UNL A   1      43.912  27.696  35.850  1.00  0.00     0.173 A 
ATOM     90  F   UNL A   1      45.585  30.400  34.083  1.00  0.00    -0.203 F 
ATOM     91  C   UNL A   1      46.445  28.797  35.577  1.00  0.00     0.198 A 
ATOM     92  C   UNL A   1      44.985  27.162  36.557  1.00  0.00     0.198 A 
ATOM     93  F   UNL A   1      42.700  27.140  35.999  1.00  0.00    -0.203 F 
ATOM     94  F   UNL A   1      47.674  29.309  35.419  1.00  0.00    -0.200 F 
ATOM     95  C   UNL A   1      46.251  27.709  36.416  1.00  0.00     0.200 A 
ATOM     96  F   UNL A   1      44.794  26.117  37.376  1.00  0.00    -0.200 F 
ATOM     97  F   UNL A   1      47.288  27.182  37.083  1.00  0.00    -0.200 F 
ENDBRANCH  64  87
ENDBRANCH  38  39
ENDBRANCH  30  33
ENDBRANCH  28  29
ENDBRANCH  27  28
ENDBRANCH   1  27
TORSDOF 15
ENDMDL
MODEL 3
REMARK VINA RESULT:     -12.5      5.412     10.877
REMARK SMILES N#C/C(=C\c1ccc(Oc2ccccc2Cl)c([N+](=O)[O-])c1)C(=O)NCCCNC(=O)c1ccc(-c2c3nc(c(-c4c(F)c(F)c(F)c(F)c4F)c4ccc([nH]4)c(-c4c(F)c(F)c(F)c(F)c4F)c4nc(c(-c5c(F)c(F)c(F)c(F)c5F)c5ccc2[nH]5)C=C4)C=C3)cc1
REMARK SMILES IDX 25 1 24 2 22 3 23 4 3 6 4 7 2 8 1 9 5 10 6 11 21 12 7 13
REMARK SMILES IDX 17 14 8 15 18 16 19 17 20 18 9 19 10 20 11 21 15 22 12 23
REMARK SMILES IDX 14 24 16 25 13 26 26 27 27 28 28 29 29 30 30 32 31 33 32 34
REMARK SMILES IDX 93 35 33 36 92 37 34 38 35 39 36 40 86 41 37 42 91 43 85 44
REMARK SMILES IDX 87 45 38 46 90 47 84 48 83 49 39 51 71 52 51 53 70 54 52 55
REMARK SMILES IDX 55 56 69 57 88 58 53 59 54 60 68 62 89 63 56 64 40 65 41 66
REMARK SMILES IDX 49 67 42 68 43 69 47 70 50 71 44 72 45 73 48 74 46 75 72 76
REMARK SMILES IDX 73 77 81 78 74 79 75 80 79 81 82 82 76 83 77 84 80 85 78 86
REMARK SMILES IDX 57 87 58 88 66 89 59 90 60 91 64 92 67 93 61 94 62 95 65 96
REMARK SMILES IDX 63 97
REMARK H PARENT 24 5 28 31 87 50 55 61
REMARK Flexibility Score: inf
ROOT
ATOM      1  C   UNL A   1      36.784  20.270  24.854  1.00  0.00     0.118 C 
ENDROOT
BRANCH   1   2
ATOM      2  N   UNL A   1      35.514  19.585  25.005  1.00  0.00    -0.351 N 
ATOM      3  C   UNL A   1      34.222  20.005  24.913  1.00  0.00     0.261 C 
ATOM      4  O   UNL A   1      33.346  19.148  25.030  1.00  0.00    -0.268 OA
ATOM      5  H   UNL A   1      35.604  18.627  25.214  1.00  0.00     0.163 HD
BRANCH   3   6
ATOM      6  C   UNL A   1      33.840  21.422  24.668  1.00  0.00     0.117 C 
ATOM      7  C   UNL A   1      34.048  22.479  25.490  1.00  0.00     0.033 C 
BRANCH   6   8
ATOM      8  C   UNL A   1      32.915  21.694  23.493  1.00  0.00     0.105 C 
ATOM      9  N   UNL A   1      32.148  21.919  22.518  1.00  0.00    -0.192 NA
ENDBRANCH   6   8
BRANCH   7  10
ATOM     10  C   UNL A   1      33.595  23.870  25.237  1.00  0.00    -0.017 A 
ATOM     11  C   UNL A   1      34.442  24.758  24.569  1.00  0.00     0.012 A 
ATOM     12  C   UNL A   1      32.323  24.320  25.604  1.00  0.00     0.098 A 
ATOM     13  C   UNL A   1      34.006  26.053  24.245  1.00  0.00     0.055 A 
ATOM     14  C   UNL A   1      31.865  25.587  25.194  1.00  0.00     0.312 A 
ATOM     15  C   UNL A   1      32.706  26.492  24.544  1.00  0.00     0.204 A 
BRANCH  14  16
ATOM     16  N   UNL A   1      30.446  25.812  25.377  1.00  0.00     0.066 N 
ATOM     17  O   UNL A   1      29.795  26.157  24.383  1.00  0.00    -0.258 OA
ATOM     18  O   UNL A   1      29.982  25.573  26.502  1.00  0.00    -0.258 OA
ENDBRANCH  14  16
BRANCH  15  19
ATOM     19  O   UNL A   1      32.476  27.781  24.117  1.00  0.00    -0.449 OA
BRANCH  19  20
ATOM     20  C   UNL A   1      32.386  28.820  25.009  1.00  0.00     0.146 A 
ATOM     21  C   UNL A   1      33.364  28.848  26.009  1.00  0.00     0.049 A 
ATOM     22  C   UNL A   1      31.368  29.780  25.001  1.00  0.00     0.083 A 
ATOM     23  C   UNL A   1      33.386  29.888  26.938  1.00  0.00     0.004 A 
ATOM     24  C   UNL A   1      31.405  30.833  25.919  1.00  0.00     0.024 A 
ATOM     25  Cl  UNL A   1      30.061  29.720  23.876  1.00  0.00    -0.080 Cl
ATOM     26  C   UNL A   1      32.420  30.893  26.879  1.00  0.00     0.002 A 
ENDBRANCH  19  20
ENDBRANCH  15  19
ENDBRANCH   7  10
ENDBRANCH   3   6
ENDBRANCH   1   2
BRANCH   1  27
ATOM     27  C   UNL A   1      37.967  19.311  25.010  1.00  0.00     0.042 C 
BRANCH  27  28
ATOM     28  C   UNL A   1      39.155  19.921  25.746  1.00  0.00     0.118 C 
BRANCH  28  29
ATOM     29  N   UNL A   1      40.281  19.003  25.809  1.00  0.00    -0.352 N 
ATOM     30  C   UNL A   1      41.621  19.257  25.954  1.00  0.00     0.251 C 
ATOM     31  H   UNL A   1      40.044  18.050  25.736  1.00  0.00     0.163 HD
ATOM     32  O   UNL A   1      42.428  18.354  25.754  1.00  0.00    -0.269 OA
BRANCH  30  33
ATOM     33  C   UNL A   1      42.105  20.599  26.343  1.00  0.00     0.039 A 
ATOM     34  C   UNL A   1      42.226  20.899  27.705  1.00  0.00     0.014 A 
ATOM     35  C   UNL A   1      42.371  21.584  25.388  1.00  0.00     0.014 A 
ATOM     36  C   UNL A   1      42.647  22.168  28.106  1.00  0.00     0.010 A 
ATOM     37  C   UNL A   1      42.854  22.828  25.786  1.00  0.00     0.010 A 
ATOM     38  C   UNL A   1      42.983  23.136  27.149  1.00  0.00    -0.014 A 
BRANCH  38  39
ATOM     39  C   UNL A   1      43.442  24.490  27.547  1.00  0.00     0.031 A 
ATOM     40  C   UNL A   1      42.435  25.542  27.923  1.00  0.00     0.074 A 
ATOM     41  C   UNL A   1      44.753  24.792  27.500  1.00  0.00     0.049 A 
ATOM     42  N   UNL A   1      42.620  26.811  28.188  1.00  0.00    -0.248 NA
ATOM     43  C   UNL A   1      41.028  25.115  27.981  1.00  0.00     0.031 C 
ATOM     44  C   UNL A   1      45.819  23.867  27.116  1.00  0.00     0.029 A 
ATOM     45  N   UNL A   1      45.408  25.970  27.759  1.00  0.00    -0.354 N 
ATOM     46  C   UNL A   1      41.355  27.336  28.417  1.00  0.00     0.074 A 
ATOM     47  C   UNL A   1      40.407  26.261  28.220  1.00  0.00     0.031 C 
ATOM     48  C   UNL A   1      46.998  24.508  27.176  1.00  0.00     0.029 A 
ATOM     49  C   UNL A   1      46.766  25.896  27.565  1.00  0.00     0.049 A 
ATOM     50  H   UNL A   1      44.950  26.788  28.056  1.00  0.00     0.167 HD
ATOM     51  C   UNL A   1      41.017  28.598  28.778  1.00  0.00     0.037 A 
ATOM     52  C   UNL A   1      47.713  26.846  27.677  1.00  0.00     0.037 A 
ATOM     53  C   UNL A   1      41.967  29.654  29.008  1.00  0.00     0.049 A 
ATOM     54  C   UNL A   1      47.314  28.237  28.088  1.00  0.00     0.074 A 
ATOM     55  C   UNL A   1      41.733  30.950  29.433  1.00  0.00     0.029 A 
ATOM     56  N   UNL A   1      43.338  29.531  28.834  1.00  0.00    -0.354 N 
ATOM     57  N   UNL A   1      46.120  28.709  28.352  1.00  0.00    -0.248 NA
ATOM     58  C   UNL A   1      48.394  29.223  28.223  1.00  0.00     0.031 C 
ATOM     59  C   UNL A   1      42.958  31.622  29.482  1.00  0.00     0.029 A 
ATOM     60  C   UNL A   1      43.961  30.733  29.130  1.00  0.00     0.049 A 
ATOM     61  H   UNL A   1      43.801  28.712  28.543  1.00  0.00     0.167 HD
ATOM     62  C   UNL A   1      46.307  30.037  28.712  1.00  0.00     0.074 A 
ATOM     63  C   UNL A   1      47.730  30.292  28.642  1.00  0.00     0.031 C 
ATOM     64  C   UNL A   1      45.382  30.962  29.067  1.00  0.00     0.037 A 
BRANCH  51  65
ATOM     65  C   UNL A   1      39.558  28.904  28.947  1.00  0.00     0.064 A 
ATOM     66  C   UNL A   1      38.924  28.803  30.195  1.00  0.00     0.173 A 
ATOM     67  C   UNL A   1      38.788  29.330  27.854  1.00  0.00     0.173 A 
ATOM     68  F   UNL A   1      39.611  28.388  31.269  1.00  0.00    -0.203 F 
ATOM     69  C   UNL A   1      37.568  29.089  30.336  1.00  0.00     0.198 A 
ATOM     70  C   UNL A   1      37.439  29.643  28.004  1.00  0.00     0.198 A 
ATOM     71  F   UNL A   1      39.345  29.449  26.640  1.00  0.00    -0.203 F 
ATOM     72  F   UNL A   1      36.973  28.936  31.527  1.00  0.00    -0.200 F 
ATOM     73  C   UNL A   1      36.829  29.515  29.243  1.00  0.00     0.200 A 
ATOM     74  F   UNL A   1      36.729  30.066  26.949  1.00  0.00    -0.200 F 
ATOM     75  F   UNL A   1      35.525  29.793  29.381  1.00  0.00    -0.200 F 
ENDBRANCH  51  65
BRANCH  52  76
ATOM     76  C   UNL A   1      49.136  26.505  27.418  1.00  0.00     0.064 A 
ATOM     77  C   UNL A   1      50.023  26.279  28.480  1.00  0.00     0.173 A 
ATOM     78  C   UNL A   1      49.637  26.394  26.113  1.00  0.00     0.173 A 
ATOM     79  F   UNL A   1      49.594  26.392  29.746  1.00  0.00    -0.203 F 
ATOM     80  C   UNL A   1      51.361  25.971  28.246  1.00  0.00     0.198 A 
ATOM     81  C   UNL A   1      50.969  26.062  25.881  1.00  0.00     0.198 A 
ATOM     82  F   UNL A   1      48.827  26.596  25.063  1.00  0.00    -0.203 F 
ATOM     83  F   UNL A   1      52.196  25.797  29.279  1.00  0.00    -0.200 F 
ATOM     84  C   UNL A   1      51.832  25.856  26.947  1.00  0.00     0.200 A 
ATOM     85  F   UNL A   1      51.417  25.937  24.624  1.00  0.00    -0.200 F 
ATOM     86  F   UNL A   1      53.118  25.554  26.724  1.00  0.00    -0.200 F 
ENDBRANCH  52  76
BRANCH  64  87
ATOM     87  C   UNL A   1      45.884  32.324  29.447  1.00  0.00     0.064 A 
ATOM     88  C   UNL A   1      46.269  32.625  30.761  1.00  0.00     0.173 A 
ATOM     89  C   UNL A   1      46.021  33.324  28.474  1.00  0.00     0.173 A 
ATOM     90  F   UNL A   1      46.141  31.705  31.729  1.00  0.00    -0.203 F 
ATOM     91  C   UNL A   1      46.754  33.887  31.091  1.00  0.00     0.198 A 
ATOM     92  C   UNL A   1      46.533  34.577  28.802  1.00  0.00     0.198 A 
ATOM     93  F   UNL A   1      45.672  33.082  27.201  1.00  0.00    -0.203 F 
ATOM     94  F   UNL A   1      47.077  34.167  32.362  1.00  0.00    -0.200 F 
ATOM     95  C   UNL A   1      46.893  34.859  30.110  1.00  0.00     0.200 A 
ATOM     96  F   UNL A   1      46.676  35.511  27.851  1.00  0.00    -0.200 F 
ATOM     97  F   UNL A   1      47.367  36.071  30.429  1.00  0.00    -0.200 F 
ENDBRANCH  64  87
ENDBRANCH  38  39
ENDBRANCH  30  33
ENDBRANCH  28  29
ENDBRANCH  27  28
ENDBRANCH   1  27
TORSDOF 15
ENDMDL
