MODEL 1
REMARK VINA RESULT:     -13.3      0.000      0.000
REMARK SMILES C[C@H]1CN(C(=O)Nc2ccc(C(=O)NCCCNC(=O)c3ccc(-c4c5nc(c(-c6c(F)c(F)c(F)c(F)c6F)c6ccc([nH]6)c(-c6c(F)c(F)c(F)c(F)c6F)c6nc(c(-c7c(F)c(F)c(F)c(F)c7F)c7ccc4[nH]7)C=C6)C=C5)cc3)cc2Br)C[C@@H]1C
REMARK SMILES IDX 16 1 15 2 14 3 12 4 13 5 11 7 8 8 9 9 85 10 10 11 84 12
REMARK SMILES IDX 86 13 7 14 1 15 2 16 3 17 88 18 4 19 87 20 89 21 5 22 6 23
REMARK SMILES IDX 17 25 18 26 19 27 20 29 21 30 22 31 83 32 23 33 82 34 24 35
REMARK SMILES IDX 25 36 26 37 76 38 27 39 81 40 75 41 77 42 28 43 80 44 74 45
REMARK SMILES IDX 73 46 29 48 61 49 41 50 60 51 42 52 45 53 59 54 78 55 43 56
REMARK SMILES IDX 44 57 58 59 79 60 46 61 30 62 31 63 39 64 32 65 33 66 37 67
REMARK SMILES IDX 40 68 34 69 35 70 38 71 36 72 62 73 63 74 71 75 64 76 65 77
REMARK SMILES IDX 69 78 72 79 66 80 67 81 70 82 68 83 47 84 48 85 56 86 49 87
REMARK SMILES IDX 50 88 54 89 57 90 51 91 52 92 55 93 53 94
REMARK H PARENT 14 6 7 24 18 28 77 47 45 58
REMARK Flexibility Score: inf
ROOT
ATOM      1  C   UNL A   1      31.352  32.375  26.588  1.00  0.00     0.042 C 
ENDROOT
BRANCH   1   2
ATOM      2  C   UNL A   1      31.526  30.926  26.139  1.00  0.00     0.118 C 
BRANCH   2   3
ATOM      3  N   UNL A   1      32.662  30.304  26.803  1.00  0.00    -0.352 N 
ATOM      4  C   UNL A   1      33.172  29.031  26.745  1.00  0.00     0.251 C 
ATOM      5  O   UNL A   1      34.199  28.778  27.370  1.00  0.00    -0.269 OA
ATOM      6  H   UNL A   1      33.157  30.908  27.403  1.00  0.00     0.163 HD
BRANCH   4   7
ATOM      7  C   UNL A   1      32.577  27.989  25.874  1.00  0.00     0.041 A 
ATOM      8  C   UNL A   1      31.692  25.701  24.547  1.00  0.00     0.057 A 
ATOM      9  C   UNL A   1      31.066  26.098  25.730  1.00  0.00     0.028 A 
ATOM     10  C   UNL A   1      32.597  26.569  23.920  1.00  0.00     0.042 A 
ATOM     11  C   UNL A   1      31.530  27.226  26.407  1.00  0.00     0.016 A 
ATOM     12  C   UNL A   1      33.026  27.721  24.581  1.00  0.00     0.031 A 
ATOM     13  Br  UNL A   1      33.307  26.233  22.188  1.00  0.00    -0.049 Br
BRANCH   8  14
ATOM     14  N   UNL A   1      31.413  24.408  24.096  1.00  0.00    -0.307 N 
ATOM     15  C   UNL A   1      36.327  23.851  25.708  1.00  0.00     0.010 C 
ATOM     16  C   UNL A   1      35.072  23.368  26.444  1.00  0.00     0.010 C 
ATOM     17  C   UNL A   1      33.812  24.042  25.899  1.00  0.00     0.125 C 
ATOM     18  C   UNL A   1      34.791  21.883  26.187  1.00  0.00     0.010 C 
ATOM     19  N   UNL A   1      33.320  23.178  24.830  1.00  0.00    -0.324 N 
ATOM     20  C   UNL A   1      34.035  21.905  24.852  1.00  0.00     0.125 C 
ATOM     21  C   UNL A   1      33.932  21.284  27.304  1.00  0.00     0.010 C 
ATOM     22  C   UNL A   1      32.208  23.302  24.033  1.00  0.00     0.321 C 
ATOM     23  O   UNL A   1      31.812  22.367  23.330  1.00  0.00    -0.248 OA
ATOM     24  H   UNL A   1      30.494  24.274  23.770  1.00  0.00     0.171 HD
ENDBRANCH   8  14
ENDBRANCH   4   7
ENDBRANCH   2   3
ENDBRANCH   1   2
BRANCH   1  25
ATOM     25  C   UNL A   1      32.550  32.919  27.357  1.00  0.00     0.118 C 
BRANCH  25  26
ATOM     26  N   UNL A   1      32.395  34.325  27.702  1.00  0.00    -0.352 N 
ATOM     27  C   UNL A   1      33.033  35.070  28.663  1.00  0.00     0.251 C 
ATOM     28  H   UNL A   1      31.730  34.815  27.166  1.00  0.00     0.163 HD
ATOM     29  O   UNL A   1      32.616  36.188  28.943  1.00  0.00    -0.269 OA
BRANCH  27  30
ATOM     30  C   UNL A   1      34.210  34.525  29.375  1.00  0.00     0.039 A 
ATOM     31  C   UNL A   1      34.024  33.895  30.609  1.00  0.00     0.014 A 
ATOM     32  C   UNL A   1      35.497  34.654  28.846  1.00  0.00     0.014 A 
ATOM     33  C   UNL A   1      35.117  33.341  31.281  1.00  0.00     0.010 A 
ATOM     34  C   UNL A   1      36.572  34.032  29.474  1.00  0.00     0.010 A 
ATOM     35  C   UNL A   1      36.395  33.374  30.701  1.00  0.00    -0.014 A 
BRANCH  35  36
ATOM     36  C   UNL A   1      37.567  32.741  31.359  1.00  0.00     0.031 A 
ATOM     37  C   UNL A   1      38.267  31.588  30.693  1.00  0.00     0.074 A 
ATOM     38  C   UNL A   1      37.948  33.146  32.585  1.00  0.00     0.049 A 
ATOM     39  N   UNL A   1      39.223  30.820  31.153  1.00  0.00    -0.248 NA
ATOM     40  C   UNL A   1      37.811  31.231  29.341  1.00  0.00     0.031 C 
ATOM     41  C   UNL A   1      37.328  34.231  33.348  1.00  0.00     0.029 A 
ATOM     42  N   UNL A   1      38.936  32.680  33.417  1.00  0.00    -0.354 N 
ATOM     43  C   UNL A   1      39.465  29.882  30.158  1.00  0.00     0.074 A 
ATOM     44  C   UNL A   1      38.522  30.142  29.093  1.00  0.00     0.031 C 
ATOM     45  C   UNL A   1      37.958  34.356  34.527  1.00  0.00     0.029 A 
ATOM     46  C   UNL A   1      38.992  33.331  34.626  1.00  0.00     0.049 A 
ATOM     47  H   UNL A   1      39.546  31.948  33.170  1.00  0.00     0.167 HD
ATOM     48  C   UNL A   1      40.403  28.905  30.129  1.00  0.00     0.037 A 
ATOM     49  C   UNL A   1      39.776  33.113  35.699  1.00  0.00     0.037 A 
ATOM     50  C   UNL A   1      41.353  28.667  31.183  1.00  0.00     0.049 A 
ATOM     51  C   UNL A   1      40.795  32.005  35.650  1.00  0.00     0.074 A 
ATOM     52  C   UNL A   1      42.379  27.739  31.227  1.00  0.00     0.029 A 
ATOM     53  N   UNL A   1      41.390  29.361  32.384  1.00  0.00    -0.354 N 
ATOM     54  N   UNL A   1      41.056  31.163  34.680  1.00  0.00    -0.248 NA
ATOM     55  C   UNL A   1      41.632  31.821  36.843  1.00  0.00     0.031 C 
ATOM     56  C   UNL A   1      43.002  27.834  32.475  1.00  0.00     0.029 A 
ATOM     57  C   UNL A   1      42.407  28.864  33.185  1.00  0.00     0.049 A 
ATOM     58  H   UNL A   1      40.786  30.097  32.630  1.00  0.00     0.167 HD
ATOM     59  C   UNL A   1      42.107  30.376  35.130  1.00  0.00     0.074 A 
ATOM     60  C   UNL A   1      42.442  30.844  36.458  1.00  0.00     0.031 C 
ATOM     61  C   UNL A   1      42.740  29.356  34.498  1.00  0.00     0.037 A 
BRANCH  48  62
ATOM     62  C   UNL A   1      40.447  28.018  28.918  1.00  0.00     0.064 A 
ATOM     63  C   UNL A   1      39.718  26.820  28.852  1.00  0.00     0.173 A 
ATOM     64  C   UNL A   1      41.197  28.389  27.791  1.00  0.00     0.173 A 
ATOM     65  F   UNL A   1      38.992  26.413  29.904  1.00  0.00    -0.203 F 
ATOM     66  C   UNL A   1      39.765  26.012  27.719  1.00  0.00     0.198 A 
ATOM     67  C   UNL A   1      41.214  27.596  26.646  1.00  0.00     0.198 A 
ATOM     68  F   UNL A   1      41.906  29.527  27.795  1.00  0.00    -0.203 F 
ATOM     69  F   UNL A   1      39.105  24.846  27.701  1.00  0.00    -0.200 F 
ATOM     70  C   UNL A   1      40.507  26.405  26.614  1.00  0.00     0.200 A 
ATOM     71  F   UNL A   1      41.918  27.985  25.574  1.00  0.00    -0.200 F 
ATOM     72  F   UNL A   1      40.544  25.630  25.521  1.00  0.00    -0.200 F 
ENDBRANCH  48  62
BRANCH  49  73
ATOM     73  C   UNL A   1      39.640  33.970  36.906  1.00  0.00     0.064 A 
ATOM     74  C   UNL A   1      38.839  33.570  37.986  1.00  0.00     0.173 A 
ATOM     75  C   UNL A   1      40.300  35.204  37.007  1.00  0.00     0.173 A 
ATOM     76  F   UNL A   1      38.172  32.408  37.930  1.00  0.00    -0.203 F 
ATOM     77  C   UNL A   1      38.684  34.383  39.108  1.00  0.00     0.198 A 
ATOM     78  C   UNL A   1      40.169  36.001  38.142  1.00  0.00     0.198 A 
ATOM     79  F   UNL A   1      41.083  35.630  36.005  1.00  0.00    -0.203 F 
ATOM     80  F   UNL A   1      37.873  33.999  40.102  1.00  0.00    -0.200 F 
ATOM     81  C   UNL A   1      39.354  35.594  39.187  1.00  0.00     0.200 A 
ATOM     82  F   UNL A   1      40.831  37.163  38.222  1.00  0.00    -0.200 F 
ATOM     83  F   UNL A   1      39.207  36.373  40.268  1.00  0.00    -0.200 F 
ENDBRANCH  49  73
BRANCH  61  84
ATOM     84  C   UNL A   1      43.897  28.711  35.205  1.00  0.00     0.064 A 
ATOM     85  C   UNL A   1      43.728  27.590  36.030  1.00  0.00     0.173 A 
ATOM     86  C   UNL A   1      45.201  29.186  35.000  1.00  0.00     0.173 A 
ATOM     87  F   UNL A   1      42.500  27.106  36.270  1.00  0.00    -0.203 F 
ATOM     88  C   UNL A   1      44.821  26.979  36.638  1.00  0.00     0.198 A 
ATOM     89  C   UNL A   1      46.295  28.553  35.583  1.00  0.00     0.198 A 
ATOM     90  F   UNL A   1      45.418  30.251  34.214  1.00  0.00    -0.203 F 
ATOM     91  F   UNL A   1      44.633  25.934  37.456  1.00  0.00    -0.200 F 
ATOM     92  C   UNL A   1      46.104  27.454  36.406  1.00  0.00     0.200 A 
ATOM     93  F   UNL A   1      47.534  29.004  35.344  1.00  0.00    -0.200 F 
ATOM     94  F   UNL A   1      47.157  26.854  36.979  1.00  0.00    -0.200 F 
ENDBRANCH  61  84
ENDBRANCH  35  36
ENDBRANCH  27  30
ENDBRANCH  25  26
ENDBRANCH   1  25
TORSDOF 11
ENDMDL
MODEL 2
REMARK VINA RESULT:     -13.3      0.086      1.595
REMARK SMILES C[C@H]1CN(C(=O)Nc2ccc(C(=O)NCCCNC(=O)c3ccc(-c4c5nc(c(-c6c(F)c(F)c(F)c(F)c6F)c6ccc([nH]6)c(-c6c(F)c(F)c(F)c(F)c6F)c6nc(c(-c7c(F)c(F)c(F)c(F)c7F)c7ccc4[nH]7)C=C6)C=C5)cc3)cc2Br)C[C@@H]1C
REMARK SMILES IDX 16 1 15 2 14 3 12 4 13 5 11 7 8 8 9 9 85 10 10 11 84 12
REMARK SMILES IDX 86 13 7 14 1 15 2 16 3 17 88 18 4 19 87 20 89 21 5 22 6 23
REMARK SMILES IDX 17 25 18 26 19 27 20 29 21 30 22 31 83 32 23 33 82 34 24 35
REMARK SMILES IDX 25 36 26 37 76 38 27 39 81 40 75 41 77 42 28 43 80 44 74 45
REMARK SMILES IDX 73 46 29 48 61 49 41 50 60 51 42 52 45 53 59 54 78 55 43 56
REMARK SMILES IDX 44 57 58 59 79 60 46 61 30 62 31 63 39 64 32 65 33 66 37 67
REMARK SMILES IDX 40 68 34 69 35 70 38 71 36 72 62 73 63 74 71 75 64 76 65 77
REMARK SMILES IDX 69 78 72 79 66 80 67 81 70 82 68 83 47 84 48 85 56 86 49 87
REMARK SMILES IDX 50 88 54 89 57 90 51 91 52 92 55 93 53 94
REMARK H PARENT 14 6 7 24 18 28 77 47 45 58
REMARK Flexibility Score: inf
ROOT
ATOM      1  C   UNL A   1      31.329  32.353  26.580  1.00  0.00     0.042 C 
ENDROOT
BRANCH   1   2
ATOM      2  C   UNL A   1      31.511  30.909  26.118  1.00  0.00     0.118 C 
BRANCH   2   3
ATOM      3  N   UNL A   1      32.655  30.290  26.770  1.00  0.00    -0.352 N 
ATOM      4  C   UNL A   1      33.172  29.020  26.702  1.00  0.00     0.251 C 
ATOM      5  O   UNL A   1      34.206  28.770  27.318  1.00  0.00    -0.269 OA
ATOM      6  H   UNL A   1      33.150  30.893  27.371  1.00  0.00     0.163 HD
BRANCH   4   7
ATOM      7  C   UNL A   1      32.578  27.980  25.828  1.00  0.00     0.041 A 
ATOM      8  C   UNL A   1      31.699  25.695  24.492  1.00  0.00     0.057 A 
ATOM      9  C   UNL A   1      31.081  26.078  25.684  1.00  0.00     0.028 A 
ATOM     10  C   UNL A   1      32.591  26.575  23.863  1.00  0.00     0.042 A 
ATOM     11  C   UNL A   1      31.542  27.204  26.365  1.00  0.00     0.016 A 
ATOM     12  C   UNL A   1      33.016  27.726  24.529  1.00  0.00     0.031 A 
ATOM     13  Br  UNL A   1      33.287  26.259  22.122  1.00  0.00    -0.049 Br
BRANCH   8  14
ATOM     14  N   UNL A   1      31.427  24.403  24.034  1.00  0.00    -0.307 N 
ATOM     15  C   UNL A   1      36.319  23.843  25.709  1.00  0.00     0.010 C 
ATOM     16  C   UNL A   1      35.055  23.358  26.427  1.00  0.00     0.010 C 
ATOM     17  C   UNL A   1      33.802  24.033  25.867  1.00  0.00     0.125 C 
ATOM     18  C   UNL A   1      34.778  21.873  26.162  1.00  0.00     0.010 C 
ATOM     19  N   UNL A   1      33.325  23.172  24.789  1.00  0.00    -0.324 N 
ATOM     20  C   UNL A   1      34.040  21.900  24.817  1.00  0.00     0.125 C 
ATOM     21  C   UNL A   1      33.904  21.271  27.266  1.00  0.00     0.010 C 
ATOM     22  C   UNL A   1      32.223  23.298  23.978  1.00  0.00     0.321 C 
ATOM     23  O   UNL A   1      31.837  22.365  23.267  1.00  0.00    -0.248 OA
ATOM     24  H   UNL A   1      30.512  24.269  23.695  1.00  0.00     0.171 HD
ENDBRANCH   8  14
ENDBRANCH   4   7
ENDBRANCH   2   3
ENDBRANCH   1   2
BRANCH   1  25
ATOM     25  C   UNL A   1      32.557  32.925  27.280  1.00  0.00     0.118 C 
BRANCH  25  26
ATOM     26  N   UNL A   1      32.381  34.320  27.654  1.00  0.00    -0.352 N 
ATOM     27  C   UNL A   1      33.005  35.054  28.633  1.00  0.00     0.251 C 
ATOM     28  H   UNL A   1      31.712  34.813  27.126  1.00  0.00     0.163 HD
ATOM     29  O   UNL A   1      32.572  36.160  28.935  1.00  0.00    -0.269 OA
BRANCH  27  30
ATOM     30  C   UNL A   1      34.187  34.509  29.338  1.00  0.00     0.039 A 
ATOM     31  C   UNL A   1      34.006  33.862  30.564  1.00  0.00     0.014 A 
ATOM     32  C   UNL A   1      35.472  34.656  28.811  1.00  0.00     0.014 A 
ATOM     33  C   UNL A   1      35.104  33.309  31.229  1.00  0.00     0.010 A 
ATOM     34  C   UNL A   1      36.553  34.036  29.431  1.00  0.00     0.010 A 
ATOM     35  C   UNL A   1      36.382  33.360  30.649  1.00  0.00    -0.014 A 
BRANCH  35  36
ATOM     36  C   UNL A   1      37.559  32.729  31.298  1.00  0.00     0.031 A 
ATOM     37  C   UNL A   1      38.259  31.579  30.626  1.00  0.00     0.074 A 
ATOM     38  C   UNL A   1      37.946  33.132  32.524  1.00  0.00     0.049 A 
ATOM     39  N   UNL A   1      39.219  30.813  31.079  1.00  0.00    -0.248 NA
ATOM     40  C   UNL A   1      37.795  31.224  29.276  1.00  0.00     0.031 C 
ATOM     41  C   UNL A   1      37.328  34.213  33.292  1.00  0.00     0.029 A 
ATOM     42  N   UNL A   1      38.940  32.666  33.349  1.00  0.00    -0.354 N 
ATOM     43  C   UNL A   1      39.458  29.878  30.080  1.00  0.00     0.074 A 
ATOM     44  C   UNL A   1      38.508  30.137  29.020  1.00  0.00     0.031 C 
ATOM     45  C   UNL A   1      37.964  34.337  34.468  1.00  0.00     0.029 A 
ATOM     46  C   UNL A   1      39.001  33.315  34.558  1.00  0.00     0.049 A 
ATOM     47  H   UNL A   1      39.551  31.936  33.096  1.00  0.00     0.167 HD
ATOM     48  C   UNL A   1      40.398  28.903  30.043  1.00  0.00     0.037 A 
ATOM     49  C   UNL A   1      39.792  33.096  35.626  1.00  0.00     0.037 A 
ATOM     50  C   UNL A   1      41.355  28.664  31.091  1.00  0.00     0.049 A 
ATOM     51  C   UNL A   1      40.814  31.991  35.569  1.00  0.00     0.074 A 
ATOM     52  C   UNL A   1      42.383  27.739  31.127  1.00  0.00     0.029 A 
ATOM     53  N   UNL A   1      41.397  29.356  32.294  1.00  0.00    -0.354 N 
ATOM     54  N   UNL A   1      41.072  31.152  34.596  1.00  0.00    -0.248 NA
ATOM     55  C   UNL A   1      41.658  31.806  36.757  1.00  0.00     0.031 C 
ATOM     56  C   UNL A   1      43.013  27.833  32.371  1.00  0.00     0.029 A 
ATOM     57  C   UNL A   1      42.420  28.860  33.087  1.00  0.00     0.049 A 
ATOM     58  H   UNL A   1      40.792  30.090  32.545  1.00  0.00     0.167 HD
ATOM     59  C   UNL A   1      42.127  30.366  35.038  1.00  0.00     0.074 A 
ATOM     60  C   UNL A   1      42.469  30.833  36.365  1.00  0.00     0.031 C 
ATOM     61  C   UNL A   1      42.759  29.350  34.399  1.00  0.00     0.037 A 
BRANCH  48  62
ATOM     62  C   UNL A   1      40.437  28.018  28.829  1.00  0.00     0.064 A 
ATOM     63  C   UNL A   1      41.198  28.349  27.697  1.00  0.00     0.173 A 
ATOM     64  C   UNL A   1      39.735  26.803  28.812  1.00  0.00     0.173 A 
ATOM     65  F   UNL A   1      41.881  29.503  27.657  1.00  0.00    -0.203 F 
ATOM     66  C   UNL A   1      41.227  27.516  26.583  1.00  0.00     0.198 A 
ATOM     67  C   UNL A   1      39.794  25.954  27.710  1.00  0.00     0.198 A 
ATOM     68  F   UNL A   1      38.998  26.432  29.870  1.00  0.00    -0.203 F 
ATOM     69  F   UNL A   1      41.916  27.880  25.493  1.00  0.00    -0.200 F 
ATOM     70  C   UNL A   1      40.531  26.315  26.593  1.00  0.00     0.200 A 
ATOM     71  F   UNL A   1      39.135  24.788  27.728  1.00  0.00    -0.200 F 
ATOM     72  F   UNL A   1      40.567  25.509  25.523  1.00  0.00    -0.200 F 
ENDBRANCH  48  62
BRANCH  49  73
ATOM     73  C   UNL A   1      39.661  33.950  36.837  1.00  0.00     0.064 A 
ATOM     74  C   UNL A   1      38.852  33.555  37.912  1.00  0.00     0.173 A 
ATOM     75  C   UNL A   1      40.334  35.177  36.945  1.00  0.00     0.173 A 
ATOM     76  F   UNL A   1      38.173  32.401  37.849  1.00  0.00    -0.203 F 
ATOM     77  C   UNL A   1      38.702  34.365  39.036  1.00  0.00     0.198 A 
ATOM     78  C   UNL A   1      40.207  35.970  38.082  1.00  0.00     0.198 A 
ATOM     79  F   UNL A   1      41.125  35.598  35.947  1.00  0.00    -0.203 F 
ATOM     80  F   UNL A   1      37.883  33.986  40.026  1.00  0.00    -0.200 F 
ATOM     81  C   UNL A   1      39.384  35.569  39.123  1.00  0.00     0.200 A 
ATOM     82  F   UNL A   1      40.882  37.125  38.169  1.00  0.00    -0.200 F 
ATOM     83  F   UNL A   1      39.242  36.345  40.206  1.00  0.00    -0.200 F 
ENDBRANCH  49  73
BRANCH  61  84
ATOM     84  C   UNL A   1      43.922  28.706  35.098  1.00  0.00     0.064 A 
ATOM     85  C   UNL A   1      45.231  29.188  34.953  1.00  0.00     0.173 A 
ATOM     86  C   UNL A   1      43.710  27.632  35.975  1.00  0.00     0.173 A 
ATOM     87  F   UNL A   1      45.489  30.203  34.115  1.00  0.00    -0.203 F 
ATOM     88  C   UNL A   1      46.287  28.604  35.648  1.00  0.00     0.198 A 
ATOM     89  C   UNL A   1      44.763  27.073  36.693  1.00  0.00     0.198 A 
ATOM     90  F   UNL A   1      42.475  27.138  36.155  1.00  0.00    -0.203 F 
ATOM     91  F   UNL A   1      47.537  29.053  35.464  1.00  0.00    -0.200 F 
ATOM     92  C   UNL A   1      46.051  27.556  36.525  1.00  0.00     0.200 A 
ATOM     93  F   UNL A   1      44.530  26.070  37.552  1.00  0.00    -0.200 F 
ATOM     94  F   UNL A   1      47.067  27.007  37.205  1.00  0.00    -0.200 F 
ENDBRANCH  61  84
ENDBRANCH  35  36
ENDBRANCH  27  30
ENDBRANCH  25  26
ENDBRANCH   1  25
TORSDOF 11
ENDMDL
MODEL 3
REMARK VINA RESULT:     -13.3      0.092      1.130
REMARK SMILES C[C@H]1CN(C(=O)Nc2ccc(C(=O)NCCCNC(=O)c3ccc(-c4c5nc(c(-c6c(F)c(F)c(F)c(F)c6F)c6ccc([nH]6)c(-c6c(F)c(F)c(F)c(F)c6F)c6nc(c(-c7c(F)c(F)c(F)c(F)c7F)c7ccc4[nH]7)C=C6)C=C5)cc3)cc2Br)C[C@@H]1C
REMARK SMILES IDX 16 1 15 2 14 3 12 4 13 5 11 7 8 8 9 9 85 10 10 11 84 12
REMARK SMILES IDX 86 13 7 14 1 15 2 16 3 17 88 18 4 19 87 20 89 21 5 22 6 23
REMARK SMILES IDX 17 25 18 26 19 27 20 29 21 30 22 31 83 32 23 33 82 34 24 35
REMARK SMILES IDX 25 36 26 37 76 38 27 39 81 40 75 41 77 42 28 43 80 44 74 45
REMARK SMILES IDX 73 46 29 48 61 49 41 50 60 51 42 52 45 53 59 54 78 55 43 56
REMARK SMILES IDX 44 57 58 59 79 60 46 61 30 62 31 63 39 64 32 65 33 66 37 67
REMARK SMILES IDX 40 68 34 69 35 70 38 71 36 72 62 73 63 74 71 75 64 76 65 77
REMARK SMILES IDX 69 78 72 79 66 80 67 81 70 82 68 83 47 84 48 85 56 86 49 87
REMARK SMILES IDX 50 88 54 89 57 90 51 91 52 92 55 93 53 94
REMARK H PARENT 14 6 7 24 18 28 77 47 45 58
REMARK Flexibility Score: inf
ROOT
ATOM      1  C   UNL A   1      31.345  32.361  26.559  1.00  0.00     0.042 C 
ENDROOT
BRANCH   1   2
ATOM      2  C   UNL A   1      31.503  30.900  26.147  1.00  0.00     0.118 C 
BRANCH   2   3
ATOM      3  N   UNL A   1      32.667  30.299  26.780  1.00  0.00    -0.352 N 
ATOM      4  C   UNL A   1      33.202  29.037  26.704  1.00  0.00     0.251 C 
ATOM      5  O   UNL A   1      34.250  28.803  27.303  1.00  0.00    -0.269 OA
ATOM      6  H   UNL A   1      33.163  30.910  27.372  1.00  0.00     0.163 HD
BRANCH   4   7
ATOM      7  C   UNL A   1      32.609  27.986  25.842  1.00  0.00     0.041 A 
ATOM      8  C   UNL A   1      31.732  25.686  24.531  1.00  0.00     0.057 A 
ATOM      9  C   UNL A   1      31.113  26.082  25.718  1.00  0.00     0.028 A 
ATOM     10  C   UNL A   1      32.625  26.559  23.893  1.00  0.00     0.042 A 
ATOM     11  C   UNL A   1      31.573  27.217  26.387  1.00  0.00     0.016 A 
ATOM     12  C   UNL A   1      33.049  27.718  24.546  1.00  0.00     0.031 A 
ATOM     13  Br  UNL A   1      33.323  26.224  22.157  1.00  0.00    -0.049 Br
BRANCH   8  14
ATOM     14  N   UNL A   1      31.461  24.389  24.087  1.00  0.00    -0.307 N 
ATOM     15  C   UNL A   1      36.368  23.862  25.728  1.00  0.00     0.010 C 
ATOM     16  C   UNL A   1      35.112  23.379  26.460  1.00  0.00     0.010 C 
ATOM     17  C   UNL A   1      33.852  24.045  25.904  1.00  0.00     0.125 C 
ATOM     18  C   UNL A   1      34.838  21.891  26.211  1.00  0.00     0.010 C 
ATOM     19  N   UNL A   1      33.369  23.171  24.839  1.00  0.00    -0.324 N 
ATOM     20  C   UNL A   1      34.089  21.902  24.872  1.00  0.00     0.125 C 
ATOM     21  C   UNL A   1      33.975  21.296  27.328  1.00  0.00     0.010 C 
ATOM     22  C   UNL A   1      32.261  23.286  24.035  1.00  0.00     0.321 C 
ATOM     23  O   UNL A   1      31.872  22.345  23.336  1.00  0.00    -0.248 OA
ATOM     24  H   UNL A   1      30.544  24.249  23.757  1.00  0.00     0.171 HD
ENDBRANCH   8  14
ENDBRANCH   4   7
ENDBRANCH   2   3
ENDBRANCH   1   2
BRANCH   1  25
ATOM     25  C   UNL A   1      32.554  32.915  27.305  1.00  0.00     0.118 C 
BRANCH  25  26
ATOM     26  N   UNL A   1      32.386  34.313  27.671  1.00  0.00    -0.352 N 
ATOM     27  C   UNL A   1      33.019  35.050  28.642  1.00  0.00     0.251 C 
ATOM     28  H   UNL A   1      31.717  34.805  27.142  1.00  0.00     0.163 HD
ATOM     29  O   UNL A   1      32.593  36.160  28.938  1.00  0.00    -0.269 OA
BRANCH  27  30
ATOM     30  C   UNL A   1      34.202  34.505  29.345  1.00  0.00     0.039 A 
ATOM     31  C   UNL A   1      34.023  33.855  30.569  1.00  0.00     0.014 A 
ATOM     32  C   UNL A   1      35.487  34.654  28.816  1.00  0.00     0.014 A 
ATOM     33  C   UNL A   1      35.122  33.302  31.232  1.00  0.00     0.010 A 
ATOM     34  C   UNL A   1      36.568  34.033  29.434  1.00  0.00     0.010 A 
ATOM     35  C   UNL A   1      36.398  33.355  30.651  1.00  0.00    -0.014 A 
BRANCH  35  36
ATOM     36  C   UNL A   1      37.577  32.723  31.298  1.00  0.00     0.031 A 
ATOM     37  C   UNL A   1      38.279  31.577  30.621  1.00  0.00     0.074 A 
ATOM     38  C   UNL A   1      37.963  33.122  32.525  1.00  0.00     0.049 A 
ATOM     39  N   UNL A   1      39.241  30.811  31.071  1.00  0.00    -0.248 NA
ATOM     40  C   UNL A   1      37.816  31.227  29.270  1.00  0.00     0.031 C 
ATOM     41  C   UNL A   1      37.343  34.199  33.298  1.00  0.00     0.029 A 
ATOM     42  N   UNL A   1      38.958  32.655  33.348  1.00  0.00    -0.354 N 
ATOM     43  C   UNL A   1      39.481  29.880  30.069  1.00  0.00     0.074 A 
ATOM     44  C   UNL A   1      38.531  30.142  29.010  1.00  0.00     0.031 C 
ATOM     45  C   UNL A   1      37.979  34.319  34.474  1.00  0.00     0.029 A 
ATOM     46  C   UNL A   1      39.018  33.298  34.561  1.00  0.00     0.049 A 
ATOM     47  H   UNL A   1      39.570  31.927  33.093  1.00  0.00     0.167 HD
ATOM     48  C   UNL A   1      40.423  28.907  30.028  1.00  0.00     0.037 A 
ATOM     49  C   UNL A   1      39.809  33.077  35.628  1.00  0.00     0.037 A 
ATOM     50  C   UNL A   1      41.380  28.666  31.075  1.00  0.00     0.049 A 
ATOM     51  C   UNL A   1      40.833  31.974  35.566  1.00  0.00     0.074 A 
ATOM     52  C   UNL A   1      42.410  27.743  31.107  1.00  0.00     0.029 A 
ATOM     53  N   UNL A   1      41.421  29.353  32.280  1.00  0.00    -0.354 N 
ATOM     54  N   UNL A   1      41.092  31.139  34.590  1.00  0.00    -0.248 NA
ATOM     55  C   UNL A   1      41.677  31.786  36.754  1.00  0.00     0.031 C 
ATOM     56  C   UNL A   1      43.039  27.833  32.352  1.00  0.00     0.029 A 
ATOM     57  C   UNL A   1      42.444  28.856  33.072  1.00  0.00     0.049 A 
ATOM     58  H   UNL A   1      40.814  30.085  32.534  1.00  0.00     0.167 HD
ATOM     59  C   UNL A   1      42.149  30.354  35.029  1.00  0.00     0.074 A 
ATOM     60  C   UNL A   1      42.489  30.816  36.358  1.00  0.00     0.031 C 
ATOM     61  C   UNL A   1      42.783  29.341  34.386  1.00  0.00     0.037 A 
BRANCH  48  62
ATOM     62  C   UNL A   1      40.464  28.028  28.811  1.00  0.00     0.064 A 
ATOM     63  C   UNL A   1      41.217  28.369  27.676  1.00  0.00     0.173 A 
ATOM     64  C   UNL A   1      39.771  26.807  28.792  1.00  0.00     0.173 A 
ATOM     65  F   UNL A   1      41.890  29.528  27.638  1.00  0.00    -0.203 F 
ATOM     66  C   UNL A   1      41.247  27.540  26.559  1.00  0.00     0.198 A 
ATOM     67  C   UNL A   1      39.832  25.963  27.686  1.00  0.00     0.198 A 
ATOM     68  F   UNL A   1      39.041  26.426  29.851  1.00  0.00    -0.203 F 
ATOM     69  F   UNL A   1      41.929  27.914  25.467  1.00  0.00    -0.200 F 
ATOM     70  C   UNL A   1      40.562  26.334  26.567  1.00  0.00     0.200 A 
ATOM     71  F   UNL A   1      39.182  24.792  27.702  1.00  0.00    -0.200 F 
ATOM     72  F   UNL A   1      40.599  25.532  25.494  1.00  0.00    -0.200 F 
ENDBRANCH  48  62
BRANCH  49  73
ATOM     73  C   UNL A   1      39.676  33.926  36.842  1.00  0.00     0.064 A 
ATOM     74  C   UNL A   1      38.869  33.524  37.916  1.00  0.00     0.173 A 
ATOM     75  C   UNL A   1      40.345  35.154  36.954  1.00  0.00     0.173 A 
ATOM     76  F   UNL A   1      38.193  32.368  37.849  1.00  0.00    -0.203 F 
ATOM     77  C   UNL A   1      38.717  34.329  39.043  1.00  0.00     0.198 A 
ATOM     78  C   UNL A   1      40.217  35.943  38.094  1.00  0.00     0.198 A 
ATOM     79  F   UNL A   1      41.135  35.582  35.957  1.00  0.00    -0.203 F 
ATOM     80  F   UNL A   1      37.900  33.945  40.032  1.00  0.00    -0.200 F 
ATOM     81  C   UNL A   1      39.396  35.535  39.134  1.00  0.00     0.200 A 
ATOM     82  F   UNL A   1      40.888  37.100  38.185  1.00  0.00    -0.200 F 
ATOM     83  F   UNL A   1      39.252  36.307  40.220  1.00  0.00    -0.200 F 
ENDBRANCH  49  73
BRANCH  61  84
ATOM     84  C   UNL A   1      43.946  28.696  35.082  1.00  0.00     0.064 A 
ATOM     85  C   UNL A   1      43.787  27.568  35.900  1.00  0.00     0.173 A 
ATOM     86  C   UNL A   1      45.247  29.179  34.875  1.00  0.00     0.173 A 
ATOM     87  F   UNL A   1      42.563  27.076  36.143  1.00  0.00    -0.203 F 
ATOM     88  C   UNL A   1      44.887  26.959  36.498  1.00  0.00     0.198 A 
ATOM     89  C   UNL A   1      46.347  28.547  35.448  1.00  0.00     0.198 A 
ATOM     90  F   UNL A   1      45.455  30.251  34.096  1.00  0.00    -0.203 F 
ATOM     91  F   UNL A   1      44.708  25.906  37.310  1.00  0.00    -0.200 F 
ATOM     92  C   UNL A   1      46.166  27.442  36.263  1.00  0.00     0.200 A 
ATOM     93  F   UNL A   1      47.583  29.006  35.205  1.00  0.00    -0.200 F 
ATOM     94  F   UNL A   1      47.224  26.843  36.827  1.00  0.00    -0.200 F 
ENDBRANCH  61  84
ENDBRANCH  35  36
ENDBRANCH  27  30
ENDBRANCH  25  26
ENDBRANCH   1  25
TORSDOF 11
ENDMDL
