MODEL 1
REMARK VINA RESULT:     -14.0      0.000      0.000
REMARK SMILES Cc1cc(F)cc(N[C@H](C(=O)NCCCNC(=O)c2ccc(-c3c4nc(c(-c5c(F)c(F)c(F)c(F)c5F)c5ccc([nH]5)c(-c5c(F)c(F)c(F)c(F)c5F)c5nc(c(-c6c(F)c(F)c(F)c(F)c6F)c6ccc3[nH]6)C=C5)C=C4)cc2)c2cc(C)cc(C)c2)c1
REMARK SMILES IDX 14 1 13 2 12 3 10 4 11 5 9 7 8 8 7 10 1 11 2 12 3 13 90 14
REMARK SMILES IDX 4 15 5 16 6 17 82 18 83 19 89 20 84 21 87 22 85 23 86 24
REMARK SMILES IDX 88 25 15 26 16 27 17 28 18 30 19 31 20 32 81 33 21 34 80 35
REMARK SMILES IDX 22 36 23 37 24 38 74 39 25 40 79 41 73 42 75 43 26 44 78 45
REMARK SMILES IDX 72 46 71 47 27 49 59 50 39 51 58 52 40 53 43 54 57 55 76 56
REMARK SMILES IDX 41 57 42 58 56 60 77 61 44 62 28 63 29 64 37 65 30 66 31 67
REMARK SMILES IDX 35 68 38 69 32 70 33 71 36 72 34 73 60 74 61 75 69 76 62 77
REMARK SMILES IDX 63 78 67 79 70 80 64 81 65 82 68 83 66 84 45 85 46 86 54 87
REMARK SMILES IDX 47 88 48 89 52 90 55 91 49 92 50 93 53 94 51 95
REMARK H PARENT 12 6 8 9 16 29 75 48 43 59
REMARK Flexibility Score: inf
ROOT
ATOM      1  C   UNL A   1      33.422  28.310  26.131  1.00  0.00     0.042 C 
ENDROOT
BRANCH   1   2
ATOM      2  C   UNL A   1      33.011  29.262  25.036  1.00  0.00     0.117 C 
BRANCH   2   3
ATOM      3  N   UNL A   1      33.677  29.063  23.772  1.00  0.00    -0.354 N 
ATOM      4  C   UNL A   1      33.522  27.991  22.936  1.00  0.00     0.247 C 
ATOM      5  O   UNL A   1      34.156  28.043  21.876  1.00  0.00    -0.272 OA
ATOM      6  H   UNL A   1      34.301  29.767  23.483  1.00  0.00     0.163 HD
BRANCH   4   7
ATOM      7  C   UNL A   1      32.719  26.734  23.384  1.00  0.00     0.200 C 
BRANCH   7   8
ATOM      8  N   UNL A   1      31.359  26.558  22.780  1.00  0.00    -0.370 N 
ATOM      9  H   UNL A   1      31.303  25.820  22.131  1.00  0.00     0.161 HD
BRANCH   8  10
ATOM     10  C   UNL A   1      30.167  27.236  22.962  1.00  0.00     0.038 A 
ATOM     11  C   UNL A   1      28.603  30.550  21.764  1.00  0.00     0.044 C 
ATOM     12  C   UNL A   1      28.777  29.212  22.419  1.00  0.00    -0.046 A 
ATOM     13  C   UNL A   1      27.698  28.658  23.104  1.00  0.00     0.042 A 
ATOM     14  C   UNL A   1      30.005  28.515  22.384  1.00  0.00     0.029 A 
ATOM     15  C   UNL A   1      27.844  27.418  23.686  1.00  0.00     0.125 A 
ATOM     16  F   UNL A   1      26.819  26.867  24.350  1.00  0.00    -0.207 F 
ATOM     17  C   UNL A   1      29.041  26.717  23.584  1.00  0.00     0.065 A 
ENDBRANCH   8  10
ENDBRANCH   7   8
BRANCH   7  18
ATOM     18  C   UNL A   1      33.490  25.427  23.331  1.00  0.00    -0.016 A 
ATOM     19  C   UNL A   1      33.041  24.367  22.537  1.00  0.00     0.009 A 
ATOM     20  C   UNL A   1      34.519  25.193  24.249  1.00  0.00     0.009 A 
ATOM     21  C   UNL A   1      33.340  23.054  22.894  1.00  0.00    -0.051 A 
ATOM     22  C   UNL A   1      34.984  23.894  24.472  1.00  0.00    -0.051 A 
ATOM     23  C   UNL A   1      32.409  21.957  22.456  1.00  0.00     0.044 C 
ATOM     24  C   UNL A   1      34.332  22.822  23.848  1.00  0.00     0.006 A 
ATOM     25  C   UNL A   1      36.069  23.640  25.472  1.00  0.00     0.044 C 
ENDBRANCH   7  18
ENDBRANCH   4   7
ENDBRANCH   2   3
ENDBRANCH   1   2
BRANCH   1  26
ATOM     26  C   UNL A   1      34.569  28.872  26.925  1.00  0.00     0.118 C 
BRANCH  26  27
ATOM     27  N   UNL A   1      34.484  30.323  27.142  1.00  0.00    -0.352 N 
ATOM     28  C   UNL A   1      35.278  31.085  27.984  1.00  0.00     0.251 C 
ATOM     29  H   UNL A   1      33.788  30.804  26.638  1.00  0.00     0.163 HD
ATOM     30  O   UNL A   1      35.012  32.225  28.293  1.00  0.00    -0.269 OA
BRANCH  28  31
ATOM     31  C   UNL A   1      36.508  30.429  28.448  1.00  0.00     0.039 A 
ATOM     32  C   UNL A   1      36.569  29.644  29.602  1.00  0.00     0.014 A 
ATOM     33  C   UNL A   1      37.575  30.523  27.563  1.00  0.00     0.014 A 
ATOM     34  C   UNL A   1      37.729  28.913  29.838  1.00  0.00     0.010 A 
ATOM     35  C   UNL A   1      38.533  29.572  27.625  1.00  0.00     0.010 A 
ATOM     36  C   UNL A   1      38.693  28.891  28.831  1.00  0.00    -0.014 A 
BRANCH  36  37
ATOM     37  C   UNL A   1      40.021  28.329  28.930  1.00  0.00     0.031 A 
ATOM     38  C   UNL A   1      40.244  26.930  28.585  1.00  0.00     0.074 A 
ATOM     39  C   UNL A   1      40.976  29.275  29.100  1.00  0.00     0.049 A 
ATOM     40  N   UNL A   1      41.224  26.233  29.030  1.00  0.00    -0.248 NA
ATOM     41  C   UNL A   1      39.337  26.163  27.735  1.00  0.00     0.031 C 
ATOM     42  C   UNL A   1      42.403  29.261  28.852  1.00  0.00     0.029 A 
ATOM     43  N   UNL A   1      40.748  30.567  29.615  1.00  0.00    -0.354 N 
ATOM     44  C   UNL A   1      41.310  25.119  28.222  1.00  0.00     0.074 A 
ATOM     45  C   UNL A   1      40.010  25.012  27.610  1.00  0.00     0.031 C 
ATOM     46  C   UNL A   1      42.961  30.304  29.505  1.00  0.00     0.029 A 
ATOM     47  C   UNL A   1      41.910  30.939  30.293  1.00  0.00     0.049 A 
ATOM     48  H   UNL A   1      39.930  31.105  29.516  1.00  0.00     0.167 HD
ATOM     49  C   UNL A   1      42.551  24.590  28.003  1.00  0.00     0.037 A 
ATOM     50  C   UNL A   1      41.840  31.002  31.655  1.00  0.00     0.037 A 
ATOM     51  C   UNL A   1      43.544  25.394  28.727  1.00  0.00     0.049 A 
ATOM     52  C   UNL A   1      42.665  29.900  32.257  1.00  0.00     0.074 A 
ATOM     53  C   UNL A   1      44.412  26.385  28.301  1.00  0.00     0.029 A 
ATOM     54  N   UNL A   1      43.476  25.492  30.113  1.00  0.00    -0.354 N 
ATOM     55  N   UNL A   1      42.844  28.730  31.704  1.00  0.00    -0.248 NA
ATOM     56  C   UNL A   1      43.454  30.091  33.464  1.00  0.00     0.031 C 
ATOM     57  C   UNL A   1      44.824  27.121  29.445  1.00  0.00     0.029 A 
ATOM     58  C   UNL A   1      44.210  26.572  30.561  1.00  0.00     0.049 A 
ATOM     59  H   UNL A   1      42.975  24.875  30.694  1.00  0.00     0.167 HD
ATOM     60  C   UNL A   1      43.818  28.058  32.393  1.00  0.00     0.074 A 
ATOM     61  C   UNL A   1      44.151  28.943  33.496  1.00  0.00     0.031 C 
ATOM     62  C   UNL A   1      44.325  26.856  31.983  1.00  0.00     0.037 A 
BRANCH  49  63
ATOM     63  C   UNL A   1      42.970  23.596  26.933  1.00  0.00     0.064 A 
ATOM     64  C   UNL A   1      42.723  22.214  27.131  1.00  0.00     0.173 A 
ATOM     65  C   UNL A   1      43.642  23.892  25.732  1.00  0.00     0.173 A 
ATOM     66  F   UNL A   1      42.015  21.773  28.180  1.00  0.00    -0.203 F 
ATOM     67  C   UNL A   1      43.182  21.225  26.256  1.00  0.00     0.198 A 
ATOM     68  C   UNL A   1      44.100  22.902  24.854  1.00  0.00     0.198 A 
ATOM     69  F   UNL A   1      43.867  25.144  25.332  1.00  0.00    -0.203 F 
ATOM     70  F   UNL A   1      42.940  19.935  26.527  1.00  0.00    -0.200 F 
ATOM     71  C   UNL A   1      43.883  21.568  25.122  1.00  0.00     0.200 A 
ATOM     72  F   UNL A   1      44.756  23.258  23.740  1.00  0.00    -0.200 F 
ATOM     73  F   UNL A   1      44.329  20.623  24.285  1.00  0.00    -0.200 F 
ENDBRANCH  49  63
BRANCH  50  74
ATOM     74  C   UNL A   1      40.492  31.478  32.120  1.00  0.00     0.064 A 
ATOM     75  C   UNL A   1      39.639  30.511  32.699  1.00  0.00     0.173 A 
ATOM     76  C   UNL A   1      40.236  32.820  32.437  1.00  0.00     0.173 A 
ATOM     77  F   UNL A   1      39.826  29.208  32.426  1.00  0.00    -0.203 F 
ATOM     78  C   UNL A   1      38.699  30.851  33.672  1.00  0.00     0.198 A 
ATOM     79  C   UNL A   1      39.267  33.160  33.390  1.00  0.00     0.198 A 
ATOM     80  F   UNL A   1      40.994  33.797  31.920  1.00  0.00    -0.203 F 
ATOM     81  F   UNL A   1      38.022  29.887  34.313  1.00  0.00    -0.200 F 
ATOM     82  C   UNL A   1      38.537  32.174  34.040  1.00  0.00     0.200 A 
ATOM     83  F   UNL A   1      39.099  34.443  33.745  1.00  0.00    -0.200 F 
ATOM     84  F   UNL A   1      37.706  32.493  35.042  1.00  0.00    -0.200 F 
ENDBRANCH  50  74
BRANCH  62  85
ATOM     85  C   UNL A   1      45.107  25.886  32.841  1.00  0.00     0.064 A 
ATOM     86  C   UNL A   1      46.499  25.722  32.765  1.00  0.00     0.173 A 
ATOM     87  C   UNL A   1      44.478  25.180  33.900  1.00  0.00     0.173 A 
ATOM     88  F   UNL A   1      47.251  26.458  31.937  1.00  0.00    -0.203 F 
ATOM     89  C   UNL A   1      47.187  24.836  33.594  1.00  0.00     0.198 A 
ATOM     90  C   UNL A   1      45.182  24.364  34.780  1.00  0.00     0.198 A 
ATOM     91  F   UNL A   1      43.165  25.279  34.146  1.00  0.00    -0.203 F 
ATOM     92  F   UNL A   1      48.505  24.662  33.420  1.00  0.00    -0.200 F 
ATOM     93  C   UNL A   1      46.533  24.164  34.606  1.00  0.00     0.200 A 
ATOM     94  F   UNL A   1      44.542  23.789  35.809  1.00  0.00    -0.200 F 
ATOM     95  F   UNL A   1      47.206  23.351  35.428  1.00  0.00    -0.200 F 
ENDBRANCH  62  85
ENDBRANCH  36  37
ENDBRANCH  28  31
ENDBRANCH  26  27
ENDBRANCH   1  26
TORSDOF 13
ENDMDL
MODEL 2
REMARK VINA RESULT:     -13.9      1.222      1.806
REMARK SMILES Cc1cc(F)cc(N[C@H](C(=O)NCCCNC(=O)c2ccc(-c3c4nc(c(-c5c(F)c(F)c(F)c(F)c5F)c5ccc([nH]5)c(-c5c(F)c(F)c(F)c(F)c5F)c5nc(c(-c6c(F)c(F)c(F)c(F)c6F)c6ccc3[nH]6)C=C5)C=C4)cc2)c2cc(C)cc(C)c2)c1
REMARK SMILES IDX 14 1 13 2 12 3 10 4 11 5 9 7 8 8 7 10 1 11 2 12 3 13 90 14
REMARK SMILES IDX 4 15 5 16 6 17 82 18 83 19 89 20 84 21 87 22 85 23 86 24
REMARK SMILES IDX 88 25 15 26 16 27 17 28 18 30 19 31 20 32 81 33 21 34 80 35
REMARK SMILES IDX 22 36 23 37 24 38 74 39 25 40 79 41 73 42 75 43 26 44 78 45
REMARK SMILES IDX 72 46 71 47 27 49 59 50 39 51 58 52 40 53 43 54 57 55 76 56
REMARK SMILES IDX 41 57 42 58 56 60 77 61 44 62 28 63 29 64 37 65 30 66 31 67
REMARK SMILES IDX 35 68 38 69 32 70 33 71 36 72 34 73 60 74 61 75 69 76 62 77
REMARK SMILES IDX 63 78 67 79 70 80 64 81 65 82 68 83 66 84 45 85 46 86 54 87
REMARK SMILES IDX 47 88 48 89 52 90 55 91 49 92 50 93 53 94 51 95
REMARK H PARENT 12 6 8 9 16 29 75 48 43 59
REMARK Flexibility Score: inf
ROOT
ATOM      1  C   UNL A   1      33.406  28.563  26.958  1.00  0.00     0.042 C 
ENDROOT
BRANCH   1   2
ATOM      2  C   UNL A   1      32.806  29.465  25.910  1.00  0.00     0.117 C 
BRANCH   2   3
ATOM      3  N   UNL A   1      33.518  29.503  24.656  1.00  0.00    -0.354 N 
ATOM      4  C   UNL A   1      33.258  28.733  23.553  1.00  0.00     0.247 C 
ATOM      5  O   UNL A   1      33.964  28.960  22.565  1.00  0.00    -0.272 OA
ATOM      6  H   UNL A   1      34.261  30.144  24.586  1.00  0.00     0.163 HD
BRANCH   4   7
ATOM      7  C   UNL A   1      32.242  27.555  23.620  1.00  0.00     0.200 C 
BRANCH   7   8
ATOM      8  N   UNL A   1      31.054  27.642  22.711  1.00  0.00    -0.370 N 
ATOM      9  H   UNL A   1      31.109  27.052  21.925  1.00  0.00     0.161 HD
BRANCH   8  10
ATOM     10  C   UNL A   1      29.896  28.396  22.765  1.00  0.00     0.038 A 
ATOM     11  C   UNL A   1      28.744  31.877  21.578  1.00  0.00     0.044 C 
ATOM     12  C   UNL A   1      28.732  30.496  22.162  1.00  0.00    -0.046 A 
ATOM     13  C   UNL A   1      27.531  29.986  22.649  1.00  0.00     0.042 A 
ATOM     14  C   UNL A   1      29.904  29.713  22.256  1.00  0.00     0.029 A 
ATOM     15  C   UNL A   1      27.509  28.708  23.162  1.00  0.00     0.125 A 
ATOM     16  F   UNL A   1      26.364  28.198  23.637  1.00  0.00    -0.207 F 
ATOM     17  C   UNL A   1      28.660  27.927  23.186  1.00  0.00     0.065 A 
ENDBRANCH   8  10
ENDBRANCH   7   8
BRANCH   7  18
ATOM     18  C   UNL A   1      32.860  26.170  23.546  1.00  0.00    -0.016 A 
ATOM     19  C   UNL A   1      32.174  25.117  22.934  1.00  0.00     0.009 A 
ATOM     20  C   UNL A   1      34.010  25.884  24.290  1.00  0.00     0.009 A 
ATOM     21  C   UNL A   1      32.403  23.804  23.343  1.00  0.00    -0.051 A 
ATOM     22  C   UNL A   1      34.378  24.559  24.538  1.00  0.00    -0.051 A 
ATOM     23  C   UNL A   1      31.306  22.791  23.166  1.00  0.00     0.044 C 
ATOM     24  C   UNL A   1      33.523  23.527  24.129  1.00  0.00     0.006 A 
ATOM     25  C   UNL A   1      35.594  24.253  25.355  1.00  0.00     0.044 C 
ENDBRANCH   7  18
ENDBRANCH   4   7
ENDBRANCH   2   3
ENDBRANCH   1   2
BRANCH   1  26
ATOM     26  C   UNL A   1      34.825  28.959  27.255  1.00  0.00     0.118 C 
BRANCH  26  27
ATOM     27  N   UNL A   1      34.941  30.138  28.125  1.00  0.00    -0.352 N 
ATOM     28  C   UNL A   1      35.984  30.434  28.988  1.00  0.00     0.251 C 
ATOM     29  H   UNL A   1      34.199  30.784  28.092  1.00  0.00     0.163 HD
ATOM     30  O   UNL A   1      35.914  31.292  29.840  1.00  0.00    -0.269 OA
BRANCH  28  31
ATOM     31  C   UNL A   1      37.215  29.663  28.771  1.00  0.00     0.039 A 
ATOM     32  C   UNL A   1      37.974  29.745  27.601  1.00  0.00     0.014 A 
ATOM     33  C   UNL A   1      37.652  28.959  29.886  1.00  0.00     0.014 A 
ATOM     34  C   UNL A   1      39.219  29.125  27.582  1.00  0.00     0.010 A 
ATOM     35  C   UNL A   1      38.967  28.660  29.970  1.00  0.00     0.010 A 
ATOM     36  C   UNL A   1      39.693  28.594  28.781  1.00  0.00    -0.014 A 
BRANCH  36  37
ATOM     37  C   UNL A   1      40.876  27.781  28.949  1.00  0.00     0.031 A 
ATOM     38  C   UNL A   1      40.827  26.355  28.647  1.00  0.00     0.074 A 
ATOM     39  C   UNL A   1      41.995  28.521  29.138  1.00  0.00     0.049 A 
ATOM     40  N   UNL A   1      41.629  25.491  29.150  1.00  0.00    -0.248 NA
ATOM     41  C   UNL A   1      39.816  25.758  27.777  1.00  0.00     0.031 C 
ATOM     42  C   UNL A   1      43.399  28.215  28.951  1.00  0.00     0.029 A 
ATOM     43  N   UNL A   1      42.013  29.849  29.612  1.00  0.00    -0.354 N 
ATOM     44  C   UNL A   1      41.519  24.357  28.372  1.00  0.00     0.074 A 
ATOM     45  C   UNL A   1      40.248  24.493  27.709  1.00  0.00     0.031 C 
ATOM     46  C   UNL A   1      44.130  29.145  29.603  1.00  0.00     0.029 A 
ATOM     47  C   UNL A   1      43.200  30.002  30.330  1.00  0.00     0.049 A 
ATOM     48  H   UNL A   1      41.323  30.536  29.466  1.00  0.00     0.167 HD
ATOM     49  C   UNL A   1      42.636  23.584  28.219  1.00  0.00     0.037 A 
ATOM     50  C   UNL A   1      43.093  30.120  31.686  1.00  0.00     0.037 A 
ATOM     51  C   UNL A   1      43.743  24.195  28.966  1.00  0.00     0.049 A 
ATOM     52  C   UNL A   1      43.658  28.895  32.348  1.00  0.00     0.074 A 
ATOM     53  C   UNL A   1      44.807  24.979  28.554  1.00  0.00     0.029 A 
ATOM     54  N   UNL A   1      43.645  24.348  30.345  1.00  0.00    -0.354 N 
ATOM     55  N   UNL A   1      43.618  27.696  31.831  1.00  0.00    -0.248 NA
ATOM     56  C   UNL A   1      44.424  28.962  33.583  1.00  0.00     0.031 C 
ATOM     57  C   UNL A   1      45.316  25.653  29.697  1.00  0.00     0.029 A 
ATOM     58  C   UNL A   1      44.564  25.273  30.798  1.00  0.00     0.049 A 
ATOM     59  H   UNL A   1      43.009  23.863  30.918  1.00  0.00     0.167 HD
ATOM     60  C   UNL A   1      44.411  26.865  32.576  1.00  0.00     0.074 A 
ATOM     61  C   UNL A   1      44.874  27.700  33.672  1.00  0.00     0.031 C 
ATOM     62  C   UNL A   1      44.681  25.574  32.216  1.00  0.00     0.037 A 
BRANCH  49  63
ATOM     63  C   UNL A   1      42.885  22.493  27.191  1.00  0.00     0.064 A 
ATOM     64  C   UNL A   1      42.146  21.286  27.264  1.00  0.00     0.173 A 
ATOM     65  C   UNL A   1      43.836  22.523  26.153  1.00  0.00     0.173 A 
ATOM     66  F   UNL A   1      41.142  21.131  28.138  1.00  0.00    -0.203 F 
ATOM     67  C   UNL A   1      42.397  20.188  26.435  1.00  0.00     0.198 A 
ATOM     68  C   UNL A   1      44.086  21.424  25.322  1.00  0.00     0.198 A 
ATOM     69  F   UNL A   1      44.549  23.613  25.871  1.00  0.00    -0.203 F 
ATOM     70  F   UNL A   1      41.680  19.066  26.585  1.00  0.00    -0.200 F 
ATOM     71  C   UNL A   1      43.377  20.252  25.471  1.00  0.00     0.200 A 
ATOM     72  F   UNL A   1      45.026  21.516  24.369  1.00  0.00    -0.200 F 
ATOM     73  F   UNL A   1      43.624  19.201  24.679  1.00  0.00    -0.200 F 
ENDBRANCH  49  63
BRANCH  50  74
ATOM     74  C   UNL A   1      41.852  30.871  32.083  1.00  0.00     0.064 A 
ATOM     75  C   UNL A   1      40.849  30.134  32.752  1.00  0.00     0.173 A 
ATOM     76  C   UNL A   1      41.836  32.263  32.250  1.00  0.00     0.173 A 
ATOM     77  F   UNL A   1      40.805  28.797  32.623  1.00  0.00    -0.203 F 
ATOM     78  C   UNL A   1      39.990  30.735  33.672  1.00  0.00     0.198 A 
ATOM     79  C   UNL A   1      40.949  32.867  33.150  1.00  0.00     0.198 A 
ATOM     80  F   UNL A   1      42.749  33.032  31.640  1.00  0.00    -0.203 F 
ATOM     81  F   UNL A   1      39.161  29.979  34.406  1.00  0.00    -0.200 F 
ATOM     82  C   UNL A   1      40.063  32.099  33.894  1.00  0.00     0.200 A 
ATOM     83  F   UNL A   1      41.010  34.190  33.363  1.00  0.00    -0.200 F 
ATOM     84  F   UNL A   1      39.308  32.664  34.847  1.00  0.00    -0.200 F 
ENDBRANCH  50  74
BRANCH  62  85
ATOM     85  C   UNL A   1      45.220  24.495  33.130  1.00  0.00     0.064 A 
ATOM     86  C   UNL A   1      44.495  23.352  33.501  1.00  0.00     0.173 A 
ATOM     87  C   UNL A   1      46.575  24.508  33.551  1.00  0.00     0.173 A 
ATOM     88  F   UNL A   1      43.265  23.112  33.030  1.00  0.00    -0.203 F 
ATOM     89  C   UNL A   1      45.039  22.365  34.325  1.00  0.00     0.198 A 
ATOM     90  C   UNL A   1      47.138  23.479  34.300  1.00  0.00     0.198 A 
ATOM     91  F   UNL A   1      47.417  25.498  33.226  1.00  0.00    -0.203 F 
ATOM     92  F   UNL A   1      44.272  21.336  34.712  1.00  0.00    -0.200 F 
ATOM     93  C   UNL A   1      46.361  22.423  34.717  1.00  0.00     0.200 A 
ATOM     94  F   UNL A   1      48.446  23.512  34.596  1.00  0.00    -0.200 F 
ATOM     95  F   UNL A   1      46.890  21.451  35.469  1.00  0.00    -0.200 F 
ENDBRANCH  62  85
ENDBRANCH  36  37
ENDBRANCH  28  31
ENDBRANCH  26  27
ENDBRANCH   1  26
TORSDOF 13
ENDMDL
MODEL 3
REMARK VINA RESULT:     -13.7      3.604      9.414
REMARK SMILES Cc1cc(F)cc(N[C@H](C(=O)NCCCNC(=O)c2ccc(-c3c4nc(c(-c5c(F)c(F)c(F)c(F)c5F)c5ccc([nH]5)c(-c5c(F)c(F)c(F)c(F)c5F)c5nc(c(-c6c(F)c(F)c(F)c(F)c6F)c6ccc3[nH]6)C=C5)C=C4)cc2)c2cc(C)cc(C)c2)c1
REMARK SMILES IDX 14 1 13 2 12 3 10 4 11 5 9 7 8 8 7 10 1 11 2 12 3 13 90 14
REMARK SMILES IDX 4 15 5 16 6 17 82 18 83 19 89 20 84 21 87 22 85 23 86 24
REMARK SMILES IDX 88 25 15 26 16 27 17 28 18 30 19 31 20 32 81 33 21 34 80 35
REMARK SMILES IDX 22 36 23 37 24 38 74 39 25 40 79 41 73 42 75 43 26 44 78 45
REMARK SMILES IDX 72 46 71 47 27 49 59 50 39 51 58 52 40 53 43 54 57 55 76 56
REMARK SMILES IDX 41 57 42 58 56 60 77 61 44 62 28 63 29 64 37 65 30 66 31 67
REMARK SMILES IDX 35 68 38 69 32 70 33 71 36 72 34 73 60 74 61 75 69 76 62 77
REMARK SMILES IDX 63 78 67 79 70 80 64 81 65 82 68 83 66 84 45 85 46 86 54 87
REMARK SMILES IDX 47 88 48 89 52 90 55 91 49 92 50 93 53 94 51 95
REMARK H PARENT 12 6 8 9 16 29 75 48 43 59
REMARK Flexibility Score: inf
ROOT
ATOM      1  C   UNL A   1      36.608  23.289  25.122  1.00  0.00     0.042 C 
ENDROOT
BRANCH   1   2
ATOM      2  C   UNL A   1      35.987  21.981  25.541  1.00  0.00     0.117 C 
BRANCH   2   3
ATOM      3  N   UNL A   1      35.196  22.038  26.746  1.00  0.00    -0.354 N 
ATOM      4  C   UNL A   1      33.873  22.379  26.831  1.00  0.00     0.247 C 
ATOM      5  O   UNL A   1      33.377  22.319  27.962  1.00  0.00    -0.272 OA
ATOM      6  H   UNL A   1      35.653  21.810  27.588  1.00  0.00     0.163 HD
BRANCH   4   7
ATOM      7  C   UNL A   1      33.110  22.948  25.598  1.00  0.00     0.200 C 
BRANCH   7   8
ATOM      8  N   UNL A   1      32.141  22.024  24.926  1.00  0.00    -0.370 N 
ATOM      9  H   UNL A   1      31.212  22.350  24.929  1.00  0.00     0.161 HD
BRANCH   8  10
ATOM     10  C   UNL A   1      32.303  20.800  24.302  1.00  0.00     0.038 A 
ATOM     11  C   UNL A   1      32.774  17.131  25.384  1.00  0.00     0.044 C 
ATOM     12  C   UNL A   1      32.578  18.351  24.535  1.00  0.00    -0.046 A 
ATOM     13  C   UNL A   1      32.468  18.194  23.155  1.00  0.00     0.042 A 
ATOM     14  C   UNL A   1      32.529  19.649  25.089  1.00  0.00     0.029 A 
ATOM     15  C   UNL A   1      32.262  19.309  22.372  1.00  0.00     0.125 A 
ATOM     16  F   UNL A   1      32.154  19.180  21.043  1.00  0.00    -0.207 F 
ATOM     17  C   UNL A   1      32.150  20.572  22.943  1.00  0.00     0.065 A 
ENDBRANCH   8  10
ENDBRANCH   7   8
BRANCH   7  18
ATOM     18  C   UNL A   1      32.478  24.312  25.808  1.00  0.00    -0.016 A 
ATOM     19  C   UNL A   1      31.142  24.537  25.463  1.00  0.00     0.009 A 
ATOM     20  C   UNL A   1      33.286  25.408  26.129  1.00  0.00     0.009 A 
ATOM     21  C   UNL A   1      30.724  25.814  25.092  1.00  0.00    -0.051 A 
ATOM     22  C   UNL A   1      32.808  26.710  25.962  1.00  0.00    -0.051 A 
ATOM     23  C   UNL A   1      29.541  25.949  24.174  1.00  0.00     0.044 C 
ATOM     24  C   UNL A   1      31.554  26.903  25.366  1.00  0.00     0.006 A 
ATOM     25  C   UNL A   1      33.680  27.883  26.281  1.00  0.00     0.044 C 
ENDBRANCH   7  18
ENDBRANCH   4   7
ENDBRANCH   2   3
ENDBRANCH   1   2
BRANCH   1  26
ATOM     26  C   UNL A   1      37.626  23.744  26.131  1.00  0.00     0.118 C 
BRANCH  26  27
ATOM     27  N   UNL A   1      38.746  22.808  26.305  1.00  0.00    -0.352 N 
ATOM     28  C   UNL A   1      40.069  23.133  26.559  1.00  0.00     0.251 C 
ATOM     29  H   UNL A   1      38.534  21.849  26.232  1.00  0.00     0.163 HD
ATOM     30  O   UNL A   1      40.977  22.338  26.462  1.00  0.00    -0.269 OA
BRANCH  28  31
ATOM     31  C   UNL A   1      40.300  24.513  27.005  1.00  0.00     0.039 A 
ATOM     32  C   UNL A   1      40.486  25.582  26.125  1.00  0.00     0.014 A 
ATOM     33  C   UNL A   1      40.164  24.701  28.375  1.00  0.00     0.014 A 
ATOM     34  C   UNL A   1      40.498  26.871  26.650  1.00  0.00     0.010 A 
ATOM     35  C   UNL A   1      39.846  25.939  28.815  1.00  0.00     0.010 A 
ATOM     36  C   UNL A   1      40.171  27.020  27.997  1.00  0.00    -0.014 A 
BRANCH  36  37
ATOM     37  C   UNL A   1      40.272  28.236  28.773  1.00  0.00     0.031 A 
ATOM     38  C   UNL A   1      39.224  29.246  28.679  1.00  0.00     0.074 A 
ATOM     39  C   UNL A   1      41.243  28.174  29.715  1.00  0.00     0.049 A 
ATOM     40  N   UNL A   1      39.402  30.487  28.951  1.00  0.00    -0.248 NA
ATOM     41  C   UNL A   1      37.872  28.953  28.210  1.00  0.00     0.031 C 
ATOM     42  C   UNL A   1      41.450  28.921  30.939  1.00  0.00     0.029 A 
ATOM     43  N   UNL A   1      42.350  27.302  29.677  1.00  0.00    -0.354 N 
ATOM     44  C   UNL A   1      38.147  31.037  29.104  1.00  0.00     0.074 A 
ATOM     45  C   UNL A   1      37.265  30.128  28.418  1.00  0.00     0.031 C 
ATOM     46  C   UNL A   1      42.727  28.739  31.340  1.00  0.00     0.029 A 
ATOM     47  C   UNL A   1      43.404  27.965  30.307  1.00  0.00     0.049 A 
ATOM     48  H   UNL A   1      42.376  26.401  29.282  1.00  0.00     0.167 HD
ATOM     49  C   UNL A   1      38.010  32.059  30.001  1.00  0.00     0.037 A 
ATOM     50  C   UNL A   1      44.432  28.389  29.514  1.00  0.00     0.037 A 
ATOM     51  C   UNL A   1      39.315  32.329  30.617  1.00  0.00     0.049 A 
ATOM     52  C   UNL A   1      44.435  29.891  29.449  1.00  0.00     0.074 A 
ATOM     53  C   UNL A   1      39.847  31.960  31.841  1.00  0.00     0.029 A 
ATOM     54  N   UNL A   1      40.382  32.739  29.825  1.00  0.00    -0.354 N 
ATOM     55  N   UNL A   1      43.361  30.631  29.512  1.00  0.00    -0.248 NA
ATOM     56  C   UNL A   1      45.667  30.665  29.440  1.00  0.00     0.031 C 
ATOM     57  C   UNL A   1      41.259  32.098  31.758  1.00  0.00     0.029 A 
ATOM     58  C   UNL A   1      41.578  32.555  30.488  1.00  0.00     0.049 A 
ATOM     59  H   UNL A   1      40.295  33.109  28.917  1.00  0.00     0.167 HD
ATOM     60  C   UNL A   1      43.733  31.942  29.652  1.00  0.00     0.074 A 
ATOM     61  C   UNL A   1      45.184  31.911  29.579  1.00  0.00     0.031 C 
ATOM     62  C   UNL A   1      42.838  32.950  29.875  1.00  0.00     0.037 A 
BRANCH  49  63
ATOM     63  C   UNL A   1      36.727  32.619  30.592  1.00  0.00     0.064 A 
ATOM     64  C   UNL A   1      35.961  33.547  29.843  1.00  0.00     0.173 A 
ATOM     65  C   UNL A   1      36.206  32.345  31.871  1.00  0.00     0.173 A 
ATOM     66  F   UNL A   1      36.271  33.847  28.574  1.00  0.00    -0.203 F 
ATOM     67  C   UNL A   1      34.837  34.200  30.359  1.00  0.00     0.198 A 
ATOM     68  C   UNL A   1      35.079  32.997  32.387  1.00  0.00     0.198 A 
ATOM     69  F   UNL A   1      36.736  31.422  32.674  1.00  0.00    -0.203 F 
ATOM     70  F   UNL A   1      34.183  35.092  29.602  1.00  0.00    -0.200 F 
ATOM     71  C   UNL A   1      34.403  33.934  31.638  1.00  0.00     0.200 A 
ATOM     72  F   UNL A   1      34.655  32.703  33.625  1.00  0.00    -0.200 F 
ATOM     73  F   UNL A   1      33.330  34.561  32.137  1.00  0.00    -0.200 F 
ENDBRANCH  49  63
BRANCH  50  74
ATOM     74  C   UNL A   1      44.690  27.435  28.381  1.00  0.00     0.064 A 
ATOM     75  C   UNL A   1      45.016  26.105  28.730  1.00  0.00     0.173 A 
ATOM     76  C   UNL A   1      44.187  27.647  27.089  1.00  0.00     0.173 A 
ATOM     77  F   UNL A   1      45.512  25.838  29.950  1.00  0.00    -0.203 F 
ATOM     78  C   UNL A   1      44.695  25.031  27.901  1.00  0.00     0.198 A 
ATOM     79  C   UNL A   1      43.898  26.566  26.246  1.00  0.00     0.198 A 
ATOM     80  F   UNL A   1      43.865  28.882  26.679  1.00  0.00    -0.203 F 
ATOM     81  F   UNL A   1      44.872  23.774  28.335  1.00  0.00    -0.200 F 
ATOM     82  C   UNL A   1      44.105  25.261  26.671  1.00  0.00     0.200 A 
ATOM     83  F   UNL A   1      43.333  26.785  25.048  1.00  0.00    -0.200 F 
ATOM     84  F   UNL A   1      43.706  24.229  25.915  1.00  0.00    -0.200 F 
ENDBRANCH  50  74
BRANCH  62  85
ATOM     85  C   UNL A   1      43.100  34.427  29.677  1.00  0.00     0.064 A 
ATOM     86  C   UNL A   1      43.364  35.321  30.726  1.00  0.00     0.173 A 
ATOM     87  C   UNL A   1      43.243  34.973  28.375  1.00  0.00     0.173 A 
ATOM     88  F   UNL A   1      43.443  34.912  31.999  1.00  0.00    -0.203 F 
ATOM     89  C   UNL A   1      43.628  36.672  30.499  1.00  0.00     0.198 A 
ATOM     90  C   UNL A   1      43.593  36.301  28.152  1.00  0.00     0.198 A 
ATOM     91  F   UNL A   1      43.086  34.235  27.268  1.00  0.00    -0.203 F 
ATOM     92  F   UNL A   1      43.792  37.494  31.545  1.00  0.00    -0.200 F 
ATOM     93  C   UNL A   1      43.751  37.161  29.215  1.00  0.00     0.200 A 
ATOM     94  F   UNL A   1      43.793  36.733  26.898  1.00  0.00    -0.200 F 
ATOM     95  F   UNL A   1      44.050  38.448  29.003  1.00  0.00    -0.200 F 
ENDBRANCH  62  85
ENDBRANCH  36  37
ENDBRANCH  28  31
ENDBRANCH  26  27
ENDBRANCH   1  26
TORSDOF 13
ENDMDL
