MODEL 1
REMARK VINA RESULT:     -12.6      0.000      0.000
REMARK SMILES Cc1nc([C@@H]2C[N@@H+]3CCC[C@@H]3CO2)sc1CC(=O)NCCCNC(=O)c1ccc(-c2c3nc(c(-c4c(F)c(F)c(F)c(F)c4F)c4ccc([nH]4)c(-c4c(F)c(F)c(F)c(F)c4F)c4nc(c(-c5c(F)c(F)c(F)c(F)c5F)c5ccc2[nH]5)C=C4)C=C3)cc1
REMARK SMILES IDX 21 1 20 2 19 3 17 4 18 5 16 7 15 8 1 9 2 10 3 11 4 12 14 13
REMARK SMILES IDX 5 14 6 15 13 16 7 17 12 18 8 19 11 20 9 22 10 23 22 24 23 25
REMARK SMILES IDX 24 26 25 28 26 29 27 30 88 31 28 32 87 33 29 34 30 35 31 36
REMARK SMILES IDX 81 37 32 38 86 39 80 40 82 41 33 42 85 43 79 44 78 45 34 47
REMARK SMILES IDX 66 48 46 49 65 50 47 51 50 52 64 53 83 54 48 55 49 56 63 58
REMARK SMILES IDX 84 59 51 60 35 61 36 62 44 63 37 64 38 65 42 66 45 67 39 68
REMARK SMILES IDX 40 69 43 70 41 71 67 72 68 73 76 74 69 75 70 76 74 77 77 78
REMARK SMILES IDX 71 79 72 80 75 81 73 82 52 83 53 84 61 85 54 86 55 87 59 88
REMARK SMILES IDX 62 89 56 90 57 91 60 92 58 93
REMARK H PARENT 19 6 7 21 23 27 82 46 50 57
REMARK Flexibility Score: inf
ROOT
ATOM      1  C   UNL A   1      31.476  32.169  26.634  1.00  0.00     0.042 C 
ENDROOT
BRANCH   1   2
ATOM      2  C   UNL A   1      31.701  30.709  26.252  1.00  0.00     0.117 C 
BRANCH   2   3
ATOM      3  N   UNL A   1      32.943  30.192  26.795  1.00  0.00    -0.356 N 
ATOM      4  C   UNL A   1      33.747  29.193  26.327  1.00  0.00     0.225 C 
ATOM      5  O   UNL A   1      34.735  28.885  26.997  1.00  0.00    -0.275 OA
ATOM      6  H   UNL A   1      33.253  30.626  27.622  1.00  0.00     0.163 HD
BRANCH   4   7
ATOM      7  C   UNL A   1      33.474  28.541  24.981  1.00  0.00     0.148 C 
BRANCH   7   8
ATOM      8  C   UNL A   1      32.619  27.318  25.092  1.00  0.00     0.037 A 
ATOM      9  C   UNL A   1      30.401  28.054  23.966  1.00  0.00     0.068 C 
ATOM     10  C   UNL A   1      31.324  27.106  24.645  1.00  0.00     0.052 A 
ATOM     11  N   UNL A   1      30.810  25.863  24.946  1.00  0.00    -0.243 NA
ATOM     12  C   UNL A   1      31.653  25.172  25.687  1.00  0.00     0.128 A 
ATOM     13  S   UNL A   1      33.199  25.891  25.866  1.00  0.00    -0.120 S 
BRANCH  12  14
ATOM     14  C   UNL A   1      31.294  23.874  26.383  1.00  0.00     0.232 C 
ATOM     15  C   UNL A   1      32.558  23.180  26.968  1.00  0.00     0.302 C 
ATOM     16  O   UNL A   1      30.552  23.072  25.438  1.00  0.00    -0.359 OA
ATOM     17  N   UNL A   1      32.858  21.804  26.548  1.00  0.00    -0.328 N 
ATOM     18  C   UNL A   1      31.412  22.401  24.515  1.00  0.00     0.226 C 
ATOM     19  C   UNL A   1      34.290  21.484  26.592  1.00  0.00     0.262 C 
ATOM     20  C   UNL A   1      32.324  21.408  25.233  1.00  0.00     0.210 C 
ATOM     21  H   UNL A   1      32.360  21.255  27.249  1.00  0.00     0.348 HD
ATOM     22  C   UNL A   1      34.508  20.507  25.450  1.00  0.00     0.068 C 
ATOM     23  C   UNL A   1      33.536  21.007  24.400  1.00  0.00     0.073 C 
ENDBRANCH  12  14
ENDBRANCH   7   8
ENDBRANCH   4   7
ENDBRANCH   2   3
ENDBRANCH   1   2
BRANCH   1  24
ATOM     24  C   UNL A   1      32.690  32.821  27.286  1.00  0.00     0.118 C 
BRANCH  24  25
ATOM     25  N   UNL A   1      32.438  34.201  27.684  1.00  0.00    -0.352 N 
ATOM     26  C   UNL A   1      33.016  34.945  28.681  1.00  0.00     0.251 C 
ATOM     27  H   UNL A   1      31.749  34.669  27.159  1.00  0.00     0.163 HD
ATOM     28  O   UNL A   1      32.541  36.037  28.986  1.00  0.00    -0.269 OA
BRANCH  26  29
ATOM     29  C   UNL A   1      34.199  34.431  29.401  1.00  0.00     0.039 A 
ATOM     30  C   UNL A   1      34.019  33.794  30.633  1.00  0.00     0.014 A 
ATOM     31  C   UNL A   1      35.481  34.586  28.872  1.00  0.00     0.014 A 
ATOM     32  C   UNL A   1      35.122  33.256  31.301  1.00  0.00     0.010 A 
ATOM     33  C   UNL A   1      36.566  33.981  29.497  1.00  0.00     0.010 A 
ATOM     34  C   UNL A   1      36.400  33.313  30.721  1.00  0.00    -0.014 A 
BRANCH  34  35
ATOM     35  C   UNL A   1      37.584  32.704  31.378  1.00  0.00     0.031 A 
ATOM     36  C   UNL A   1      38.304  31.565  30.708  1.00  0.00     0.074 A 
ATOM     37  C   UNL A   1      37.967  33.122  32.600  1.00  0.00     0.049 A 
ATOM     38  N   UNL A   1      39.266  30.806  31.168  1.00  0.00    -0.248 NA
ATOM     39  C   UNL A   1      37.864  31.215  29.346  1.00  0.00     0.031 C 
ATOM     40  C   UNL A   1      37.337  34.201  33.364  1.00  0.00     0.029 A 
ATOM     41  N   UNL A   1      38.971  32.676  33.426  1.00  0.00    -0.354 N 
ATOM     42  C   UNL A   1      39.538  29.890  30.159  1.00  0.00     0.074 A 
ATOM     43  C   UNL A   1      38.600  30.145  29.088  1.00  0.00     0.031 C 
ATOM     44  C   UNL A   1      37.977  34.342  34.537  1.00  0.00     0.029 A 
ATOM     45  C   UNL A   1      39.027  33.333  34.631  1.00  0.00     0.049 A 
ATOM     46  H   UNL A   1      39.591  31.954  33.176  1.00  0.00     0.167 HD
ATOM     47  C   UNL A   1      40.503  28.940  30.119  1.00  0.00     0.037 A 
ATOM     48  C   UNL A   1      39.822  33.127  35.699  1.00  0.00     0.037 A 
ATOM     49  C   UNL A   1      41.444  28.698  31.179  1.00  0.00     0.049 A 
ATOM     50  C   UNL A   1      40.851  32.026  35.644  1.00  0.00     0.074 A 
ATOM     51  C   UNL A   1      42.468  27.768  31.228  1.00  0.00     0.029 A 
ATOM     52  N   UNL A   1      41.479  29.398  32.377  1.00  0.00    -0.354 N 
ATOM     53  N   UNL A   1      41.127  31.195  34.669  1.00  0.00    -0.248 NA
ATOM     54  C   UNL A   1      41.684  31.837  36.841  1.00  0.00     0.031 C 
ATOM     55  C   UNL A   1      43.096  27.876  32.472  1.00  0.00     0.029 A 
ATOM     56  C   UNL A   1      42.503  28.912  33.174  1.00  0.00     0.049 A 
ATOM     57  H   UNL A   1      40.867  30.129  32.623  1.00  0.00     0.167 HD
ATOM     58  C   UNL A   1      42.193  30.425  35.112  1.00  0.00     0.074 A 
ATOM     59  C   UNL A   1      42.521  30.890  36.442  1.00  0.00     0.031 C 
ATOM     60  C   UNL A   1      42.845  29.420  34.477  1.00  0.00     0.037 A 
BRANCH  47  61
ATOM     61  C   UNL A   1      40.604  28.102  28.878  1.00  0.00     0.064 A 
ATOM     62  C   UNL A   1      39.886  26.904  28.746  1.00  0.00     0.173 A 
ATOM     63  C   UNL A   1      41.371  28.530  27.784  1.00  0.00     0.173 A 
ATOM     64  F   UNL A   1      39.145  26.445  29.767  1.00  0.00    -0.203 F 
ATOM     65  C   UNL A   1      39.949  26.154  27.575  1.00  0.00     0.198 A 
ATOM     66  C   UNL A   1      41.406  27.794  26.601  1.00  0.00     0.198 A 
ATOM     67  F   UNL A   1      42.073  29.671  27.853  1.00  0.00    -0.203 F 
ATOM     68  F   UNL A   1      39.286  24.992  27.488  1.00  0.00    -0.200 F 
ATOM     69  C   UNL A   1      40.700  26.606  26.500  1.00  0.00     0.200 A 
ATOM     70  F   UNL A   1      42.119  28.239  25.558  1.00  0.00    -0.200 F 
ATOM     71  F   UNL A   1      40.745  25.892  25.367  1.00  0.00    -0.200 F 
ENDBRANCH  47  61
BRANCH  48  72
ATOM     72  C   UNL A   1      39.696  33.975  36.916  1.00  0.00     0.064 A 
ATOM     73  C   UNL A   1      38.917  33.558  38.005  1.00  0.00     0.173 A 
ATOM     74  C   UNL A   1      40.295  35.241  36.994  1.00  0.00     0.173 A 
ATOM     75  F   UNL A   1      38.306  32.364  37.972  1.00  0.00    -0.203 F 
ATOM     76  C   UNL A   1      38.703  34.391  39.101  1.00  0.00     0.198 A 
ATOM     77  C   UNL A   1      40.113  36.058  38.108  1.00  0.00     0.198 A 
ATOM     78  F   UNL A   1      41.057  35.688  35.985  1.00  0.00    -0.203 F 
ATOM     79  F   UNL A   1      37.891  33.996  40.092  1.00  0.00    -0.200 F 
ATOM     80  C   UNL A   1      39.303  35.639  39.153  1.00  0.00     0.200 A 
ATOM     81  F   UNL A   1      40.707  37.256  38.163  1.00  0.00    -0.200 F 
ATOM     82  F   UNL A   1      39.088  36.445  40.203  1.00  0.00    -0.200 F 
ENDBRANCH  48  72
BRANCH  60  83
ATOM     83  C   UNL A   1      44.031  28.812  35.168  1.00  0.00     0.064 A 
ATOM     84  C   UNL A   1      45.331  29.304  34.986  1.00  0.00     0.173 A 
ATOM     85  C   UNL A   1      43.848  27.753  36.071  1.00  0.00     0.173 A 
ATOM     86  F   UNL A   1      45.561  30.306  34.125  1.00  0.00    -0.203 F 
ATOM     87  C   UNL A   1      46.409  28.741  35.665  1.00  0.00     0.198 A 
ATOM     88  C   UNL A   1      44.923  27.215  36.774  1.00  0.00     0.198 A 
ATOM     89  F   UNL A   1      42.623  27.250  36.287  1.00  0.00    -0.203 F 
ATOM     90  F   UNL A   1      47.650  29.195  35.440  1.00  0.00    -0.200 F 
ATOM     91  C   UNL A   1      46.203  27.705  36.565  1.00  0.00     0.200 A 
ATOM     92  F   UNL A   1      44.719  26.227  37.656  1.00  0.00    -0.200 F 
ATOM     93  F   UNL A   1      47.240  27.176  37.227  1.00  0.00    -0.200 F 
ENDBRANCH  60  83
ENDBRANCH  34  35
ENDBRANCH  26  29
ENDBRANCH  24  25
ENDBRANCH   1  24
TORSDOF 12
ENDMDL
MODEL 2
REMARK VINA RESULT:     -12.5      1.108      1.300
REMARK SMILES Cc1nc([C@@H]2C[N@@H+]3CCC[C@@H]3CO2)sc1CC(=O)NCCCNC(=O)c1ccc(-c2c3nc(c(-c4c(F)c(F)c(F)c(F)c4F)c4ccc([nH]4)c(-c4c(F)c(F)c(F)c(F)c4F)c4nc(c(-c5c(F)c(F)c(F)c(F)c5F)c5ccc2[nH]5)C=C4)C=C3)cc1
REMARK SMILES IDX 21 1 20 2 19 3 17 4 18 5 16 7 15 8 1 9 2 10 3 11 4 12 14 13
REMARK SMILES IDX 5 14 6 15 13 16 7 17 12 18 8 19 11 20 9 22 10 23 22 24 23 25
REMARK SMILES IDX 24 26 25 28 26 29 27 30 88 31 28 32 87 33 29 34 30 35 31 36
REMARK SMILES IDX 81 37 32 38 86 39 80 40 82 41 33 42 85 43 79 44 78 45 34 47
REMARK SMILES IDX 66 48 46 49 65 50 47 51 50 52 64 53 83 54 48 55 49 56 63 58
REMARK SMILES IDX 84 59 51 60 35 61 36 62 44 63 37 64 38 65 42 66 45 67 39 68
REMARK SMILES IDX 40 69 43 70 41 71 67 72 68 73 76 74 69 75 70 76 74 77 77 78
REMARK SMILES IDX 71 79 72 80 75 81 73 82 52 83 53 84 61 85 54 86 55 87 59 88
REMARK SMILES IDX 62 89 56 90 57 91 60 92 58 93
REMARK H PARENT 19 6 7 21 23 27 82 46 50 57
REMARK Flexibility Score: inf
ROOT
ATOM      1  C   UNL A   1      31.470  31.899  26.511  1.00  0.00     0.042 C 
ENDROOT
BRANCH   1   2
ATOM      2  C   UNL A   1      31.795  30.558  25.860  1.00  0.00     0.117 C 
BRANCH   2   3
ATOM      3  N   UNL A   1      31.427  29.440  26.708  1.00  0.00    -0.356 N 
ATOM      4  C   UNL A   1      32.101  28.278  26.956  1.00  0.00     0.225 C 
ATOM      5  O   UNL A   1      31.556  27.438  27.676  1.00  0.00    -0.275 OA
ATOM      6  H   UNL A   1      30.565  29.532  27.174  1.00  0.00     0.163 HD
BRANCH   4   7
ATOM      7  C   UNL A   1      33.509  28.068  26.426  1.00  0.00     0.148 C 
BRANCH   7   8
ATOM      8  C   UNL A   1      33.546  27.211  25.201  1.00  0.00     0.037 A 
ATOM      9  C   UNL A   1      33.753  28.945  23.283  1.00  0.00     0.068 C 
ATOM     10  C   UNL A   1      33.668  27.582  23.870  1.00  0.00     0.052 A 
ATOM     11  N   UNL A   1      33.630  26.534  22.978  1.00  0.00    -0.243 NA
ATOM     12  C   UNL A   1      33.390  25.395  23.597  1.00  0.00     0.128 A 
ATOM     13  S   UNL A   1      33.428  25.495  25.308  1.00  0.00    -0.120 S 
BRANCH  12  14
ATOM     14  C   UNL A   1      33.049  24.102  22.883  1.00  0.00     0.232 C 
ATOM     15  C   UNL A   1      32.176  23.176  23.778  1.00  0.00     0.302 C 
ATOM     16  O   UNL A   1      34.293  23.515  22.444  1.00  0.00    -0.359 OA
ATOM     17  N   UNL A   1      32.662  21.819  24.063  1.00  0.00    -0.328 N 
ATOM     18  C   UNL A   1      34.957  22.818  23.501  1.00  0.00     0.226 C 
ATOM     19  C   UNL A   1      32.182  21.290  25.346  1.00  0.00     0.262 C 
ATOM     20  C   UNL A   1      34.122  21.636  23.991  1.00  0.00     0.210 C 
ATOM     21  H   UNL A   1      32.257  21.284  23.295  1.00  0.00     0.348 HD
ATOM     22  C   UNL A   1      33.310  20.407  25.852  1.00  0.00     0.068 C 
ATOM     23  C   UNL A   1      34.544  21.145  25.371  1.00  0.00     0.073 C 
ENDBRANCH  12  14
ENDBRANCH   7   8
ENDBRANCH   4   7
ENDBRANCH   2   3
ENDBRANCH   1   2
BRANCH   1  24
ATOM     24  C   UNL A   1      32.648  32.515  27.257  1.00  0.00     0.118 C 
BRANCH  24  25
ATOM     25  N   UNL A   1      32.436  33.921  27.576  1.00  0.00    -0.352 N 
ATOM     26  C   UNL A   1      33.047  34.708  28.518  1.00  0.00     0.251 C 
ATOM     27  H   UNL A   1      31.750  34.374  27.034  1.00  0.00     0.163 HD
ATOM     28  O   UNL A   1      32.603  35.828  28.765  1.00  0.00    -0.269 OA
BRANCH  26  29
ATOM     29  C   UNL A   1      34.229  34.208  29.251  1.00  0.00     0.039 A 
ATOM     30  C   UNL A   1      34.038  33.444  30.405  1.00  0.00     0.014 A 
ATOM     31  C   UNL A   1      35.520  34.502  28.808  1.00  0.00     0.014 A 
ATOM     32  C   UNL A   1      35.145  32.919  31.079  1.00  0.00     0.010 A 
ATOM     33  C   UNL A   1      36.616  33.914  29.433  1.00  0.00     0.010 A 
ATOM     34  C   UNL A   1      36.441  33.120  30.577  1.00  0.00    -0.014 A 
BRANCH  34  35
ATOM     35  C   UNL A   1      37.634  32.533  31.237  1.00  0.00     0.031 A 
ATOM     36  C   UNL A   1      38.378  31.409  30.567  1.00  0.00     0.074 A 
ATOM     37  C   UNL A   1      38.004  32.955  32.462  1.00  0.00     0.049 A 
ATOM     38  N   UNL A   1      39.353  30.668  31.030  1.00  0.00    -0.248 NA
ATOM     39  C   UNL A   1      37.951  31.055  29.203  1.00  0.00     0.031 C 
ATOM     40  C   UNL A   1      37.350  34.020  33.226  1.00  0.00     0.029 A 
ATOM     41  N   UNL A   1      39.013  32.526  33.291  1.00  0.00    -0.354 N 
ATOM     42  C   UNL A   1      39.647  29.760  30.020  1.00  0.00     0.074 A 
ATOM     43  C   UNL A   1      38.708  30.000  28.946  1.00  0.00     0.031 C 
ATOM     44  C   UNL A   1      37.982  34.170  34.402  1.00  0.00     0.029 A 
ATOM     45  C   UNL A   1      39.051  33.181  34.498  1.00  0.00     0.049 A 
ATOM     46  H   UNL A   1      39.648  31.817  33.042  1.00  0.00     0.167 HD
ATOM     47  C   UNL A   1      40.630  28.829  29.981  1.00  0.00     0.037 A 
ATOM     48  C   UNL A   1      39.846  32.988  35.568  1.00  0.00     0.037 A 
ATOM     49  C   UNL A   1      41.571  28.602  31.045  1.00  0.00     0.049 A 
ATOM     50  C   UNL A   1      40.896  31.907  35.515  1.00  0.00     0.074 A 
ATOM     51  C   UNL A   1      42.613  27.693  31.096  1.00  0.00     0.029 A 
ATOM     52  N   UNL A   1      41.588  29.300  32.244  1.00  0.00    -0.354 N 
ATOM     53  N   UNL A   1      41.192  31.084  34.539  1.00  0.00    -0.248 NA
ATOM     54  C   UNL A   1      41.728  31.731  36.715  1.00  0.00     0.031 C 
ATOM     55  C   UNL A   1      43.234  27.809  32.342  1.00  0.00     0.029 A 
ATOM     56  C   UNL A   1      42.618  28.832  33.044  1.00  0.00     0.049 A 
ATOM     57  H   UNL A   1      40.961  30.018  32.490  1.00  0.00     0.167 HD
ATOM     58  C   UNL A   1      42.271  30.333  34.985  1.00  0.00     0.074 A 
ATOM     59  C   UNL A   1      42.585  30.802  36.317  1.00  0.00     0.031 C 
ATOM     60  C   UNL A   1      42.944  29.343  34.350  1.00  0.00     0.037 A 
BRANCH  47  61
ATOM     61  C   UNL A   1      40.753  27.997  28.738  1.00  0.00     0.064 A 
ATOM     62  C   UNL A   1      40.036  26.799  28.589  1.00  0.00     0.173 A 
ATOM     63  C   UNL A   1      41.539  28.428  27.660  1.00  0.00     0.173 A 
ATOM     64  F   UNL A   1      39.278  26.336  29.594  1.00  0.00    -0.203 F 
ATOM     65  C   UNL A   1      40.119  26.054  27.415  1.00  0.00     0.198 A 
ATOM     66  C   UNL A   1      41.594  27.698  26.475  1.00  0.00     0.198 A 
ATOM     67  F   UNL A   1      42.240  29.569  27.746  1.00  0.00    -0.203 F 
ATOM     68  F   UNL A   1      39.458  24.893  27.312  1.00  0.00    -0.200 F 
ATOM     69  C   UNL A   1      40.889  26.510  26.356  1.00  0.00     0.200 A 
ATOM     70  F   UNL A   1      42.326  28.147  25.446  1.00  0.00    -0.200 F 
ATOM     71  F   UNL A   1      40.954  25.801  25.221  1.00  0.00    -0.200 F 
ENDBRANCH  47  61
BRANCH  48  72
ATOM     72  C   UNL A   1      39.698  33.830  36.787  1.00  0.00     0.064 A 
ATOM     73  C   UNL A   1      38.908  33.404  37.864  1.00  0.00     0.173 A 
ATOM     74  C   UNL A   1      40.288  35.100  36.878  1.00  0.00     0.173 A 
ATOM     75  F   UNL A   1      38.305  32.206  37.819  1.00  0.00    -0.203 F 
ATOM     76  C   UNL A   1      38.674  34.231  38.961  1.00  0.00     0.198 A 
ATOM     77  C   UNL A   1      40.086  35.911  37.993  1.00  0.00     0.198 A 
ATOM     78  F   UNL A   1      41.061  35.555  35.881  1.00  0.00    -0.203 F 
ATOM     79  F   UNL A   1      37.852  33.827  39.939  1.00  0.00    -0.200 F 
ATOM     80  C   UNL A   1      39.265  35.483  39.026  1.00  0.00     0.200 A 
ATOM     81  F   UNL A   1      40.672  37.113  38.060  1.00  0.00    -0.200 F 
ATOM     82  F   UNL A   1      39.032  36.283  40.075  1.00  0.00    -0.200 F 
ENDBRANCH  48  72
BRANCH  60  83
ATOM     83  C   UNL A   1      44.140  28.756  35.044  1.00  0.00     0.064 A 
ATOM     84  C   UNL A   1      45.428  29.281  34.878  1.00  0.00     0.173 A 
ATOM     85  C   UNL A   1      43.975  27.684  35.935  1.00  0.00     0.173 A 
ATOM     86  F   UNL A   1      45.641  30.297  34.029  1.00  0.00    -0.203 F 
ATOM     87  C   UNL A   1      46.515  28.737  35.560  1.00  0.00     0.198 A 
ATOM     88  C   UNL A   1      45.057  27.165  36.641  1.00  0.00     0.198 A 
ATOM     89  F   UNL A   1      42.761  27.150  36.136  1.00  0.00    -0.203 F 
ATOM     90  F   UNL A   1      47.746  29.223  35.350  1.00  0.00    -0.200 F 
ATOM     91  C   UNL A   1      46.326  27.687  36.448  1.00  0.00     0.200 A 
ATOM     92  F   UNL A   1      44.870  26.163  37.512  1.00  0.00    -0.200 F 
ATOM     93  F   UNL A   1      47.370  27.176  37.113  1.00  0.00    -0.200 F 
ENDBRANCH  60  83
ENDBRANCH  34  35
ENDBRANCH  26  29
ENDBRANCH  24  25
ENDBRANCH   1  24
TORSDOF 12
ENDMDL
MODEL 3
REMARK VINA RESULT:     -12.5      1.204      2.209
REMARK SMILES Cc1nc([C@@H]2C[N@@H+]3CCC[C@@H]3CO2)sc1CC(=O)NCCCNC(=O)c1ccc(-c2c3nc(c(-c4c(F)c(F)c(F)c(F)c4F)c4ccc([nH]4)c(-c4c(F)c(F)c(F)c(F)c4F)c4nc(c(-c5c(F)c(F)c(F)c(F)c5F)c5ccc2[nH]5)C=C4)C=C3)cc1
REMARK SMILES IDX 21 1 20 2 19 3 17 4 18 5 16 7 15 8 1 9 2 10 3 11 4 12 14 13
REMARK SMILES IDX 5 14 6 15 13 16 7 17 12 18 8 19 11 20 9 22 10 23 22 24 23 25
REMARK SMILES IDX 24 26 25 28 26 29 27 30 88 31 28 32 87 33 29 34 30 35 31 36
REMARK SMILES IDX 81 37 32 38 86 39 80 40 82 41 33 42 85 43 79 44 78 45 34 47
REMARK SMILES IDX 66 48 46 49 65 50 47 51 50 52 64 53 83 54 48 55 49 56 63 58
REMARK SMILES IDX 84 59 51 60 35 61 36 62 44 63 37 64 38 65 42 66 45 67 39 68
REMARK SMILES IDX 40 69 43 70 41 71 67 72 68 73 76 74 69 75 70 76 74 77 77 78
REMARK SMILES IDX 71 79 72 80 75 81 73 82 52 83 53 84 61 85 54 86 55 87 59 88
REMARK SMILES IDX 62 89 56 90 57 91 60 92 58 93
REMARK H PARENT 19 6 7 21 23 27 82 46 50 57
REMARK Flexibility Score: inf
ROOT
ATOM      1  C   UNL A   1      31.411  32.230  26.502  1.00  0.00     0.042 C 
ENDROOT
BRANCH   1   2
ATOM      2  C   UNL A   1      31.501  30.718  26.318  1.00  0.00     0.117 C 
BRANCH   2   3
ATOM      3  N   UNL A   1      31.355  30.331  24.928  1.00  0.00    -0.356 N 
ATOM      4  C   UNL A   1      31.214  29.088  24.382  1.00  0.00     0.225 C 
ATOM      5  O   UNL A   1      31.165  29.000  23.153  1.00  0.00    -0.275 OA
ATOM      6  H   UNL A   1      31.356  31.074  24.283  1.00  0.00     0.163 HD
BRANCH   4   7
ATOM      7  C   UNL A   1      31.042  27.865  25.267  1.00  0.00     0.148 C 
BRANCH   7   8
ATOM      8  C   UNL A   1      32.202  26.923  25.187  1.00  0.00     0.037 A 
ATOM      9  C   UNL A   1      34.045  28.152  26.536  1.00  0.00     0.068 C 
ATOM     10  C   UNL A   1      33.468  27.036  25.740  1.00  0.00     0.052 A 
ATOM     11  N   UNL A   1      34.320  25.997  25.439  1.00  0.00    -0.243 NA
ATOM     12  C   UNL A   1      33.756  25.153  24.599  1.00  0.00     0.128 A 
ATOM     13  S   UNL A   1      32.091  25.443  24.310  1.00  0.00    -0.120 S 
BRANCH  12  14
ATOM     14  C   UNL A   1      34.505  24.042  23.889  1.00  0.00     0.232 C 
ATOM     15  C   UNL A   1      33.526  22.978  23.316  1.00  0.00     0.302 C 
ATOM     16  O   UNL A   1      35.481  23.522  24.817  1.00  0.00    -0.359 OA
ATOM     17  N   UNL A   1      33.694  21.578  23.731  1.00  0.00    -0.328 N 
ATOM     18  C   UNL A   1      34.899  22.606  25.748  1.00  0.00     0.226 C 
ATOM     19  C   UNL A   1      32.442  20.812  23.703  1.00  0.00     0.262 C 
ATOM     20  C   UNL A   1      34.347  21.373  25.034  1.00  0.00     0.210 C 
ATOM     21  H   UNL A   1      34.332  21.222  23.018  1.00  0.00     0.348 HD
ATOM     22  C   UNL A   1      32.569  19.814  24.841  1.00  0.00     0.068 C 
ATOM     23  C   UNL A   1      33.343  20.599  25.882  1.00  0.00     0.073 C 
ENDBRANCH  12  14
ENDBRANCH   7   8
ENDBRANCH   4   7
ENDBRANCH   2   3
ENDBRANCH   1   2
BRANCH   1  24
ATOM     24  C   UNL A   1      32.598  32.824  27.251  1.00  0.00     0.118 C 
BRANCH  24  25
ATOM     25  N   UNL A   1      32.380  34.214  27.636  1.00  0.00    -0.352 N 
ATOM     26  C   UNL A   1      32.988  34.958  28.614  1.00  0.00     0.251 C 
ATOM     27  H   UNL A   1      31.691  34.688  27.115  1.00  0.00     0.163 HD
ATOM     28  O   UNL A   1      32.540  36.063  28.912  1.00  0.00    -0.269 OA
BRANCH  26  29
ATOM     29  C   UNL A   1      34.172  34.430  29.322  1.00  0.00     0.039 A 
ATOM     30  C   UNL A   1      33.990  33.711  30.507  1.00  0.00     0.014 A 
ATOM     31  C   UNL A   1      35.459  34.652  28.827  1.00  0.00     0.014 A 
ATOM     32  C   UNL A   1      35.095  33.159  31.159  1.00  0.00     0.010 A 
ATOM     33  C   UNL A   1      36.549  34.036  29.432  1.00  0.00     0.010 A 
ATOM     34  C   UNL A   1      36.381  33.287  30.607  1.00  0.00    -0.014 A 
BRANCH  34  35
ATOM     35  C   UNL A   1      37.570  32.669  31.246  1.00  0.00     0.031 A 
ATOM     36  C   UNL A   1      38.272  31.526  30.563  1.00  0.00     0.074 A 
ATOM     37  C   UNL A   1      37.973  33.081  32.464  1.00  0.00     0.049 A 
ATOM     38  N   UNL A   1      39.236  30.760  31.007  1.00  0.00    -0.248 NA
ATOM     39  C   UNL A   1      37.811  31.184  29.207  1.00  0.00     0.031 C 
ATOM     40  C   UNL A   1      37.361  34.161  33.239  1.00  0.00     0.029 A 
ATOM     41  N   UNL A   1      38.985  32.625  33.274  1.00  0.00    -0.354 N 
ATOM     42  C   UNL A   1      39.488  29.845  29.992  1.00  0.00     0.074 A 
ATOM     43  C   UNL A   1      38.536  30.109  28.935  1.00  0.00     0.031 C 
ATOM     44  C   UNL A   1      38.018  34.295  34.403  1.00  0.00     0.029 A 
ATOM     45  C   UNL A   1      39.063  33.278  34.480  1.00  0.00     0.049 A 
ATOM     46  H   UNL A   1      39.597  31.899  33.014  1.00  0.00     0.167 HD
ATOM     47  C   UNL A   1      40.445  28.889  29.935  1.00  0.00     0.037 A 
ATOM     48  C   UNL A   1      39.871  33.064  35.536  1.00  0.00     0.037 A 
ATOM     49  C   UNL A   1      41.399  28.637  30.982  1.00  0.00     0.049 A 
ATOM     50  C   UNL A   1      40.892  31.956  35.464  1.00  0.00     0.074 A 
ATOM     51  C   UNL A   1      42.417  27.701  31.014  1.00  0.00     0.029 A 
ATOM     52  N   UNL A   1      41.457  29.333  32.181  1.00  0.00    -0.354 N 
ATOM     53  N   UNL A   1      41.148  31.126  34.482  1.00  0.00    -0.248 NA
ATOM     54  C   UNL A   1      41.740  31.759  36.648  1.00  0.00     0.031 C 
ATOM     55  C   UNL A   1      43.064  27.800  32.249  1.00  0.00     0.029 A 
ATOM     56  C   UNL A   1      42.488  28.839  32.962  1.00  0.00     0.049 A 
ATOM     57  H   UNL A   1      40.853  30.067  32.438  1.00  0.00     0.167 HD
ATOM     58  C   UNL A   1      42.216  30.347  34.909  1.00  0.00     0.074 A 
ATOM     59  C   UNL A   1      42.565  30.807  36.235  1.00  0.00     0.031 C 
ATOM     60  C   UNL A   1      42.851  29.340  34.262  1.00  0.00     0.037 A 
BRANCH  47  61
ATOM     61  C   UNL A   1      40.524  28.054  28.691  1.00  0.00     0.064 A 
ATOM     62  C   UNL A   1      41.308  28.447  27.596  1.00  0.00     0.173 A 
ATOM     63  C   UNL A   1      39.864  26.818  28.614  1.00  0.00     0.173 A 
ATOM     64  F   UNL A   1      41.951  29.625  27.615  1.00  0.00    -0.203 F 
ATOM     65  C   UNL A   1      41.413  27.646  26.462  1.00  0.00     0.198 A 
ATOM     66  C   UNL A   1      39.998  26.003  27.492  1.00  0.00     0.198 A 
ATOM     67  F   UNL A   1      39.106  26.389  29.634  1.00  0.00    -0.203 F 
ATOM     68  F   UNL A   1      42.135  28.063  25.414  1.00  0.00    -0.200 F 
ATOM     69  C   UNL A   1      40.767  26.420  26.416  1.00  0.00     0.200 A 
ATOM     70  F   UNL A   1      39.386  24.812  27.454  1.00  0.00    -0.200 F 
ATOM     71  F   UNL A   1      40.882  25.641  25.331  1.00  0.00    -0.200 F 
ENDBRANCH  47  61
BRANCH  48  72
ATOM     72  C   UNL A   1      39.768  33.909  36.757  1.00  0.00     0.064 A 
ATOM     73  C   UNL A   1      38.967  33.515  37.839  1.00  0.00     0.173 A 
ATOM     74  C   UNL A   1      40.412  35.152  36.847  1.00  0.00     0.173 A 
ATOM     75  F   UNL A   1      38.313  32.344  37.795  1.00  0.00    -0.203 F 
ATOM     76  C   UNL A   1      38.776  34.349  38.939  1.00  0.00     0.198 A 
ATOM     77  C   UNL A   1      40.252  35.969  37.964  1.00  0.00     0.198 A 
ATOM     78  F   UNL A   1      41.197  35.576  35.846  1.00  0.00    -0.203 F 
ATOM     79  F   UNL A   1      37.944  33.979  39.921  1.00  0.00    -0.200 F 
ATOM     80  C   UNL A   1      39.421  35.574  39.002  1.00  0.00     0.200 A 
ATOM     81  F   UNL A   1      40.890  37.145  38.030  1.00  0.00    -0.200 F 
ATOM     82  F   UNL A   1      39.228  36.381  40.054  1.00  0.00    -0.200 F 
ENDBRANCH  48  72
BRANCH  60  83
ATOM     83  C   UNL A   1      44.043  28.722  34.935  1.00  0.00     0.064 A 
ATOM     84  C   UNL A   1      43.933  27.583  35.743  1.00  0.00     0.173 A 
ATOM     85  C   UNL A   1      45.324  29.253  34.716  1.00  0.00     0.173 A 
ATOM     86  F   UNL A   1      42.730  27.044  35.993  1.00  0.00    -0.203 F 
ATOM     87  C   UNL A   1      45.060  27.010  36.329  1.00  0.00     0.198 A 
ATOM     88  C   UNL A   1      46.452  28.659  35.275  1.00  0.00     0.198 A 
ATOM     89  F   UNL A   1      45.485  30.338  33.944  1.00  0.00    -0.203 F 
ATOM     90  F   UNL A   1      44.927  25.949  37.137  1.00  0.00    -0.200 F 
ATOM     91  C   UNL A   1      46.318  27.542  36.086  1.00  0.00     0.200 A 
ATOM     92  F   UNL A   1      47.668  29.164  35.024  1.00  0.00    -0.200 F 
ATOM     93  F   UNL A   1      47.402  26.982  36.639  1.00  0.00    -0.200 F 
ENDBRANCH  60  83
ENDBRANCH  34  35
ENDBRANCH  26  29
ENDBRANCH  24  25
ENDBRANCH   1  24
TORSDOF 12
ENDMDL
