MODEL 1
REMARK VINA RESULT:     -10.3      0.000      0.000
REMARK SMILES C[C@@H](CC(=O)NCCCNC(=O)c1ccc(-c2c3nc(c(-c4c(F)c(F)c(F)c(F)c4F)c4ccc([nH]4)c(-c4c(F)c(F)c(F)c(F)c4F)c4nc(c(-c5c(F)c(F)c(F)c(F)c5F)c5ccc2[nH]5)C=C4)C=C3)cc1)N1C(=O)CCCC1=O
REMARK SMILES IDX 8 1 7 2 6 3 4 4 5 5 3 7 2 8 1 9 76 10 77 11 82 12 78 13
REMARK SMILES IDX 79 14 81 15 83 16 80 17 9 18 10 19 11 20 12 22 13 23 14 24
REMARK SMILES IDX 75 25 15 26 74 27 16 28 17 29 18 30 68 31 19 32 73 33 67 34
REMARK SMILES IDX 69 35 20 36 72 37 66 38 65 39 21 41 53 42 33 43 52 44 34 45
REMARK SMILES IDX 37 46 51 47 70 48 35 49 36 50 50 52 71 53 38 54 22 55 23 56
REMARK SMILES IDX 31 57 24 58 25 59 29 60 32 61 26 62 27 63 30 64 28 65 54 66
REMARK SMILES IDX 55 67 63 68 56 69 57 70 61 71 64 72 58 73 59 74 62 75 60 76
REMARK SMILES IDX 39 77 40 78 48 79 41 80 42 81 46 82 49 83 43 84 44 85 47 86
REMARK SMILES IDX 45 87
REMARK H PARENT 6 6 10 21 69 40 37 51
REMARK Flexibility Score: inf
ROOT
ATOM      1  C   UNL A   1      42.172  21.812  27.038  1.00  0.00     0.042 C 
ENDROOT
BRANCH   1   2
ATOM      2  C   UNL A   1      42.701  20.979  25.870  1.00  0.00     0.117 C 
BRANCH   2   3
ATOM      3  N   UNL A   1      44.149  20.868  25.877  1.00  0.00    -0.356 N 
ATOM      4  C   UNL A   1      45.108  21.677  25.355  1.00  0.00     0.222 C 
ATOM      5  O   UNL A   1      46.283  21.302  25.409  1.00  0.00    -0.275 OA
ATOM      6  H   UNL A   1      44.495  20.069  26.339  1.00  0.00     0.163 HD
BRANCH   4   7
ATOM      7  C   UNL A   1      44.773  23.039  24.794  1.00  0.00     0.125 C 
BRANCH   7   8
ATOM      8  C   UNL A   1      44.613  24.262  25.722  1.00  0.00     0.099 C 
ATOM      9  C   UNL A   1      43.836  25.431  25.115  1.00  0.00     0.032 C 
BRANCH   8  10
ATOM     10  N   UNL A   1      45.801  24.724  26.471  1.00  0.00    -0.279 N 
ATOM     11  C   UNL A   1      46.899  25.133  25.708  1.00  0.00     0.229 C 
ATOM     12  C   UNL A   1      45.938  24.401  27.819  1.00  0.00     0.229 C 
ATOM     13  O   UNL A   1      46.883  25.178  24.475  1.00  0.00    -0.274 OA
ATOM     14  C   UNL A   1      48.171  25.539  26.433  1.00  0.00     0.101 C 
ATOM     15  C   UNL A   1      47.000  25.174  28.556  1.00  0.00     0.101 C 
ATOM     16  O   UNL A   1      45.324  23.498  28.382  1.00  0.00    -0.274 OA
ATOM     17  C   UNL A   1      48.300  24.953  27.823  1.00  0.00     0.020 C 
ENDBRANCH   8  10
ENDBRANCH   7   8
ENDBRANCH   4   7
ENDBRANCH   2   3
ENDBRANCH   1   2
BRANCH   1  18
ATOM     18  C   UNL A   1      40.817  21.370  27.576  1.00  0.00     0.118 C 
BRANCH  18  19
ATOM     19  N   UNL A   1      39.741  21.623  26.631  1.00  0.00    -0.352 N 
ATOM     20  C   UNL A   1      39.046  22.775  26.357  1.00  0.00     0.251 C 
ATOM     21  H   UNL A   1      39.466  20.839  26.103  1.00  0.00     0.163 HD
ATOM     22  O   UNL A   1      38.025  22.709  25.677  1.00  0.00    -0.269 OA
BRANCH  20  23
ATOM     23  C   UNL A   1      39.490  24.095  26.870  1.00  0.00     0.039 A 
ATOM     24  C   UNL A   1      39.198  24.427  28.199  1.00  0.00     0.014 A 
ATOM     25  C   UNL A   1      40.113  25.038  26.051  1.00  0.00     0.014 A 
ATOM     26  C   UNL A   1      39.574  25.673  28.715  1.00  0.00     0.010 A 
ATOM     27  C   UNL A   1      40.555  26.250  26.585  1.00  0.00     0.010 A 
ATOM     28  C   UNL A   1      40.280  26.587  27.919  1.00  0.00    -0.014 A 
BRANCH  28  29
ATOM     29  C   UNL A   1      40.712  27.909  28.448  1.00  0.00     0.031 A 
ATOM     30  C   UNL A   1      42.158  28.151  28.787  1.00  0.00     0.074 A 
ATOM     31  C   UNL A   1      39.800  28.872  28.685  1.00  0.00     0.049 A 
ATOM     32  N   UNL A   1      42.715  29.187  29.366  1.00  0.00    -0.248 NA
ATOM     33  C   UNL A   1      43.102  27.073  28.454  1.00  0.00     0.031 C 
ATOM     34  C   UNL A   1      38.365  28.760  28.428  1.00  0.00     0.029 A 
ATOM     35  N   UNL A   1      39.946  30.133  29.212  1.00  0.00    -0.354 N 
ATOM     36  C   UNL A   1      44.062  28.873  29.488  1.00  0.00     0.074 A 
ATOM     37  C   UNL A   1      44.235  27.536  28.961  1.00  0.00     0.031 C 
ATOM     38  C   UNL A   1      37.764  29.907  28.785  1.00  0.00     0.029 A 
ATOM     39  C   UNL A   1      38.763  30.819  29.334  1.00  0.00     0.049 A 
ATOM     40  H   UNL A   1      40.816  30.508  29.478  1.00  0.00     0.167 HD
ATOM     41  C   UNL A   1      45.068  29.637  29.980  1.00  0.00     0.037 A 
ATOM     42  C   UNL A   1      38.509  32.040  29.843  1.00  0.00     0.037 A 
ATOM     43  C   UNL A   1      44.906  30.981  30.468  1.00  0.00     0.049 A 
ATOM     44  C   UNL A   1      39.644  32.868  30.384  1.00  0.00     0.074 A 
ATOM     45  C   UNL A   1      45.875  31.854  30.932  1.00  0.00     0.029 A 
ATOM     46  N   UNL A   1      43.693  31.649  30.551  1.00  0.00    -0.354 N 
ATOM     47  N   UNL A   1      40.919  32.578  30.454  1.00  0.00    -0.248 NA
ATOM     48  C   UNL A   1      39.302  34.196  30.915  1.00  0.00     0.031 C 
ATOM     49  C   UNL A   1      45.245  33.038  31.328  1.00  0.00     0.029 A 
ATOM     50  C   UNL A   1      43.888  32.917  31.073  1.00  0.00     0.049 A 
ATOM     51  H   UNL A   1      42.823  31.277  30.280  1.00  0.00     0.167 HD
ATOM     52  C   UNL A   1      41.535  33.692  31.007  1.00  0.00     0.074 A 
ATOM     53  C   UNL A   1      40.494  34.670  31.247  1.00  0.00     0.031 C 
ATOM     54  C   UNL A   1      42.845  33.885  31.291  1.00  0.00     0.037 A 
BRANCH  41  55
ATOM     55  C   UNL A   1      46.442  29.035  30.013  1.00  0.00     0.064 A 
ATOM     56  C   UNL A   1      46.915  28.341  31.138  1.00  0.00     0.173 A 
ATOM     57  C   UNL A   1      47.283  29.117  28.892  1.00  0.00     0.173 A 
ATOM     58  F   UNL A   1      46.153  28.243  32.237  1.00  0.00    -0.203 F 
ATOM     59  C   UNL A   1      48.188  27.777  31.149  1.00  0.00     0.198 A 
ATOM     60  C   UNL A   1      48.544  28.527  28.897  1.00  0.00     0.198 A 
ATOM     61  F   UNL A   1      46.877  29.762  27.788  1.00  0.00    -0.203 F 
ATOM     62  F   UNL A   1      48.634  27.159  32.252  1.00  0.00    -0.200 F 
ATOM     63  C   UNL A   1      48.998  27.865  30.027  1.00  0.00     0.200 A 
ATOM     64  F   UNL A   1      49.322  28.602  27.808  1.00  0.00    -0.200 F 
ATOM     65  F   UNL A   1      50.220  27.316  30.039  1.00  0.00    -0.200 F 
ENDBRANCH  41  55
BRANCH  42  66
ATOM     66  C   UNL A   1      37.119  32.563  29.852  1.00  0.00     0.064 A 
ATOM     67  C   UNL A   1      36.613  33.271  28.753  1.00  0.00     0.173 A 
ATOM     68  C   UNL A   1      36.273  32.371  30.954  1.00  0.00     0.173 A 
ATOM     69  F   UNL A   1      37.393  33.500  27.687  1.00  0.00    -0.203 F 
ATOM     70  C   UNL A   1      35.316  33.782  28.763  1.00  0.00     0.198 A 
ATOM     71  C   UNL A   1      34.968  32.861  30.950  1.00  0.00     0.198 A 
ATOM     72  F   UNL A   1      36.711  31.700  32.028  1.00  0.00    -0.203 F 
ATOM     73  F   UNL A   1      34.870  34.491  27.716  1.00  0.00    -0.200 F 
ATOM     74  C   UNL A   1      34.493  33.571  29.859  1.00  0.00     0.200 A 
ATOM     75  F   UNL A   1      34.172  32.645  32.008  1.00  0.00    -0.200 F 
ATOM     76  F   UNL A   1      33.245  34.059  29.866  1.00  0.00    -0.200 F 
ENDBRANCH  42  66
BRANCH  54  77
ATOM     77  C   UNL A   1      43.240  35.219  31.855  1.00  0.00     0.064 A 
ATOM     78  C   UNL A   1      43.215  35.469  33.234  1.00  0.00     0.173 A 
ATOM     79  C   UNL A   1      43.697  36.239  31.007  1.00  0.00     0.173 A 
ATOM     80  F   UNL A   1      42.770  34.531  34.083  1.00  0.00    -0.203 F 
ATOM     81  C   UNL A   1      43.618  36.701  33.744  1.00  0.00     0.198 A 
ATOM     82  C   UNL A   1      44.122  37.460  31.522  1.00  0.00     0.198 A 
ATOM     83  F   UNL A   1      43.744  36.045  29.681  1.00  0.00    -0.203 F 
ATOM     84  F   UNL A   1      43.552  36.933  35.062  1.00  0.00    -0.200 F 
ATOM     85  C   UNL A   1      44.079  37.692  32.888  1.00  0.00     0.200 A 
ATOM     86  F   UNL A   1      44.577  38.412  30.696  1.00  0.00    -0.200 F 
ATOM     87  F   UNL A   1      44.475  38.873  33.382  1.00  0.00    -0.200 F 
ENDBRANCH  54  77
ENDBRANCH  28  29
ENDBRANCH  20  23
ENDBRANCH  18  19
ENDBRANCH   1  18
TORSDOF 12
ENDMDL
MODEL 2
REMARK VINA RESULT:     -10.1      5.357     10.173
REMARK SMILES C[C@@H](CC(=O)NCCCNC(=O)c1ccc(-c2c3nc(c(-c4c(F)c(F)c(F)c(F)c4F)c4ccc([nH]4)c(-c4c(F)c(F)c(F)c(F)c4F)c4nc(c(-c5c(F)c(F)c(F)c(F)c5F)c5ccc2[nH]5)C=C4)C=C3)cc1)N1C(=O)CCCC1=O
REMARK SMILES IDX 8 1 7 2 6 3 4 4 5 5 3 7 2 8 1 9 76 10 77 11 82 12 78 13
REMARK SMILES IDX 79 14 81 15 83 16 80 17 9 18 10 19 11 20 12 22 13 23 14 24
REMARK SMILES IDX 75 25 15 26 74 27 16 28 17 29 18 30 68 31 19 32 73 33 67 34
REMARK SMILES IDX 69 35 20 36 72 37 66 38 65 39 21 41 53 42 33 43 52 44 34 45
REMARK SMILES IDX 37 46 51 47 70 48 35 49 36 50 50 52 71 53 38 54 22 55 23 56
REMARK SMILES IDX 31 57 24 58 25 59 29 60 32 61 26 62 27 63 30 64 28 65 54 66
REMARK SMILES IDX 55 67 63 68 56 69 57 70 61 71 64 72 58 73 59 74 62 75 60 76
REMARK SMILES IDX 39 77 40 78 48 79 41 80 42 81 46 82 49 83 43 84 44 85 47 86
REMARK SMILES IDX 45 87
REMARK H PARENT 6 6 10 21 69 40 37 51
REMARK Flexibility Score: inf
ROOT
ATOM      1  C   UNL A   1      31.515  32.004  26.920  1.00  0.00     0.042 C 
ENDROOT
BRANCH   1   2
ATOM      2  C   UNL A   1      31.837  30.511  26.912  1.00  0.00     0.117 C 
BRANCH   2   3
ATOM      3  N   UNL A   1      33.114  30.214  27.539  1.00  0.00    -0.356 N 
ATOM      4  C   UNL A   1      34.066  29.294  27.230  1.00  0.00     0.222 C 
ATOM      5  O   UNL A   1      35.030  29.173  27.991  1.00  0.00    -0.275 OA
ATOM      6  H   UNL A   1      33.325  30.775  28.320  1.00  0.00     0.163 HD
BRANCH   4   7
ATOM      7  C   UNL A   1      34.004  28.490  25.952  1.00  0.00     0.125 C 
BRANCH   7   8
ATOM      8  C   UNL A   1      33.301  27.117  25.913  1.00  0.00     0.099 C 
ATOM      9  C   UNL A   1      34.174  25.964  25.413  1.00  0.00     0.032 C 
BRANCH   8  10
ATOM     10  N   UNL A   1      31.935  27.053  25.350  1.00  0.00    -0.279 N 
ATOM     11  C   UNL A   1      31.072  26.110  25.915  1.00  0.00     0.229 C 
ATOM     12  C   UNL A   1      31.674  27.616  24.103  1.00  0.00     0.229 C 
ATOM     13  O   UNL A   1      31.384  25.402  26.876  1.00  0.00    -0.274 OA
ATOM     14  C   UNL A   1      29.685  25.951  25.315  1.00  0.00     0.101 C 
ATOM     15  C   UNL A   1      30.215  27.778  23.768  1.00  0.00     0.101 C 
ATOM     16  O   UNL A   1      32.536  27.890  23.271  1.00  0.00    -0.274 OA
ATOM     17  C   UNL A   1      29.580  26.413  23.878  1.00  0.00     0.020 C 
ENDBRANCH   8  10
ENDBRANCH   7   8
ENDBRANCH   4   7
ENDBRANCH   2   3
ENDBRANCH   1   2
BRANCH   1  18
ATOM     18  C   UNL A   1      32.731  32.921  26.876  1.00  0.00     0.118 C 
BRANCH  18  19
ATOM     19  N   UNL A   1      32.498  34.177  27.572  1.00  0.00    -0.352 N 
ATOM     20  C   UNL A   1      33.036  34.665  28.737  1.00  0.00     0.251 C 
ATOM     21  H   UNL A   1      31.846  34.773  27.137  1.00  0.00     0.163 HD
ATOM     22  O   UNL A   1      32.530  35.654  29.260  1.00  0.00    -0.269 OA
BRANCH  20  23
ATOM     23  C   UNL A   1      34.205  34.021  29.387  1.00  0.00     0.039 A 
ATOM     24  C   UNL A   1      35.488  34.452  29.029  1.00  0.00     0.014 A 
ATOM     25  C   UNL A   1      34.066  32.954  30.277  1.00  0.00     0.014 A 
ATOM     26  C   UNL A   1      36.619  33.853  29.597  1.00  0.00     0.010 A 
ATOM     27  C   UNL A   1      35.188  32.407  30.900  1.00  0.00     0.010 A 
ATOM     28  C   UNL A   1      36.479  32.842  30.559  1.00  0.00    -0.014 A 
BRANCH  28  29
ATOM     29  C   UNL A   1      37.662  32.203  31.196  1.00  0.00     0.031 A 
ATOM     30  C   UNL A   1      38.436  31.143  30.461  1.00  0.00     0.074 A 
ATOM     31  C   UNL A   1      38.006  32.528  32.458  1.00  0.00     0.049 A 
ATOM     32  N   UNL A   1      39.419  30.386  30.885  1.00  0.00    -0.248 NA
ATOM     33  C   UNL A   1      38.034  30.878  29.072  1.00  0.00     0.031 C 
ATOM     34  C   UNL A   1      37.327  33.518  33.293  1.00  0.00     0.029 A 
ATOM     35  N   UNL A   1      39.008  32.044  33.265  1.00  0.00    -0.354 N 
ATOM     36  C   UNL A   1      39.732  29.544  29.826  1.00  0.00     0.074 A 
ATOM     37  C   UNL A   1      38.810  29.852  28.754  1.00  0.00     0.031 C 
ATOM     38  C   UNL A   1      37.937  33.579  34.487  1.00  0.00     0.029 A 
ATOM     39  C   UNL A   1      39.023  32.605  34.519  1.00  0.00     0.049 A 
ATOM     40  H   UNL A   1      39.653  31.361  32.972  1.00  0.00     0.167 HD
ATOM     41  C   UNL A   1      40.710  28.609  29.748  1.00  0.00     0.037 A 
ATOM     42  C   UNL A   1      39.814  32.351  35.580  1.00  0.00     0.037 A 
ATOM     43  C   UNL A   1      41.652  28.328  30.799  1.00  0.00     0.049 A 
ATOM     44  C   UNL A   1      40.892  31.307  35.468  1.00  0.00     0.074 A 
ATOM     45  C   UNL A   1      42.714  27.439  30.790  1.00  0.00     0.029 A 
ATOM     46  N   UNL A   1      41.649  28.935  32.045  1.00  0.00    -0.354 N 
ATOM     47  N   UNL A   1      41.206  30.548  34.447  1.00  0.00    -0.248 NA
ATOM     48  C   UNL A   1      41.729  31.087  36.657  1.00  0.00     0.031 C 
ATOM     49  C   UNL A   1      43.332  27.484  32.044  1.00  0.00     0.029 A 
ATOM     50  C   UNL A   1      42.681  28.430  32.819  1.00  0.00     0.049 A 
ATOM     51  H   UNL A   1      41.008  29.623  32.337  1.00  0.00     0.167 HD
ATOM     52  C   UNL A   1      42.289  29.784  34.858  1.00  0.00     0.074 A 
ATOM     53  C   UNL A   1      42.586  30.176  36.220  1.00  0.00     0.031 C 
ATOM     54  C   UNL A   1      42.974  28.841  34.167  1.00  0.00     0.037 A 
BRANCH  41  55
ATOM     55  C   UNL A   1      40.812  27.818  28.477  1.00  0.00     0.064 A 
ATOM     56  C   UNL A   1      41.607  28.251  27.404  1.00  0.00     0.173 A 
ATOM     57  C   UNL A   1      40.142  26.593  28.344  1.00  0.00     0.173 A 
ATOM     58  F   UNL A   1      42.260  29.420  27.478  1.00  0.00    -0.203 F 
ATOM     59  C   UNL A   1      41.702  27.500  26.235  1.00  0.00     0.198 A 
ATOM     60  C   UNL A   1      40.262  25.831  27.184  1.00  0.00     0.198 A 
ATOM     61  F   UNL A   1      39.376  26.129  29.343  1.00  0.00    -0.203 F 
ATOM     62  F   UNL A   1      42.430  27.957  25.206  1.00  0.00    -0.200 F 
ATOM     63  C   UNL A   1      41.036  26.289  26.129  1.00  0.00     0.200 A 
ATOM     64  F   UNL A   1      39.628  24.655  27.087  1.00  0.00    -0.200 F 
ATOM     65  F   UNL A   1      41.134  25.566  25.005  1.00  0.00    -0.200 F 
ENDBRANCH  41  55
BRANCH  42  66
ATOM     66  C   UNL A   1      39.626  33.113  36.841  1.00  0.00     0.064 A 
ATOM     67  C   UNL A   1      40.392  34.256  37.109  1.00  0.00     0.173 A 
ATOM     68  C   UNL A   1      38.684  32.716  37.802  1.00  0.00     0.173 A 
ATOM     69  F   UNL A   1      41.322  34.659  36.231  1.00  0.00    -0.203 F 
ATOM     70  C   UNL A   1      40.235  34.964  38.299  1.00  0.00     0.198 A 
ATOM     71  C   UNL A   1      38.511  33.440  38.979  1.00  0.00     0.198 A 
ATOM     72  F   UNL A   1      37.926  31.630  37.590  1.00  0.00    -0.203 F 
ATOM     73  F   UNL A   1      41.010  36.028  38.550  1.00  0.00    -0.200 F 
ATOM     74  C   UNL A   1      39.290  34.559  39.230  1.00  0.00     0.200 A 
ATOM     75  F   UNL A   1      37.589  33.052  39.871  1.00  0.00    -0.200 F 
ATOM     76  F   UNL A   1      39.137  35.243  40.372  1.00  0.00    -0.200 F 
ENDBRANCH  42  66
BRANCH  54  77
ATOM     77  C   UNL A   1      44.141  28.194  34.854  1.00  0.00     0.064 A 
ATOM     78  C   UNL A   1      44.001  26.995  35.566  1.00  0.00     0.173 A 
ATOM     79  C   UNL A   1      45.423  28.756  34.753  1.00  0.00     0.173 A 
ATOM     80  F   UNL A   1      42.793  26.428  35.704  1.00  0.00    -0.203 F 
ATOM     81  C   UNL A   1      45.101  26.389  36.169  1.00  0.00     0.198 A 
ATOM     82  C   UNL A   1      46.524  28.135  35.335  1.00  0.00     0.198 A 
ATOM     83  F   UNL A   1      45.608  29.900  34.078  1.00  0.00    -0.203 F 
ATOM     84  F   UNL A   1      44.940  25.263  36.876  1.00  0.00    -0.200 F 
ATOM     85  C   UNL A   1      46.362  26.955  36.046  1.00  0.00     0.200 A 
ATOM     86  F   UNL A   1      47.743  28.677  35.207  1.00  0.00    -0.200 F 
ATOM     87  F   UNL A   1      47.421  26.365  36.618  1.00  0.00    -0.200 F 
ENDBRANCH  54  77
ENDBRANCH  28  29
ENDBRANCH  20  23
ENDBRANCH  18  19
ENDBRANCH   1  18
TORSDOF 12
ENDMDL
MODEL 3
REMARK VINA RESULT:     -10.1      4.704      8.526
REMARK SMILES C[C@@H](CC(=O)NCCCNC(=O)c1ccc(-c2c3nc(c(-c4c(F)c(F)c(F)c(F)c4F)c4ccc([nH]4)c(-c4c(F)c(F)c(F)c(F)c4F)c4nc(c(-c5c(F)c(F)c(F)c(F)c5F)c5ccc2[nH]5)C=C4)C=C3)cc1)N1C(=O)CCCC1=O
REMARK SMILES IDX 8 1 7 2 6 3 4 4 5 5 3 7 2 8 1 9 76 10 77 11 82 12 78 13
REMARK SMILES IDX 79 14 81 15 83 16 80 17 9 18 10 19 11 20 12 22 13 23 14 24
REMARK SMILES IDX 75 25 15 26 74 27 16 28 17 29 18 30 68 31 19 32 73 33 67 34
REMARK SMILES IDX 69 35 20 36 72 37 66 38 65 39 21 41 53 42 33 43 52 44 34 45
REMARK SMILES IDX 37 46 51 47 70 48 35 49 36 50 50 52 71 53 38 54 22 55 23 56
REMARK SMILES IDX 31 57 24 58 25 59 29 60 32 61 26 62 27 63 30 64 28 65 54 66
REMARK SMILES IDX 55 67 63 68 56 69 57 70 61 71 64 72 58 73 59 74 62 75 60 76
REMARK SMILES IDX 39 77 40 78 48 79 41 80 42 81 46 82 49 83 43 84 44 85 47 86
REMARK SMILES IDX 45 87
REMARK H PARENT 6 6 10 21 69 40 37 51
REMARK Flexibility Score: inf
ROOT
ATOM      1  C   UNL A   1      33.160  28.925  23.588  1.00  0.00     0.042 C 
ENDROOT
BRANCH   1   2
ATOM      2  C   UNL A   1      32.007  28.017  23.163  1.00  0.00     0.117 C 
BRANCH   2   3
ATOM      3  N   UNL A   1      32.346  27.185  22.021  1.00  0.00    -0.356 N 
ATOM      4  C   UNL A   1      33.119  26.070  21.928  1.00  0.00     0.222 C 
ATOM      5  O   UNL A   1      33.335  25.600  20.808  1.00  0.00    -0.275 OA
ATOM      6  H   UNL A   1      31.948  27.479  21.170  1.00  0.00     0.163 HD
BRANCH   4   7
ATOM      7  C   UNL A   1      33.639  25.365  23.159  1.00  0.00     0.125 C 
BRANCH   7   8
ATOM      8  C   UNL A   1      34.068  23.884  23.102  1.00  0.00     0.099 C 
ATOM      9  C   UNL A   1      32.912  22.883  23.049  1.00  0.00     0.032 C 
BRANCH   8  10
ATOM     10  N   UNL A   1      35.138  23.436  24.019  1.00  0.00    -0.279 N 
ATOM     11  C   UNL A   1      35.084  23.926  25.327  1.00  0.00     0.229 C 
ATOM     12  C   UNL A   1      36.308  22.888  23.500  1.00  0.00     0.229 C 
ATOM     13  O   UNL A   1      34.169  24.644  25.740  1.00  0.00    -0.274 OA
ATOM     14  C   UNL A   1      36.207  23.559  26.281  1.00  0.00     0.101 C 
ATOM     15  C   UNL A   1      37.182  22.182  24.503  1.00  0.00     0.101 C 
ATOM     16  O   UNL A   1      36.683  23.025  22.338  1.00  0.00    -0.274 OA
ATOM     17  C   UNL A   1      37.499  23.176  25.593  1.00  0.00     0.020 C 
ENDBRANCH   8  10
ENDBRANCH   7   8
ENDBRANCH   4   7
ENDBRANCH   2   3
ENDBRANCH   1   2
BRANCH   1  18
ATOM     18  C   UNL A   1      33.343  29.063  25.094  1.00  0.00     0.118 C 
BRANCH  18  19
ATOM     19  N   UNL A   1      32.788  30.307  25.604  1.00  0.00    -0.352 N 
ATOM     20  C   UNL A   1      33.118  31.042  26.716  1.00  0.00     0.251 C 
ATOM     21  H   UNL A   1      32.056  30.682  25.064  1.00  0.00     0.163 HD
ATOM     22  O   UNL A   1      32.369  31.946  27.078  1.00  0.00    -0.269 OA
BRANCH  20  23
ATOM     23  C   UNL A   1      34.349  30.765  27.498  1.00  0.00     0.039 A 
ATOM     24  C   UNL A   1      35.285  31.795  27.656  1.00  0.00     0.014 A 
ATOM     25  C   UNL A   1      34.635  29.497  28.008  1.00  0.00     0.014 A 
ATOM     26  C   UNL A   1      36.472  31.568  28.362  1.00  0.00     0.010 A 
ATOM     27  C   UNL A   1      35.782  29.290  28.776  1.00  0.00     0.010 A 
ATOM     28  C   UNL A   1      36.720  30.320  28.952  1.00  0.00    -0.014 A 
BRANCH  28  29
ATOM     29  C   UNL A   1      37.962  30.058  29.728  1.00  0.00     0.031 A 
ATOM     30  C   UNL A   1      39.018  29.138  29.177  1.00  0.00     0.074 A 
ATOM     31  C   UNL A   1      38.117  30.594  30.954  1.00  0.00     0.049 A 
ATOM     32  N   UNL A   1      40.111  28.691  29.746  1.00  0.00    -0.248 NA
ATOM     33  C   UNL A   1      38.803  28.632  27.813  1.00  0.00     0.031 C 
ATOM     34  C   UNL A   1      37.162  31.480  31.619  1.00  0.00     0.029 A 
ATOM     35  N   UNL A   1      39.134  30.457  31.870  1.00  0.00    -0.354 N 
ATOM     36  C   UNL A   1      40.695  27.835  28.822  1.00  0.00     0.074 A 
ATOM     37  C   UNL A   1      39.818  27.792  27.671  1.00  0.00     0.031 C 
ATOM     38  C   UNL A   1      37.641  31.818  32.826  1.00  0.00     0.029 A 
ATOM     39  C   UNL A   1      38.917  31.141  33.041  1.00  0.00     0.049 A 
ATOM     40  H   UNL A   1      39.941  29.919  31.701  1.00  0.00     0.167 HD
ATOM     41  C   UNL A   1      41.865  27.158  28.916  1.00  0.00     0.037 A 
ATOM     42  C   UNL A   1      39.655  31.204  34.165  1.00  0.00     0.037 A 
ATOM     43  C   UNL A   1      42.758  27.229  30.043  1.00  0.00     0.049 A 
ATOM     44  C   UNL A   1      40.951  30.442  34.246  1.00  0.00     0.074 A 
ATOM     45  C   UNL A   1      43.993  26.624  30.205  1.00  0.00     0.029 A 
ATOM     46  N   UNL A   1      42.512  27.953  31.200  1.00  0.00    -0.354 N 
ATOM     47  N   UNL A   1      41.513  29.671  33.349  1.00  0.00    -0.248 NA
ATOM     48  C   UNL A   1      41.714  30.562  35.496  1.00  0.00     0.031 C 
ATOM     49  C   UNL A   1      44.479  26.955  31.474  1.00  0.00     0.029 A 
ATOM     50  C   UNL A   1      43.566  27.798  32.085  1.00  0.00     0.049 A 
ATOM     51  H   UNL A   1      41.708  28.496  31.366  1.00  0.00     0.167 HD
ATOM     52  C   UNL A   1      42.706  29.238  33.911  1.00  0.00     0.074 A 
ATOM     53  C   UNL A   1      42.792  29.839  35.226  1.00  0.00     0.031 C 
ATOM     54  C   UNL A   1      43.645  28.415  33.384  1.00  0.00     0.037 A 
BRANCH  41  55
ATOM     55  C   UNL A   1      42.252  26.278  27.764  1.00  0.00     0.064 A 
ATOM     56  C   UNL A   1      43.177  26.698  26.796  1.00  0.00     0.173 A 
ATOM     57  C   UNL A   1      41.722  24.984  27.647  1.00  0.00     0.173 A 
ATOM     58  F   UNL A   1      43.705  27.929  26.858  1.00  0.00    -0.203 F 
ATOM     59  C   UNL A   1      43.536  25.865  25.739  1.00  0.00     0.198 A 
ATOM     60  C   UNL A   1      42.104  24.144  26.604  1.00  0.00     0.198 A 
ATOM     61  F   UNL A   1      40.839  24.530  28.549  1.00  0.00    -0.203 F 
ATOM     62  F   UNL A   1      44.387  26.306  24.802  1.00  0.00    -0.200 F 
ATOM     63  C   UNL A   1      43.004  24.588  25.647  1.00  0.00     0.200 A 
ATOM     64  F   UNL A   1      41.599  22.905  26.523  1.00  0.00    -0.200 F 
ATOM     65  F   UNL A   1      43.355  23.787  24.632  1.00  0.00    -0.200 F 
ENDBRANCH  41  55
BRANCH  42  66
ATOM     66  C   UNL A   1      39.194  32.034  35.307  1.00  0.00     0.064 A 
ATOM     67  C   UNL A   1      39.491  33.403  35.364  1.00  0.00     0.173 A 
ATOM     68  C   UNL A   1      38.452  31.481  36.361  1.00  0.00     0.173 A 
ATOM     69  F   UNL A   1      40.218  33.971  34.391  1.00  0.00    -0.203 F 
ATOM     70  C   UNL A   1      39.078  34.184  36.442  1.00  0.00     0.198 A 
ATOM     71  C   UNL A   1      38.018  32.269  37.425  1.00  0.00     0.198 A 
ATOM     72  F   UNL A   1      38.141  30.177  36.352  1.00  0.00    -0.203 F 
ATOM     73  F   UNL A   1      39.412  35.481  36.493  1.00  0.00    -0.200 F 
ATOM     74  C   UNL A   1      38.337  33.618  37.468  1.00  0.00     0.200 A 
ATOM     75  F   UNL A   1      37.293  31.720  38.410  1.00  0.00    -0.200 F 
ATOM     76  F   UNL A   1      37.937  34.370  38.502  1.00  0.00    -0.200 F 
ENDBRANCH  42  66
BRANCH  54  77
ATOM     77  C   UNL A   1      44.868  28.147  34.209  1.00  0.00     0.064 A 
ATOM     78  C   UNL A   1      45.989  28.987  34.155  1.00  0.00     0.173 A 
ATOM     79  C   UNL A   1      44.897  27.066  35.103  1.00  0.00     0.173 A 
ATOM     80  F   UNL A   1      46.016  30.024  33.305  1.00  0.00    -0.203 F 
ATOM     81  C   UNL A   1      47.104  28.744  34.954  1.00  0.00     0.198 A 
ATOM     82  C   UNL A   1      46.002  26.840  35.918  1.00  0.00     0.198 A 
ATOM     83  F   UNL A   1      43.847  26.237  35.194  1.00  0.00    -0.203 F 
ATOM     84  F   UNL A   1      48.180  29.537  34.861  1.00  0.00    -0.200 F 
ATOM     85  C   UNL A   1      47.106  27.676  35.841  1.00  0.00     0.200 A 
ATOM     86  F   UNL A   1      45.999  25.814  36.781  1.00  0.00    -0.200 F 
ATOM     87  F   UNL A   1      48.175  27.449  36.616  1.00  0.00    -0.200 F 
ENDBRANCH  54  77
ENDBRANCH  28  29
ENDBRANCH  20  23
ENDBRANCH  18  19
ENDBRANCH   1  18
TORSDOF 12
ENDMDL
