MODEL 1
REMARK VINA RESULT:     -13.1      0.000      0.000
REMARK SMILES Cc1c(Cl)ccc2c1C=C(C(=O)NCCCNC(=O)c1ccc(-c3c4nc(c(-c5c(F)c(F)c(F)c(F)c5F)c5ccc([nH]5)c(-c5c(F)c(F)c(F)c(F)c5F)c5nc(c(-c6c(F)c(F)c(F)c(F)c6F)c6ccc3[nH]6)C=C5)C=C4)cc1)[C@@H](C(F)(F)F)O2
REMARK SMILES IDX 15 1 14 2 13 3 11 4 12 5 10 7 1 8 2 9 3 10 8 11 4 12 5 13
REMARK SMILES IDX 7 14 9 15 6 16 88 17 83 18 84 19 85 20 86 21 87 22 16 23
REMARK SMILES IDX 17 24 18 25 19 27 20 28 21 29 82 30 22 31 81 32 23 33 24 34
REMARK SMILES IDX 25 35 75 36 26 37 80 38 74 39 76 40 27 41 79 42 73 43 72 44
REMARK SMILES IDX 28 46 60 47 40 48 59 49 41 50 44 51 58 52 77 53 42 54 43 55
REMARK SMILES IDX 57 57 78 58 45 59 29 60 30 61 38 62 31 63 32 64 36 65 39 66
REMARK SMILES IDX 33 67 34 68 37 69 35 70 61 71 62 72 70 73 63 74 64 75 68 76
REMARK SMILES IDX 71 77 65 78 66 79 69 80 67 81 46 82 47 83 55 84 48 85 49 86
REMARK SMILES IDX 53 87 56 88 50 89 51 90 54 91 52 92
REMARK H PARENT 13 6 17 26 76 45 44 56
REMARK Flexibility Score: inf
ROOT
ATOM      1  C   UNL A   1      31.415  32.047  26.492  1.00  0.00     0.042 C 
ENDROOT
BRANCH   1   2
ATOM      2  C   UNL A   1      31.439  30.527  26.394  1.00  0.00     0.118 C 
BRANCH   2   3
ATOM      3  N   UNL A   1      32.331  30.076  25.336  1.00  0.00    -0.352 N 
ATOM      4  C   UNL A   1      32.799  28.903  24.856  1.00  0.00     0.251 C 
ATOM      5  O   UNL A   1      33.607  29.010  23.928  1.00  0.00    -0.270 OA
ATOM      6  H   UNL A   1      32.693  30.838  24.828  1.00  0.00     0.163 HD
BRANCH   4   7
ATOM      7  C   UNL A   1      32.413  27.550  25.351  1.00  0.00     0.067 C 
ATOM      8  C   UNL A   1      35.470  24.528  25.289  1.00  0.00     0.047 C 
ATOM      9  C   UNL A   1      34.103  24.263  25.870  1.00  0.00    -0.021 A 
ATOM     10  C   UNL A   1      33.746  22.996  26.376  1.00  0.00     0.044 A 
ATOM     11  C   UNL A   1      33.145  25.304  25.934  1.00  0.00     0.022 A 
ATOM     12  Cl  UNL A   1      34.838  21.655  26.379  1.00  0.00    -0.084 Cl
ATOM     13  C   UNL A   1      32.476  22.766  26.916  1.00  0.00     0.024 A 
ATOM     14  C   UNL A   1      31.872  25.047  26.467  1.00  0.00     0.128 A 
ATOM     15  C   UNL A   1      33.426  26.675  25.499  1.00  0.00     0.026 C 
ATOM     16  C   UNL A   1      31.540  23.793  26.965  1.00  0.00     0.048 A 
ATOM     17  O   UNL A   1      30.903  26.006  26.573  1.00  0.00    -0.475 OA
ATOM     18  C   UNL A   1      31.008  27.121  25.647  1.00  0.00     0.314 C 
BRANCH  18  19
ATOM     19  C   UNL A   1      30.194  26.817  24.375  1.00  0.00     0.429 C 
ATOM     20  F   UNL A   1      29.067  26.130  24.691  1.00  0.00    -0.167 F 
ATOM     21  F   UNL A   1      29.789  27.943  23.738  1.00  0.00    -0.167 F 
ATOM     22  F   UNL A   1      30.881  26.082  23.474  1.00  0.00    -0.167 F 
ENDBRANCH  18  19
ENDBRANCH   4   7
ENDBRANCH   2   3
ENDBRANCH   1   2
BRANCH   1  23
ATOM     23  C   UNL A   1      32.641  32.592  27.217  1.00  0.00     0.118 C 
BRANCH  23  24
ATOM     24  N   UNL A   1      32.495  34.011  27.525  1.00  0.00    -0.352 N 
ATOM     25  C   UNL A   1      33.059  34.745  28.539  1.00  0.00     0.251 C 
ATOM     26  H   UNL A   1      31.906  34.516  26.918  1.00  0.00     0.163 HD
ATOM     27  O   UNL A   1      32.620  35.854  28.826  1.00  0.00    -0.269 OA
BRANCH  25  28
ATOM     28  C   UNL A   1      34.198  34.186  29.289  1.00  0.00     0.039 A 
ATOM     29  C   UNL A   1      33.961  33.401  30.419  1.00  0.00     0.014 A 
ATOM     30  C   UNL A   1      35.505  34.453  28.871  1.00  0.00     0.014 A 
ATOM     31  C   UNL A   1      35.040  32.828  31.094  1.00  0.00     0.010 A 
ATOM     32  C   UNL A   1      36.572  33.822  29.495  1.00  0.00     0.010 A 
ATOM     33  C   UNL A   1      36.348  33.013  30.619  1.00  0.00    -0.014 A 
BRANCH  33  34
ATOM     34  C   UNL A   1      37.508  32.398  31.301  1.00  0.00     0.031 A 
ATOM     35  C   UNL A   1      38.255  31.280  30.631  1.00  0.00     0.074 A 
ATOM     36  C   UNL A   1      37.847  32.803  32.539  1.00  0.00     0.049 A 
ATOM     37  N   UNL A   1      39.263  30.576  31.077  1.00  0.00    -0.248 NA
ATOM     38  C   UNL A   1      37.789  30.882  29.292  1.00  0.00     0.031 C 
ATOM     39  C   UNL A   1      37.163  33.848  33.302  1.00  0.00     0.029 A 
ATOM     40  N   UNL A   1      38.848  32.381  33.376  1.00  0.00    -0.354 N 
ATOM     41  C   UNL A   1      39.548  29.656  30.077  1.00  0.00     0.074 A 
ATOM     42  C   UNL A   1      38.569  29.844  29.030  1.00  0.00     0.031 C 
ATOM     43  C   UNL A   1      37.781  34.004  34.484  1.00  0.00     0.029 A 
ATOM     44  C   UNL A   1      38.886  33.054  34.572  1.00  0.00     0.049 A 
ATOM     45  H   UNL A   1      39.479  31.662  33.142  1.00  0.00     0.167 HD
ATOM     46  C   UNL A   1      40.559  28.760  30.023  1.00  0.00     0.037 A 
ATOM     47  C   UNL A   1      39.725  32.919  35.617  1.00  0.00     0.037 A 
ATOM     48  C   UNL A   1      41.545  28.597  31.056  1.00  0.00     0.049 A 
ATOM     49  C   UNL A   1      40.833  31.903  35.539  1.00  0.00     0.074 A 
ATOM     50  C   UNL A   1      42.639  27.751  31.078  1.00  0.00     0.029 A 
ATOM     51  N   UNL A   1      41.554  29.302  32.250  1.00  0.00    -0.354 N 
ATOM     52  N   UNL A   1      41.132  31.082  34.562  1.00  0.00    -0.248 NA
ATOM     53  C   UNL A   1      41.720  31.797  36.706  1.00  0.00     0.031 C 
ATOM     54  C   UNL A   1      43.293  27.919  32.302  1.00  0.00     0.029 A 
ATOM     55  C   UNL A   1      42.628  28.899  33.026  1.00  0.00     0.049 A 
ATOM     56  H   UNL A   1      40.896  29.986  32.509  1.00  0.00     0.167 HD
ATOM     57  C   UNL A   1      42.256  30.384  34.980  1.00  0.00     0.074 A 
ATOM     58  C   UNL A   1      42.590  30.881  36.300  1.00  0.00     0.031 C 
ATOM     59  C   UNL A   1      42.949  29.420  34.329  1.00  0.00     0.037 A 
BRANCH  46  60
ATOM     60  C   UNL A   1      40.666  27.907  28.795  1.00  0.00     0.064 A 
ATOM     61  C   UNL A   1      39.952  26.704  28.679  1.00  0.00     0.173 A 
ATOM     62  C   UNL A   1      41.451  28.313  27.706  1.00  0.00     0.173 A 
ATOM     63  F   UNL A   1      39.199  26.267  29.700  1.00  0.00    -0.203 F 
ATOM     64  C   UNL A   1      40.036  25.930  27.527  1.00  0.00     0.198 A 
ATOM     65  C   UNL A   1      41.511  27.549  26.543  1.00  0.00     0.198 A 
ATOM     66  F   UNL A   1      42.151  29.456  27.765  1.00  0.00    -0.203 F 
ATOM     67  F   UNL A   1      39.376  24.765  27.454  1.00  0.00    -0.200 F 
ATOM     68  C   UNL A   1      40.808  26.356  26.457  1.00  0.00     0.200 A 
ATOM     69  F   UNL A   1      42.249  27.966  25.506  1.00  0.00    -0.200 F 
ATOM     70  F   UNL A   1      40.879  25.615  25.343  1.00  0.00    -0.200 F 
ENDBRANCH  46  60
BRANCH  47  71
ATOM     71  C   UNL A   1      39.582  33.809  36.797  1.00  0.00     0.064 A 
ATOM     72  C   UNL A   1      38.825  33.406  37.905  1.00  0.00     0.173 A 
ATOM     73  C   UNL A   1      40.213  35.060  36.855  1.00  0.00     0.173 A 
ATOM     74  F   UNL A   1      38.190  32.225  37.888  1.00  0.00    -0.203 F 
ATOM     75  C   UNL A   1      38.696  34.225  39.026  1.00  0.00     0.198 A 
ATOM     76  C   UNL A   1      40.102  35.869  37.985  1.00  0.00     0.198 A 
ATOM     77  F   UNL A   1      40.954  35.487  35.823  1.00  0.00    -0.203 F 
ATOM     78  F   UNL A   1      37.943  33.828  40.060  1.00  0.00    -0.200 F 
ATOM     79  C   UNL A   1      39.341  35.452  39.067  1.00  0.00     0.200 A 
ATOM     80  F   UNL A   1      40.737  37.047  38.028  1.00  0.00    -0.200 F 
ATOM     81  F   UNL A   1      39.225  36.235  40.149  1.00  0.00    -0.200 F 
ENDBRANCH  47  71
BRANCH  59  82
ATOM     82  C   UNL A   1      44.155  28.847  35.011  1.00  0.00     0.064 A 
ATOM     83  C   UNL A   1      44.064  27.701  35.811  1.00  0.00     0.173 A 
ATOM     84  C   UNL A   1      45.426  29.390  34.772  1.00  0.00     0.173 A 
ATOM     85  F   UNL A   1      42.867  27.154  36.074  1.00  0.00    -0.203 F 
ATOM     86  C   UNL A   1      45.206  27.116  36.351  1.00  0.00     0.198 A 
ATOM     87  C   UNL A   1      46.568  28.789  35.295  1.00  0.00     0.198 A 
ATOM     88  F   UNL A   1      45.563  30.481  34.006  1.00  0.00    -0.203 F 
ATOM     89  F   UNL A   1      45.096  26.031  37.128  1.00  0.00    -0.200 F 
ATOM     90  C   UNL A   1      46.456  27.654  36.083  1.00  0.00     0.200 A 
ATOM     91  F   UNL A   1      47.777  29.299  35.022  1.00  0.00    -0.200 F 
ATOM     92  F   UNL A   1      47.556  27.075  36.584  1.00  0.00    -0.200 F 
ENDBRANCH  59  82
ENDBRANCH  33  34
ENDBRANCH  25  28
ENDBRANCH  23  24
ENDBRANCH   1  23
TORSDOF 11
ENDMDL
MODEL 2
REMARK VINA RESULT:     -13.1      0.578      7.378
REMARK SMILES Cc1c(Cl)ccc2c1C=C(C(=O)NCCCNC(=O)c1ccc(-c3c4nc(c(-c5c(F)c(F)c(F)c(F)c5F)c5ccc([nH]5)c(-c5c(F)c(F)c(F)c(F)c5F)c5nc(c(-c6c(F)c(F)c(F)c(F)c6F)c6ccc3[nH]6)C=C5)C=C4)cc1)[C@@H](C(F)(F)F)O2
REMARK SMILES IDX 15 1 14 2 13 3 11 4 12 5 10 7 1 8 2 9 3 10 8 11 4 12 5 13
REMARK SMILES IDX 7 14 9 15 6 16 88 17 83 18 84 19 85 20 86 21 87 22 16 23
REMARK SMILES IDX 17 24 18 25 19 27 20 28 21 29 82 30 22 31 81 32 23 33 24 34
REMARK SMILES IDX 25 35 75 36 26 37 80 38 74 39 76 40 27 41 79 42 73 43 72 44
REMARK SMILES IDX 28 46 60 47 40 48 59 49 41 50 44 51 58 52 77 53 42 54 43 55
REMARK SMILES IDX 57 57 78 58 45 59 29 60 30 61 38 62 31 63 32 64 36 65 39 66
REMARK SMILES IDX 33 67 34 68 37 69 35 70 61 71 62 72 70 73 63 74 64 75 68 76
REMARK SMILES IDX 71 77 65 78 66 79 69 80 67 81 46 82 47 83 55 84 48 85 49 86
REMARK SMILES IDX 53 87 56 88 50 89 51 90 54 91 52 92
REMARK H PARENT 13 6 17 26 76 45 44 56
REMARK Flexibility Score: inf
ROOT
ATOM      1  C   UNL A   1      31.395  32.020  26.500  1.00  0.00     0.042 C 
ENDROOT
BRANCH   1   2
ATOM      2  C   UNL A   1      31.423  30.500  26.401  1.00  0.00     0.118 C 
BRANCH   2   3
ATOM      3  N   UNL A   1      32.342  30.053  25.366  1.00  0.00    -0.352 N 
ATOM      4  C   UNL A   1      32.809  28.879  24.884  1.00  0.00     0.251 C 
ATOM      5  O   UNL A   1      33.648  28.988  23.984  1.00  0.00    -0.270 OA
ATOM      6  H   UNL A   1      32.731  30.816  24.881  1.00  0.00     0.163 HD
BRANCH   4   7
ATOM      7  C   UNL A   1      32.389  27.525  25.346  1.00  0.00     0.067 C 
ATOM      8  C   UNL A   1      35.413  24.470  25.373  1.00  0.00     0.047 C 
ATOM      9  C   UNL A   1      34.020  24.214  25.894  1.00  0.00    -0.021 A 
ATOM     10  C   UNL A   1      33.629  22.945  26.368  1.00  0.00     0.044 A 
ATOM     11  C   UNL A   1      33.071  25.265  25.931  1.00  0.00     0.022 A 
ATOM     12  Cl  UNL A   1      34.705  21.591  26.400  1.00  0.00    -0.084 Cl
ATOM     13  C   UNL A   1      32.335  22.723  26.853  1.00  0.00     0.024 A 
ATOM     14  C   UNL A   1      31.775  25.016  26.408  1.00  0.00     0.128 A 
ATOM     15  C   UNL A   1      33.386  26.637  25.525  1.00  0.00     0.026 C 
ATOM     16  C   UNL A   1      31.409  23.760  26.876  1.00  0.00     0.048 A 
ATOM     17  O   UNL A   1      30.813  25.984  26.486  1.00  0.00    -0.475 OA
ATOM     18  C   UNL A   1      30.968  27.108  25.579  1.00  0.00     0.314 C 
BRANCH  18  19
ATOM     19  C   UNL A   1      30.204  26.830  24.271  1.00  0.00     0.429 C 
ATOM     20  F   UNL A   1      29.094  26.090  24.523  1.00  0.00    -0.167 F 
ATOM     21  F   UNL A   1      29.778  27.965  23.667  1.00  0.00    -0.167 F 
ATOM     22  F   UNL A   1      30.944  26.157  23.362  1.00  0.00    -0.167 F 
ENDBRANCH  18  19
ENDBRANCH   4   7
ENDBRANCH   2   3
ENDBRANCH   1   2
BRANCH   1  23
ATOM     23  C   UNL A   1      32.716  32.584  27.011  1.00  0.00     0.118 C 
BRANCH  23  24
ATOM     24  N   UNL A   1      32.567  33.958  27.484  1.00  0.00    -0.352 N 
ATOM     25  C   UNL A   1      33.138  34.572  28.570  1.00  0.00     0.251 C 
ATOM     26  H   UNL A   1      31.970  34.526  26.944  1.00  0.00     0.163 HD
ATOM     27  O   UNL A   1      32.696  35.637  28.987  1.00  0.00    -0.269 OA
BRANCH  25  28
ATOM     28  C   UNL A   1      34.286  33.936  29.240  1.00  0.00     0.039 A 
ATOM     29  C   UNL A   1      34.063  32.963  30.217  1.00  0.00     0.014 A 
ATOM     30  C   UNL A   1      35.588  34.317  28.902  1.00  0.00     0.014 A 
ATOM     31  C   UNL A   1      35.153  32.324  30.809  1.00  0.00     0.010 A 
ATOM     32  C   UNL A   1      36.669  33.628  29.434  1.00  0.00     0.010 A 
ATOM     33  C   UNL A   1      36.460  32.634  30.401  1.00  0.00    -0.014 A 
BRANCH  33  34
ATOM     34  C   UNL A   1      37.633  31.955  30.995  1.00  0.00     0.031 A 
ATOM     35  C   UNL A   1      38.104  32.353  32.364  1.00  0.00     0.074 A 
ATOM     36  C   UNL A   1      38.302  31.030  30.282  1.00  0.00     0.049 A 
ATOM     37  N   UNL A   1      39.136  31.919  33.042  1.00  0.00    -0.248 NA
ATOM     38  C   UNL A   1      37.330  33.398  33.053  1.00  0.00     0.031 C 
ATOM     39  C   UNL A   1      37.959  30.600  28.925  1.00  0.00     0.029 A 
ATOM     40  N   UNL A   1      39.412  30.290  30.595  1.00  0.00    -0.354 N 
ATOM     41  C   UNL A   1      39.132  32.637  34.229  1.00  0.00     0.074 A 
ATOM     42  C   UNL A   1      38.039  33.580  34.157  1.00  0.00     0.031 C 
ATOM     43  C   UNL A   1      38.826  29.652  28.534  1.00  0.00     0.029 A 
ATOM     44  C   UNL A   1      39.798  29.427  29.599  1.00  0.00     0.049 A 
ATOM     45  H   UNL A   1      39.889  30.370  31.453  1.00  0.00     0.167 HD
ATOM     46  C   UNL A   1      39.947  32.495  35.299  1.00  0.00     0.037 A 
ATOM     47  C   UNL A   1      40.820  28.550  29.559  1.00  0.00     0.037 A 
ATOM     48  C   UNL A   1      41.015  31.536  35.375  1.00  0.00     0.049 A 
ATOM     49  C   UNL A   1      41.723  28.423  30.756  1.00  0.00     0.074 A 
ATOM     50  C   UNL A   1      41.868  31.279  36.433  1.00  0.00     0.029 A 
ATOM     51  N   UNL A   1      41.371  30.675  34.348  1.00  0.00    -0.354 N 
ATOM     52  N   UNL A   1      41.671  29.061  31.900  1.00  0.00    -0.248 NA
ATOM     53  C   UNL A   1      42.822  27.451  30.660  1.00  0.00     0.031 C 
ATOM     54  C   UNL A   1      42.764  30.283  36.034  1.00  0.00     0.029 A 
ATOM     55  C   UNL A   1      42.443  29.893  34.742  1.00  0.00     0.049 A 
ATOM     56  H   UNL A   1      40.928  30.626  33.471  1.00  0.00     0.167 HD
ATOM     57  C   UNL A   1      42.707  28.552  32.669  1.00  0.00     0.074 A 
ATOM     58  C   UNL A   1      43.370  27.545  31.864  1.00  0.00     0.031 C 
ATOM     59  C   UNL A   1      43.075  28.887  33.929  1.00  0.00     0.037 A 
BRANCH  46  60
ATOM     60  C   UNL A   1      39.696  33.378  36.485  1.00  0.00     0.064 A 
ATOM     61  C   UNL A   1      40.314  34.632  36.603  1.00  0.00     0.173 A 
ATOM     62  C   UNL A   1      38.797  32.991  37.490  1.00  0.00     0.173 A 
ATOM     63  F   UNL A   1      41.191  35.041  35.674  1.00  0.00    -0.203 F 
ATOM     64  C   UNL A   1      40.057  35.458  37.692  1.00  0.00     0.198 A 
ATOM     65  C   UNL A   1      38.522  33.831  38.566  1.00  0.00     0.198 A 
ATOM     66  F   UNL A   1      38.179  31.802  37.423  1.00  0.00    -0.203 F 
ATOM     67  F   UNL A   1      40.689  36.635  37.803  1.00  0.00    -0.200 F 
ATOM     68  C   UNL A   1      39.156  35.061  38.669  1.00  0.00     0.200 A 
ATOM     69  F   UNL A   1      37.644  33.451  39.504  1.00  0.00    -0.200 F 
ATOM     70  F   UNL A   1      38.901  35.861  39.713  1.00  0.00    -0.200 F 
ENDBRANCH  46  60
BRANCH  47  71
ATOM     71  C   UNL A   1      41.003  27.688  28.364  1.00  0.00     0.064 A 
ATOM     72  C   UNL A   1      40.331  26.462  28.259  1.00  0.00     0.173 A 
ATOM     73  C   UNL A   1      41.826  28.075  27.297  1.00  0.00     0.173 A 
ATOM     74  F   UNL A   1      39.546  26.043  29.262  1.00  0.00    -0.203 F 
ATOM     75  C   UNL A   1      40.481  25.652  27.136  1.00  0.00     0.198 A 
ATOM     76  C   UNL A   1      41.959  27.274  26.164  1.00  0.00     0.198 A 
ATOM     77  F   UNL A   1      42.485  29.242  27.346  1.00  0.00    -0.203 F 
ATOM     78  F   UNL A   1      39.848  24.473  27.074  1.00  0.00    -0.200 F 
ATOM     79  C   UNL A   1      41.289  26.062  26.086  1.00  0.00     0.200 A 
ATOM     80  F   UNL A   1      42.729  27.679  25.146  1.00  0.00    -0.200 F 
ATOM     81  F   UNL A   1      41.425  25.287  25.001  1.00  0.00    -0.200 F 
ENDBRANCH  47  71
BRANCH  59  82
ATOM     82  C   UNL A   1      44.230  28.149  34.537  1.00  0.00     0.064 A 
ATOM     83  C   UNL A   1      44.049  26.925  35.193  1.00  0.00     0.173 A 
ATOM     84  C   UNL A   1      45.539  28.623  34.366  1.00  0.00     0.173 A 
ATOM     85  F   UNL A   1      42.814  26.440  35.388  1.00  0.00    -0.203 F 
ATOM     86  C   UNL A   1      45.141  26.199  35.659  1.00  0.00     0.198 A 
ATOM     87  C   UNL A   1      46.631  27.883  34.812  1.00  0.00     0.198 A 
ATOM     88  F   UNL A   1      45.762  29.786  33.737  1.00  0.00    -0.203 F 
ATOM     89  F   UNL A   1      44.946  25.038  36.300  1.00  0.00    -0.200 F 
ATOM     90  C   UNL A   1      46.429  26.672  35.457  1.00  0.00     0.200 A 
ATOM     91  F   UNL A   1      47.875  28.332  34.603  1.00  0.00    -0.200 F 
ATOM     92  F   UNL A   1      47.480  25.958  35.885  1.00  0.00    -0.200 F 
ENDBRANCH  59  82
ENDBRANCH  33  34
ENDBRANCH  25  28
ENDBRANCH  23  24
ENDBRANCH   1  23
TORSDOF 11
ENDMDL
MODEL 3
REMARK VINA RESULT:     -13.0      5.770     10.932
REMARK SMILES Cc1c(Cl)ccc2c1C=C(C(=O)NCCCNC(=O)c1ccc(-c3c4nc(c(-c5c(F)c(F)c(F)c(F)c5F)c5ccc([nH]5)c(-c5c(F)c(F)c(F)c(F)c5F)c5nc(c(-c6c(F)c(F)c(F)c(F)c6F)c6ccc3[nH]6)C=C5)C=C4)cc1)[C@@H](C(F)(F)F)O2
REMARK SMILES IDX 15 1 14 2 13 3 11 4 12 5 10 7 1 8 2 9 3 10 8 11 4 12 5 13
REMARK SMILES IDX 7 14 9 15 6 16 88 17 83 18 84 19 85 20 86 21 87 22 16 23
REMARK SMILES IDX 17 24 18 25 19 27 20 28 21 29 82 30 22 31 81 32 23 33 24 34
REMARK SMILES IDX 25 35 75 36 26 37 80 38 74 39 76 40 27 41 79 42 73 43 72 44
REMARK SMILES IDX 28 46 60 47 40 48 59 49 41 50 44 51 58 52 77 53 42 54 43 55
REMARK SMILES IDX 57 57 78 58 45 59 29 60 30 61 38 62 31 63 32 64 36 65 39 66
REMARK SMILES IDX 33 67 34 68 37 69 35 70 61 71 62 72 70 73 63 74 64 75 68 76
REMARK SMILES IDX 71 77 65 78 66 79 69 80 67 81 46 82 47 83 55 84 48 85 49 86
REMARK SMILES IDX 53 87 56 88 50 89 51 90 54 91 52 92
REMARK H PARENT 13 6 17 26 76 45 44 56
REMARK Flexibility Score: inf
ROOT
ATOM      1  C   UNL A   1      38.155  19.841  24.963  1.00  0.00     0.042 C 
ENDROOT
BRANCH   1   2
ATOM      2  C   UNL A   1      37.279  21.035  24.606  1.00  0.00     0.118 C 
BRANCH   2   3
ATOM      3  N   UNL A   1      36.273  21.281  25.628  1.00  0.00    -0.352 N 
ATOM      4  C   UNL A   1      35.201  22.086  25.802  1.00  0.00     0.251 C 
ATOM      5  O   UNL A   1      34.643  21.973  26.899  1.00  0.00    -0.270 OA
ATOM      6  H   UNL A   1      36.410  20.697  26.409  1.00  0.00     0.163 HD
BRANCH   4   7
ATOM      7  C   UNL A   1      34.674  23.054  24.798  1.00  0.00     0.067 C 
ATOM      8  C   UNL A   1      33.821  27.025  26.205  1.00  0.00     0.047 C 
ATOM      9  C   UNL A   1      33.684  26.651  24.749  1.00  0.00    -0.021 A 
ATOM     10  C   UNL A   1      33.223  27.574  23.788  1.00  0.00     0.044 A 
ATOM     11  C   UNL A   1      34.040  25.352  24.313  1.00  0.00     0.022 A 
ATOM     12  Cl  UNL A   1      32.785  29.198  24.193  1.00  0.00    -0.084 Cl
ATOM     13  C   UNL A   1      33.106  27.215  22.441  1.00  0.00     0.024 A 
ATOM     14  C   UNL A   1      33.901  25.009  22.960  1.00  0.00     0.128 A 
ATOM     15  C   UNL A   1      34.591  24.333  25.211  1.00  0.00     0.026 C 
ATOM     16  C   UNL A   1      33.448  25.934  22.026  1.00  0.00     0.048 A 
ATOM     17  O   UNL A   1      34.237  23.779  22.466  1.00  0.00    -0.475 OA
ATOM     18  C   UNL A   1      34.215  22.684  23.420  1.00  0.00     0.314 C 
BRANCH  18  19
ATOM     19  C   UNL A   1      32.828  22.013  23.409  1.00  0.00     0.429 C 
ATOM     20  F   UNL A   1      32.325  21.993  22.149  1.00  0.00    -0.167 F 
ATOM     21  F   UNL A   1      32.872  20.725  23.824  1.00  0.00    -0.167 F 
ATOM     22  F   UNL A   1      31.932  22.648  24.195  1.00  0.00    -0.167 F 
ENDBRANCH  18  19
ENDBRANCH   4   7
ENDBRANCH   2   3
ENDBRANCH   1   2
BRANCH   1  23
ATOM     23  C   UNL A   1      39.208  20.197  26.007  1.00  0.00     0.118 C 
BRANCH  23  24
ATOM     24  N   UNL A   1      40.281  19.207  26.046  1.00  0.00    -0.352 N 
ATOM     25  C   UNL A   1      41.640  19.396  26.039  1.00  0.00     0.251 C 
ATOM     26  H   UNL A   1      39.986  18.268  26.083  1.00  0.00     0.163 HD
ATOM     27  O   UNL A   1      42.398  18.463  25.794  1.00  0.00    -0.269 OA
BRANCH  25  28
ATOM     28  C   UNL A   1      42.186  20.735  26.323  1.00  0.00     0.039 A 
ATOM     29  C   UNL A   1      42.493  21.593  25.265  1.00  0.00     0.014 A 
ATOM     30  C   UNL A   1      42.403  21.132  27.646  1.00  0.00     0.014 A 
ATOM     31  C   UNL A   1      42.958  22.881  25.539  1.00  0.00     0.010 A 
ATOM     32  C   UNL A   1      42.791  22.437  27.919  1.00  0.00     0.010 A 
ATOM     33  C   UNL A   1      43.082  23.317  26.868  1.00  0.00    -0.014 A 
BRANCH  33  34
ATOM     34  C   UNL A   1      43.550  24.685  27.187  1.00  0.00     0.031 A 
ATOM     35  C   UNL A   1      42.578  25.692  27.731  1.00  0.00     0.074 A 
ATOM     36  C   UNL A   1      44.825  25.032  26.931  1.00  0.00     0.049 A 
ATOM     37  N   UNL A   1      42.772  26.951  28.028  1.00  0.00    -0.248 NA
ATOM     38  C   UNL A   1      41.196  25.231  27.945  1.00  0.00     0.031 C 
ATOM     39  C   UNL A   1      45.842  24.147  26.360  1.00  0.00     0.029 A 
ATOM     40  N   UNL A   1      45.482  26.221  27.112  1.00  0.00    -0.354 N 
ATOM     41  C   UNL A   1      41.542  27.427  28.460  1.00  0.00     0.074 A 
ATOM     42  C   UNL A   1      40.593  26.346  28.326  1.00  0.00     0.031 C 
ATOM     43  C   UNL A   1      47.001  24.817  26.263  1.00  0.00     0.029 A 
ATOM     44  C   UNL A   1      46.803  26.183  26.739  1.00  0.00     0.049 A 
ATOM     45  H   UNL A   1      45.047  27.027  27.474  1.00  0.00     0.167 HD
ATOM     46  C   UNL A   1      41.242  28.648  28.958  1.00  0.00     0.037 A 
ATOM     47  C   UNL A   1      47.745  27.144  26.784  1.00  0.00     0.037 A 
ATOM     48  C   UNL A   1      42.197  29.710  29.113  1.00  0.00     0.049 A 
ATOM     49  C   UNL A   1      47.382  28.500  27.328  1.00  0.00     0.074 A 
ATOM     50  C   UNL A   1      42.006  30.970  29.652  1.00  0.00     0.029 A 
ATOM     51  N   UNL A   1      43.528  29.632  28.730  1.00  0.00    -0.354 N 
ATOM     52  N   UNL A   1      46.231  28.920  27.794  1.00  0.00    -0.248 NA
ATOM     53  C   UNL A   1      48.447  29.512  27.356  1.00  0.00     0.031 C 
ATOM     54  C   UNL A   1      43.215  31.667  29.564  1.00  0.00     0.029 A 
ATOM     55  C   UNL A   1      44.168  30.828  29.007  1.00  0.00     0.049 A 
ATOM     56  H   UNL A   1      43.954  28.844  28.322  1.00  0.00     0.167 HD
ATOM     57  C   UNL A   1      46.438  30.232  28.196  1.00  0.00     0.074 A 
ATOM     58  C   UNL A   1      47.829  30.538  27.925  1.00  0.00     0.031 C 
ATOM     59  C   UNL A   1      45.557  31.103  28.743  1.00  0.00     0.037 A 
BRANCH  46  60
ATOM     60  C   UNL A   1      39.829  28.891  29.397  1.00  0.00     0.064 A 
ATOM     61  C   UNL A   1      38.862  29.376  28.504  1.00  0.00     0.173 A 
ATOM     62  C   UNL A   1      39.424  28.595  30.707  1.00  0.00     0.173 A 
ATOM     63  F   UNL A   1      39.203  29.686  27.245  1.00  0.00    -0.203 F 
ATOM     64  C   UNL A   1      37.546  29.574  28.911  1.00  0.00     0.198 A 
ATOM     65  C   UNL A   1      38.101  28.769  31.104  1.00  0.00     0.198 A 
ATOM     66  F   UNL A   1      40.310  28.126  31.599  1.00  0.00    -0.203 F 
ATOM     67  F   UNL A   1      36.649  30.076  28.051  1.00  0.00    -0.200 F 
ATOM     68  C   UNL A   1      37.165  29.263  30.207  1.00  0.00     0.200 A 
ATOM     69  F   UNL A   1      37.731  28.459  32.353  1.00  0.00    -0.200 F 
ATOM     70  F   UNL A   1      35.895  29.445  30.595  1.00  0.00    -0.200 F 
ENDBRANCH  46  60
BRANCH  47  71
ATOM     71  C   UNL A   1      49.133  26.836  26.355  1.00  0.00     0.064 A 
ATOM     72  C   UNL A   1      50.068  26.334  27.271  1.00  0.00     0.173 A 
ATOM     73  C   UNL A   1      49.547  27.009  25.027  1.00  0.00     0.173 A 
ATOM     74  F   UNL A   1      49.722  26.168  28.556  1.00  0.00    -0.203 F 
ATOM     75  C   UNL A   1      51.368  26.025  26.877  1.00  0.00     0.198 A 
ATOM     76  C   UNL A   1      50.841  26.679  24.629  1.00  0.00     0.198 A 
ATOM     77  F   UNL A   1      48.688  27.479  24.111  1.00  0.00    -0.203 F 
ATOM     78  F   UNL A   1      52.249  25.573  27.779  1.00  0.00    -0.200 F 
ATOM     79  C   UNL A   1      51.751  26.190  25.554  1.00  0.00     0.200 A 
ATOM     80  F   UNL A   1      51.205  26.827  23.348  1.00  0.00    -0.200 F 
ATOM     81  F   UNL A   1      52.999  25.883  25.174  1.00  0.00    -0.200 F 
ENDBRANCH  47  71
BRANCH  59  82
ATOM     82  C   UNL A   1      46.061  32.465  29.112  1.00  0.00     0.064 A 
ATOM     83  C   UNL A   1      45.969  33.543  28.221  1.00  0.00     0.173 A 
ATOM     84  C   UNL A   1      46.541  32.714  30.406  1.00  0.00     0.173 A 
ATOM     85  F   UNL A   1      45.525  33.348  26.970  1.00  0.00    -0.203 F 
ATOM     86  C   UNL A   1      46.341  34.825  28.613  1.00  0.00     0.198 A 
ATOM     87  C   UNL A   1      46.890  34.003  30.802  1.00  0.00     0.198 A 
ATOM     88  F   UNL A   1      46.639  31.716  31.296  1.00  0.00    -0.203 F 
ATOM     89  F   UNL A   1      46.262  35.839  27.741  1.00  0.00    -0.200 F 
ATOM     90  C   UNL A   1      46.789  35.055  29.906  1.00  0.00     0.200 A 
ATOM     91  F   UNL A   1      47.308  34.227  32.055  1.00  0.00    -0.200 F 
ATOM     92  F   UNL A   1      47.123  36.296  30.288  1.00  0.00    -0.200 F 
ENDBRANCH  59  82
ENDBRANCH  33  34
ENDBRANCH  25  28
ENDBRANCH  23  24
ENDBRANCH   1  23
TORSDOF 11
ENDMDL
