MODEL 1
REMARK VINA RESULT:     -11.7      0.000      0.000
REMARK SMILES O=C(C[C@H]1C[N@@H+](Cc2c(F)cccc2F)CCO1)NCCCNC(=O)c1ccc(-c2c3nc(c(-c4c(F)c(F)c(F)c(F)c4F)c4ccc([nH]4)c(-c4c(F)c(F)c(F)c(F)c4F)c4nc(c(-c5c(F)c(F)c(F)c(F)c5F)c5ccc2[nH]5)C=C4)C=C3)cc1
REMARK SMILES IDX 20 1 19 2 1 3 2 4 3 6 4 7 5 8 18 9 6 10 17 11 16 12 7 14
REMARK SMILES IDX 8 15 9 16 14 17 10 18 11 19 13 20 15 21 12 22 21 23 22 24
REMARK SMILES IDX 23 25 24 26 25 28 26 29 27 30 88 31 28 32 87 33 29 34 30 35
REMARK SMILES IDX 31 36 81 37 32 38 86 39 80 40 82 41 33 42 85 43 79 44 78 45
REMARK SMILES IDX 34 47 66 48 46 49 65 50 47 51 50 52 64 53 83 54 48 55 49 56
REMARK SMILES IDX 63 58 84 59 51 60 35 61 36 62 44 63 37 64 38 65 42 66 45 67
REMARK SMILES IDX 39 68 40 69 43 70 41 71 67 72 68 73 76 74 69 75 70 76 74 77
REMARK SMILES IDX 77 78 71 79 72 80 75 81 73 82 52 83 53 84 61 85 54 86 55 87
REMARK SMILES IDX 59 88 62 89 56 90 57 91 60 92 58 93
REMARK H PARENT 19 5 6 13 23 27 82 46 50 57
REMARK Flexibility Score: inf
ROOT
ATOM      1  C   UNL A   1      34.091  23.570  26.507  1.00  0.00     0.117 C 
ENDROOT
BRANCH   1   2
ATOM      2  N   UNL A   1      33.011  24.318  25.892  1.00  0.00    -0.356 N 
ATOM      3  O   UNL A   1      31.313  23.840  27.332  1.00  0.00    -0.275 OA
ATOM      4  C   UNL A   1      31.826  24.600  26.515  1.00  0.00     0.222 C 
ATOM      5  H   UNL A   1      33.138  24.642  24.971  1.00  0.00     0.163 HD
BRANCH   4   6
ATOM      6  C   UNL A   1      31.099  25.840  26.036  1.00  0.00     0.138 C 
BRANCH   6   7
ATOM      7  C   UNL A   1      30.422  25.873  24.650  1.00  0.00     0.182 C 
ATOM      8  C   UNL A   1      30.153  27.285  24.056  1.00  0.00     0.295 C 
ATOM      9  O   UNL A   1      30.917  24.917  23.696  1.00  0.00    -0.366 OA
ATOM     10  N   UNL A   1      31.068  27.757  23.030  1.00  0.00    -0.327 N 
ATOM     11  C   UNL A   1      31.869  25.442  22.757  1.00  0.00     0.222 C 
ATOM     12  C   UNL A   1      31.434  26.726  22.074  1.00  0.00     0.291 C 
ATOM     13  H   UNL A   1      30.488  28.403  22.493  1.00  0.00     0.348 HD
BRANCH  10  14
ATOM     14  C   UNL A   1      32.035  28.797  23.348  1.00  0.00     0.305 C 
BRANCH  14  15
ATOM     15  C   UNL A   1      32.584  28.888  24.742  1.00  0.00     0.078 A 
ATOM     16  C   UNL A   1      33.658  28.103  25.164  1.00  0.00     0.135 A 
ATOM     17  C   UNL A   1      32.097  29.841  25.642  1.00  0.00     0.135 A 
ATOM     18  F   UNL A   1      34.170  27.175  24.343  1.00  0.00    -0.206 F 
ATOM     19  C   UNL A   1      34.222  28.252  26.434  1.00  0.00     0.040 A 
ATOM     20  C   UNL A   1      32.642  29.999  26.916  1.00  0.00     0.040 A 
ATOM     21  F   UNL A   1      31.073  30.630  25.287  1.00  0.00    -0.206 F 
ATOM     22  C   UNL A   1      33.711  29.202  27.316  1.00  0.00     0.006 A 
ENDBRANCH  14  15
ENDBRANCH  10  14
ENDBRANCH   6   7
ENDBRANCH   4   6
ENDBRANCH   1   2
BRANCH   1  23
ATOM     23  C   UNL A   1      35.238  23.161  25.608  1.00  0.00     0.042 C 
BRANCH  23  24
ATOM     24  C   UNL A   1      36.564  23.739  26.049  1.00  0.00     0.118 C 
BRANCH  24  25
ATOM     25  N   UNL A   1      37.615  22.730  26.079  1.00  0.00    -0.352 N 
ATOM     26  C   UNL A   1      38.949  22.884  26.343  1.00  0.00     0.251 C 
ATOM     27  H   UNL A   1      37.326  21.808  25.883  1.00  0.00     0.163 HD
ATOM     28  O   UNL A   1      39.744  21.982  26.120  1.00  0.00    -0.269 OA
BRANCH  26  29
ATOM     29  C   UNL A   1      39.410  24.169  26.900  1.00  0.00     0.039 A 
ATOM     30  C   UNL A   1      40.030  25.092  26.060  1.00  0.00     0.014 A 
ATOM     31  C   UNL A   1      39.211  24.455  28.254  1.00  0.00     0.014 A 
ATOM     32  C   UNL A   1      40.427  26.322  26.578  1.00  0.00     0.010 A 
ATOM     33  C   UNL A   1      39.506  25.717  28.741  1.00  0.00     0.010 A 
ATOM     34  C   UNL A   1      40.149  26.647  27.916  1.00  0.00    -0.014 A 
BRANCH  34  35
ATOM     35  C   UNL A   1      40.579  27.940  28.495  1.00  0.00     0.031 A 
ATOM     36  C   UNL A   1      42.030  28.155  28.821  1.00  0.00     0.074 A 
ATOM     37  C   UNL A   1      39.663  28.888  28.758  1.00  0.00     0.049 A 
ATOM     38  N   UNL A   1      42.607  29.194  29.367  1.00  0.00    -0.248 NA
ATOM     39  C   UNL A   1      42.953  27.047  28.521  1.00  0.00     0.031 C 
ATOM     40  C   UNL A   1      38.224  28.760  28.525  1.00  0.00     0.029 A 
ATOM     41  N   UNL A   1      39.805  30.148  29.281  1.00  0.00    -0.354 N 
ATOM     42  C   UNL A   1      43.949  28.857  29.485  1.00  0.00     0.074 A 
ATOM     43  C   UNL A   1      44.094  27.497  29.021  1.00  0.00     0.031 C 
ATOM     44  C   UNL A   1      37.620  29.909  28.865  1.00  0.00     0.029 A 
ATOM     45  C   UNL A   1      38.623  30.838  29.380  1.00  0.00     0.049 A 
ATOM     46  H   UNL A   1      40.674  30.521  29.558  1.00  0.00     0.167 HD
ATOM     47  C   UNL A   1      44.974  29.631  29.907  1.00  0.00     0.037 A 
ATOM     48  C   UNL A   1      38.380  32.080  29.836  1.00  0.00     0.037 A 
ATOM     49  C   UNL A   1      44.820  30.995  30.334  1.00  0.00     0.049 A 
ATOM     50  C   UNL A   1      39.537  32.918  30.313  1.00  0.00     0.074 A 
ATOM     51  C   UNL A   1      45.800  31.888  30.726  1.00  0.00     0.029 A 
ATOM     52  N   UNL A   1      43.607  31.662  30.420  1.00  0.00    -0.354 N 
ATOM     53  N   UNL A   1      40.813  32.616  30.355  1.00  0.00    -0.248 NA
ATOM     54  C   UNL A   1      39.223  34.268  30.800  1.00  0.00     0.031 C 
ATOM     55  C   UNL A   1      45.175  33.078  31.104  1.00  0.00     0.029 A 
ATOM     56  C   UNL A   1      43.811  32.949  30.887  1.00  0.00     0.049 A 
ATOM     57  H   UNL A   1      42.732  31.278  30.184  1.00  0.00     0.167 HD
ATOM     58  C   UNL A   1      41.456  33.741  30.850  1.00  0.00     0.074 A 
ATOM     59  C   UNL A   1      40.432  34.740  31.077  1.00  0.00     0.031 C 
ATOM     60  C   UNL A   1      42.775  33.929  31.099  1.00  0.00     0.037 A 
BRANCH  47  61
ATOM     61  C   UNL A   1      46.351  29.033  29.913  1.00  0.00     0.064 A 
ATOM     62  C   UNL A   1      46.863  28.437  31.076  1.00  0.00     0.173 A 
ATOM     63  C   UNL A   1      47.190  29.110  28.791  1.00  0.00     0.173 A 
ATOM     64  F   UNL A   1      46.105  28.341  32.178  1.00  0.00    -0.203 F 
ATOM     65  C   UNL A   1      48.169  27.954  31.117  1.00  0.00     0.198 A 
ATOM     66  C   UNL A   1      48.483  28.595  28.826  1.00  0.00     0.198 A 
ATOM     67  F   UNL A   1      46.744  29.657  27.650  1.00  0.00    -0.203 F 
ATOM     68  F   UNL A   1      48.649  27.422  32.249  1.00  0.00    -0.200 F 
ATOM     69  C   UNL A   1      48.976  28.029  29.991  1.00  0.00     0.200 A 
ATOM     70  F   UNL A   1      49.251  28.644  27.728  1.00  0.00    -0.200 F 
ATOM     71  F   UNL A   1      50.228  27.555  30.030  1.00  0.00    -0.200 F 
ENDBRANCH  47  61
BRANCH  48  72
ATOM     72  C   UNL A   1      36.992  32.611  29.822  1.00  0.00     0.064 A 
ATOM     73  C   UNL A   1      36.488  33.314  28.718  1.00  0.00     0.173 A 
ATOM     74  C   UNL A   1      36.152  32.456  30.933  1.00  0.00     0.173 A 
ATOM     75  F   UNL A   1      37.254  33.498  27.631  1.00  0.00    -0.203 F 
ATOM     76  C   UNL A   1      35.205  33.858  28.734  1.00  0.00     0.198 A 
ATOM     77  C   UNL A   1      34.858  32.974  30.936  1.00  0.00     0.198 A 
ATOM     78  F   UNL A   1      36.581  31.778  32.008  1.00  0.00    -0.203 F 
ATOM     79  F   UNL A   1      34.764  34.558  27.680  1.00  0.00    -0.200 F 
ATOM     80  C   UNL A   1      34.389  33.682  29.840  1.00  0.00     0.200 A 
ATOM     81  F   UNL A   1      34.064  32.781  31.999  1.00  0.00    -0.200 F 
ATOM     82  F   UNL A   1      33.151  34.193  29.850  1.00  0.00    -0.200 F 
ENDBRANCH  48  72
BRANCH  60  83
ATOM     83  C   UNL A   1      43.200  35.267  31.629  1.00  0.00     0.064 A 
ATOM     84  C   UNL A   1      43.686  36.255  30.759  1.00  0.00     0.173 A 
ATOM     85  C   UNL A   1      43.220  35.535  33.006  1.00  0.00     0.173 A 
ATOM     86  F   UNL A   1      43.698  36.042  29.434  1.00  0.00    -0.203 F 
ATOM     87  C   UNL A   1      44.194  37.453  31.248  1.00  0.00     0.198 A 
ATOM     88  C   UNL A   1      43.700  36.749  33.489  1.00  0.00     0.198 A 
ATOM     89  F   UNL A   1      42.758  34.627  33.878  1.00  0.00    -0.203 F 
ATOM     90  F   UNL A   1      44.695  38.363  30.400  1.00  0.00    -0.200 F 
ATOM     91  C   UNL A   1      44.198  37.702  32.612  1.00  0.00     0.200 A 
ATOM     92  F   UNL A   1      43.679  36.998  34.806  1.00  0.00    -0.200 F 
ATOM     93  F   UNL A   1      44.681  38.860  33.082  1.00  0.00    -0.200 F 
ENDBRANCH  60  83
ENDBRANCH  34  35
ENDBRANCH  26  29
ENDBRANCH  24  25
ENDBRANCH  23  24
ENDBRANCH   1  23
TORSDOF 13
ENDMDL
MODEL 2
REMARK VINA RESULT:     -11.7      4.227      8.006
REMARK SMILES O=C(C[C@H]1C[N@@H+](Cc2c(F)cccc2F)CCO1)NCCCNC(=O)c1ccc(-c2c3nc(c(-c4c(F)c(F)c(F)c(F)c4F)c4ccc([nH]4)c(-c4c(F)c(F)c(F)c(F)c4F)c4nc(c(-c5c(F)c(F)c(F)c(F)c5F)c5ccc2[nH]5)C=C4)C=C3)cc1
REMARK SMILES IDX 20 1 19 2 1 3 2 4 3 6 4 7 5 8 18 9 6 10 17 11 16 12 7 14
REMARK SMILES IDX 8 15 9 16 14 17 10 18 11 19 13 20 15 21 12 22 21 23 22 24
REMARK SMILES IDX 23 25 24 26 25 28 26 29 27 30 88 31 28 32 87 33 29 34 30 35
REMARK SMILES IDX 31 36 81 37 32 38 86 39 80 40 82 41 33 42 85 43 79 44 78 45
REMARK SMILES IDX 34 47 66 48 46 49 65 50 47 51 50 52 64 53 83 54 48 55 49 56
REMARK SMILES IDX 63 58 84 59 51 60 35 61 36 62 44 63 37 64 38 65 42 66 45 67
REMARK SMILES IDX 39 68 40 69 43 70 41 71 67 72 68 73 76 74 69 75 70 76 74 77
REMARK SMILES IDX 77 78 71 79 72 80 75 81 73 82 52 83 53 84 61 85 54 86 55 87
REMARK SMILES IDX 59 88 62 89 56 90 57 91 60 92 58 93
REMARK H PARENT 19 5 6 13 23 27 82 46 50 57
REMARK Flexibility Score: inf
ROOT
ATOM      1  C   UNL A   1      31.453  30.824  26.377  1.00  0.00     0.117 C 
ENDROOT
BRANCH   1   2
ATOM      2  N   UNL A   1      32.500  30.273  25.538  1.00  0.00    -0.356 N 
ATOM      3  O   UNL A   1      33.621  29.008  27.065  1.00  0.00    -0.275 OA
ATOM      4  C   UNL A   1      33.292  29.217  25.900  1.00  0.00     0.222 C 
ATOM      5  H   UNL A   1      32.650  30.682  24.656  1.00  0.00     0.163 HD
BRANCH   4   6
ATOM      6  C   UNL A   1      33.866  28.393  24.766  1.00  0.00     0.138 C 
BRANCH   6   7
ATOM      7  C   UNL A   1      33.034  28.105  23.499  1.00  0.00     0.182 C 
ATOM      8  C   UNL A   1      33.294  26.736  22.809  1.00  0.00     0.295 C 
ATOM      9  O   UNL A   1      31.646  28.473  23.573  1.00  0.00    -0.366 OA
ATOM     10  N   UNL A   1      32.320  25.681  23.042  1.00  0.00    -0.327 N 
ATOM     11  C   UNL A   1      30.751  27.391  23.874  1.00  0.00     0.222 C 
ATOM     12  C   UNL A   1      30.947  26.156  23.012  1.00  0.00     0.291 C 
ATOM     13  H   UNL A   1      32.406  25.108  22.202  1.00  0.00     0.348 HD
BRANCH  10  14
ATOM     14  C   UNL A   1      32.660  24.564  23.910  1.00  0.00     0.305 C 
BRANCH  14  15
ATOM     15  C   UNL A   1      34.102  24.195  24.103  1.00  0.00     0.078 A 
ATOM     16  C   UNL A   1      34.813  24.570  25.244  1.00  0.00     0.135 A 
ATOM     17  C   UNL A   1      34.759  23.372  23.183  1.00  0.00     0.135 A 
ATOM     18  F   UNL A   1      34.234  25.356  26.163  1.00  0.00    -0.206 F 
ATOM     19  C   UNL A   1      36.129  24.152  25.460  1.00  0.00     0.040 A 
ATOM     20  C   UNL A   1      36.074  22.949  23.378  1.00  0.00     0.040 A 
ATOM     21  F   UNL A   1      34.121  22.971  22.073  1.00  0.00    -0.206 F 
ATOM     22  C   UNL A   1      36.764  23.340  24.522  1.00  0.00     0.006 A 
ENDBRANCH  14  15
ENDBRANCH  10  14
ENDBRANCH   6   7
ENDBRANCH   4   6
ENDBRANCH   1   2
BRANCH   1  23
ATOM     23  C   UNL A   1      31.417  32.331  26.523  1.00  0.00     0.042 C 
BRANCH  23  24
ATOM     24  C   UNL A   1      32.630  32.880  27.238  1.00  0.00     0.118 C 
BRANCH  24  25
ATOM     25  N   UNL A   1      32.457  34.278  27.610  1.00  0.00    -0.352 N 
ATOM     26  C   UNL A   1      33.034  34.972  28.639  1.00  0.00     0.251 C 
ATOM     27  H   UNL A   1      31.840  34.796  27.043  1.00  0.00     0.163 HD
ATOM     28  O   UNL A   1      32.626  36.081  28.956  1.00  0.00    -0.269 OA
BRANCH  26  29
ATOM     29  C   UNL A   1      34.156  34.350  29.363  1.00  0.00     0.039 A 
ATOM     30  C   UNL A   1      33.889  33.511  30.443  1.00  0.00     0.014 A 
ATOM     31  C   UNL A   1      35.472  34.595  28.956  1.00  0.00     0.014 A 
ATOM     32  C   UNL A   1      34.949  32.891  31.100  1.00  0.00     0.010 A 
ATOM     33  C   UNL A   1      36.514  33.894  29.538  1.00  0.00     0.010 A 
ATOM     34  C   UNL A   1      36.265  33.064  30.638  1.00  0.00    -0.014 A 
BRANCH  34  35
ATOM     35  C   UNL A   1      37.409  32.432  31.331  1.00  0.00     0.031 A 
ATOM     36  C   UNL A   1      38.149  31.309  30.661  1.00  0.00     0.074 A 
ATOM     37  C   UNL A   1      37.746  32.842  32.567  1.00  0.00     0.049 A 
ATOM     38  N   UNL A   1      39.149  30.597  31.111  1.00  0.00    -0.248 NA
ATOM     39  C   UNL A   1      37.689  30.913  29.319  1.00  0.00     0.031 C 
ATOM     40  C   UNL A   1      37.060  33.890  33.325  1.00  0.00     0.029 A 
ATOM     41  N   UNL A   1      38.749  32.427  33.404  1.00  0.00    -0.354 N 
ATOM     42  C   UNL A   1      39.424  29.668  30.116  1.00  0.00     0.074 A 
ATOM     43  C   UNL A   1      38.446  29.856  29.070  1.00  0.00     0.031 C 
ATOM     44  C   UNL A   1      37.688  34.063  34.499  1.00  0.00     0.029 A 
ATOM     45  C   UNL A   1      38.790  33.111  34.594  1.00  0.00     0.049 A 
ATOM     46  H   UNL A   1      39.380  31.706  33.173  1.00  0.00     0.167 HD
ATOM     47  C   UNL A   1      40.429  28.764  30.066  1.00  0.00     0.037 A 
ATOM     48  C   UNL A   1      39.626  32.980  35.640  1.00  0.00     0.037 A 
ATOM     49  C   UNL A   1      41.416  28.611  31.099  1.00  0.00     0.049 A 
ATOM     50  C   UNL A   1      40.729  31.958  35.565  1.00  0.00     0.074 A 
ATOM     51  C   UNL A   1      42.511  27.768  31.123  1.00  0.00     0.029 A 
ATOM     52  N   UNL A   1      41.427  29.323  32.290  1.00  0.00    -0.354 N 
ATOM     53  N   UNL A   1      41.025  31.132  34.590  1.00  0.00    -0.248 NA
ATOM     54  C   UNL A   1      41.617  31.852  36.730  1.00  0.00     0.031 C 
ATOM     55  C   UNL A   1      43.153  27.927  32.354  1.00  0.00     0.029 A 
ATOM     56  C   UNL A   1      42.496  28.916  33.070  1.00  0.00     0.049 A 
ATOM     57  H   UNL A   1      40.773  30.014  32.543  1.00  0.00     0.167 HD
ATOM     58  C   UNL A   1      42.141  30.425  35.012  1.00  0.00     0.074 A 
ATOM     59  C   UNL A   1      42.484  30.933  36.325  1.00  0.00     0.031 C 
ATOM     60  C   UNL A   1      42.821  29.441  34.372  1.00  0.00     0.037 A 
BRANCH  47  61
ATOM     61  C   UNL A   1      40.525  27.885  28.853  1.00  0.00     0.064 A 
ATOM     62  C   UNL A   1      41.289  28.281  27.745  1.00  0.00     0.173 A 
ATOM     63  C   UNL A   1      39.807  26.683  28.759  1.00  0.00     0.173 A 
ATOM     64  F   UNL A   1      41.992  29.423  27.781  1.00  0.00    -0.203 F 
ATOM     65  C   UNL A   1      41.318  27.513  26.583  1.00  0.00     0.198 A 
ATOM     66  C   UNL A   1      39.866  25.901  27.608  1.00  0.00     0.198 A 
ATOM     67  F   UNL A   1      39.072  26.251  29.795  1.00  0.00    -0.203 F 
ATOM     68  F   UNL A   1      42.026  27.930  25.525  1.00  0.00    -0.200 F 
ATOM     69  C   UNL A   1      40.611  26.322  26.518  1.00  0.00     0.200 A 
ATOM     70  F   UNL A   1      39.203  24.737  27.557  1.00  0.00    -0.200 F 
ATOM     71  F   UNL A   1      40.648  25.580  25.403  1.00  0.00    -0.200 F 
ENDBRANCH  47  61
BRANCH  48  72
ATOM     72  C   UNL A   1      39.470  33.868  36.822  1.00  0.00     0.064 A 
ATOM     73  C   UNL A   1      40.082  35.128  36.876  1.00  0.00     0.173 A 
ATOM     74  C   UNL A   1      38.732  33.454  37.939  1.00  0.00     0.173 A 
ATOM     75  F   UNL A   1      40.806  35.570  35.836  1.00  0.00    -0.203 F 
ATOM     76  C   UNL A   1      39.978  35.932  38.009  1.00  0.00     0.198 A 
ATOM     77  C   UNL A   1      38.604  34.271  39.060  1.00  0.00     0.198 A 
ATOM     78  F   UNL A   1      38.115  32.263  37.930  1.00  0.00    -0.203 F 
ATOM     79  F   UNL A   1      40.605  37.116  38.048  1.00  0.00    -0.200 F 
ATOM     80  C   UNL A   1      39.234  35.506  39.098  1.00  0.00     0.200 A 
ATOM     81  F   UNL A   1      37.864  33.865  40.102  1.00  0.00    -0.200 F 
ATOM     82  F   UNL A   1      39.123  36.284  40.183  1.00  0.00    -0.200 F 
ENDBRANCH  48  72
BRANCH  60  83
ATOM     83  C   UNL A   1      44.014  28.854  35.067  1.00  0.00     0.064 A 
ATOM     84  C   UNL A   1      43.860  27.787  35.965  1.00  0.00     0.173 A 
ATOM     85  C   UNL A   1      45.293  29.410  34.919  1.00  0.00     0.173 A 
ATOM     86  F   UNL A   1      42.654  27.228  36.151  1.00  0.00    -0.203 F 
ATOM     87  C   UNL A   1      44.937  27.312  36.705  1.00  0.00     0.198 A 
ATOM     88  C   UNL A   1      46.376  28.909  35.636  1.00  0.00     0.198 A 
ATOM     89  F   UNL A   1      45.495  30.424  34.064  1.00  0.00    -0.203 F 
ATOM     90  F   UNL A   1      44.756  26.323  37.591  1.00  0.00    -0.200 F 
ATOM     91  C   UNL A   1      46.195  27.870  36.538  1.00  0.00     0.200 A 
ATOM     92  F   UNL A   1      47.596  29.434  35.455  1.00  0.00    -0.200 F 
ATOM     93  F   UNL A   1      47.235  27.408  37.245  1.00  0.00    -0.200 F 
ENDBRANCH  60  83
ENDBRANCH  34  35
ENDBRANCH  26  29
ENDBRANCH  24  25
ENDBRANCH  23  24
ENDBRANCH   1  23
TORSDOF 13
ENDMDL
MODEL 3
REMARK VINA RESULT:     -11.6      4.079      8.856
REMARK SMILES O=C(C[C@H]1C[N@@H+](Cc2c(F)cccc2F)CCO1)NCCCNC(=O)c1ccc(-c2c3nc(c(-c4c(F)c(F)c(F)c(F)c4F)c4ccc([nH]4)c(-c4c(F)c(F)c(F)c(F)c4F)c4nc(c(-c5c(F)c(F)c(F)c(F)c5F)c5ccc2[nH]5)C=C4)C=C3)cc1
REMARK SMILES IDX 20 1 19 2 1 3 2 4 3 6 4 7 5 8 18 9 6 10 17 11 16 12 7 14
REMARK SMILES IDX 8 15 9 16 14 17 10 18 11 19 13 20 15 21 12 22 21 23 22 24
REMARK SMILES IDX 23 25 24 26 25 28 26 29 27 30 88 31 28 32 87 33 29 34 30 35
REMARK SMILES IDX 31 36 81 37 32 38 86 39 80 40 82 41 33 42 85 43 79 44 78 45
REMARK SMILES IDX 34 47 66 48 46 49 65 50 47 51 50 52 64 53 83 54 48 55 49 56
REMARK SMILES IDX 63 58 84 59 51 60 35 61 36 62 44 63 37 64 38 65 42 66 45 67
REMARK SMILES IDX 39 68 40 69 43 70 41 71 67 72 68 73 76 74 69 75 70 76 74 77
REMARK SMILES IDX 77 78 71 79 72 80 75 81 73 82 52 83 53 84 61 85 54 86 55 87
REMARK SMILES IDX 59 88 62 89 56 90 57 91 60 92 58 93
REMARK H PARENT 19 5 6 13 23 27 82 46 50 57
REMARK Flexibility Score: inf
ROOT
ATOM      1  C   UNL A   1      31.358  30.706  26.092  1.00  0.00     0.117 C 
ENDROOT
BRANCH   1   2
ATOM      2  N   UNL A   1      32.531  30.287  25.347  1.00  0.00    -0.356 N 
ATOM      3  O   UNL A   1      33.220  28.534  26.627  1.00  0.00    -0.275 OA
ATOM      4  C   UNL A   1      33.165  29.089  25.532  1.00  0.00     0.222 C 
ATOM      5  H   UNL A   1      32.892  30.901  24.669  1.00  0.00     0.163 HD
BRANCH   4   6
ATOM      6  C   UNL A   1      33.926  28.545  24.342  1.00  0.00     0.138 C 
BRANCH   6   7
ATOM      7  C   UNL A   1      33.193  28.183  23.033  1.00  0.00     0.182 C 
ATOM      8  C   UNL A   1      33.452  26.753  22.480  1.00  0.00     0.295 C 
ATOM      9  O   UNL A   1      31.820  28.605  22.956  1.00  0.00    -0.366 OA
ATOM     10  N   UNL A   1      32.419  25.757  22.709  1.00  0.00    -0.327 N 
ATOM     11  C   UNL A   1      30.858  27.583  23.262  1.00  0.00     0.222 C 
ATOM     12  C   UNL A   1      31.074  26.275  22.522  1.00  0.00     0.291 C 
ATOM     13  H   UNL A   1      32.550  25.114  21.928  1.00  0.00     0.348 HD
BRANCH  10  14
ATOM     14  C   UNL A   1      32.636  24.704  23.689  1.00  0.00     0.305 C 
BRANCH  14  15
ATOM     15  C   UNL A   1      34.038  24.256  23.989  1.00  0.00     0.078 A 
ATOM     16  C   UNL A   1      34.715  24.673  25.135  1.00  0.00     0.135 A 
ATOM     17  C   UNL A   1      34.680  23.321  23.172  1.00  0.00     0.135 A 
ATOM     18  F   UNL A   1      34.147  25.567  25.958  1.00  0.00    -0.206 F 
ATOM     19  C   UNL A   1      35.986  24.188  25.455  1.00  0.00     0.040 A 
ATOM     20  C   UNL A   1      35.951  22.830  23.470  1.00  0.00     0.040 A 
ATOM     21  F   UNL A   1      34.072  22.876  22.062  1.00  0.00    -0.206 F 
ATOM     22  C   UNL A   1      36.609  23.264  24.618  1.00  0.00     0.006 A 
ENDBRANCH  14  15
ENDBRANCH  10  14
ENDBRANCH   6   7
ENDBRANCH   4   6
ENDBRANCH   1   2
BRANCH   1  23
ATOM     23  C   UNL A   1      31.287  32.164  26.491  1.00  0.00     0.042 C 
BRANCH  23  24
ATOM     24  C   UNL A   1      32.570  32.666  27.111  1.00  0.00     0.118 C 
BRANCH  24  25
ATOM     25  N   UNL A   1      32.440  34.030  27.607  1.00  0.00    -0.352 N 
ATOM     26  C   UNL A   1      33.110  34.641  28.632  1.00  0.00     0.251 C 
ATOM     27  H   UNL A   1      31.777  34.591  27.140  1.00  0.00     0.163 HD
ATOM     28  O   UNL A   1      32.739  35.721  29.071  1.00  0.00    -0.269 OA
BRANCH  26  29
ATOM     29  C   UNL A   1      34.289  33.965  29.200  1.00  0.00     0.039 A 
ATOM     30  C   UNL A   1      35.563  34.403  28.843  1.00  0.00     0.014 A 
ATOM     31  C   UNL A   1      34.123  32.905  30.098  1.00  0.00     0.014 A 
ATOM     32  C   UNL A   1      36.677  33.789  29.412  1.00  0.00     0.010 A 
ATOM     33  C   UNL A   1      35.225  32.372  30.744  1.00  0.00     0.010 A 
ATOM     34  C   UNL A   1      36.512  32.785  30.381  1.00  0.00    -0.014 A 
BRANCH  34  35
ATOM     35  C   UNL A   1      37.679  32.105  30.985  1.00  0.00     0.031 A 
ATOM     36  C   UNL A   1      38.124  32.491  32.367  1.00  0.00     0.074 A 
ATOM     37  C   UNL A   1      38.351  31.181  30.275  1.00  0.00     0.049 A 
ATOM     38  N   UNL A   1      39.141  32.049  33.059  1.00  0.00    -0.248 NA
ATOM     39  C   UNL A   1      37.341  33.533  33.054  1.00  0.00     0.031 C 
ATOM     40  C   UNL A   1      38.031  30.770  28.907  1.00  0.00     0.029 A 
ATOM     41  N   UNL A   1      39.443  30.421  30.605  1.00  0.00    -0.354 N 
ATOM     42  C   UNL A   1      39.124  32.765  34.249  1.00  0.00     0.074 A 
ATOM     43  C   UNL A   1      38.042  33.719  34.161  1.00  0.00     0.031 C 
ATOM     44  C   UNL A   1      38.882  29.803  28.530  1.00  0.00     0.029 A 
ATOM     45  C   UNL A   1      39.832  29.558  29.610  1.00  0.00     0.049 A 
ATOM     46  H   UNL A   1      39.903  30.487  31.474  1.00  0.00     0.167 HD
ATOM     47  C   UNL A   1      39.917  32.611  35.333  1.00  0.00     0.037 A 
ATOM     48  C   UNL A   1      40.844  28.672  29.579  1.00  0.00     0.037 A 
ATOM     49  C   UNL A   1      40.968  31.634  35.420  1.00  0.00     0.049 A 
ATOM     50  C   UNL A   1      41.721  28.528  30.794  1.00  0.00     0.074 A 
ATOM     51  C   UNL A   1      41.794  31.354  36.493  1.00  0.00     0.029 A 
ATOM     52  N   UNL A   1      41.333  30.776  34.393  1.00  0.00    -0.354 N 
ATOM     53  N   UNL A   1      41.653  29.160  31.942  1.00  0.00    -0.248 NA
ATOM     54  C   UNL A   1      42.812  27.547  30.714  1.00  0.00     0.031 C 
ATOM     55  C   UNL A   1      42.697  30.365  36.096  1.00  0.00     0.029 A 
ATOM     56  C   UNL A   1      42.394  29.984  34.797  1.00  0.00     0.049 A 
ATOM     57  H   UNL A   1      40.903  30.737  33.508  1.00  0.00     0.167 HD
ATOM     58  C   UNL A   1      42.673  28.641  32.726  1.00  0.00     0.074 A 
ATOM     59  C   UNL A   1      43.334  27.627  31.931  1.00  0.00     0.031 C 
ATOM     60  C   UNL A   1      43.032  28.976  33.990  1.00  0.00     0.037 A 
BRANCH  47  61
ATOM     61  C   UNL A   1      39.672  33.502  36.517  1.00  0.00     0.064 A 
ATOM     62  C   UNL A   1      38.791  33.107  37.535  1.00  0.00     0.173 A 
ATOM     63  C   UNL A   1      40.256  34.774  36.611  1.00  0.00     0.173 A 
ATOM     64  F   UNL A   1      38.204  31.902  37.492  1.00  0.00    -0.203 F 
ATOM     65  C   UNL A   1      38.494  33.960  38.595  1.00  0.00     0.198 A 
ATOM     66  C   UNL A   1      39.982  35.610  37.690  1.00  0.00     0.198 A 
ATOM     67  F   UNL A   1      41.117  35.195  35.672  1.00  0.00    -0.203 F 
ATOM     68  F   UNL A   1      37.621  33.575  39.537  1.00  0.00    -0.200 F 
ATOM     69  C   UNL A   1      39.092  35.208  38.674  1.00  0.00     0.200 A 
ATOM     70  F   UNL A   1      40.583  36.806  37.779  1.00  0.00    -0.200 F 
ATOM     71  F   UNL A   1      38.812  36.023  39.700  1.00  0.00    -0.200 F 
ENDBRANCH  47  61
BRANCH  48  72
ATOM     72  C   UNL A   1      41.048  27.830  28.371  1.00  0.00     0.064 A 
ATOM     73  C   UNL A   1      41.889  28.241  27.327  1.00  0.00     0.173 A 
ATOM     74  C   UNL A   1      40.374  26.611  28.222  1.00  0.00     0.173 A 
ATOM     75  F   UNL A   1      42.553  29.404  27.415  1.00  0.00    -0.203 F 
ATOM     76  C   UNL A   1      42.033  27.474  26.173  1.00  0.00     0.198 A 
ATOM     77  C   UNL A   1      40.541  25.830  27.081  1.00  0.00     0.198 A 
ATOM     78  F   UNL A   1      39.570  26.166  29.200  1.00  0.00    -0.203 F 
ATOM     79  F   UNL A   1      42.813  27.909  25.175  1.00  0.00    -0.200 F 
ATOM     80  C   UNL A   1      41.363  26.266  26.053  1.00  0.00     0.200 A 
ATOM     81  F   UNL A   1      39.910  24.651  26.979  1.00  0.00    -0.200 F 
ATOM     82  F   UNL A   1      41.511  25.523  24.949  1.00  0.00    -0.200 F 
ENDBRANCH  48  72
BRANCH  60  83
ATOM     83  C   UNL A   1      44.181  28.234  34.607  1.00  0.00     0.064 A 
ATOM     84  C   UNL A   1      43.957  27.054  35.335  1.00  0.00     0.173 A 
ATOM     85  C   UNL A   1      45.487  28.741  34.562  1.00  0.00     0.173 A 
ATOM     86  F   UNL A   1      42.722  26.535  35.417  1.00  0.00    -0.203 F 
ATOM     87  C   UNL A   1      44.994  26.423  36.012  1.00  0.00     0.198 A 
ATOM     88  C   UNL A   1      46.529  28.087  35.214  1.00  0.00     0.198 A 
ATOM     89  F   UNL A   1      45.756  29.859  33.871  1.00  0.00    -0.203 F 
ATOM     90  F   UNL A   1      44.747  25.324  36.738  1.00  0.00    -0.200 F 
ATOM     91  C   UNL A   1      46.280  26.936  35.949  1.00  0.00     0.200 A 
ATOM     92  F   UNL A   1      47.776  28.571  35.131  1.00  0.00    -0.200 F 
ATOM     93  F   UNL A   1      47.281  26.324  36.595  1.00  0.00    -0.200 F 
ENDBRANCH  60  83
ENDBRANCH  34  35
ENDBRANCH  26  29
ENDBRANCH  24  25
ENDBRANCH  23  24
ENDBRANCH   1  23
TORSDOF 13
ENDMDL
