MODEL 1
REMARK VINA RESULT:     -11.4      0.000      0.000
REMARK SMILES CCCC1CN(c2cc(C(=O)NCCCNC(=O)c3ccc(-c4c5nc(c(-c6c(F)c(F)c(F)c(F)c6F)c6ccc([nH]6)c(-c6c(F)c(F)c(F)c(F)c6F)c6nc(c(-c7c(F)c(F)c(F)c(F)c7F)c7ccc4[nH]7)C=C6)C=C5)cc3)ccc2F)C1
REMARK SMILES IDX 13 1 12 2 10 3 11 4 9 6 7 7 8 8 84 9 83 10 85 11 82 12 6 13
REMARK SMILES IDX 4 14 5 15 86 16 3 17 2 18 1 19 14 20 15 21 16 22 17 23 18 25
REMARK SMILES IDX 19 26 20 27 81 28 21 29 80 30 22 31 23 32 24 33 74 34 25 35
REMARK SMILES IDX 79 36 73 37 75 38 26 39 78 40 72 41 71 42 27 44 59 45 39 46
REMARK SMILES IDX 58 47 40 48 43 49 57 50 76 51 41 52 42 53 56 55 77 56 44 57
REMARK SMILES IDX 28 58 29 59 37 60 30 61 31 62 35 63 38 64 32 65 33 66 36 67
REMARK SMILES IDX 34 68 60 69 61 70 69 71 62 72 63 73 67 74 70 75 64 76 65 77
REMARK SMILES IDX 68 78 66 79 45 80 46 81 54 82 47 83 48 84 52 85 55 86 49 87
REMARK SMILES IDX 50 88 53 89 51 90
REMARK H PARENT 12 5 16 24 75 43 43 54
REMARK Flexibility Score: inf
ROOT
ATOM      1  C   UNL A   1      31.692  30.581  26.789  1.00  0.00     0.118 C 
ENDROOT
BRANCH   1   2
ATOM      2  N   UNL A   1      32.978  30.216  27.350  1.00  0.00    -0.352 N 
ATOM      3  C   UNL A   1      33.897  29.257  27.019  1.00  0.00     0.251 C 
ATOM      4  O   UNL A   1      34.917  29.195  27.707  1.00  0.00    -0.269 OA
ATOM      5  H   UNL A   1      33.243  30.767  28.121  1.00  0.00     0.163 HD
BRANCH   3   6
ATOM      6  C   UNL A   1      33.753  28.338  25.857  1.00  0.00     0.042 A 
ATOM      7  C   UNL A   1      33.346  26.026  25.152  1.00  0.00     0.074 A 
ATOM      8  C   UNL A   1      33.467  26.995  26.157  1.00  0.00     0.042 A 
ATOM      9  C   UNL A   1      33.503  26.431  23.822  1.00  0.00     0.146 A 
ATOM     10  C   UNL A   1      33.740  27.763  23.501  1.00  0.00     0.042 A 
ATOM     11  F   UNL A   1      33.379  25.552  22.818  1.00  0.00    -0.205 F 
ATOM     12  C   UNL A   1      33.847  28.718  24.515  1.00  0.00     0.017 A 
BRANCH   7  13
ATOM     13  N   UNL A   1      33.075  24.699  25.535  1.00  0.00    -0.368 N 
ATOM     14  C   UNL A   1      32.597  22.828  24.767  1.00  0.00     0.028 C 
ATOM     15  C   UNL A   1      31.821  24.035  25.315  1.00  0.00     0.122 C 
ATOM     16  C   UNL A   1      33.857  23.531  25.281  1.00  0.00     0.122 C 
BRANCH  14  17
ATOM     17  C   UNL A   1      32.227  21.480  25.372  1.00  0.00     0.007 C 
BRANCH  17  18
ATOM     18  C   UNL A   1      32.469  20.321  24.401  1.00  0.00    -0.003 C 
ATOM     19  C   UNL A   1      33.741  19.535  24.683  1.00  0.00     0.004 C 
ENDBRANCH  17  18
ENDBRANCH  14  17
ENDBRANCH   7  13
ENDBRANCH   3   6
ENDBRANCH   1   2
BRANCH   1  20
ATOM     20  C   UNL A   1      31.475  32.091  26.868  1.00  0.00     0.042 C 
BRANCH  20  21
ATOM     21  C   UNL A   1      32.776  32.885  26.977  1.00  0.00     0.118 C 
BRANCH  21  22
ATOM     22  N   UNL A   1      32.564  34.191  27.580  1.00  0.00    -0.352 N 
ATOM     23  C   UNL A   1      33.102  34.735  28.716  1.00  0.00     0.251 C 
ATOM     24  H   UNL A   1      31.936  34.775  27.096  1.00  0.00     0.163 HD
ATOM     25  O   UNL A   1      32.623  35.770  29.173  1.00  0.00    -0.269 OA
BRANCH  23  26
ATOM     26  C   UNL A   1      34.252  34.100  29.399  1.00  0.00     0.039 A 
ATOM     27  C   UNL A   1      35.544  34.478  29.019  1.00  0.00     0.014 A 
ATOM     28  C   UNL A   1      34.074  33.083  30.341  1.00  0.00     0.014 A 
ATOM     29  C   UNL A   1      36.652  33.853  29.595  1.00  0.00     0.010 A 
ATOM     30  C   UNL A   1      35.180  32.505  30.963  1.00  0.00     0.010 A 
ATOM     31  C   UNL A   1      36.479  32.867  30.579  1.00  0.00    -0.014 A 
BRANCH  31  32
ATOM     32  C   UNL A   1      37.644  32.164  31.170  1.00  0.00     0.031 A 
ATOM     33  C   UNL A   1      38.107  32.516  32.558  1.00  0.00     0.074 A 
ATOM     34  C   UNL A   1      38.304  31.236  30.453  1.00  0.00     0.049 A 
ATOM     35  N   UNL A   1      39.138  32.065  33.227  1.00  0.00    -0.248 NA
ATOM     36  C   UNL A   1      37.318  33.526  33.282  1.00  0.00     0.031 C 
ATOM     37  C   UNL A   1      37.968  30.829  29.088  1.00  0.00     0.029 A 
ATOM     38  N   UNL A   1      39.397  30.469  30.770  1.00  0.00    -0.354 N 
ATOM     39  C   UNL A   1      39.132  32.750  34.435  1.00  0.00     0.074 A 
ATOM     40  C   UNL A   1      38.025  33.679  34.392  1.00  0.00     0.031 C 
ATOM     41  C   UNL A   1      38.820  29.868  28.695  1.00  0.00     0.029 A 
ATOM     42  C   UNL A   1      39.780  29.614  29.767  1.00  0.00     0.049 A 
ATOM     43  H   UNL A   1      39.863  30.528  31.636  1.00  0.00     0.167 HD
ATOM     44  C   UNL A   1      39.963  32.601  35.495  1.00  0.00     0.037 A 
ATOM     45  C   UNL A   1      40.789  28.723  29.720  1.00  0.00     0.037 A 
ATOM     46  C   UNL A   1      41.042  31.650  35.549  1.00  0.00     0.049 A 
ATOM     47  C   UNL A   1      41.682  28.557  30.918  1.00  0.00     0.074 A 
ATOM     48  C   UNL A   1      41.926  31.405  36.584  1.00  0.00     0.029 A 
ATOM     49  N   UNL A   1      41.374  30.776  34.523  1.00  0.00    -0.354 N 
ATOM     50  N   UNL A   1      41.652  29.193  32.063  1.00  0.00    -0.248 NA
ATOM     51  C   UNL A   1      42.738  27.541  30.823  1.00  0.00     0.031 C 
ATOM     52  C   UNL A   1      42.810  30.401  36.176  1.00  0.00     0.029 A 
ATOM     53  C   UNL A   1      42.448  29.989  34.904  1.00  0.00     0.049 A 
ATOM     54  H   UNL A   1      40.914  30.724  33.654  1.00  0.00     0.167 HD
ATOM     55  C   UNL A   1      42.660  28.634  32.837  1.00  0.00     0.074 A 
ATOM     56  C   UNL A   1      43.280  27.602  32.033  1.00  0.00     0.031 C 
ATOM     57  C   UNL A   1      43.035  28.949  34.100  1.00  0.00     0.037 A 
BRANCH  44  58
ATOM     58  C   UNL A   1      39.732  33.476  36.691  1.00  0.00     0.064 A 
ATOM     59  C   UNL A   1      38.832  33.091  37.696  1.00  0.00     0.173 A 
ATOM     60  C   UNL A   1      40.363  34.723  36.818  1.00  0.00     0.173 A 
ATOM     61  F   UNL A   1      38.197  31.912  37.620  1.00  0.00    -0.203 F 
ATOM     62  C   UNL A   1      38.566  33.926  38.779  1.00  0.00     0.198 A 
ATOM     63  C   UNL A   1      40.117  35.542  37.916  1.00  0.00     0.198 A 
ATOM     64  F   UNL A   1      41.243  35.132  35.891  1.00  0.00    -0.203 F 
ATOM     65  F   UNL A   1      37.682  33.549  39.713  1.00  0.00    -0.200 F 
ATOM     66  C   UNL A   1      39.213  35.147  38.891  1.00  0.00     0.200 A 
ATOM     67  F   UNL A   1      40.763  36.710  38.037  1.00  0.00    -0.200 F 
ATOM     68  F   UNL A   1      38.968  35.943  39.941  1.00  0.00    -0.200 F 
ENDBRANCH  44  58
BRANCH  45  69
ATOM     69  C   UNL A   1      40.965  27.880  28.509  1.00  0.00     0.064 A 
ATOM     70  C   UNL A   1      41.770  28.295  27.438  1.00  0.00     0.173 A 
ATOM     71  C   UNL A   1      40.300  26.653  28.390  1.00  0.00     0.173 A 
ATOM     72  F   UNL A   1      42.420  29.465  27.501  1.00  0.00    -0.203 F 
ATOM     73  C   UNL A   1      41.891  27.517  26.287  1.00  0.00     0.198 A 
ATOM     74  C   UNL A   1      40.441  25.865  27.249  1.00  0.00     0.198 A 
ATOM     75  F   UNL A   1      39.533  26.207  29.396  1.00  0.00    -0.203 F 
ATOM     76  F   UNL A   1      42.642  27.949  25.266  1.00  0.00    -0.200 F 
ATOM     77  C   UNL A   1      41.230  26.302  26.196  1.00  0.00     0.200 A 
ATOM     78  F   UNL A   1      39.818  24.682  27.174  1.00  0.00    -0.200 F 
ATOM     79  F   UNL A   1      41.354  25.550  25.094  1.00  0.00    -0.200 F 
ENDBRANCH  45  69
BRANCH  57  80
ATOM     80  C   UNL A   1      44.133  28.138  34.722  1.00  0.00     0.064 A 
ATOM     81  C   UNL A   1      45.472  28.525  34.562  1.00  0.00     0.173 A 
ATOM     82  C   UNL A   1      43.871  26.945  35.410  1.00  0.00     0.173 A 
ATOM     83  F   UNL A   1      45.775  29.655  33.904  1.00  0.00    -0.203 F 
ATOM     84  C   UNL A   1      46.509  27.742  35.060  1.00  0.00     0.198 A 
ATOM     85  C   UNL A   1      44.909  26.176  35.929  1.00  0.00     0.198 A 
ATOM     86  F   UNL A   1      42.606  26.539  35.598  1.00  0.00    -0.203 F 
ATOM     87  F   UNL A   1      47.781  28.116  34.870  1.00  0.00    -0.200 F 
ATOM     88  C   UNL A   1      46.227  26.570  35.746  1.00  0.00     0.200 A 
ATOM     89  F   UNL A   1      44.634  25.057  36.612  1.00  0.00    -0.200 F 
ATOM     90  F   UNL A   1      47.225  25.823  36.235  1.00  0.00    -0.200 F 
ENDBRANCH  57  80
ENDBRANCH  31  32
ENDBRANCH  23  26
ENDBRANCH  21  22
ENDBRANCH  20  21
ENDBRANCH   1  20
TORSDOF 13
ENDMDL
MODEL 2
REMARK VINA RESULT:     -11.4      0.411      1.691
REMARK SMILES CCCC1CN(c2cc(C(=O)NCCCNC(=O)c3ccc(-c4c5nc(c(-c6c(F)c(F)c(F)c(F)c6F)c6ccc([nH]6)c(-c6c(F)c(F)c(F)c(F)c6F)c6nc(c(-c7c(F)c(F)c(F)c(F)c7F)c7ccc4[nH]7)C=C6)C=C5)cc3)ccc2F)C1
REMARK SMILES IDX 13 1 12 2 10 3 11 4 9 6 7 7 8 8 84 9 83 10 85 11 82 12 6 13
REMARK SMILES IDX 4 14 5 15 86 16 3 17 2 18 1 19 14 20 15 21 16 22 17 23 18 25
REMARK SMILES IDX 19 26 20 27 81 28 21 29 80 30 22 31 23 32 24 33 74 34 25 35
REMARK SMILES IDX 79 36 73 37 75 38 26 39 78 40 72 41 71 42 27 44 59 45 39 46
REMARK SMILES IDX 58 47 40 48 43 49 57 50 76 51 41 52 42 53 56 55 77 56 44 57
REMARK SMILES IDX 28 58 29 59 37 60 30 61 31 62 35 63 38 64 32 65 33 66 36 67
REMARK SMILES IDX 34 68 60 69 61 70 69 71 62 72 63 73 67 74 70 75 64 76 65 77
REMARK SMILES IDX 68 78 66 79 45 80 46 81 54 82 47 83 48 84 52 85 55 86 49 87
REMARK SMILES IDX 50 88 53 89 51 90
REMARK H PARENT 12 5 16 24 75 43 43 54
REMARK Flexibility Score: inf
ROOT
ATOM      1  C   UNL A   1      31.645  30.758  26.528  1.00  0.00     0.118 C 
ENDROOT
BRANCH   1   2
ATOM      2  N   UNL A   1      32.877  30.290  27.132  1.00  0.00    -0.352 N 
ATOM      3  C   UNL A   1      33.761  29.301  26.793  1.00  0.00     0.251 C 
ATOM      4  O   UNL A   1      34.736  29.142  27.528  1.00  0.00    -0.269 OA
ATOM      5  H   UNL A   1      33.127  30.780  27.948  1.00  0.00     0.163 HD
BRANCH   3   6
ATOM      6  C   UNL A   1      33.632  28.459  25.571  1.00  0.00     0.042 A 
ATOM      7  C   UNL A   1      33.563  26.171  24.697  1.00  0.00     0.074 A 
ATOM      8  C   UNL A   1      33.638  27.068  25.771  1.00  0.00     0.042 A 
ATOM      9  C   UNL A   1      33.464  26.695  23.404  1.00  0.00     0.146 A 
ATOM     10  C   UNL A   1      33.409  28.068  23.188  1.00  0.00     0.042 A 
ATOM     11  F   UNL A   1      33.369  25.885  22.340  1.00  0.00    -0.205 F 
ATOM     12  C   UNL A   1      33.475  28.949  24.271  1.00  0.00     0.017 A 
BRANCH   7  13
ATOM     13  N   UNL A   1      33.593  24.792  24.978  1.00  0.00    -0.368 N 
ATOM     14  C   UNL A   1      33.319  22.926  24.104  1.00  0.00     0.028 C 
ATOM     15  C   UNL A   1      32.452  23.924  24.887  1.00  0.00     0.122 C 
ATOM     16  C   UNL A   1      34.508  23.812  24.487  1.00  0.00     0.122 C 
BRANCH  14  17
ATOM     17  C   UNL A   1      33.293  21.492  24.616  1.00  0.00     0.007 C 
BRANCH  17  18
ATOM     18  C   UNL A   1      32.553  20.548  23.664  1.00  0.00    -0.003 C 
ATOM     19  C   UNL A   1      32.084  21.212  22.378  1.00  0.00     0.004 C 
ENDBRANCH  17  18
ENDBRANCH  14  17
ENDBRANCH   7  13
ENDBRANCH   3   6
ENDBRANCH   1   2
BRANCH   1  20
ATOM     20  C   UNL A   1      31.430  32.243  26.816  1.00  0.00     0.042 C 
BRANCH  20  21
ATOM     21  C   UNL A   1      32.734  33.023  26.978  1.00  0.00     0.118 C 
BRANCH  21  22
ATOM     22  N   UNL A   1      32.519  34.306  27.626  1.00  0.00    -0.352 N 
ATOM     23  C   UNL A   1      33.057  34.811  28.781  1.00  0.00     0.251 C 
ATOM     24  H   UNL A   1      31.890  34.906  27.163  1.00  0.00     0.163 HD
ATOM     25  O   UNL A   1      32.575  35.828  29.274  1.00  0.00    -0.269 OA
BRANCH  23  26
ATOM     26  C   UNL A   1      34.207  34.154  29.442  1.00  0.00     0.039 A 
ATOM     27  C   UNL A   1      35.496  34.464  28.997  1.00  0.00     0.014 A 
ATOM     28  C   UNL A   1      34.028  33.180  30.428  1.00  0.00     0.014 A 
ATOM     29  C   UNL A   1      36.602  33.815  29.551  1.00  0.00     0.010 A 
ATOM     30  C   UNL A   1      35.135  32.580  31.027  1.00  0.00     0.010 A 
ATOM     31  C   UNL A   1      36.430  32.874  30.577  1.00  0.00    -0.014 A 
BRANCH  31  32
ATOM     32  C   UNL A   1      37.590  32.145  31.149  1.00  0.00     0.031 A 
ATOM     33  C   UNL A   1      38.070  32.469  32.538  1.00  0.00     0.074 A 
ATOM     34  C   UNL A   1      38.230  31.219  30.411  1.00  0.00     0.049 A 
ATOM     35  N   UNL A   1      39.099  31.993  33.191  1.00  0.00    -0.248 NA
ATOM     36  C   UNL A   1      37.302  33.479  33.283  1.00  0.00     0.031 C 
ATOM     37  C   UNL A   1      37.877  30.837  29.044  1.00  0.00     0.029 A 
ATOM     38  N   UNL A   1      39.315  30.431  30.707  1.00  0.00    -0.354 N 
ATOM     39  C   UNL A   1      39.114  32.660  34.409  1.00  0.00     0.074 A 
ATOM     40  C   UNL A   1      38.020  33.605  34.389  1.00  0.00     0.031 C 
ATOM     41  C   UNL A   1      38.712  29.870  28.629  1.00  0.00     0.029 A 
ATOM     42  C   UNL A   1      39.677  29.586  29.688  1.00  0.00     0.049 A 
ATOM     43  H   UNL A   1      39.789  30.470  31.570  1.00  0.00     0.167 HD
ATOM     44  C   UNL A   1      39.951  32.482  35.459  1.00  0.00     0.037 A 
ATOM     45  C   UNL A   1      40.672  28.682  29.619  1.00  0.00     0.037 A 
ATOM     46  C   UNL A   1      41.016  31.515  35.489  1.00  0.00     0.049 A 
ATOM     47  C   UNL A   1      41.572  28.484  30.808  1.00  0.00     0.074 A 
ATOM     48  C   UNL A   1      41.906  31.242  36.514  1.00  0.00     0.029 A 
ATOM     49  N   UNL A   1      41.327  30.653  34.448  1.00  0.00    -0.354 N 
ATOM     50  N   UNL A   1      41.562  29.103  31.962  1.00  0.00    -0.248 NA
ATOM     51  C   UNL A   1      42.613  27.455  30.688  1.00  0.00     0.031 C 
ATOM     52  C   UNL A   1      42.771  30.232  36.083  1.00  0.00     0.029 A 
ATOM     53  C   UNL A   1      42.393  29.844  34.808  1.00  0.00     0.049 A 
ATOM     54  H   UNL A   1      40.859  30.620  33.583  1.00  0.00     0.167 HD
ATOM     55  C   UNL A   1      42.568  28.518  32.718  1.00  0.00     0.074 A 
ATOM     56  C   UNL A   1      43.166  27.489  31.894  1.00  0.00     0.031 C 
ATOM     57  C   UNL A   1      42.958  28.808  33.983  1.00  0.00     0.037 A 
BRANCH  44  58
ATOM     58  C   UNL A   1      39.743  33.343  36.670  1.00  0.00     0.064 A 
ATOM     59  C   UNL A   1      38.828  32.967  37.666  1.00  0.00     0.173 A 
ATOM     60  C   UNL A   1      40.411  34.567  36.822  1.00  0.00     0.173 A 
ATOM     61  F   UNL A   1      38.158  31.810  37.566  1.00  0.00    -0.203 F 
ATOM     62  C   UNL A   1      38.584  33.791  38.762  1.00  0.00     0.198 A 
ATOM     63  C   UNL A   1      40.186  35.374  37.934  1.00  0.00     0.198 A 
ATOM     64  F   UNL A   1      41.306  34.966  35.905  1.00  0.00    -0.203 F 
ATOM     65  F   UNL A   1      37.686  33.424  39.687  1.00  0.00    -0.200 F 
ATOM     66  C   UNL A   1      39.268  34.989  38.898  1.00  0.00     0.200 A 
ATOM     67  F   UNL A   1      40.867  36.519  38.077  1.00  0.00    -0.200 F 
ATOM     68  F   UNL A   1      39.043  35.773  39.962  1.00  0.00    -0.200 F 
ENDBRANCH  44  58
BRANCH  45  69
ATOM     69  C   UNL A   1      40.826  27.855  28.394  1.00  0.00     0.064 A 
ATOM     70  C   UNL A   1      40.199  26.606  28.269  1.00  0.00     0.173 A 
ATOM     71  C   UNL A   1      41.634  28.290  27.336  1.00  0.00     0.173 A 
ATOM     72  F   UNL A   1      39.423  26.143  29.258  1.00  0.00    -0.203 F 
ATOM     73  C   UNL A   1      40.389  25.818  27.135  1.00  0.00     0.198 A 
ATOM     74  C   UNL A   1      41.803  27.512  26.192  1.00  0.00     0.198 A 
ATOM     75  F   UNL A   1      42.238  29.486  27.403  1.00  0.00    -0.203 F 
ATOM     76  F   UNL A   1      39.804  24.616  27.052  1.00  0.00    -0.200 F 
ATOM     77  C   UNL A   1      41.186  26.274  26.096  1.00  0.00     0.200 A 
ATOM     78  F   UNL A   1      42.556  27.965  25.181  1.00  0.00    -0.200 F 
ATOM     79  F   UNL A   1      41.360  25.521  25.002  1.00  0.00    -0.200 F 
ENDBRANCH  45  69
BRANCH  57  80
ATOM     80  C   UNL A   1      44.049  27.972  34.583  1.00  0.00     0.064 A 
ATOM     81  C   UNL A   1      43.732  26.797  35.283  1.00  0.00     0.173 A 
ATOM     82  C   UNL A   1      45.393  28.365  34.531  1.00  0.00     0.173 A 
ATOM     83  F   UNL A   1      42.459  26.383  35.369  1.00  0.00    -0.203 F 
ATOM     84  C   UNL A   1      44.722  26.053  35.918  1.00  0.00     0.198 A 
ATOM     85  C   UNL A   1      46.384  27.604  35.145  1.00  0.00     0.198 A 
ATOM     86  F   UNL A   1      45.746  29.473  33.864  1.00  0.00    -0.203 F 
ATOM     87  F   UNL A   1      44.393  24.950  36.605  1.00  0.00    -0.200 F 
ATOM     88  C   UNL A   1      46.047  26.454  35.845  1.00  0.00     0.200 A 
ATOM     89  F   UNL A   1      47.667  27.979  35.054  1.00  0.00    -0.200 F 
ATOM     90  F   UNL A   1      47.001  25.730  36.446  1.00  0.00    -0.200 F 
ENDBRANCH  57  80
ENDBRANCH  31  32
ENDBRANCH  23  26
ENDBRANCH  21  22
ENDBRANCH  20  21
ENDBRANCH   1  20
TORSDOF 13
ENDMDL
MODEL 3
REMARK VINA RESULT:     -11.4      1.981      3.418
REMARK SMILES CCCC1CN(c2cc(C(=O)NCCCNC(=O)c3ccc(-c4c5nc(c(-c6c(F)c(F)c(F)c(F)c6F)c6ccc([nH]6)c(-c6c(F)c(F)c(F)c(F)c6F)c6nc(c(-c7c(F)c(F)c(F)c(F)c7F)c7ccc4[nH]7)C=C6)C=C5)cc3)ccc2F)C1
REMARK SMILES IDX 13 1 12 2 10 3 11 4 9 6 7 7 8 8 84 9 83 10 85 11 82 12 6 13
REMARK SMILES IDX 4 14 5 15 86 16 3 17 2 18 1 19 14 20 15 21 16 22 17 23 18 25
REMARK SMILES IDX 19 26 20 27 81 28 21 29 80 30 22 31 23 32 24 33 74 34 25 35
REMARK SMILES IDX 79 36 73 37 75 38 26 39 78 40 72 41 71 42 27 44 59 45 39 46
REMARK SMILES IDX 58 47 40 48 43 49 57 50 76 51 41 52 42 53 56 55 77 56 44 57
REMARK SMILES IDX 28 58 29 59 37 60 30 61 31 62 35 63 38 64 32 65 33 66 36 67
REMARK SMILES IDX 34 68 60 69 61 70 69 71 62 72 63 73 67 74 70 75 64 76 65 77
REMARK SMILES IDX 68 78 66 79 45 80 46 81 54 82 47 83 48 84 52 85 55 86 49 87
REMARK SMILES IDX 50 88 53 89 51 90
REMARK H PARENT 12 5 16 24 75 43 43 54
REMARK Flexibility Score: inf
ROOT
ATOM      1  C   UNL A   1      33.801  29.842  27.088  1.00  0.00     0.118 C 
ENDROOT
BRANCH   1   2
ATOM      2  N   UNL A   1      32.702  29.120  27.699  1.00  0.00    -0.352 N 
ATOM      3  C   UNL A   1      31.840  28.167  27.227  1.00  0.00     0.251 C 
ATOM      4  O   UNL A   1      30.991  27.740  28.011  1.00  0.00    -0.269 OA
ATOM      5  H   UNL A   1      32.545  29.363  28.640  1.00  0.00     0.163 HD
BRANCH   3   6
ATOM      6  C   UNL A   1      31.912  27.593  25.855  1.00  0.00     0.042 A 
ATOM      7  C   UNL A   1      31.110  27.779  23.547  1.00  0.00     0.074 A 
ATOM      8  C   UNL A   1      31.156  28.246  24.867  1.00  0.00     0.042 A 
ATOM      9  C   UNL A   1      31.856  26.641  23.223  1.00  0.00     0.146 A 
ATOM     10  C   UNL A   1      32.647  26.006  24.175  1.00  0.00     0.042 A 
ATOM     11  F   UNL A   1      31.866  26.159  21.972  1.00  0.00    -0.205 F 
ATOM     12  C   UNL A   1      32.689  26.492  25.484  1.00  0.00     0.017 A 
BRANCH   7  13
ATOM     13  N   UNL A   1      30.315  28.479  22.620  1.00  0.00    -0.368 N 
ATOM     14  C   UNL A   1      29.281  30.262  22.353  1.00  0.00     0.028 C 
ATOM     15  C   UNL A   1      28.945  28.846  22.846  1.00  0.00     0.122 C 
ATOM     16  C   UNL A   1      30.632  29.683  21.921  1.00  0.00     0.122 C 
BRANCH  14  17
ATOM     17  C   UNL A   1      28.357  30.818  21.277  1.00  0.00     0.007 C 
BRANCH  17  18
ATOM     18  C   UNL A   1      27.992  32.284  21.526  1.00  0.00    -0.003 C 
ATOM     19  C   UNL A   1      28.774  32.931  22.659  1.00  0.00     0.004 C 
ENDBRANCH  17  18
ENDBRANCH  14  17
ENDBRANCH   7  13
ENDBRANCH   3   6
ENDBRANCH   1   2
BRANCH   1  20
ATOM     20  C   UNL A   1      33.297  31.104  26.388  1.00  0.00     0.042 C 
BRANCH  20  21
ATOM     21  C   UNL A   1      32.213  31.840  27.173  1.00  0.00     0.118 C 
BRANCH  21  22
ATOM     22  N   UNL A   1      32.501  33.259  27.293  1.00  0.00    -0.352 N 
ATOM     23  C   UNL A   1      33.479  33.904  28.002  1.00  0.00     0.251 C 
ATOM     24  H   UNL A   1      31.898  33.850  26.784  1.00  0.00     0.163 HD
ATOM     25  O   UNL A   1      33.413  35.121  28.149  1.00  0.00    -0.269 OA
BRANCH  23  26
ATOM     26  C   UNL A   1      34.614  33.158  28.593  1.00  0.00     0.039 A 
ATOM     27  C   UNL A   1      34.383  32.395  29.742  1.00  0.00     0.014 A 
ATOM     28  C   UNL A   1      35.910  33.270  28.081  1.00  0.00     0.014 A 
ATOM     29  C   UNL A   1      35.442  31.731  30.365  1.00  0.00     0.010 A 
ATOM     30  C   UNL A   1      36.956  32.554  28.664  1.00  0.00     0.010 A 
ATOM     31  C   UNL A   1      36.736  31.798  29.825  1.00  0.00    -0.014 A 
BRANCH  31  32
ATOM     32  C   UNL A   1      37.880  31.133  30.496  1.00  0.00     0.031 A 
ATOM     33  C   UNL A   1      38.193  31.448  31.934  1.00  0.00     0.074 A 
ATOM     34  C   UNL A   1      38.654  30.273  29.809  1.00  0.00     0.049 A 
ATOM     35  N   UNL A   1      39.182  31.024  32.679  1.00  0.00    -0.248 NA
ATOM     36  C   UNL A   1      37.286  32.384  32.618  1.00  0.00     0.031 C 
ATOM     37  C   UNL A   1      38.469  29.907  28.404  1.00  0.00     0.029 A 
ATOM     38  N   UNL A   1      39.756  29.551  30.198  1.00  0.00    -0.354 N 
ATOM     39  C   UNL A   1      39.028  31.655  33.906  1.00  0.00     0.074 A 
ATOM     40  C   UNL A   1      37.878  32.526  33.794  1.00  0.00     0.031 C 
ATOM     41  C   UNL A   1      39.406  29.010  28.057  1.00  0.00     0.029 A 
ATOM     42  C   UNL A   1      40.277  28.761  29.204  1.00  0.00     0.049 A 
ATOM     43  H   UNL A   1      40.136  29.597  31.105  1.00  0.00     0.167 HD
ATOM     44  C   UNL A   1      39.765  31.504  35.033  1.00  0.00     0.037 A 
ATOM     45  C   UNL A   1      41.334  27.928  29.217  1.00  0.00     0.037 A 
ATOM     46  C   UNL A   1      40.886  30.611  35.151  1.00  0.00     0.049 A 
ATOM     47  C   UNL A   1      42.121  27.758  30.487  1.00  0.00     0.074 A 
ATOM     48  C   UNL A   1      41.684  30.368  36.255  1.00  0.00     0.029 A 
ATOM     49  N   UNL A   1      41.360  29.800  34.129  1.00  0.00    -0.354 N 
ATOM     50  N   UNL A   1      41.951  28.342  31.648  1.00  0.00    -0.248 NA
ATOM     51  C   UNL A   1      43.238  26.804  30.453  1.00  0.00     0.031 C 
ATOM     52  C   UNL A   1      42.657  29.431  35.894  1.00  0.00     0.029 A 
ATOM     53  C   UNL A   1      42.437  29.055  34.579  1.00  0.00     0.049 A 
ATOM     54  H   UNL A   1      40.985  29.761  33.220  1.00  0.00     0.167 HD
ATOM     55  C   UNL A   1      42.914  27.804  32.491  1.00  0.00     0.074 A 
ATOM     56  C   UNL A   1      43.662  26.841  31.710  1.00  0.00     0.031 C 
ATOM     57  C   UNL A   1      43.153  28.083  33.795  1.00  0.00     0.037 A 
BRANCH  44  58
ATOM     58  C   UNL A   1      39.376  32.314  36.234  1.00  0.00     0.064 A 
ATOM     59  C   UNL A   1      38.364  31.871  37.099  1.00  0.00     0.173 A 
ATOM     60  C   UNL A   1      39.970  33.557  36.502  1.00  0.00     0.173 A 
ATOM     61  F   UNL A   1      37.760  30.693  36.884  1.00  0.00    -0.203 F 
ATOM     62  C   UNL A   1      37.955  32.646  38.182  1.00  0.00     0.198 A 
ATOM     63  C   UNL A   1      39.579  34.316  37.602  1.00  0.00     0.198 A 
ATOM     64  F   UNL A   1      40.952  34.021  35.714  1.00  0.00    -0.203 F 
ATOM     65  F   UNL A   1      36.968  32.214  38.978  1.00  0.00    -0.200 F 
ATOM     66  C   UNL A   1      38.567  33.864  38.435  1.00  0.00     0.200 A 
ATOM     67  F   UNL A   1      40.189  35.480  37.861  1.00  0.00    -0.200 F 
ATOM     68  F   UNL A   1      38.183  34.602  39.487  1.00  0.00    -0.200 F 
ENDBRANCH  44  58
BRANCH  45  69
ATOM     69  C   UNL A   1      41.667  27.148  27.997  1.00  0.00     0.064 A 
ATOM     70  C   UNL A   1      41.126  25.875  27.770  1.00  0.00     0.173 A 
ATOM     71  C   UNL A   1      42.564  27.657  27.048  1.00  0.00     0.173 A 
ATOM     72  F   UNL A   1      40.270  25.342  28.653  1.00  0.00    -0.203 F 
ATOM     73  C   UNL A   1      41.483  25.133  26.646  1.00  0.00     0.198 A 
ATOM     74  C   UNL A   1      42.901  26.924  25.912  1.00  0.00     0.198 A 
ATOM     75  F   UNL A   1      43.093  28.878  27.214  1.00  0.00    -0.203 F 
ATOM     76  F   UNL A   1      40.976  23.906  26.467  1.00  0.00    -0.200 F 
ATOM     77  C   UNL A   1      42.366  25.660  25.716  1.00  0.00     0.200 A 
ATOM     78  F   UNL A   1      43.738  27.446  25.005  1.00  0.00    -0.200 F 
ATOM     79  F   UNL A   1      42.701  24.951  24.629  1.00  0.00    -0.200 F 
ENDBRANCH  45  69
BRANCH  57  80
ATOM     80  C   UNL A   1      44.233  27.305  34.485  1.00  0.00     0.064 A 
ATOM     81  C   UNL A   1      45.540  27.814  34.545  1.00  0.00     0.173 A 
ATOM     82  C   UNL A   1      43.998  26.031  35.022  1.00  0.00     0.173 A 
ATOM     83  F   UNL A   1      45.818  29.025  34.038  1.00  0.00    -0.203 F 
ATOM     84  C   UNL A   1      46.573  27.071  35.107  1.00  0.00     0.198 A 
ATOM     85  C   UNL A   1      45.029  25.301  35.607  1.00  0.00     0.198 A 
ATOM     86  F   UNL A   1      42.763  25.508  34.999  1.00  0.00    -0.203 F 
ATOM     87  F   UNL A   1      47.819  27.564  35.127  1.00  0.00    -0.200 F 
ATOM     88  C   UNL A   1      46.317  25.817  35.641  1.00  0.00     0.200 A 
ATOM     89  F   UNL A   1      44.775  24.100  36.144  1.00  0.00    -0.200 F 
ATOM     90  F   UNL A   1      47.309  25.107  36.193  1.00  0.00    -0.200 F 
ENDBRANCH  57  80
ENDBRANCH  31  32
ENDBRANCH  23  26
ENDBRANCH  21  22
ENDBRANCH  20  21
ENDBRANCH   1  20
TORSDOF 13
ENDMDL
