MODEL 1
REMARK VINA RESULT:     -13.3      0.000      0.000
REMARK SMILES Cc1n[nH]c(C[N@H+]2CCC[C@H](c3cccc(C(=O)NCCCNC(=O)c4ccc(-c5c6nc(c(-c7c(F)c(F)c(F)c(F)c7F)c7ccc([nH]7)c(-c7c(F)c(F)c(F)c(F)c7F)c7nc(c(-c8c(F)c(F)c(F)c(F)c8F)c8ccc5[nH]8)C=C7)C=C6)cc4)c3)C2)n1
REMARK SMILES IDX 20 1 19 2 17 3 18 4 16 6 12 7 13 8 89 9 14 10 15 11 11 12
REMARK SMILES IDX 7 13 8 14 90 15 9 17 10 18 6 19 5 20 1 21 2 22 3 23 91 24
REMARK SMILES IDX 4 25 21 27 22 28 23 29 24 30 25 32 26 33 27 34 88 35 28 36
REMARK SMILES IDX 87 37 29 38 30 39 31 40 81 41 32 42 86 43 80 44 82 45 33 46
REMARK SMILES IDX 85 47 79 48 78 49 34 51 66 52 46 53 65 54 47 55 50 56 64 57
REMARK SMILES IDX 83 58 48 59 49 60 63 62 84 63 51 64 35 65 36 66 44 67 37 68
REMARK SMILES IDX 38 69 42 70 45 71 39 72 40 73 43 74 41 75 67 76 68 77 76 78
REMARK SMILES IDX 69 79 70 80 74 81 77 82 71 83 72 84 75 85 73 86 52 87 53 88
REMARK SMILES IDX 61 89 54 90 55 91 59 92 62 93 56 94 57 95 60 96 58 97
REMARK H PARENT 19 5 7 16 4 26 23 31 82 50 50 61
REMARK Flexibility Score: inf
ROOT
ATOM      1  C   UNL A   1      36.444  20.705  25.029  1.00  0.00     0.118 C 
ENDROOT
BRANCH   1   2
ATOM      2  N   UNL A   1      35.450  21.067  26.032  1.00  0.00    -0.352 N 
ATOM      3  C   UNL A   1      34.286  21.803  25.989  1.00  0.00     0.251 C 
ATOM      4  O   UNL A   1      33.594  21.808  27.008  1.00  0.00    -0.269 OA
ATOM      5  H   UNL A   1      35.652  20.711  26.928  1.00  0.00     0.163 HD
BRANCH   3   6
ATOM      6  C   UNL A   1      33.815  22.566  24.795  1.00  0.00     0.040 A 
ATOM      7  C   UNL A   1      33.499  24.652  23.541  1.00  0.00    -0.039 A 
ATOM      8  C   UNL A   1      32.954  23.921  22.483  1.00  0.00     0.004 A 
ATOM      9  C   UNL A   1      33.856  23.953  24.700  1.00  0.00     0.018 A 
ATOM     10  C   UNL A   1      32.836  22.532  22.571  1.00  0.00     0.001 A 
ATOM     11  C   UNL A   1      33.283  21.857  23.711  1.00  0.00     0.014 A 
BRANCH   7  12
ATOM     12  C   UNL A   1      33.734  26.159  23.543  1.00  0.00     0.074 C 
ATOM     13  N   UNL A   1      31.973  26.899  25.148  1.00  0.00    -0.328 N 
ATOM     14  C   UNL A   1      31.222  27.594  24.097  1.00  0.00     0.262 C 
ATOM     15  C   UNL A   1      33.420  26.881  24.861  1.00  0.00     0.270 C 
ATOM     16  H   UNL A   1      31.636  25.936  25.136  1.00  0.00     0.348 HD
ATOM     17  C   UNL A   1      31.473  26.977  22.720  1.00  0.00     0.062 C 
ATOM     18  C   UNL A   1      32.966  26.884  22.411  1.00  0.00     0.020 C 
BRANCH  13  19
ATOM     19  C   UNL A   1      31.696  27.405  26.504  1.00  0.00     0.340 C 
BRANCH  19  20
ATOM     20  C   UNL A   1      32.525  28.581  26.893  1.00  0.00     0.179 A 
ATOM     21  C   UNL A   1      35.491  30.285  27.703  1.00  0.00     0.092 C 
ATOM     22  C   UNL A   1      34.116  29.877  27.359  1.00  0.00     0.147 A 
ATOM     23  N   UNL A   1      33.200  30.709  26.849  1.00  0.00    -0.159 NA
ATOM     24  N   UNL A   1      33.714  28.577  27.460  1.00  0.00    -0.211 NA
ATOM     25  N   UNL A   1      32.188  29.866  26.585  1.00  0.00    -0.258 N 
ATOM     26  H   UNL A   1      31.317  30.140  26.217  1.00  0.00     0.192 HD
ENDBRANCH  19  20
ENDBRANCH  13  19
ENDBRANCH   7  12
ENDBRANCH   3   6
ENDBRANCH   1   2
BRANCH   1  27
ATOM     27  C   UNL A   1      37.266  21.909  24.534  1.00  0.00     0.042 C 
BRANCH  27  28
ATOM     28  C   UNL A   1      37.810  22.751  25.671  1.00  0.00     0.118 C 
BRANCH  28  29
ATOM     29  N   UNL A   1      38.776  22.014  26.502  1.00  0.00    -0.352 N 
ATOM     30  C   UNL A   1      39.950  22.455  27.097  1.00  0.00     0.251 C 
ATOM     31  H   UNL A   1      38.556  21.067  26.659  1.00  0.00     0.163 HD
ATOM     32  O   UNL A   1      40.805  21.671  27.465  1.00  0.00    -0.269 OA
BRANCH  30  33
ATOM     33  C   UNL A   1      40.132  23.905  27.276  1.00  0.00     0.039 A 
ATOM     34  C   UNL A   1      39.119  24.836  27.036  1.00  0.00     0.014 A 
ATOM     35  C   UNL A   1      41.352  24.304  27.795  1.00  0.00     0.014 A 
ATOM     36  C   UNL A   1      39.344  26.160  27.409  1.00  0.00     0.010 A 
ATOM     37  C   UNL A   1      41.422  25.488  28.457  1.00  0.00     0.010 A 
ATOM     38  C   UNL A   1      40.501  26.466  28.145  1.00  0.00    -0.014 A 
BRANCH  38  39
ATOM     39  C   UNL A   1      40.763  27.782  28.705  1.00  0.00     0.031 A 
ATOM     40  C   UNL A   1      41.961  28.431  28.131  1.00  0.00     0.074 A 
ATOM     41  C   UNL A   1      39.873  28.433  29.489  1.00  0.00     0.049 A 
ATOM     42  N   UNL A   1      43.100  28.603  28.710  1.00  0.00    -0.248 NA
ATOM     43  C   UNL A   1      41.966  28.753  26.695  1.00  0.00     0.031 C 
ATOM     44  C   UNL A   1      38.507  28.039  29.866  1.00  0.00     0.029 A 
ATOM     45  N   UNL A   1      39.982  29.664  30.058  1.00  0.00    -0.354 N 
ATOM     46  C   UNL A   1      43.894  29.271  27.787  1.00  0.00     0.074 A 
ATOM     47  C   UNL A   1      43.234  29.131  26.516  1.00  0.00     0.031 C 
ATOM     48  C   UNL A   1      37.851  29.095  30.397  1.00  0.00     0.029 A 
ATOM     49  C   UNL A   1      38.793  30.182  30.567  1.00  0.00     0.049 A 
ATOM     50  H   UNL A   1      40.836  30.151  30.107  1.00  0.00     0.167 HD
ATOM     51  C   UNL A   1      44.867  30.122  28.215  1.00  0.00     0.037 A 
ATOM     52  C   UNL A   1      38.611  31.426  31.079  1.00  0.00     0.037 A 
ATOM     53  C   UNL A   1      45.145  29.909  29.618  1.00  0.00     0.049 A 
ATOM     54  C   UNL A   1      39.956  31.942  31.442  1.00  0.00     0.074 A 
ATOM     55  C   UNL A   1      45.581  28.833  30.368  1.00  0.00     0.029 A 
ATOM     56  N   UNL A   1      44.573  30.779  30.514  1.00  0.00    -0.354 N 
ATOM     57  N   UNL A   1      40.687  31.438  32.399  1.00  0.00    -0.248 NA
ATOM     58  C   UNL A   1      40.685  32.678  30.420  1.00  0.00     0.031 C 
ATOM     59  C   UNL A   1      44.821  28.892  31.575  1.00  0.00     0.029 A 
ATOM     60  C   UNL A   1      44.033  30.043  31.538  1.00  0.00     0.049 A 
ATOM     61  H   UNL A   1      44.554  31.760  30.436  1.00  0.00     0.167 HD
ATOM     62  C   UNL A   1      41.971  31.400  31.876  1.00  0.00     0.074 A 
ATOM     63  C   UNL A   1      41.920  32.244  30.683  1.00  0.00     0.031 C 
ATOM     64  C   UNL A   1      42.866  30.452  32.285  1.00  0.00     0.037 A 
BRANCH  51  65
ATOM     65  C   UNL A   1      45.252  31.403  27.514  1.00  0.00     0.064 A 
ATOM     66  C   UNL A   1      46.563  31.526  27.010  1.00  0.00     0.173 A 
ATOM     67  C   UNL A   1      44.517  32.607  27.588  1.00  0.00     0.173 A 
ATOM     68  F   UNL A   1      47.356  30.448  26.900  1.00  0.00    -0.203 F 
ATOM     69  C   UNL A   1      47.125  32.768  26.707  1.00  0.00     0.198 A 
ATOM     70  C   UNL A   1      45.065  33.839  27.234  1.00  0.00     0.198 A 
ATOM     71  F   UNL A   1      43.288  32.672  28.110  1.00  0.00    -0.203 F 
ATOM     72  F   UNL A   1      48.419  32.846  26.368  1.00  0.00    -0.200 F 
ATOM     73  C   UNL A   1      46.379  33.925  26.830  1.00  0.00     0.200 A 
ATOM     74  F   UNL A   1      44.329  34.949  27.376  1.00  0.00    -0.200 F 
ATOM     75  F   UNL A   1      46.935  35.123  26.607  1.00  0.00    -0.200 F 
ENDBRANCH  51  65
BRANCH  52  76
ATOM     76  C   UNL A   1      37.427  32.315  30.970  1.00  0.00     0.064 A 
ATOM     77  C   UNL A   1      37.141  33.003  29.779  1.00  0.00     0.173 A 
ATOM     78  C   UNL A   1      36.394  32.268  31.926  1.00  0.00     0.173 A 
ATOM     79  F   UNL A   1      38.053  33.056  28.796  1.00  0.00    -0.203 F 
ATOM     80  C   UNL A   1      35.888  33.581  29.544  1.00  0.00     0.198 A 
ATOM     81  C   UNL A   1      35.144  32.848  31.692  1.00  0.00     0.198 A 
ATOM     82  F   UNL A   1      36.542  31.574  33.062  1.00  0.00    -0.203 F 
ATOM     83  F   UNL A   1      35.632  34.171  28.367  1.00  0.00    -0.200 F 
ATOM     84  C   UNL A   1      34.886  33.491  30.496  1.00  0.00     0.200 A 
ATOM     85  F   UNL A   1      34.170  32.717  32.604  1.00  0.00    -0.200 F 
ATOM     86  F   UNL A   1      33.665  33.983  30.245  1.00  0.00    -0.200 F 
ENDBRANCH  52  76
BRANCH  64  87
ATOM     87  C   UNL A   1      42.511  29.629  33.495  1.00  0.00     0.064 A 
ATOM     88  C   UNL A   1      41.863  28.381  33.448  1.00  0.00     0.173 A 
ATOM     89  C   UNL A   1      42.972  30.063  34.744  1.00  0.00     0.173 A 
ATOM     90  F   UNL A   1      41.474  27.846  32.285  1.00  0.00    -0.203 F 
ATOM     91  C   UNL A   1      41.653  27.628  34.604  1.00  0.00     0.198 A 
ATOM     92  C   UNL A   1      42.795  29.295  35.891  1.00  0.00     0.198 A 
ATOM     93  F   UNL A   1      43.643  31.221  34.843  1.00  0.00    -0.203 F 
ATOM     94  F   UNL A   1      41.022  26.446  34.534  1.00  0.00    -0.200 F 
ATOM     95  C   UNL A   1      42.126  28.084  35.824  1.00  0.00     0.200 A 
ATOM     96  F   UNL A   1      43.297  29.719  37.058  1.00  0.00    -0.200 F 
ATOM     97  F   UNL A   1      41.960  27.345  36.930  1.00  0.00    -0.200 F 
ENDBRANCH  64  87
ENDBRANCH  38  39
ENDBRANCH  30  33
ENDBRANCH  28  29
ENDBRANCH  27  28
ENDBRANCH   1  27
TORSDOF 13
ENDMDL
MODEL 2
REMARK VINA RESULT:     -13.3      3.187      8.903
REMARK SMILES Cc1n[nH]c(C[N@H+]2CCC[C@H](c3cccc(C(=O)NCCCNC(=O)c4ccc(-c5c6nc(c(-c7c(F)c(F)c(F)c(F)c7F)c7ccc([nH]7)c(-c7c(F)c(F)c(F)c(F)c7F)c7nc(c(-c8c(F)c(F)c(F)c(F)c8F)c8ccc5[nH]8)C=C7)C=C6)cc4)c3)C2)n1
REMARK SMILES IDX 20 1 19 2 17 3 18 4 16 6 12 7 13 8 89 9 14 10 15 11 11 12
REMARK SMILES IDX 7 13 8 14 90 15 9 17 10 18 6 19 5 20 1 21 2 22 3 23 91 24
REMARK SMILES IDX 4 25 21 27 22 28 23 29 24 30 25 32 26 33 27 34 88 35 28 36
REMARK SMILES IDX 87 37 29 38 30 39 31 40 81 41 32 42 86 43 80 44 82 45 33 46
REMARK SMILES IDX 85 47 79 48 78 49 34 51 66 52 46 53 65 54 47 55 50 56 64 57
REMARK SMILES IDX 83 58 48 59 49 60 63 62 84 63 51 64 35 65 36 66 44 67 37 68
REMARK SMILES IDX 38 69 42 70 45 71 39 72 40 73 43 74 41 75 67 76 68 77 76 78
REMARK SMILES IDX 69 79 70 80 74 81 77 82 71 83 72 84 75 85 73 86 52 87 53 88
REMARK SMILES IDX 61 89 54 90 55 91 59 92 62 93 56 94 57 95 60 96 58 97
REMARK H PARENT 19 5 7 16 4 26 23 31 82 50 50 61
REMARK Flexibility Score: inf
ROOT
ATOM      1  C   UNL A   1      33.211  29.317  25.015  1.00  0.00     0.118 C 
ENDROOT
BRANCH   1   2
ATOM      2  N   UNL A   1      32.232  29.271  23.936  1.00  0.00    -0.352 N 
ATOM      3  C   UNL A   1      31.305  28.332  23.538  1.00  0.00     0.251 C 
ATOM      4  O   UNL A   1      30.524  28.666  22.645  1.00  0.00    -0.269 OA
ATOM      5  H   UNL A   1      32.232  30.079  23.373  1.00  0.00     0.163 HD
BRANCH   3   6
ATOM      6  C   UNL A   1      31.184  26.965  24.127  1.00  0.00     0.040 A 
ATOM      7  C   UNL A   1      31.490  24.532  24.041  1.00  0.00    -0.039 A 
ATOM      8  C   UNL A   1      30.972  24.432  25.334  1.00  0.00     0.004 A 
ATOM      9  C   UNL A   1      31.519  25.799  23.448  1.00  0.00     0.018 A 
ATOM     10  C   UNL A   1      30.561  25.576  26.021  1.00  0.00     0.001 A 
ATOM     11  C   UNL A   1      30.686  26.836  25.430  1.00  0.00     0.014 A 
BRANCH   7  12
ATOM     12  C   UNL A   1      32.024  23.368  23.212  1.00  0.00     0.074 C 
ATOM     13  N   UNL A   1      33.522  22.266  24.876  1.00  0.00    -0.328 N 
ATOM     14  C   UNL A   1      34.726  22.615  24.114  1.00  0.00     0.262 C 
ATOM     15  C   UNL A   1      32.352  22.088  23.994  1.00  0.00     0.270 C 
ATOM     16  H   UNL A   1      33.340  23.064  25.485  1.00  0.00     0.348 HD
ATOM     17  C   UNL A   1      34.514  23.872  23.267  1.00  0.00     0.062 C 
ATOM     18  C   UNL A   1      33.275  23.751  22.384  1.00  0.00     0.020 C 
BRANCH  13  19
ATOM     19  C   UNL A   1      33.705  21.111  25.772  1.00  0.00     0.340 C 
BRANCH  19  20
ATOM     20  C   UNL A   1      33.344  19.803  25.156  1.00  0.00     0.179 A 
ATOM     21  C   UNL A   1      33.964  16.630  23.774  1.00  0.00     0.092 C 
ATOM     22  C   UNL A   1      33.386  17.861  24.345  1.00  0.00     0.147 A 
ATOM     23  N   UNL A   1      32.165  17.925  24.891  1.00  0.00    -0.159 NA
ATOM     24  N   UNL A   1      34.112  19.014  24.432  1.00  0.00    -0.211 NA
ATOM     25  N   UNL A   1      32.153  19.177  25.376  1.00  0.00    -0.258 N 
ATOM     26  H   UNL A   1      31.384  19.589  25.832  1.00  0.00     0.192 HD
ENDBRANCH  19  20
ENDBRANCH  13  19
ENDBRANCH   7  12
ENDBRANCH   3   6
ENDBRANCH   1   2
BRANCH   1  27
ATOM     27  C   UNL A   1      32.661  29.965  26.299  1.00  0.00     0.042 C 
BRANCH  27  28
ATOM     28  C   UNL A   1      33.729  30.159  27.357  1.00  0.00     0.118 C 
BRANCH  28  29
ATOM     29  N   UNL A   1      34.300  31.515  27.336  1.00  0.00    -0.352 N 
ATOM     30  C   UNL A   1      35.455  31.999  27.934  1.00  0.00     0.251 C 
ATOM     31  H   UNL A   1      33.785  32.179  26.821  1.00  0.00     0.163 HD
ATOM     32  O   UNL A   1      35.623  33.192  28.112  1.00  0.00    -0.269 OA
BRANCH  30  33
ATOM     33  C   UNL A   1      36.480  31.026  28.347  1.00  0.00     0.039 A 
ATOM     34  C   UNL A   1      36.556  29.732  27.827  1.00  0.00     0.014 A 
ATOM     35  C   UNL A   1      37.445  31.495  29.223  1.00  0.00     0.014 A 
ATOM     36  C   UNL A   1      37.669  28.959  28.152  1.00  0.00     0.010 A 
ATOM     37  C   UNL A   1      38.657  30.882  29.245  1.00  0.00     0.010 A 
ATOM     38  C   UNL A   1      38.729  29.562  28.848  1.00  0.00    -0.014 A 
BRANCH  38  39
ATOM     39  C   UNL A   1      39.992  28.892  29.113  1.00  0.00     0.031 A 
ATOM     40  C   UNL A   1      40.260  28.704  30.555  1.00  0.00     0.074 A 
ATOM     41  C   UNL A   1      40.721  28.297  28.142  1.00  0.00     0.049 A 
ATOM     42  N   UNL A   1      41.122  29.342  31.272  1.00  0.00    -0.248 NA
ATOM     43  C   UNL A   1      39.345  27.855  31.335  1.00  0.00     0.031 C 
ATOM     44  C   UNL A   1      40.402  28.126  26.716  1.00  0.00     0.029 A 
ATOM     45  N   UNL A   1      41.899  27.625  28.253  1.00  0.00    -0.354 N 
ATOM     46  C   UNL A   1      41.020  28.805  32.548  1.00  0.00     0.074 A 
ATOM     47  C   UNL A   1      39.780  28.076  32.578  1.00  0.00     0.031 C 
ATOM     48  C   UNL A   1      41.237  27.218  26.161  1.00  0.00     0.029 A 
ATOM     49  C   UNL A   1      42.257  26.881  27.132  1.00  0.00     0.049 A 
ATOM     50  H   UNL A   1      42.456  27.663  29.064  1.00  0.00     0.167 HD
ATOM     51  C   UNL A   1      42.110  28.774  33.362  1.00  0.00     0.037 A 
ATOM     52  C   UNL A   1      43.318  26.039  27.030  1.00  0.00     0.037 A 
ATOM     53  C   UNL A   1      43.142  29.655  32.862  1.00  0.00     0.049 A 
ATOM     54  C   UNL A   1      44.269  26.415  28.107  1.00  0.00     0.074 A 
ATOM     55  C   UNL A   1      43.218  31.011  32.604  1.00  0.00     0.029 A 
ATOM     56  N   UNL A   1      44.173  29.085  32.155  1.00  0.00    -0.354 N 
ATOM     57  N   UNL A   1      44.916  27.548  28.134  1.00  0.00    -0.248 NA
ATOM     58  C   UNL A   1      44.113  25.752  29.394  1.00  0.00     0.031 C 
ATOM     59  C   UNL A   1      43.967  31.116  31.393  1.00  0.00     0.029 A 
ATOM     60  C   UNL A   1      44.383  29.835  31.026  1.00  0.00     0.049 A 
ATOM     61  H   UNL A   1      44.673  28.278  32.414  1.00  0.00     0.167 HD
ATOM     62  C   UNL A   1      44.851  27.957  29.458  1.00  0.00     0.074 A 
ATOM     63  C   UNL A   1      44.409  26.776  30.198  1.00  0.00     0.031 C 
ATOM     64  C   UNL A   1      44.867  29.284  29.782  1.00  0.00     0.037 A 
BRANCH  51  65
ATOM     65  C   UNL A   1      42.420  27.661  34.335  1.00  0.00     0.064 A 
ATOM     66  C   UNL A   1      43.007  26.479  33.841  1.00  0.00     0.173 A 
ATOM     67  C   UNL A   1      41.895  27.574  35.644  1.00  0.00     0.173 A 
ATOM     68  F   UNL A   1      43.534  26.443  32.607  1.00  0.00    -0.203 F 
ATOM     69  C   UNL A   1      42.974  25.281  34.558  1.00  0.00     0.198 A 
ATOM     70  C   UNL A   1      41.912  26.389  36.378  1.00  0.00     0.198 A 
ATOM     71  F   UNL A   1      41.243  28.584  36.229  1.00  0.00    -0.203 F 
ATOM     72  F   UNL A   1      43.418  24.153  33.986  1.00  0.00    -0.200 F 
ATOM     73  C   UNL A   1      42.417  25.234  35.821  1.00  0.00     0.200 A 
ATOM     74  F   UNL A   1      41.351  26.363  37.594  1.00  0.00    -0.200 F 
ATOM     75  F   UNL A   1      42.321  24.074  36.483  1.00  0.00    -0.200 F 
ENDBRANCH  51  65
BRANCH  52  76
ATOM     76  C   UNL A   1      43.418  24.748  26.302  1.00  0.00     0.064 A 
ATOM     77  C   UNL A   1      44.387  24.549  25.305  1.00  0.00     0.173 A 
ATOM     78  C   UNL A   1      42.768  23.593  26.781  1.00  0.00     0.173 A 
ATOM     79  F   UNL A   1      45.086  25.589  24.827  1.00  0.00    -0.203 F 
ATOM     80  C   UNL A   1      44.710  23.269  24.838  1.00  0.00     0.198 A 
ATOM     81  C   UNL A   1      43.090  22.317  26.312  1.00  0.00     0.198 A 
ATOM     82  F   UNL A   1      41.883  23.671  27.783  1.00  0.00    -0.203 F 
ATOM     83  F   UNL A   1      45.688  23.114  23.933  1.00  0.00    -0.200 F 
ATOM     84  C   UNL A   1      44.070  22.154  25.351  1.00  0.00     0.200 A 
ATOM     85  F   UNL A   1      42.493  21.243  26.846  1.00  0.00    -0.200 F 
ATOM     86  F   UNL A   1      44.428  20.924  24.955  1.00  0.00    -0.200 F 
ENDBRANCH  52  76
BRANCH  64  87
ATOM     87  C   UNL A   1      45.221  30.266  28.696  1.00  0.00     0.064 A 
ATOM     88  C   UNL A   1      44.296  30.834  27.802  1.00  0.00     0.173 A 
ATOM     89  C   UNL A   1      46.533  30.754  28.655  1.00  0.00     0.173 A 
ATOM     90  F   UNL A   1      43.002  30.496  27.837  1.00  0.00    -0.203 F 
ATOM     91  C   UNL A   1      44.680  31.813  26.884  1.00  0.00     0.198 A 
ATOM     92  C   UNL A   1      46.907  31.756  27.764  1.00  0.00     0.198 A 
ATOM     93  F   UNL A   1      47.449  30.288  29.519  1.00  0.00    -0.203 F 
ATOM     94  F   UNL A   1      43.781  32.330  26.034  1.00  0.00    -0.200 F 
ATOM     95  C   UNL A   1      45.985  32.277  26.871  1.00  0.00     0.200 A 
ATOM     96  F   UNL A   1      48.158  32.235  27.790  1.00  0.00    -0.200 F 
ATOM     97  F   UNL A   1      46.347  33.245  26.017  1.00  0.00    -0.200 F 
ENDBRANCH  64  87
ENDBRANCH  38  39
ENDBRANCH  30  33
ENDBRANCH  28  29
ENDBRANCH  27  28
ENDBRANCH   1  27
TORSDOF 13
ENDMDL
MODEL 3
REMARK VINA RESULT:     -13.3      1.448      2.393
REMARK SMILES Cc1n[nH]c(C[N@H+]2CCC[C@H](c3cccc(C(=O)NCCCNC(=O)c4ccc(-c5c6nc(c(-c7c(F)c(F)c(F)c(F)c7F)c7ccc([nH]7)c(-c7c(F)c(F)c(F)c(F)c7F)c7nc(c(-c8c(F)c(F)c(F)c(F)c8F)c8ccc5[nH]8)C=C7)C=C6)cc4)c3)C2)n1
REMARK SMILES IDX 20 1 19 2 17 3 18 4 16 6 12 7 13 8 89 9 14 10 15 11 11 12
REMARK SMILES IDX 7 13 8 14 90 15 9 17 10 18 6 19 5 20 1 21 2 22 3 23 91 24
REMARK SMILES IDX 4 25 21 27 22 28 23 29 24 30 25 32 26 33 27 34 88 35 28 36
REMARK SMILES IDX 87 37 29 38 30 39 31 40 81 41 32 42 86 43 80 44 82 45 33 46
REMARK SMILES IDX 85 47 79 48 78 49 34 51 66 52 46 53 65 54 47 55 50 56 64 57
REMARK SMILES IDX 83 58 48 59 49 60 63 62 84 63 51 64 35 65 36 66 44 67 37 68
REMARK SMILES IDX 38 69 42 70 45 71 39 72 40 73 43 74 41 75 67 76 68 77 76 78
REMARK SMILES IDX 69 79 70 80 74 81 77 82 71 83 72 84 75 85 73 86 52 87 53 88
REMARK SMILES IDX 61 89 54 90 55 91 59 92 62 93 56 94 57 95 60 96 58 97
REMARK H PARENT 19 5 7 16 4 26 23 31 82 50 50 61
REMARK Flexibility Score: inf
ROOT
ATOM      1  C   UNL A   1      36.268  22.124  24.886  1.00  0.00     0.118 C 
ENDROOT
BRANCH   1   2
ATOM      2  N   UNL A   1      35.572  21.836  26.135  1.00  0.00    -0.352 N 
ATOM      3  C   UNL A   1      34.260  21.959  26.539  1.00  0.00     0.251 C 
ATOM      4  O   UNL A   1      33.972  21.492  27.642  1.00  0.00    -0.269 OA
ATOM      5  H   UNL A   1      36.162  21.477  26.837  1.00  0.00     0.163 HD
BRANCH   3   6
ATOM      6  C   UNL A   1      33.185  22.598  25.723  1.00  0.00     0.040 A 
ATOM      7  C   UNL A   1      31.604  24.419  25.264  1.00  0.00    -0.039 A 
ATOM      8  C   UNL A   1      31.202  23.761  24.099  1.00  0.00     0.004 A 
ATOM      9  C   UNL A   1      32.544  23.780  26.080  1.00  0.00     0.018 A 
ATOM     10  C   UNL A   1      31.776  22.538  23.745  1.00  0.00     0.001 A 
ATOM     11  C   UNL A   1      32.775  21.971  24.540  1.00  0.00     0.014 A 
BRANCH   7  12
ATOM     12  C   UNL A   1      31.098  25.781  25.727  1.00  0.00     0.074 C 
ATOM     13  N   UNL A   1      31.198  27.063  23.588  1.00  0.00    -0.328 N 
ATOM     14  C   UNL A   1      32.270  27.929  24.087  1.00  0.00     0.262 C 
ATOM     15  C   UNL A   1      30.323  26.595  24.681  1.00  0.00     0.270 C 
ATOM     16  H   UNL A   1      31.665  26.249  23.187  1.00  0.00     0.348 HD
ATOM     17  C   UNL A   1      33.106  27.232  25.163  1.00  0.00     0.062 C 
ATOM     18  C   UNL A   1      32.229  26.680  26.284  1.00  0.00     0.020 C 
BRANCH  13  19
ATOM     19  C   UNL A   1      30.419  27.660  22.489  1.00  0.00     0.340 C 
BRANCH  19  20
ATOM     20  C   UNL A   1      29.274  28.498  22.945  1.00  0.00     0.179 A 
ATOM     21  C   UNL A   1      27.533  31.491  23.553  1.00  0.00     0.092 C 
ATOM     22  C   UNL A   1      27.970  30.094  23.371  1.00  0.00     0.147 A 
ATOM     23  N   UNL A   1      27.128  29.071  23.180  1.00  0.00    -0.159 NA
ATOM     24  N   UNL A   1      29.293  29.767  23.298  1.00  0.00    -0.211 NA
ATOM     25  N   UNL A   1      27.982  28.063  22.937  1.00  0.00    -0.258 N 
ATOM     26  H   UNL A   1      27.709  27.131  22.774  1.00  0.00     0.192 HD
ENDBRANCH  19  20
ENDBRANCH  13  19
ENDBRANCH   7  12
ENDBRANCH   3   6
ENDBRANCH   1   2
BRANCH   1  27
ATOM     27  C   UNL A   1      37.114  23.409  24.952  1.00  0.00     0.042 C 
BRANCH  27  28
ATOM     28  C   UNL A   1      37.759  23.613  26.308  1.00  0.00     0.118 C 
BRANCH  28  29
ATOM     29  N   UNL A   1      38.903  22.713  26.527  1.00  0.00    -0.352 N 
ATOM     30  C   UNL A   1      40.254  23.008  26.636  1.00  0.00     0.251 C 
ATOM     31  H   UNL A   1      38.675  21.758  26.607  1.00  0.00     0.163 HD
ATOM     32  O   UNL A   1      41.104  22.150  26.480  1.00  0.00    -0.269 OA
BRANCH  30  33
ATOM     33  C   UNL A   1      40.636  24.395  26.952  1.00  0.00     0.039 A 
ATOM     34  C   UNL A   1      40.319  25.479  26.130  1.00  0.00     0.014 A 
ATOM     35  C   UNL A   1      41.254  24.591  28.176  1.00  0.00     0.014 A 
ATOM     36  C   UNL A   1      40.569  26.762  26.613  1.00  0.00     0.010 A 
ATOM     37  C   UNL A   1      41.167  25.814  28.760  1.00  0.00     0.010 A 
ATOM     38  C   UNL A   1      40.975  26.914  27.949  1.00  0.00    -0.014 A 
BRANCH  38  39
ATOM     39  C   UNL A   1      41.126  28.208  28.594  1.00  0.00     0.031 A 
ATOM     40  C   UNL A   1      42.330  28.943  28.150  1.00  0.00     0.074 A 
ATOM     41  C   UNL A   1      40.147  28.773  29.336  1.00  0.00     0.049 A 
ATOM     42  N   UNL A   1      43.411  29.137  28.826  1.00  0.00    -0.248 NA
ATOM     43  C   UNL A   1      42.428  29.343  26.737  1.00  0.00     0.031 C 
ATOM     44  C   UNL A   1      38.777  28.294  29.583  1.00  0.00     0.029 A 
ATOM     45  N   UNL A   1      40.148  29.974  29.973  1.00  0.00    -0.354 N 
ATOM     46  C   UNL A   1      44.237  29.891  28.003  1.00  0.00     0.074 A 
ATOM     47  C   UNL A   1      43.685  29.789  26.679  1.00  0.00     0.031 C 
ATOM     48  C   UNL A   1      38.029  29.288  30.113  1.00  0.00     0.029 A 
ATOM     49  C   UNL A   1      38.898  30.407  30.413  1.00  0.00     0.049 A 
ATOM     50  H   UNL A   1      40.970  30.498  30.115  1.00  0.00     0.167 HD
ATOM     51  C   UNL A   1      45.130  30.762  28.550  1.00  0.00     0.037 A 
ATOM     52  C   UNL A   1      38.614  31.612  30.970  1.00  0.00     0.037 A 
ATOM     53  C   UNL A   1      45.310  30.487  29.958  1.00  0.00     0.049 A 
ATOM     54  C   UNL A   1      39.899  32.170  31.465  1.00  0.00     0.074 A 
ATOM     55  C   UNL A   1      45.742  29.393  30.685  1.00  0.00     0.029 A 
ATOM     56  N   UNL A   1      44.627  31.278  30.849  1.00  0.00    -0.354 N 
ATOM     57  N   UNL A   1      40.578  31.649  32.450  1.00  0.00    -0.248 NA
ATOM     58  C   UNL A   1      40.665  32.994  30.542  1.00  0.00     0.031 C 
ATOM     59  C   UNL A   1      44.889  29.350  31.829  1.00  0.00     0.029 A 
ATOM     60  C   UNL A   1      44.048  30.463  31.788  1.00  0.00     0.049 A 
ATOM     61  H   UNL A   1      44.563  32.260  30.819  1.00  0.00     0.167 HD
ATOM     62  C   UNL A   1      41.900  31.701  32.029  1.00  0.00     0.074 A 
ATOM     63  C   UNL A   1      41.897  32.606  30.880  1.00  0.00     0.031 C 
ATOM     64  C   UNL A   1      42.808  30.776  32.460  1.00  0.00     0.037 A 
BRANCH  51  65
ATOM     65  C   UNL A   1      45.501  32.096  27.948  1.00  0.00     0.064 A 
ATOM     66  C   UNL A   1      44.474  33.025  27.685  1.00  0.00     0.173 A 
ATOM     67  C   UNL A   1      46.744  32.381  27.340  1.00  0.00     0.173 A 
ATOM     68  F   UNL A   1      43.249  32.854  28.206  1.00  0.00    -0.203 F 
ATOM     69  C   UNL A   1      44.650  34.091  26.800  1.00  0.00     0.198 A 
ATOM     70  C   UNL A   1      46.930  33.476  26.498  1.00  0.00     0.198 A 
ATOM     71  F   UNL A   1      47.797  31.562  27.431  1.00  0.00    -0.203 F 
ATOM     72  F   UNL A   1      43.604  34.862  26.473  1.00  0.00    -0.200 F 
ATOM     73  C   UNL A   1      45.875  34.310  26.199  1.00  0.00     0.200 A 
ATOM     74  F   UNL A   1      48.122  33.660  25.914  1.00  0.00    -0.200 F 
ATOM     75  F   UNL A   1      46.029  35.288  25.297  1.00  0.00    -0.200 F 
ENDBRANCH  51  65
BRANCH  52  76
ATOM     76  C   UNL A   1      37.397  32.448  30.813  1.00  0.00     0.064 A 
ATOM     77  C   UNL A   1      37.122  33.111  29.605  1.00  0.00     0.173 A 
ATOM     78  C   UNL A   1      36.336  32.367  31.735  1.00  0.00     0.173 A 
ATOM     79  F   UNL A   1      38.063  33.193  28.652  1.00  0.00    -0.203 F 
ATOM     80  C   UNL A   1      35.854  33.633  29.323  1.00  0.00     0.198 A 
ATOM     81  C   UNL A   1      35.072  32.890  31.454  1.00  0.00     0.198 A 
ATOM     82  F   UNL A   1      36.476  31.691  32.884  1.00  0.00    -0.203 F 
ATOM     83  F   UNL A   1      35.612  34.199  28.132  1.00  0.00    -0.200 F 
ATOM     84  C   UNL A   1      34.826  33.510  30.243  1.00  0.00     0.200 A 
ATOM     85  F   UNL A   1      34.074  32.728  32.335  1.00  0.00    -0.200 F 
ATOM     86  F   UNL A   1      33.594  33.947  29.946  1.00  0.00    -0.200 F 
ENDBRANCH  52  76
BRANCH  64  87
ATOM     87  C   UNL A   1      42.403  29.872  33.594  1.00  0.00     0.064 A 
ATOM     88  C   UNL A   1      41.817  28.603  33.434  1.00  0.00     0.173 A 
ATOM     89  C   UNL A   1      42.753  30.254  34.895  1.00  0.00     0.173 A 
ATOM     90  F   UNL A   1      41.538  28.119  32.218  1.00  0.00    -0.203 F 
ATOM     91  C   UNL A   1      41.558  27.779  34.529  1.00  0.00     0.198 A 
ATOM     92  C   UNL A   1      42.528  29.416  35.983  1.00  0.00     0.198 A 
ATOM     93  F   UNL A   1      43.363  31.431  35.106  1.00  0.00    -0.203 F 
ATOM     94  F   UNL A   1      40.988  26.578  34.350  1.00  0.00    -0.200 F 
ATOM     95  C   UNL A   1      41.921  28.185  35.803  1.00  0.00     0.200 A 
ATOM     96  F   UNL A   1      42.926  29.794  37.206  1.00  0.00    -0.200 F 
ATOM     97  F   UNL A   1      41.709  27.378  36.853  1.00  0.00    -0.200 F 
ENDBRANCH  64  87
ENDBRANCH  38  39
ENDBRANCH  30  33
ENDBRANCH  28  29
ENDBRANCH  27  28
ENDBRANCH   1  27
TORSDOF 13
ENDMDL
