MODEL 1
REMARK VINA RESULT:     -13.2      0.000      0.000
REMARK SMILES Cc1cccc(C(=O)Nc2ccc(-c3nnc(S[C@H](C(=O)NCCCNC(=O)c4ccc(-c5c6nc(c(-c7c(F)c(F)c(F)c(F)c7F)c7ccc([nH]7)c(-c7c(F)c(F)c(F)c(F)c7F)c7nc(c(-c8c(F)c(F)c(F)c(F)c8F)c8ccc5[nH]8)C=C7)C=C6)cc4)C(C)C)n3C)cc2)c1
REMARK SMILES IDX 20 1 21 2 22 3 19 5 18 6 17 7 14 8 15 9 95 10 16 11 96 12
REMARK SMILES IDX 13 13 10 14 11 15 98 16 12 17 97 18 9 19 7 20 8 21 6 23 1 24
REMARK SMILES IDX 2 25 3 26 99 27 4 28 5 29 92 30 93 31 94 32 23 33 24 34
REMARK SMILES IDX 25 35 26 36 27 37 28 39 29 40 30 41 91 42 31 43 90 44 32 45
REMARK SMILES IDX 33 46 34 47 84 48 35 49 89 50 83 51 85 52 36 53 88 54 82 55
REMARK SMILES IDX 81 56 37 58 69 59 49 60 68 61 50 62 53 63 67 64 86 65 51 66
REMARK SMILES IDX 52 67 66 69 87 70 54 71 38 72 39 73 47 74 40 75 41 76 45 77
REMARK SMILES IDX 48 78 42 79 43 80 46 81 44 82 70 83 71 84 79 85 72 86 73 87
REMARK SMILES IDX 77 88 80 89 74 90 75 91 78 92 76 93 55 94 56 95 64 96 57 97
REMARK SMILES IDX 58 98 62 99 65 100 59 101 60 102 63 103 61 104
REMARK H PARENT 22 4 9 22 26 38 85 57 53 68
REMARK Flexibility Score: inf
ROOT
ATOM      1  C   UNL A   1      30.776  25.979  26.102  1.00  0.00     0.233 C 
ATOM      2  O   UNL A   1      30.087  25.055  26.562  1.00  0.00    -0.274 OA
ATOM      3  N   UNL A   1      31.086  26.964  26.990  1.00  0.00    -0.355 N 
ATOM      4  H   UNL A   1      30.397  27.093  27.682  1.00  0.00     0.163 HD
ENDROOT
BRANCH   1   5
ATOM      5  C   UNL A   1      31.191  25.929  24.620  1.00  0.00     0.146 C 
BRANCH   5   6
ATOM      6  S   UNL A   1      31.592  24.237  24.027  1.00  0.00    -0.072 SA
BRANCH   6   7
ATOM      7  C   UNL A   1      33.268  24.041  23.688  1.00  0.00     0.192 A 
ATOM      8  C   UNL A   1      35.391  23.595  24.086  1.00  0.00     0.164 A 
ATOM      9  N   UNL A   1      35.219  23.748  22.782  1.00  0.00    -0.129 NA
ATOM     10  N   UNL A   1      34.189  23.887  24.698  1.00  0.00    -0.305 N 
ATOM     11  N   UNL A   1      33.892  24.031  22.538  1.00  0.00    -0.123 NA
ATOM     12  C   UNL A   1      33.994  24.105  26.109  1.00  0.00     0.154 C 
BRANCH   8  13
ATOM     13  C   UNL A   1      36.647  23.207  24.742  1.00  0.00     0.019 A 
ATOM     14  C   UNL A   1      38.865  22.291  26.226  1.00  0.00     0.041 A 
ATOM     15  C   UNL A   1      38.251  21.456  25.293  1.00  0.00     0.027 A 
ATOM     16  C   UNL A   1      38.463  23.624  26.318  1.00  0.00     0.027 A 
ATOM     17  C   UNL A   1      37.133  21.904  24.579  1.00  0.00     0.014 A 
ATOM     18  C   UNL A   1      37.346  24.072  25.598  1.00  0.00     0.014 A 
BRANCH  14  19
ATOM     19  N   UNL A   1      39.813  21.714  27.084  1.00  0.00    -0.322 N 
ATOM     20  C   UNL A   1      41.196  21.752  27.076  1.00  0.00     0.255 C 
ATOM     21  O   UNL A   1      41.803  20.978  27.819  1.00  0.00    -0.269 OA
ATOM     22  H   UNL A   1      39.426  21.188  27.821  1.00  0.00     0.170 HD
BRANCH  20  23
ATOM     23  C   UNL A   1      41.983  22.751  26.288  1.00  0.00     0.040 A 
ATOM     24  C   UNL A   1      45.001  22.966  23.978  1.00  0.00     0.044 C 
ATOM     25  C   UNL A   1      43.794  23.370  24.772  1.00  0.00    -0.050 A 
ATOM     26  C   UNL A   1      43.460  24.716  24.928  1.00  0.00     0.003 A 
ATOM     27  C   UNL A   1      42.994  22.396  25.383  1.00  0.00     0.017 A 
ATOM     28  C   UNL A   1      42.374  25.082  25.723  1.00  0.00     0.001 A 
ATOM     29  C   UNL A   1      41.654  24.107  26.417  1.00  0.00     0.014 A 
ENDBRANCH  20  23
ENDBRANCH  14  19
ENDBRANCH   8  13
ENDBRANCH   6   7
ENDBRANCH   5   6
BRANCH   5  30
ATOM     30  C   UNL A   1      30.399  26.753  23.570  1.00  0.00     0.006 C 
ATOM     31  C   UNL A   1      28.888  26.686  23.858  1.00  0.00     0.009 C 
ATOM     32  C   UNL A   1      30.759  28.248  23.472  1.00  0.00     0.009 C 
ENDBRANCH   5  30
ENDBRANCH   1   5
BRANCH   3  33
ATOM     33  C   UNL A   1      32.220  27.868  27.136  1.00  0.00     0.117 C 
BRANCH  33  34
ATOM     34  C   UNL A   1      31.844  29.342  27.205  1.00  0.00     0.042 C 
BRANCH  34  35
ATOM     35  C   UNL A   1      32.959  30.248  26.707  1.00  0.00     0.118 C 
BRANCH  35  36
ATOM     36  N   UNL A   1      33.222  31.429  27.532  1.00  0.00    -0.352 N 
ATOM     37  C   UNL A   1      34.300  31.688  28.382  1.00  0.00     0.251 C 
ATOM     38  H   UNL A   1      32.544  32.141  27.481  1.00  0.00     0.163 HD
ATOM     39  O   UNL A   1      34.365  32.712  29.015  1.00  0.00    -0.269 OA
BRANCH  37  40
ATOM     40  C   UNL A   1      35.428  30.719  28.390  1.00  0.00     0.039 A 
ATOM     41  C   UNL A   1      35.554  29.856  29.485  1.00  0.00     0.014 A 
ATOM     42  C   UNL A   1      36.476  30.884  27.497  1.00  0.00     0.014 A 
ATOM     43  C   UNL A   1      36.822  29.396  29.837  1.00  0.00     0.010 A 
ATOM     44  C   UNL A   1      37.744  30.566  27.929  1.00  0.00     0.010 A 
ATOM     45  C   UNL A   1      37.925  29.873  29.132  1.00  0.00    -0.014 A 
BRANCH  45  46
ATOM     46  C   UNL A   1      39.296  29.805  29.625  1.00  0.00     0.031 A 
ATOM     47  C   UNL A   1      40.102  28.580  29.423  1.00  0.00     0.074 A 
ATOM     48  C   UNL A   1      39.884  30.915  30.132  1.00  0.00     0.049 A 
ATOM     49  N   UNL A   1      41.158  28.288  30.102  1.00  0.00    -0.248 NA
ATOM     50  C   UNL A   1      39.759  27.558  28.442  1.00  0.00     0.031 C 
ATOM     51  C   UNL A   1      41.315  31.135  30.340  1.00  0.00     0.029 A 
ATOM     52  N   UNL A   1      39.273  32.031  30.733  1.00  0.00    -0.354 N 
ATOM     53  C   UNL A   1      41.783  27.232  29.481  1.00  0.00     0.074 A 
ATOM     54  C   UNL A   1      40.844  26.780  28.482  1.00  0.00     0.031 C 
ATOM     55  C   UNL A   1      41.479  32.104  31.254  1.00  0.00     0.029 A 
ATOM     56  C   UNL A   1      40.162  32.436  31.761  1.00  0.00     0.049 A 
ATOM     57  H   UNL A   1      38.412  32.443  30.493  1.00  0.00     0.167 HD
ATOM     58  C   UNL A   1      43.078  26.944  29.801  1.00  0.00     0.037 A 
ATOM     59  C   UNL A   1      39.806  32.411  33.078  1.00  0.00     0.037 A 
ATOM     60  C   UNL A   1      43.564  27.819  30.865  1.00  0.00     0.049 A 
ATOM     61  C   UNL A   1      40.696  31.551  33.942  1.00  0.00     0.074 A 
ATOM     62  C   UNL A   1      44.345  28.964  30.860  1.00  0.00     0.029 A 
ATOM     63  N   UNL A   1      42.992  27.740  32.130  1.00  0.00    -0.354 N 
ATOM     64  N   UNL A   1      41.479  30.619  33.476  1.00  0.00    -0.248 NA
ATOM     65  C   UNL A   1      40.753  31.648  35.397  1.00  0.00     0.031 C 
ATOM     66  C   UNL A   1      44.236  29.579  32.131  1.00  0.00     0.029 A 
ATOM     67  C   UNL A   1      43.392  28.805  32.910  1.00  0.00     0.049 A 
ATOM     68  H   UNL A   1      42.386  27.023  32.427  1.00  0.00     0.167 HD
ATOM     69  C   UNL A   1      42.112  29.983  34.515  1.00  0.00     0.074 A 
ATOM     70  C   UNL A   1      41.640  30.682  35.695  1.00  0.00     0.031 C 
ATOM     71  C   UNL A   1      42.955  28.929  34.293  1.00  0.00     0.037 A 
BRANCH  58  72
ATOM     72  C   UNL A   1      43.987  26.070  28.964  1.00  0.00     0.064 A 
ATOM     73  C   UNL A   1      43.927  24.661  29.055  1.00  0.00     0.173 A 
ATOM     74  C   UNL A   1      44.977  26.555  28.089  1.00  0.00     0.173 A 
ATOM     75  F   UNL A   1      42.962  24.042  29.746  1.00  0.00    -0.203 F 
ATOM     76  C   UNL A   1      44.861  23.824  28.436  1.00  0.00     0.198 A 
ATOM     77  C   UNL A   1      45.947  25.724  27.517  1.00  0.00     0.198 A 
ATOM     78  F   UNL A   1      45.000  27.836  27.706  1.00  0.00    -0.203 F 
ATOM     79  F   UNL A   1      44.754  22.495  28.571  1.00  0.00    -0.200 F 
ATOM     80  C   UNL A   1      45.897  24.359  27.703  1.00  0.00     0.200 A 
ATOM     81  F   UNL A   1      46.930  26.262  26.779  1.00  0.00    -0.200 F 
ATOM     82  F   UNL A   1      46.823  23.562  27.151  1.00  0.00    -0.200 F 
ENDBRANCH  58  72
BRANCH  59  83
ATOM     83  C   UNL A   1      38.352  32.629  33.289  1.00  0.00     0.064 A 
ATOM     84  C   UNL A   1      37.880  33.956  33.311  1.00  0.00     0.173 A 
ATOM     85  C   UNL A   1      37.421  31.612  33.052  1.00  0.00     0.173 A 
ATOM     86  F   UNL A   1      38.735  34.967  33.535  1.00  0.00    -0.203 F 
ATOM     87  C   UNL A   1      36.563  34.260  32.978  1.00  0.00     0.198 A 
ATOM     88  C   UNL A   1      36.097  31.921  32.733  1.00  0.00     0.198 A 
ATOM     89  F   UNL A   1      37.815  30.332  33.000  1.00  0.00    -0.203 F 
ATOM     90  F   UNL A   1      36.175  35.540  32.885  1.00  0.00    -0.200 F 
ATOM     91  C   UNL A   1      35.681  33.243  32.657  1.00  0.00     0.200 A 
ATOM     92  F   UNL A   1      35.248  30.940  32.393  1.00  0.00    -0.200 F 
ATOM     93  F   UNL A   1      34.444  33.536  32.232  1.00  0.00    -0.200 F 
ENDBRANCH  59  83
BRANCH  71  94
ATOM     94  C   UNL A   1      43.528  27.966  35.316  1.00  0.00     0.064 A 
ATOM     95  C   UNL A   1      44.583  28.264  36.193  1.00  0.00     0.173 A 
ATOM     96  C   UNL A   1      42.905  26.707  35.540  1.00  0.00     0.173 A 
ATOM     97  F   UNL A   1      45.188  29.457  36.184  1.00  0.00    -0.203 F 
ATOM     98  C   UNL A   1      45.017  27.361  37.172  1.00  0.00     0.198 A 
ATOM     99  C   UNL A   1      43.299  25.838  36.557  1.00  0.00     0.198 A 
ATOM    100  F   UNL A   1      41.869  26.289  34.799  1.00  0.00    -0.203 F 
ATOM    101  F   UNL A   1      46.056  27.683  37.954  1.00  0.00    -0.200 F 
ATOM    102  C   UNL A   1      44.367  26.157  37.364  1.00  0.00     0.200 A 
ATOM    103  F   UNL A   1      42.618  24.701  36.762  1.00  0.00    -0.200 F 
ATOM    104  F   UNL A   1      44.754  25.322  38.336  1.00  0.00    -0.200 F 
ENDBRANCH  71  94
ENDBRANCH  45  46
ENDBRANCH  37  40
ENDBRANCH  35  36
ENDBRANCH  34  35
ENDBRANCH  33  34
ENDBRANCH   3  33
TORSDOF 16
ENDMDL
MODEL 2
REMARK VINA RESULT:     -12.9      3.011      9.980
REMARK SMILES Cc1cccc(C(=O)Nc2ccc(-c3nnc(S[C@H](C(=O)NCCCNC(=O)c4ccc(-c5c6nc(c(-c7c(F)c(F)c(F)c(F)c7F)c7ccc([nH]7)c(-c7c(F)c(F)c(F)c(F)c7F)c7nc(c(-c8c(F)c(F)c(F)c(F)c8F)c8ccc5[nH]8)C=C7)C=C6)cc4)C(C)C)n3C)cc2)c1
REMARK SMILES IDX 20 1 21 2 22 3 19 5 18 6 17 7 14 8 15 9 95 10 16 11 96 12
REMARK SMILES IDX 13 13 10 14 11 15 98 16 12 17 97 18 9 19 7 20 8 21 6 23 1 24
REMARK SMILES IDX 2 25 3 26 99 27 4 28 5 29 92 30 93 31 94 32 23 33 24 34
REMARK SMILES IDX 25 35 26 36 27 37 28 39 29 40 30 41 91 42 31 43 90 44 32 45
REMARK SMILES IDX 33 46 34 47 84 48 35 49 89 50 83 51 85 52 36 53 88 54 82 55
REMARK SMILES IDX 81 56 37 58 69 59 49 60 68 61 50 62 53 63 67 64 86 65 51 66
REMARK SMILES IDX 52 67 66 69 87 70 54 71 38 72 39 73 47 74 40 75 41 76 45 77
REMARK SMILES IDX 48 78 42 79 43 80 46 81 44 82 70 83 71 84 79 85 72 86 73 87
REMARK SMILES IDX 77 88 80 89 74 90 75 91 78 92 76 93 55 94 56 95 64 96 57 97
REMARK SMILES IDX 58 98 62 99 65 100 59 101 60 102 63 103 61 104
REMARK H PARENT 22 4 9 22 26 38 85 57 53 68
REMARK Flexibility Score: inf
ROOT
ATOM      1  C   UNL A   1      34.044  20.729  25.936  1.00  0.00     0.233 C 
ATOM      2  O   UNL A   1      33.597  21.178  27.002  1.00  0.00    -0.274 OA
ATOM      3  N   UNL A   1      35.364  20.982  25.712  1.00  0.00    -0.355 N 
ATOM      4  H   UNL A   1      35.671  21.825  26.117  1.00  0.00     0.163 HD
ENDROOT
BRANCH   1   5
ATOM      5  C   UNL A   1      33.094  19.965  24.995  1.00  0.00     0.146 C 
BRANCH   5   6
ATOM      6  S   UNL A   1      32.624  20.917  23.496  1.00  0.00    -0.072 SA
BRANCH   6   7
ATOM      7  C   UNL A   1      33.422  22.439  23.409  1.00  0.00     0.192 A 
ATOM      8  C   UNL A   1      33.819  24.563  23.853  1.00  0.00     0.164 A 
ATOM      9  N   UNL A   1      34.817  24.080  23.131  1.00  0.00    -0.129 NA
ATOM     10  N   UNL A   1      32.862  23.573  23.951  1.00  0.00    -0.305 N 
ATOM     11  N   UNL A   1      34.563  22.754  22.851  1.00  0.00    -0.123 NA
ATOM     12  C   UNL A   1      31.510  23.751  24.417  1.00  0.00     0.154 C 
BRANCH   8  13
ATOM     13  C   UNL A   1      33.751  25.917  24.419  1.00  0.00     0.019 A 
ATOM     14  C   UNL A   1      33.284  28.469  25.530  1.00  0.00     0.041 A 
ATOM     15  C   UNL A   1      33.347  27.345  26.354  1.00  0.00     0.027 A 
ATOM     16  C   UNL A   1      33.591  28.340  24.176  1.00  0.00     0.027 A 
ATOM     17  C   UNL A   1      33.550  26.077  25.796  1.00  0.00     0.014 A 
ATOM     18  C   UNL A   1      33.800  27.070  23.620  1.00  0.00     0.014 A 
BRANCH  14  19
ATOM     19  N   UNL A   1      32.833  29.666  26.105  1.00  0.00    -0.322 N 
ATOM     20  C   UNL A   1      31.817  30.530  25.738  1.00  0.00     0.255 C 
ATOM     21  O   UNL A   1      31.764  31.632  26.289  1.00  0.00    -0.269 OA
ATOM     22  H   UNL A   1      33.326  29.940  26.912  1.00  0.00     0.170 HD
BRANCH  20  23
ATOM     23  C   UNL A   1      30.728  30.156  24.782  1.00  0.00     0.040 A 
ATOM     24  C   UNL A   1      27.655  31.632  23.088  1.00  0.00     0.044 C 
ATOM     25  C   UNL A   1      28.734  30.660  23.469  1.00  0.00    -0.050 A 
ATOM     26  C   UNL A   1      28.666  29.326  23.064  1.00  0.00     0.003 A 
ATOM     27  C   UNL A   1      29.817  31.079  24.250  1.00  0.00     0.017 A 
ATOM     28  C   UNL A   1      29.640  28.417  23.480  1.00  0.00     0.001 A 
ATOM     29  C   UNL A   1      30.652  28.825  24.352  1.00  0.00     0.014 A 
ENDBRANCH  20  23
ENDBRANCH  14  19
ENDBRANCH   8  13
ENDBRANCH   6   7
ENDBRANCH   5   6
BRANCH   5  30
ATOM     30  C   UNL A   1      33.355  18.466  24.688  1.00  0.00     0.006 C 
ATOM     31  C   UNL A   1      32.579  17.571  25.672  1.00  0.00     0.009 C 
ATOM     32  C   UNL A   1      32.976  17.990  23.273  1.00  0.00     0.009 C 
ENDBRANCH   5  30
ENDBRANCH   1   5
BRANCH   3  33
ATOM     33  C   UNL A   1      36.419  20.270  25.000  1.00  0.00     0.117 C 
BRANCH  33  34
ATOM     34  C   UNL A   1      37.610  21.136  24.613  1.00  0.00     0.042 C 
BRANCH  34  35
ATOM     35  C   UNL A   1      38.058  22.043  25.749  1.00  0.00     0.118 C 
BRANCH  35  36
ATOM     36  N   UNL A   1      39.469  21.923  26.126  1.00  0.00    -0.352 N 
ATOM     37  C   UNL A   1      40.358  22.919  26.539  1.00  0.00     0.251 C 
ATOM     38  H   UNL A   1      39.844  21.014  26.082  1.00  0.00     0.163 HD
ATOM     39  O   UNL A   1      41.506  22.661  26.801  1.00  0.00    -0.269 OA
BRANCH  37  40
ATOM     40  C   UNL A   1      39.816  24.285  26.768  1.00  0.00     0.039 A 
ATOM     41  C   UNL A   1      40.432  25.360  26.116  1.00  0.00     0.014 A 
ATOM     42  C   UNL A   1      38.939  24.504  27.820  1.00  0.00     0.014 A 
ATOM     43  C   UNL A   1      40.390  26.620  26.711  1.00  0.00     0.010 A 
ATOM     44  C   UNL A   1      39.030  25.703  28.491  1.00  0.00     0.010 A 
ATOM     45  C   UNL A   1      39.805  26.746  27.969  1.00  0.00    -0.014 A 
BRANCH  45  46
ATOM     46  C   UNL A   1      40.040  27.872  28.866  1.00  0.00     0.031 A 
ATOM     47  C   UNL A   1      39.080  28.997  28.917  1.00  0.00     0.074 A 
ATOM     48  C   UNL A   1      41.053  27.818  29.762  1.00  0.00     0.049 A 
ATOM     49  N   UNL A   1      39.358  30.165  29.389  1.00  0.00    -0.248 NA
ATOM     50  C   UNL A   1      37.718  28.903  28.406  1.00  0.00     0.031 C 
ATOM     51  C   UNL A   1      41.226  28.659  30.946  1.00  0.00     0.029 A 
ATOM     52  N   UNL A   1      42.251  27.083  29.685  1.00  0.00    -0.354 N 
ATOM     53  C   UNL A   1      38.179  30.862  29.515  1.00  0.00     0.074 A 
ATOM     54  C   UNL A   1      37.193  30.051  28.840  1.00  0.00     0.031 C 
ATOM     55  C   UNL A   1      42.518  28.643  31.308  1.00  0.00     0.029 A 
ATOM     56  C   UNL A   1      43.235  27.906  30.287  1.00  0.00     0.049 A 
ATOM     57  H   UNL A   1      42.378  26.188  29.297  1.00  0.00     0.167 HD
ATOM     58  C   UNL A   1      38.150  31.987  30.288  1.00  0.00     0.037 A 
ATOM     59  C   UNL A   1      44.304  28.385  29.587  1.00  0.00     0.037 A 
ATOM     60  C   UNL A   1      39.479  32.300  30.808  1.00  0.00     0.049 A 
ATOM     61  C   UNL A   1      44.407  29.891  29.570  1.00  0.00     0.074 A 
ATOM     62  C   UNL A   1      40.088  32.078  32.034  1.00  0.00     0.029 A 
ATOM     63  N   UNL A   1      40.493  32.654  29.925  1.00  0.00    -0.354 N 
ATOM     64  N   UNL A   1      43.412  30.689  29.839  1.00  0.00    -0.248 NA
ATOM     65  C   UNL A   1      45.623  30.617  29.220  1.00  0.00     0.031 C 
ATOM     66  C   UNL A   1      41.479  32.295  31.882  1.00  0.00     0.029 A 
ATOM     67  C   UNL A   1      41.715  32.654  30.566  1.00  0.00     0.049 A 
ATOM     68  H   UNL A   1      40.358  32.874  28.975  1.00  0.00     0.167 HD
ATOM     69  C   UNL A   1      43.810  31.994  29.684  1.00  0.00     0.074 A 
ATOM     70  C   UNL A   1      45.210  31.894  29.318  1.00  0.00     0.031 C 
ATOM     71  C   UNL A   1      42.933  33.028  29.861  1.00  0.00     0.037 A 
BRANCH  58  72
ATOM     72  C   UNL A   1      36.882  32.634  30.802  1.00  0.00     0.064 A 
ATOM     73  C   UNL A   1      36.086  33.442  29.959  1.00  0.00     0.173 A 
ATOM     74  C   UNL A   1      36.420  32.544  32.128  1.00  0.00     0.173 A 
ATOM     75  F   UNL A   1      36.319  33.529  28.644  1.00  0.00    -0.203 F 
ATOM     76  C   UNL A   1      35.010  34.197  30.435  1.00  0.00     0.198 A 
ATOM     77  C   UNL A   1      35.382  33.343  32.618  1.00  0.00     0.198 A 
ATOM     78  F   UNL A   1      36.914  31.635  32.976  1.00  0.00    -0.203 F 
ATOM     79  F   UNL A   1      34.300  34.951  29.584  1.00  0.00    -0.200 F 
ATOM     80  C   UNL A   1      34.685  34.182  31.773  1.00  0.00     0.200 A 
ATOM     81  F   UNL A   1      35.060  33.290  33.919  1.00  0.00    -0.200 F 
ATOM     82  F   UNL A   1      33.687  34.943  32.240  1.00  0.00    -0.200 F 
ENDBRANCH  58  72
BRANCH  59  83
ATOM     83  C   UNL A   1      44.729  27.481  28.488  1.00  0.00     0.064 A 
ATOM     84  C   UNL A   1      45.447  26.319  28.830  1.00  0.00     0.173 A 
ATOM     85  C   UNL A   1      44.109  27.517  27.235  1.00  0.00     0.173 A 
ATOM     86  F   UNL A   1      46.061  26.236  30.022  1.00  0.00    -0.203 F 
ATOM     87  C   UNL A   1      45.432  25.192  28.011  1.00  0.00     0.198 A 
ATOM     88  C   UNL A   1      44.108  26.390  26.410  1.00  0.00     0.198 A 
ATOM     89  F   UNL A   1      43.396  28.589  26.862  1.00  0.00    -0.203 F 
ATOM     90  F   UNL A   1      46.019  24.059  28.421  1.00  0.00    -0.200 F 
ATOM     91  C   UNL A   1      44.734  25.219  26.816  1.00  0.00     0.200 A 
ATOM     92  F   UNL A   1      43.409  26.403  25.266  1.00  0.00    -0.200 F 
ATOM     93  F   UNL A   1      44.626  24.106  26.077  1.00  0.00    -0.200 F 
ENDBRANCH  59  83
BRANCH  71  94
ATOM     94  C   UNL A   1      43.128  34.486  29.490  1.00  0.00     0.064 A 
ATOM     95  C   UNL A   1      43.215  35.542  30.412  1.00  0.00     0.173 A 
ATOM     96  C   UNL A   1      43.382  34.853  28.140  1.00  0.00     0.173 A 
ATOM     97  F   UNL A   1      43.118  35.334  31.729  1.00  0.00    -0.203 F 
ATOM     98  C   UNL A   1      43.477  36.860  30.014  1.00  0.00     0.198 A 
ATOM     99  C   UNL A   1      43.705  36.154  27.756  1.00  0.00     0.198 A 
ATOM    100  F   UNL A   1      43.358  33.953  27.146  1.00  0.00    -0.203 F 
ATOM    101  F   UNL A   1      43.508  37.834  30.935  1.00  0.00    -0.200 F 
ATOM    102  C   UNL A   1      43.736  37.163  28.692  1.00  0.00     0.200 A 
ATOM    103  F   UNL A   1      44.009  36.415  26.477  1.00  0.00    -0.200 F 
ATOM    104  F   UNL A   1      44.038  38.415  28.327  1.00  0.00    -0.200 F 
ENDBRANCH  71  94
ENDBRANCH  45  46
ENDBRANCH  37  40
ENDBRANCH  35  36
ENDBRANCH  34  35
ENDBRANCH  33  34
ENDBRANCH   3  33
TORSDOF 16
ENDMDL
MODEL 3
REMARK VINA RESULT:     -12.3      2.984      9.544
REMARK SMILES Cc1cccc(C(=O)Nc2ccc(-c3nnc(S[C@H](C(=O)NCCCNC(=O)c4ccc(-c5c6nc(c(-c7c(F)c(F)c(F)c(F)c7F)c7ccc([nH]7)c(-c7c(F)c(F)c(F)c(F)c7F)c7nc(c(-c8c(F)c(F)c(F)c(F)c8F)c8ccc5[nH]8)C=C7)C=C6)cc4)C(C)C)n3C)cc2)c1
REMARK SMILES IDX 20 1 21 2 22 3 19 5 18 6 17 7 14 8 15 9 95 10 16 11 96 12
REMARK SMILES IDX 13 13 10 14 11 15 98 16 12 17 97 18 9 19 7 20 8 21 6 23 1 24
REMARK SMILES IDX 2 25 3 26 99 27 4 28 5 29 92 30 93 31 94 32 23 33 24 34
REMARK SMILES IDX 25 35 26 36 27 37 28 39 29 40 30 41 91 42 31 43 90 44 32 45
REMARK SMILES IDX 33 46 34 47 84 48 35 49 89 50 83 51 85 52 36 53 88 54 82 55
REMARK SMILES IDX 81 56 37 58 69 59 49 60 68 61 50 62 53 63 67 64 86 65 51 66
REMARK SMILES IDX 52 67 66 69 87 70 54 71 38 72 39 73 47 74 40 75 41 76 45 77
REMARK SMILES IDX 48 78 42 79 43 80 46 81 44 82 70 83 71 84 79 85 72 86 73 87
REMARK SMILES IDX 77 88 80 89 74 90 75 91 78 92 76 93 55 94 56 95 64 96 57 97
REMARK SMILES IDX 58 98 62 99 65 100 59 101 60 102 63 103 61 104
REMARK H PARENT 22 4 9 22 26 38 85 57 53 68
REMARK Flexibility Score: inf
ROOT
ATOM      1  C   UNL A   1      33.610  21.045  25.645  1.00  0.00     0.233 C 
ATOM      2  O   UNL A   1      33.006  21.400  26.668  1.00  0.00    -0.274 OA
ATOM      3  N   UNL A   1      34.915  21.430  25.582  1.00  0.00    -0.355 N 
ATOM      4  H   UNL A   1      35.090  22.279  26.048  1.00  0.00     0.163 HD
ENDROOT
BRANCH   1   5
ATOM      5  C   UNL A   1      32.849  20.238  24.576  1.00  0.00     0.146 C 
BRANCH   5   6
ATOM      6  S   UNL A   1      32.447  21.212  23.070  1.00  0.00    -0.072 SA
BRANCH   6   7
ATOM      7  C   UNL A   1      33.157  22.780  23.095  1.00  0.00     0.192 A 
ATOM      8  C   UNL A   1      33.360  24.920  23.586  1.00  0.00     0.164 A 
ATOM      9  N   UNL A   1      34.478  24.501  23.014  1.00  0.00    -0.129 NA
ATOM     10  N   UNL A   1      32.460  23.875  23.549  1.00  0.00    -0.305 N 
ATOM     11  N   UNL A   1      34.346  23.164  22.705  1.00  0.00    -0.123 NA
ATOM     12  C   UNL A   1      31.047  23.970  23.818  1.00  0.00     0.154 C 
BRANCH   8  13
ATOM     13  C   UNL A   1      33.133  26.264  24.134  1.00  0.00     0.019 A 
ATOM     14  C   UNL A   1      32.363  28.788  25.134  1.00  0.00     0.041 A 
ATOM     15  C   UNL A   1      32.274  27.655  25.943  1.00  0.00     0.027 A 
ATOM     16  C   UNL A   1      32.964  28.686  23.880  1.00  0.00     0.027 A 
ATOM     17  C   UNL A   1      32.630  26.400  25.434  1.00  0.00     0.014 A 
ATOM     18  C   UNL A   1      33.325  27.429  23.374  1.00  0.00     0.014 A 
BRANCH  14  19
ATOM     19  N   UNL A   1      31.764  29.966  25.604  1.00  0.00    -0.322 N 
ATOM     20  C   UNL A   1      32.161  30.868  26.575  1.00  0.00     0.255 C 
ATOM     21  O   UNL A   1      31.344  31.711  26.954  1.00  0.00    -0.269 OA
ATOM     22  H   UNL A   1      30.910  30.189  25.168  1.00  0.00     0.170 HD
BRANCH  20  23
ATOM     23  C   UNL A   1      33.556  30.933  27.112  1.00  0.00     0.040 A 
ATOM     24  C   UNL A   1      36.121  33.454  28.359  1.00  0.00     0.044 C 
ATOM     25  C   UNL A   1      35.478  32.146  28.001  1.00  0.00    -0.050 A 
ATOM     26  C   UNL A   1      36.218  30.962  28.009  1.00  0.00     0.003 A 
ATOM     27  C   UNL A   1      34.127  32.100  27.638  1.00  0.00     0.017 A 
ATOM     28  C   UNL A   1      35.626  29.763  27.611  1.00  0.00     0.001 A 
ATOM     29  C   UNL A   1      34.310  29.752  27.143  1.00  0.00     0.014 A 
ENDBRANCH  20  23
ENDBRANCH  14  19
ENDBRANCH   8  13
ENDBRANCH   6   7
ENDBRANCH   5   6
BRANCH   5  30
ATOM     30  C   UNL A   1      33.293  18.789  24.242  1.00  0.00     0.006 C 
ATOM     31  C   UNL A   1      32.922  17.833  25.391  1.00  0.00     0.009 C 
ATOM     32  C   UNL A   1      32.702  18.179  22.957  1.00  0.00     0.009 C 
ENDBRANCH   5  30
ENDBRANCH   1   5
BRANCH   3  33
ATOM     33  C   UNL A   1      36.107  20.854  24.971  1.00  0.00     0.117 C 
BRANCH  33  34
ATOM     34  C   UNL A   1      37.139  21.879  24.521  1.00  0.00     0.042 C 
BRANCH  34  35
ATOM     35  C   UNL A   1      37.780  22.607  25.694  1.00  0.00     0.118 C 
BRANCH  35  36
ATOM     36  N   UNL A   1      39.195  22.303  25.921  1.00  0.00    -0.352 N 
ATOM     37  C   UNL A   1      40.202  23.127  26.431  1.00  0.00     0.251 C 
ATOM     38  H   UNL A   1      39.477  21.391  25.679  1.00  0.00     0.163 HD
ATOM     39  O   UNL A   1      41.335  22.731  26.542  1.00  0.00    -0.269 OA
BRANCH  37  40
ATOM     40  C   UNL A   1      39.810  24.464  26.952  1.00  0.00     0.039 A 
ATOM     41  C   UNL A   1      40.270  25.599  26.274  1.00  0.00     0.014 A 
ATOM     42  C   UNL A   1      39.273  24.570  28.226  1.00  0.00     0.014 A 
ATOM     43  C   UNL A   1      40.456  26.780  26.991  1.00  0.00     0.010 A 
ATOM     44  C   UNL A   1      39.604  25.680  28.970  1.00  0.00     0.010 A 
ATOM     45  C   UNL A   1      40.251  26.765  28.368  1.00  0.00    -0.014 A 
BRANCH  45  46
ATOM     46  C   UNL A   1      40.780  27.774  29.280  1.00  0.00     0.031 A 
ATOM     47  C   UNL A   1      39.887  28.815  29.838  1.00  0.00     0.074 A 
ATOM     48  C   UNL A   1      42.050  27.668  29.737  1.00  0.00     0.049 A 
ATOM     49  N   UNL A   1      40.301  29.924  30.349  1.00  0.00    -0.248 NA
ATOM     50  C   UNL A   1      38.435  28.698  29.839  1.00  0.00     0.031 C 
ATOM     51  C   UNL A   1      42.629  28.352  30.893  1.00  0.00     0.029 A 
ATOM     52  N   UNL A   1      43.148  27.032  29.129  1.00  0.00    -0.354 N 
ATOM     53  C   UNL A   1      39.239  30.517  30.990  1.00  0.00     0.074 A 
ATOM     54  C   UNL A   1      38.087  29.740  30.598  1.00  0.00     0.031 C 
ATOM     55  C   UNL A   1      43.963  28.375  30.763  1.00  0.00     0.029 A 
ATOM     56  C   UNL A   1      44.272  27.832  29.455  1.00  0.00     0.049 A 
ATOM     57  H   UNL A   1      43.138  26.208  28.591  1.00  0.00     0.167 HD
ATOM     58  C   UNL A   1      39.477  31.523  31.882  1.00  0.00     0.037 A 
ATOM     59  C   UNL A   1      45.007  28.472  28.500  1.00  0.00     0.037 A 
ATOM     60  C   UNL A   1      40.899  31.853  31.934  1.00  0.00     0.049 A 
ATOM     61  C   UNL A   1      45.075  29.970  28.673  1.00  0.00     0.074 A 
ATOM     62  C   UNL A   1      41.914  31.509  32.813  1.00  0.00     0.029 A 
ATOM     63  N   UNL A   1      41.518  32.390  30.811  1.00  0.00    -0.354 N 
ATOM     64  N   UNL A   1      44.235  30.655  29.396  1.00  0.00    -0.248 NA
ATOM     65  C   UNL A   1      46.070  30.816  28.024  1.00  0.00     0.031 C 
ATOM     66  C   UNL A   1      43.152  31.838  32.210  1.00  0.00     0.029 A 
ATOM     67  C   UNL A   1      42.890  32.386  30.966  1.00  0.00     0.049 A 
ATOM     68  H   UNL A   1      41.044  32.726  30.016  1.00  0.00     0.167 HD
ATOM     69  C   UNL A   1      44.531  31.993  29.306  1.00  0.00     0.074 A 
ATOM     70  C   UNL A   1      45.703  32.038  28.454  1.00  0.00     0.031 C 
ATOM     71  C   UNL A   1      43.763  32.933  29.937  1.00  0.00     0.037 A 
BRANCH  58  72
ATOM     72  C   UNL A   1      38.473  32.009  32.905  1.00  0.00     0.064 A 
ATOM     73  C   UNL A   1      37.585  33.068  32.606  1.00  0.00     0.173 A 
ATOM     74  C   UNL A   1      38.365  31.512  34.217  1.00  0.00     0.173 A 
ATOM     75  F   UNL A   1      37.476  33.566  31.369  1.00  0.00    -0.203 F 
ATOM     76  C   UNL A   1      36.768  33.662  33.573  1.00  0.00     0.198 A 
ATOM     77  C   UNL A   1      37.593  32.142  35.199  1.00  0.00     0.198 A 
ATOM     78  F   UNL A   1      38.952  30.365  34.576  1.00  0.00    -0.203 F 
ATOM     79  F   UNL A   1      35.955  34.670  33.226  1.00  0.00    -0.200 F 
ATOM     80  C   UNL A   1      36.804  33.228  34.879  1.00  0.00     0.200 A 
ATOM     81  F   UNL A   1      37.618  31.684  36.459  1.00  0.00    -0.200 F 
ATOM     82  F   UNL A   1      36.060  33.828  35.817  1.00  0.00    -0.200 F 
ENDBRANCH  58  72
BRANCH  59  83
ATOM     83  C   UNL A   1      45.017  27.754  27.200  1.00  0.00     0.064 A 
ATOM     84  C   UNL A   1      45.850  26.626  27.075  1.00  0.00     0.173 A 
ATOM     85  C   UNL A   1      43.969  27.892  26.284  1.00  0.00     0.173 A 
ATOM     86  F   UNL A   1      46.871  26.448  27.930  1.00  0.00    -0.203 F 
ATOM     87  C   UNL A   1      45.566  25.615  26.161  1.00  0.00     0.198 A 
ATOM     88  C   UNL A   1      43.696  26.883  25.359  1.00  0.00     0.198 A 
ATOM     89  F   UNL A   1      43.131  28.936  26.365  1.00  0.00    -0.203 F 
ATOM     90  F   UNL A   1      46.303  24.495  26.151  1.00  0.00    -0.200 F 
ATOM     91  C   UNL A   1      44.469  25.730  25.325  1.00  0.00     0.200 A 
ATOM     92  F   UNL A   1      42.617  26.978  24.568  1.00  0.00    -0.200 F 
ATOM     93  F   UNL A   1      44.128  24.714  24.520  1.00  0.00    -0.200 F 
ENDBRANCH  59  83
BRANCH  71  94
ATOM     94  C   UNL A   1      43.789  34.437  29.743  1.00  0.00     0.064 A 
ATOM     95  C   UNL A   1      42.881  35.159  28.952  1.00  0.00     0.173 A 
ATOM     96  C   UNL A   1      44.688  35.239  30.499  1.00  0.00     0.173 A 
ATOM     97  F   UNL A   1      41.900  34.550  28.277  1.00  0.00    -0.203 F 
ATOM     98  C   UNL A   1      42.906  36.558  28.876  1.00  0.00     0.198 A 
ATOM     99  C   UNL A   1      44.667  36.634  30.469  1.00  0.00     0.198 A 
ATOM    100  F   UNL A   1      45.600  34.699  31.320  1.00  0.00    -0.203 F 
ATOM    101  F   UNL A   1      42.041  37.191  28.071  1.00  0.00    -0.200 F 
ATOM    102  C   UNL A   1      43.787  37.294  29.643  1.00  0.00     0.200 A 
ATOM    103  F   UNL A   1      45.493  37.329  31.265  1.00  0.00    -0.200 F 
ATOM    104  F   UNL A   1      43.769  38.632  29.606  1.00  0.00    -0.200 F 
ENDBRANCH  71  94
ENDBRANCH  45  46
ENDBRANCH  37  40
ENDBRANCH  35  36
ENDBRANCH  34  35
ENDBRANCH  33  34
ENDBRANCH   3  33
TORSDOF 16
ENDMDL
