MODEL 1
REMARK VINA RESULT:     -13.5      0.000      0.000
REMARK SMILES Cc1nsc(NC[C@@H]2C[C@H]3CC[C@@H]2C3)c1C(=O)NCCCNC(=O)c1ccc(-c2c3nc(c(-c4c(F)c(F)c(F)c(F)c4F)c4ccc([nH]4)c(-c4c(F)c(F)c(F)c(F)c4F)c4nc(c(-c5c(F)c(F)c(F)c(F)c5F)c5ccc2[nH]5)C=C4)C=C3)cc1
REMARK SMILES IDX 19 1 18 2 16 3 17 4 15 6 1 7 2 8 3 9 4 10 5 11 6 12 7 14
REMARK SMILES IDX 8 15 9 16 13 17 10 18 12 19 14 20 11 21 20 22 21 23 22 24
REMARK SMILES IDX 23 25 24 27 25 28 26 29 87 30 27 31 86 32 28 33 29 34 30 35
REMARK SMILES IDX 80 36 31 37 85 38 79 39 81 40 32 41 84 42 78 43 77 44 33 46
REMARK SMILES IDX 65 47 45 48 64 49 46 50 49 51 63 52 82 53 47 54 48 55 62 57
REMARK SMILES IDX 83 58 50 59 34 60 35 61 43 62 36 63 37 64 41 65 44 66 38 67
REMARK SMILES IDX 39 68 42 69 40 70 66 71 67 72 75 73 68 74 69 75 73 76 76 77
REMARK SMILES IDX 70 78 71 79 74 80 72 81 51 82 52 83 60 84 53 85 54 86 58 87
REMARK SMILES IDX 61 88 55 89 56 90 59 91 57 92
REMARK H PARENT 18 5 6 13 22 26 81 45 49 56
REMARK Flexibility Score: inf
ROOT
ATOM      1  C   UNL A   1      36.796  21.697  25.044  1.00  0.00     0.118 C 
ENDROOT
BRANCH   1   2
ATOM      2  N   UNL A   1      35.908  21.529  26.169  1.00  0.00    -0.352 N 
ATOM      3  C   UNL A   1      34.623  21.886  26.470  1.00  0.00     0.256 C 
ATOM      4  O   UNL A   1      34.275  21.427  27.571  1.00  0.00    -0.269 OA
ATOM      5  H   UNL A   1      36.334  21.033  26.904  1.00  0.00     0.163 HD
BRANCH   3   6
ATOM      6  C   UNL A   1      33.684  22.687  25.649  1.00  0.00     0.097 A 
ATOM      7  C   UNL A   1      34.517  25.242  25.484  1.00  0.00     0.069 C 
ATOM      8  C   UNL A   1      33.630  24.084  25.211  1.00  0.00     0.066 A 
ATOM      9  N   UNL A   1      32.591  24.426  24.446  1.00  0.00    -0.195 NA
ATOM     10  S   UNL A   1      31.612  23.146  24.227  1.00  0.00    -0.018 S 
ATOM     11  C   UNL A   1      32.527  22.042  25.157  1.00  0.00     0.122 A 
BRANCH  11  12
ATOM     12  N   UNL A   1      32.166  20.746  25.380  1.00  0.00    -0.375 N 
ATOM     13  H   UNL A   1      31.768  20.544  26.258  1.00  0.00     0.161 HD
BRANCH  12  14
ATOM     14  C   UNL A   1      32.307  19.640  24.462  1.00  0.00     0.117 C 
BRANCH  14  15
ATOM     15  C   UNL A   1      33.124  18.474  25.054  1.00  0.00     0.012 C 
ATOM     16  C   UNL A   1      34.599  18.514  24.576  1.00  0.00     0.009 C 
ATOM     17  C   UNL A   1      32.703  17.028  24.665  1.00  0.00    -0.006 C 
ATOM     18  C   UNL A   1      34.840  17.091  24.047  1.00  0.00    -0.011 C 
ATOM     19  C   UNL A   1      33.381  16.042  25.637  1.00  0.00     0.004 C 
ATOM     20  C   UNL A   1      33.500  16.776  23.385  1.00  0.00     0.007 C 
ATOM     21  C   UNL A   1      34.859  16.116  25.233  1.00  0.00     0.004 C 
ENDBRANCH  14  15
ENDBRANCH  12  14
ENDBRANCH  11  12
ENDBRANCH   3   6
ENDBRANCH   1   2
BRANCH   1  22
ATOM     22  C   UNL A   1      38.219  21.226  25.361  1.00  0.00     0.042 C 
BRANCH  22  23
ATOM     23  C   UNL A   1      38.992  22.208  26.221  1.00  0.00     0.118 C 
BRANCH  23  24
ATOM     24  N   UNL A   1      40.440  22.031  26.077  1.00  0.00    -0.352 N 
ATOM     25  C   UNL A   1      41.457  22.956  26.238  1.00  0.00     0.251 C 
ATOM     26  H   UNL A   1      40.732  21.123  25.832  1.00  0.00     0.163 HD
ATOM     27  O   UNL A   1      42.563  22.765  25.774  1.00  0.00    -0.269 OA
BRANCH  25  28
ATOM     28  C   UNL A   1      41.153  24.190  26.979  1.00  0.00     0.039 A 
ATOM     29  C   UNL A   1      41.744  24.458  28.215  1.00  0.00     0.014 A 
ATOM     30  C   UNL A   1      40.338  25.126  26.355  1.00  0.00     0.014 A 
ATOM     31  C   UNL A   1      41.587  25.728  28.761  1.00  0.00     0.010 A 
ATOM     32  C   UNL A   1      40.370  26.425  26.781  1.00  0.00     0.010 A 
ATOM     33  C   UNL A   1      40.931  26.722  28.014  1.00  0.00    -0.014 A 
BRANCH  33  34
ATOM     34  C   UNL A   1      40.903  28.107  28.470  1.00  0.00     0.031 A 
ATOM     35  C   UNL A   1      42.002  28.943  27.933  1.00  0.00     0.074 A 
ATOM     36  C   UNL A   1      39.881  28.649  29.168  1.00  0.00     0.049 A 
ATOM     37  N   UNL A   1      43.065  29.321  28.559  1.00  0.00    -0.248 NA
ATOM     38  C   UNL A   1      42.008  29.276  26.500  1.00  0.00     0.031 C 
ATOM     39  C   UNL A   1      38.568  28.056  29.461  1.00  0.00     0.029 A 
ATOM     40  N   UNL A   1      39.768  29.900  29.702  1.00  0.00    -0.354 N 
ATOM     41  C   UNL A   1      43.745  30.158  27.678  1.00  0.00     0.074 A 
ATOM     42  C   UNL A   1      43.177  29.914  26.380  1.00  0.00     0.031 C 
ATOM     43  C   UNL A   1      37.721  29.010  29.900  1.00  0.00     0.029 A 
ATOM     44  C   UNL A   1      38.485  30.219  30.130  1.00  0.00     0.049 A 
ATOM     45  H   UNL A   1      40.527  30.522  29.778  1.00  0.00     0.167 HD
ATOM     46  C   UNL A   1      44.471  31.202  28.166  1.00  0.00     0.037 A 
ATOM     47  C   UNL A   1      38.072  31.385  30.678  1.00  0.00     0.037 A 
ATOM     48  C   UNL A   1      44.619  31.084  29.597  1.00  0.00     0.049 A 
ATOM     49  C   UNL A   1      39.259  32.057  31.247  1.00  0.00     0.074 A 
ATOM     50  C   UNL A   1      45.398  30.370  30.478  1.00  0.00     0.029 A 
ATOM     51  N   UNL A   1      43.535  31.546  30.294  1.00  0.00    -0.354 N 
ATOM     52  N   UNL A   1      39.930  31.587  32.262  1.00  0.00    -0.248 NA
ATOM     53  C   UNL A   1      39.933  33.094  30.474  1.00  0.00     0.031 C 
ATOM     54  C   UNL A   1      44.676  30.325  31.710  1.00  0.00     0.029 A 
ATOM     55  C   UNL A   1      43.492  31.041  31.564  1.00  0.00     0.049 A 
ATOM     56  H   UNL A   1      42.867  32.168  29.925  1.00  0.00     0.167 HD
ATOM     57  C   UNL A   1      41.235  31.944  31.995  1.00  0.00     0.074 A 
ATOM     58  C   UNL A   1      41.154  33.011  31.008  1.00  0.00     0.031 C 
ATOM     59  C   UNL A   1      42.266  31.118  32.324  1.00  0.00     0.037 A 
BRANCH  46  60
ATOM     60  C   UNL A   1      44.610  32.563  27.511  1.00  0.00     0.064 A 
ATOM     61  C   UNL A   1      45.777  32.835  26.762  1.00  0.00     0.173 A 
ATOM     62  C   UNL A   1      43.835  33.693  27.848  1.00  0.00     0.173 A 
ATOM     63  F   UNL A   1      46.599  31.842  26.393  1.00  0.00    -0.203 F 
ATOM     64  C   UNL A   1      46.172  34.140  26.449  1.00  0.00     0.198 A 
ATOM     65  C   UNL A   1      44.207  34.990  27.490  1.00  0.00     0.198 A 
ATOM     66  F   UNL A   1      42.754  33.612  28.629  1.00  0.00    -0.203 F 
ATOM     67  F   UNL A   1      47.349  34.354  25.846  1.00  0.00    -0.200 F 
ATOM     68  C   UNL A   1      45.390  35.217  26.820  1.00  0.00     0.200 A 
ATOM     69  F   UNL A   1      43.445  36.022  27.879  1.00  0.00    -0.200 F 
ATOM     70  F   UNL A   1      45.793  36.471  26.577  1.00  0.00    -0.200 F 
ENDBRANCH  46  60
BRANCH  47  71
ATOM     71  C   UNL A   1      36.757  32.049  30.577  1.00  0.00     0.064 A 
ATOM     72  C   UNL A   1      35.874  32.077  31.667  1.00  0.00     0.173 A 
ATOM     73  C   UNL A   1      36.482  32.925  29.511  1.00  0.00     0.173 A 
ATOM     74  F   UNL A   1      36.090  31.290  32.730  1.00  0.00    -0.203 F 
ATOM     75  C   UNL A   1      34.802  32.972  31.712  1.00  0.00     0.198 A 
ATOM     76  C   UNL A   1      35.410  33.818  29.557  1.00  0.00     0.198 A 
ATOM     77  F   UNL A   1      37.308  33.000  28.458  1.00  0.00    -0.203 F 
ATOM     78  F   UNL A   1      34.021  33.024  32.800  1.00  0.00    -0.200 F 
ATOM     79  C   UNL A   1      34.582  33.853  30.666  1.00  0.00     0.200 A 
ATOM     80  F   UNL A   1      35.229  34.691  28.557  1.00  0.00    -0.200 F 
ATOM     81  F   UNL A   1      33.604  34.765  30.744  1.00  0.00    -0.200 F 
ENDBRANCH  47  71
BRANCH  59  82
ATOM     82  C   UNL A   1      42.043  30.145  33.438  1.00  0.00     0.064 A 
ATOM     83  C   UNL A   1      41.668  28.803  33.267  1.00  0.00     0.173 A 
ATOM     84  C   UNL A   1      42.273  30.593  34.746  1.00  0.00     0.173 A 
ATOM     85  F   UNL A   1      41.495  28.286  32.044  1.00  0.00    -0.203 F 
ATOM     86  C   UNL A   1      41.494  27.960  34.365  1.00  0.00     0.198 A 
ATOM     87  C   UNL A   1      42.133  29.742  35.836  1.00  0.00     0.198 A 
ATOM     88  F   UNL A   1      42.666  31.858  34.963  1.00  0.00    -0.203 F 
ATOM     89  F   UNL A   1      41.115  26.688  34.182  1.00  0.00    -0.200 F 
ATOM     90  C   UNL A   1      41.733  28.430  35.647  1.00  0.00     0.200 A 
ATOM     91  F   UNL A   1      42.400  30.193  37.070  1.00  0.00    -0.200 F 
ATOM     92  F   UNL A   1      41.593  27.613  36.701  1.00  0.00    -0.200 F 
ENDBRANCH  59  82
ENDBRANCH  33  34
ENDBRANCH  25  28
ENDBRANCH  23  24
ENDBRANCH  22  23
ENDBRANCH   1  22
TORSDOF 13
ENDMDL
MODEL 2
REMARK VINA RESULT:     -13.3      4.366      9.909
REMARK SMILES Cc1nsc(NC[C@@H]2C[C@H]3CC[C@@H]2C3)c1C(=O)NCCCNC(=O)c1ccc(-c2c3nc(c(-c4c(F)c(F)c(F)c(F)c4F)c4ccc([nH]4)c(-c4c(F)c(F)c(F)c(F)c4F)c4nc(c(-c5c(F)c(F)c(F)c(F)c5F)c5ccc2[nH]5)C=C4)C=C3)cc1
REMARK SMILES IDX 19 1 18 2 16 3 17 4 15 6 1 7 2 8 3 9 4 10 5 11 6 12 7 14
REMARK SMILES IDX 8 15 9 16 13 17 10 18 12 19 14 20 11 21 20 22 21 23 22 24
REMARK SMILES IDX 23 25 24 27 25 28 26 29 87 30 27 31 86 32 28 33 29 34 30 35
REMARK SMILES IDX 80 36 31 37 85 38 79 39 81 40 32 41 84 42 78 43 77 44 33 46
REMARK SMILES IDX 65 47 45 48 64 49 46 50 49 51 63 52 82 53 47 54 48 55 62 57
REMARK SMILES IDX 83 58 50 59 34 60 35 61 43 62 36 63 37 64 41 65 44 66 38 67
REMARK SMILES IDX 39 68 42 69 40 70 66 71 67 72 75 73 68 74 69 75 73 76 76 77
REMARK SMILES IDX 70 78 71 79 74 80 72 81 51 82 52 83 60 84 53 85 54 86 58 87
REMARK SMILES IDX 61 88 55 89 56 90 59 91 57 92
REMARK H PARENT 18 5 6 13 22 26 81 45 49 56
REMARK Flexibility Score: inf
ROOT
ATOM      1  C   UNL A   1      33.781  29.342  26.876  1.00  0.00     0.118 C 
ENDROOT
BRANCH   1   2
ATOM      2  N   UNL A   1      33.637  29.339  25.441  1.00  0.00    -0.352 N 
ATOM      3  C   UNL A   1      33.109  28.492  24.506  1.00  0.00     0.256 C 
ATOM      4  O   UNL A   1      33.160  28.989  23.369  1.00  0.00    -0.269 OA
ATOM      5  H   UNL A   1      34.014  30.150  25.030  1.00  0.00     0.163 HD
BRANCH   3   6
ATOM      6  C   UNL A   1      32.509  27.154  24.726  1.00  0.00     0.097 A 
ATOM      7  C   UNL A   1      34.403  25.372  25.422  1.00  0.00     0.069 C 
ATOM      8  C   UNL A   1      33.027  25.843  25.125  1.00  0.00     0.066 A 
ATOM      9  N   UNL A   1      32.134  24.857  25.225  1.00  0.00    -0.195 NA
ATOM     10  S   UNL A   1      30.653  25.401  24.828  1.00  0.00    -0.018 S 
ATOM     11  C   UNL A   1      31.123  27.010  24.491  1.00  0.00     0.122 A 
BRANCH  11  12
ATOM     12  N   UNL A   1      30.271  27.979  24.053  1.00  0.00    -0.375 N 
ATOM     13  H   UNL A   1      29.910  28.591  24.735  1.00  0.00     0.161 HD
BRANCH  12  14
ATOM     14  C   UNL A   1      29.841  28.201  22.692  1.00  0.00     0.117 C 
BRANCH  14  15
ATOM     15  C   UNL A   1      29.585  29.689  22.381  1.00  0.00     0.012 C 
ATOM     16  C   UNL A   1      29.692  30.563  23.660  1.00  0.00     0.009 C 
ATOM     17  C   UNL A   1      28.180  30.083  21.844  1.00  0.00    -0.006 C 
ATOM     18  C   UNL A   1      28.385  31.372  23.646  1.00  0.00    -0.011 C 
ATOM     19  C   UNL A   1      28.262  31.505  21.253  1.00  0.00     0.004 C 
ATOM     20  C   UNL A   1      27.387  30.340  23.125  1.00  0.00     0.007 C 
ATOM     21  C   UNL A   1      28.440  32.387  22.495  1.00  0.00     0.004 C 
ENDBRANCH  14  15
ENDBRANCH  12  14
ENDBRANCH  11  12
ENDBRANCH   3   6
ENDBRANCH   1   2
BRANCH   1  22
ATOM     22  C   UNL A   1      33.365  30.683  27.491  1.00  0.00     0.042 C 
BRANCH  22  23
ATOM     23  C   UNL A   1      34.519  31.659  27.625  1.00  0.00     0.118 C 
BRANCH  23  24
ATOM     24  N   UNL A   1      34.570  32.257  28.963  1.00  0.00    -0.352 N 
ATOM     25  C   UNL A   1      35.372  31.925  30.041  1.00  0.00     0.251 C 
ATOM     26  H   UNL A   1      33.946  33.002  29.116  1.00  0.00     0.163 HD
ATOM     27  O   UNL A   1      35.086  32.271  31.170  1.00  0.00    -0.269 OA
BRANCH  25  28
ATOM     28  C   UNL A   1      36.577  31.122  29.782  1.00  0.00     0.039 A 
ATOM     29  C   UNL A   1      37.828  31.722  29.631  1.00  0.00     0.014 A 
ATOM     30  C   UNL A   1      36.440  29.740  29.796  1.00  0.00     0.014 A 
ATOM     31  C   UNL A   1      38.954  30.904  29.604  1.00  0.00     0.010 A 
ATOM     32  C   UNL A   1      37.549  28.965  29.991  1.00  0.00     0.010 A 
ATOM     33  C   UNL A   1      38.807  29.524  29.828  1.00  0.00    -0.014 A 
BRANCH  33  34
ATOM     34  C   UNL A   1      39.973  28.662  29.986  1.00  0.00     0.031 A 
ATOM     35  C   UNL A   1      40.408  28.484  31.392  1.00  0.00     0.074 A 
ATOM     36  C   UNL A   1      40.514  27.935  28.983  1.00  0.00     0.049 A 
ATOM     37  N   UNL A   1      41.414  29.048  31.969  1.00  0.00    -0.248 NA
ATOM     38  C   UNL A   1      39.551  27.718  32.309  1.00  0.00     0.031 C 
ATOM     39  C   UNL A   1      39.982  27.723  27.630  1.00  0.00     0.029 A 
ATOM     40  N   UNL A   1      41.631  27.151  28.991  1.00  0.00    -0.354 N 
ATOM     41  C   UNL A   1      41.470  28.502  33.248  1.00  0.00     0.074 A 
ATOM     42  C   UNL A   1      40.194  27.878  33.470  1.00  0.00     0.031 C 
ATOM     43  C   UNL A   1      40.632  26.700  27.036  1.00  0.00     0.029 A 
ATOM     44  C   UNL A   1      41.759  26.338  27.871  1.00  0.00     0.049 A 
ATOM     45  H   UNL A   1      42.288  27.160  29.723  1.00  0.00     0.167 HD
ATOM     46  C   UNL A   1      42.677  28.334  33.856  1.00  0.00     0.037 A 
ATOM     47  C   UNL A   1      42.746  25.449  27.615  1.00  0.00     0.037 A 
ATOM     48  C   UNL A   1      43.708  29.031  33.125  1.00  0.00     0.049 A 
ATOM     49  C   UNL A   1      43.925  25.848  28.412  1.00  0.00     0.074 A 
ATOM     50  C   UNL A   1      44.160  30.325  32.998  1.00  0.00     0.029 A 
ATOM     51  N   UNL A   1      44.181  28.327  32.051  1.00  0.00    -0.354 N 
ATOM     52  N   UNL A   1      44.591  26.950  28.203  1.00  0.00    -0.248 NA
ATOM     53  C   UNL A   1      44.180  25.192  29.689  1.00  0.00     0.031 C 
ATOM     54  C   UNL A   1      44.829  30.396  31.737  1.00  0.00     0.029 A 
ATOM     55  C   UNL A   1      44.802  29.138  31.142  1.00  0.00     0.049 A 
ATOM     56  H   UNL A   1      44.085  27.353  31.946  1.00  0.00     0.167 HD
ATOM     57  C   UNL A   1      44.996  27.340  29.462  1.00  0.00     0.074 A 
ATOM     58  C   UNL A   1      44.887  26.150  30.294  1.00  0.00     0.031 C 
ATOM     59  C   UNL A   1      45.047  28.657  29.802  1.00  0.00     0.037 A 
BRANCH  46  60
ATOM     60  C   UNL A   1      43.056  27.178  34.762  1.00  0.00     0.064 A 
ATOM     61  C   UNL A   1      43.320  27.445  36.124  1.00  0.00     0.173 A 
ATOM     62  C   UNL A   1      43.485  25.914  34.304  1.00  0.00     0.173 A 
ATOM     63  F   UNL A   1      42.969  28.619  36.670  1.00  0.00    -0.203 F 
ATOM     64  C   UNL A   1      44.029  26.551  36.934  1.00  0.00     0.198 A 
ATOM     65  C   UNL A   1      44.147  25.003  35.129  1.00  0.00     0.198 A 
ATOM     66  F   UNL A   1      43.391  25.548  33.022  1.00  0.00    -0.203 F 
ATOM     67  F   UNL A   1      44.362  26.903  38.183  1.00  0.00    -0.200 F 
ATOM     68  C   UNL A   1      44.448  25.333  36.433  1.00  0.00     0.200 A 
ATOM     69  F   UNL A   1      44.565  23.837  34.617  1.00  0.00    -0.200 F 
ATOM     70  F   UNL A   1      45.178  24.500  37.185  1.00  0.00    -0.200 F 
ENDBRANCH  46  60
BRANCH  47  71
ATOM     71  C   UNL A   1      42.682  24.172  26.878  1.00  0.00     0.064 A 
ATOM     72  C   UNL A   1      43.266  24.037  25.609  1.00  0.00     0.173 A 
ATOM     73  C   UNL A   1      42.316  22.985  27.540  1.00  0.00     0.173 A 
ATOM     74  F   UNL A   1      43.666  25.122  24.933  1.00  0.00    -0.203 F 
ATOM     75  C   UNL A   1      43.519  22.779  25.055  1.00  0.00     0.198 A 
ATOM     76  C   UNL A   1      42.568  21.730  26.984  1.00  0.00     0.198 A 
ATOM     77  F   UNL A   1      41.804  23.025  28.779  1.00  0.00    -0.203 F 
ATOM     78  F   UNL A   1      44.145  22.685  23.874  1.00  0.00    -0.200 F 
ATOM     79  C   UNL A   1      43.186  21.628  25.750  1.00  0.00     0.200 A 
ATOM     80  F   UNL A   1      42.275  20.623  27.681  1.00  0.00    -0.200 F 
ATOM     81  F   UNL A   1      43.500  20.424  25.254  1.00  0.00    -0.200 F 
ENDBRANCH  47  71
BRANCH  59  82
ATOM     82  C   UNL A   1      45.217  29.650  28.697  1.00  0.00     0.064 A 
ATOM     83  C   UNL A   1      44.164  30.234  27.976  1.00  0.00     0.173 A 
ATOM     84  C   UNL A   1      46.520  30.064  28.391  1.00  0.00     0.173 A 
ATOM     85  F   UNL A   1      42.888  29.938  28.256  1.00  0.00    -0.203 F 
ATOM     86  C   UNL A   1      44.413  31.165  26.966  1.00  0.00     0.198 A 
ATOM     87  C   UNL A   1      46.764  31.017  27.409  1.00  0.00     0.198 A 
ATOM     88  F   UNL A   1      47.561  29.561  29.073  1.00  0.00    -0.203 F 
ATOM     89  F   UNL A   1      43.395  31.696  26.274  1.00  0.00    -0.200 F 
ATOM     90  C   UNL A   1      45.713  31.558  26.689  1.00  0.00     0.200 A 
ATOM     91  F   UNL A   1      48.021  31.419  27.170  1.00  0.00    -0.200 F 
ATOM     92  F   UNL A   1      45.952  32.473  25.738  1.00  0.00    -0.200 F 
ENDBRANCH  59  82
ENDBRANCH  33  34
ENDBRANCH  25  28
ENDBRANCH  23  24
ENDBRANCH  22  23
ENDBRANCH   1  22
TORSDOF 13
ENDMDL
MODEL 3
REMARK VINA RESULT:     -13.3      4.728      9.263
REMARK SMILES Cc1nsc(NC[C@@H]2C[C@H]3CC[C@@H]2C3)c1C(=O)NCCCNC(=O)c1ccc(-c2c3nc(c(-c4c(F)c(F)c(F)c(F)c4F)c4ccc([nH]4)c(-c4c(F)c(F)c(F)c(F)c4F)c4nc(c(-c5c(F)c(F)c(F)c(F)c5F)c5ccc2[nH]5)C=C4)C=C3)cc1
REMARK SMILES IDX 19 1 18 2 16 3 17 4 15 6 1 7 2 8 3 9 4 10 5 11 6 12 7 14
REMARK SMILES IDX 8 15 9 16 13 17 10 18 12 19 14 20 11 21 20 22 21 23 22 24
REMARK SMILES IDX 23 25 24 27 25 28 26 29 87 30 27 31 86 32 28 33 29 34 30 35
REMARK SMILES IDX 80 36 31 37 85 38 79 39 81 40 32 41 84 42 78 43 77 44 33 46
REMARK SMILES IDX 65 47 45 48 64 49 46 50 49 51 63 52 82 53 47 54 48 55 62 57
REMARK SMILES IDX 83 58 50 59 34 60 35 61 43 62 36 63 37 64 41 65 44 66 38 67
REMARK SMILES IDX 39 68 42 69 40 70 66 71 67 72 75 73 68 74 69 75 73 76 76 77
REMARK SMILES IDX 70 78 71 79 74 80 72 81 51 82 52 83 60 84 53 85 54 86 58 87
REMARK SMILES IDX 61 88 55 89 56 90 59 91 57 92
REMARK H PARENT 18 5 6 13 22 26 81 45 49 56
REMARK Flexibility Score: inf
ROOT
ATOM      1  C   UNL A   1      32.967  29.338  26.204  1.00  0.00     0.118 C 
ENDROOT
BRANCH   1   2
ATOM      2  N   UNL A   1      33.501  29.334  24.864  1.00  0.00    -0.352 N 
ATOM      3  C   UNL A   1      33.502  28.466  23.807  1.00  0.00     0.256 C 
ATOM      4  O   UNL A   1      34.049  28.970  22.813  1.00  0.00    -0.269 OA
ATOM      5  H   UNL A   1      33.987  30.164  24.658  1.00  0.00     0.163 HD
BRANCH   3   6
ATOM      6  C   UNL A   1      32.930  27.100  23.751  1.00  0.00     0.097 A 
ATOM      7  C   UNL A   1      34.462  25.376  25.140  1.00  0.00     0.069 C 
ATOM      8  C   UNL A   1      33.304  25.800  24.314  1.00  0.00     0.066 A 
ATOM      9  N   UNL A   1      32.496  24.776  24.032  1.00  0.00    -0.195 NA
ATOM     10  S   UNL A   1      31.280  25.271  23.072  1.00  0.00    -0.018 S 
ATOM     11  C   UNL A   1      31.767  26.906  22.971  1.00  0.00     0.122 A 
BRANCH  11  12
ATOM     12  N   UNL A   1      31.120  27.853  22.234  1.00  0.00    -0.375 N 
ATOM     13  H   UNL A   1      31.635  28.278  21.511  1.00  0.00     0.161 HD
BRANCH  12  14
ATOM     14  C   UNL A   1      29.756  28.296  22.405  1.00  0.00     0.117 C 
BRANCH  14  15
ATOM     15  C   UNL A   1      29.604  29.825  22.275  1.00  0.00     0.012 C 
ATOM     16  C   UNL A   1      29.789  30.533  23.643  1.00  0.00     0.009 C 
ATOM     17  C   UNL A   1      28.224  30.376  21.815  1.00  0.00    -0.006 C 
ATOM     18  C   UNL A   1      28.544  31.428  23.750  1.00  0.00    -0.011 C 
ATOM     19  C   UNL A   1      28.401  31.848  21.392  1.00  0.00     0.004 C 
ATOM     20  C   UNL A   1      27.468  30.537  23.134  1.00  0.00     0.007 C 
ATOM     21  C   UNL A   1      28.658  32.565  22.724  1.00  0.00     0.004 C 
ENDBRANCH  14  15
ENDBRANCH  12  14
ENDBRANCH  11  12
ENDBRANCH   3   6
ENDBRANCH   1   2
BRANCH   1  22
ATOM     22  C   UNL A   1      33.941  28.719  27.212  1.00  0.00     0.042 C 
BRANCH  22  23
ATOM     23  C   UNL A   1      35.247  29.483  27.322  1.00  0.00     0.118 C 
BRANCH  23  24
ATOM     24  N   UNL A   1      35.422  30.068  28.655  1.00  0.00    -0.352 N 
ATOM     25  C   UNL A   1      36.416  29.838  29.590  1.00  0.00     0.251 C 
ATOM     26  H   UNL A   1      34.734  30.719  28.923  1.00  0.00     0.163 HD
ATOM     27  O   UNL A   1      36.263  30.131  30.758  1.00  0.00    -0.269 OA
BRANCH  25  28
ATOM     28  C   UNL A   1      37.665  29.212  29.127  1.00  0.00     0.039 A 
ATOM     29  C   UNL A   1      38.350  29.698  28.013  1.00  0.00     0.014 A 
ATOM     30  C   UNL A   1      38.190  28.185  29.901  1.00  0.00     0.014 A 
ATOM     31  C   UNL A   1      39.626  29.207  27.756  1.00  0.00     0.010 A 
ATOM     32  C   UNL A   1      39.514  27.869  29.776  1.00  0.00     0.010 A 
ATOM     33  C   UNL A   1      40.219  28.319  28.671  1.00  0.00    -0.014 A 
BRANCH  33  34
ATOM     34  C   UNL A   1      41.615  27.922  28.533  1.00  0.00     0.031 A 
ATOM     35  C   UNL A   1      41.818  26.679  27.752  1.00  0.00     0.074 A 
ATOM     36  C   UNL A   1      42.658  28.694  28.912  1.00  0.00     0.049 A 
ATOM     37  N   UNL A   1      42.089  25.507  28.219  1.00  0.00    -0.248 NA
ATOM     38  C   UNL A   1      41.540  26.693  26.308  1.00  0.00     0.031 C 
ATOM     39  C   UNL A   1      42.633  30.093  29.363  1.00  0.00     0.029 A 
ATOM     40  N   UNL A   1      43.993  28.411  28.895  1.00  0.00    -0.354 N 
ATOM     41  C   UNL A   1      42.276  24.692  27.106  1.00  0.00     0.074 A 
ATOM     42  C   UNL A   1      41.714  25.406  25.991  1.00  0.00     0.031 C 
ATOM     43  C   UNL A   1      43.882  30.603  29.347  1.00  0.00     0.029 A 
ATOM     44  C   UNL A   1      44.809  29.516  29.106  1.00  0.00     0.049 A 
ATOM     45  H   UNL A   1      44.347  27.505  28.748  1.00  0.00     0.167 HD
ATOM     46  C   UNL A   1      43.172  23.667  27.165  1.00  0.00     0.037 A 
ATOM     47  C   UNL A   1      46.161  29.543  29.123  1.00  0.00     0.037 A 
ATOM     48  C   UNL A   1      43.591  23.446  28.528  1.00  0.00     0.049 A 
ATOM     49  C   UNL A   1      46.631  28.174  29.424  1.00  0.00     0.074 A 
ATOM     50  C   UNL A   1      43.093  22.830  29.653  1.00  0.00     0.029 A 
ATOM     51  N   UNL A   1      44.581  24.299  28.936  1.00  0.00    -0.354 N 
ATOM     52  N   UNL A   1      46.429  27.584  30.570  1.00  0.00    -0.248 NA
ATOM     53  C   UNL A   1      47.038  27.300  28.330  1.00  0.00     0.031 C 
ATOM     54  C   UNL A   1      43.747  23.438  30.769  1.00  0.00     0.029 A 
ATOM     55  C   UNL A   1      44.654  24.383  30.298  1.00  0.00     0.049 A 
ATOM     56  H   UNL A   1      45.170  24.794  28.321  1.00  0.00     0.167 HD
ATOM     57  C   UNL A   1      46.260  26.256  30.237  1.00  0.00     0.074 A 
ATOM     58  C   UNL A   1      46.825  26.113  28.903  1.00  0.00     0.031 C 
ATOM     59  C   UNL A   1      45.373  25.474  30.913  1.00  0.00     0.037 A 
BRANCH  46  60
ATOM     60  C   UNL A   1      44.061  23.205  26.026  1.00  0.00     0.064 A 
ATOM     61  C   UNL A   1      44.091  21.829  25.708  1.00  0.00     0.173 A 
ATOM     62  C   UNL A   1      45.105  23.973  25.467  1.00  0.00     0.173 A 
ATOM     63  F   UNL A   1      43.157  20.996  26.192  1.00  0.00    -0.203 F 
ATOM     64  C   UNL A   1      45.127  21.260  24.961  1.00  0.00     0.198 A 
ATOM     65  C   UNL A   1      46.109  23.410  24.679  1.00  0.00     0.198 A 
ATOM     66  F   UNL A   1      45.268  25.270  25.747  1.00  0.00    -0.203 F 
ATOM     67  F   UNL A   1      45.176  19.932  24.792  1.00  0.00    -0.200 F 
ATOM     68  C   UNL A   1      46.140  22.050  24.453  1.00  0.00     0.200 A 
ATOM     69  F   UNL A   1      47.095  24.191  24.215  1.00  0.00    -0.200 F 
ATOM     70  F   UNL A   1      47.166  21.504  23.789  1.00  0.00    -0.200 F 
ENDBRANCH  46  60
BRANCH  47  71
ATOM     71  C   UNL A   1      47.078  30.623  28.710  1.00  0.00     0.064 A 
ATOM     72  C   UNL A   1      46.945  31.249  27.462  1.00  0.00     0.173 A 
ATOM     73  C   UNL A   1      47.900  31.260  29.658  1.00  0.00     0.173 A 
ATOM     74  F   UNL A   1      46.156  30.714  26.520  1.00  0.00    -0.203 F 
ATOM     75  C   UNL A   1      47.560  32.475  27.193  1.00  0.00     0.198 A 
ATOM     76  C   UNL A   1      48.514  32.484  29.388  1.00  0.00     0.198 A 
ATOM     77  F   UNL A   1      48.035  30.757  30.894  1.00  0.00    -0.203 F 
ATOM     78  F   UNL A   1      47.352  33.081  26.016  1.00  0.00    -0.200 F 
ATOM     79  C   UNL A   1      48.328  33.099  28.162  1.00  0.00     0.200 A 
ATOM     80  F   UNL A   1      49.225  33.097  30.345  1.00  0.00    -0.200 F 
ATOM     81  F   UNL A   1      48.852  34.311  27.933  1.00  0.00    -0.200 F 
ENDBRANCH  47  71
BRANCH  59  82
ATOM     82  C   UNL A   1      45.028  25.872  32.312  1.00  0.00     0.064 A 
ATOM     83  C   UNL A   1      45.807  25.579  33.443  1.00  0.00     0.173 A 
ATOM     84  C   UNL A   1      43.867  26.632  32.504  1.00  0.00     0.173 A 
ATOM     85  F   UNL A   1      46.965  24.914  33.330  1.00  0.00    -0.203 F 
ATOM     86  C   UNL A   1      45.416  26.001  34.714  1.00  0.00     0.198 A 
ATOM     87  C   UNL A   1      43.497  27.081  33.766  1.00  0.00     0.198 A 
ATOM     88  F   UNL A   1      43.103  26.967  31.452  1.00  0.00    -0.203 F 
ATOM     89  F   UNL A   1      46.162  25.694  35.784  1.00  0.00    -0.200 F 
ATOM     90  C   UNL A   1      44.264  26.756  34.872  1.00  0.00     0.200 A 
ATOM     91  F   UNL A   1      42.401  27.840  33.907  1.00  0.00    -0.200 F 
ATOM     92  F   UNL A   1      43.901  27.186  36.089  1.00  0.00    -0.200 F 
ENDBRANCH  59  82
ENDBRANCH  33  34
ENDBRANCH  25  28
ENDBRANCH  23  24
ENDBRANCH  22  23
ENDBRANCH   1  22
TORSDOF 13
ENDMDL
