MODEL 1
REMARK VINA RESULT:     -11.6      0.000      0.000
REMARK SMILES CC(=O)N[C@H](C(=O)NC1(CC(=O)NCCCNC(=O)c2ccc(-c3c4nc(c(-c5c(F)c(F)c(F)c(F)c5F)c5ccc([nH]5)c(-c5c(F)c(F)c(F)c(F)c5F)c5nc(c(-c6c(F)c(F)c(F)c(F)c6F)c6ccc3[nH]6)C=C5)C=C4)cc2)CCC1)C(C)C
REMARK SMILES IDX 14 1 13 2 11 3 12 4 10 6 9 7 83 8 85 9 84 10 8 11 6 12 7 13
REMARK SMILES IDX 5 15 4 16 1 17 2 18 3 19 86 21 87 22 88 23 15 24 16 25 17 26
REMARK SMILES IDX 18 27 19 29 20 30 21 31 82 32 22 33 81 34 23 35 24 36 25 37
REMARK SMILES IDX 75 38 26 39 80 40 74 41 76 42 27 43 79 44 73 45 72 46 28 48
REMARK SMILES IDX 60 49 40 50 59 51 41 52 44 53 58 54 77 55 42 56 43 57 57 59
REMARK SMILES IDX 78 60 45 61 29 62 30 63 38 64 31 65 32 66 36 67 39 68 33 69
REMARK SMILES IDX 34 70 37 71 35 72 61 73 62 74 70 75 63 76 64 77 68 78 71 79
REMARK SMILES IDX 65 80 66 81 69 82 67 83 46 84 47 85 55 86 48 87 49 88 53 89
REMARK SMILES IDX 56 90 50 91 51 92 54 93 52 94
REMARK H PARENT 13 5 8 14 4 20 17 28 76 47 44 58
REMARK Flexibility Score: inf
ROOT
ATOM      1  C   UNL A   1      31.405  30.628  26.330  1.00  0.00     0.117 C 
ENDROOT
BRANCH   1   2
ATOM      2  N   UNL A   1      32.360  30.265  25.305  1.00  0.00    -0.356 N 
ATOM      3  C   UNL A   1      32.650  29.034  24.814  1.00  0.00     0.222 C 
ATOM      4  O   UNL A   1      33.770  28.873  24.334  1.00  0.00    -0.275 OA
ATOM      5  H   UNL A   1      32.869  31.012  24.913  1.00  0.00     0.163 HD
BRANCH   3   6
ATOM      6  C   UNL A   1      31.601  27.947  24.793  1.00  0.00     0.128 C 
BRANCH   6   7
ATOM      7  C   UNL A   1      31.112  27.483  23.418  1.00  0.00     0.049 C 
ATOM      8  C   UNL A   1      30.203  28.514  22.662  1.00  0.00     0.029 C 
ATOM      9  C   UNL A   1      29.807  26.602  23.490  1.00  0.00     0.029 C 
ATOM     10  C   UNL A   1      28.977  27.883  23.335  1.00  0.00     0.005 C 
BRANCH   7  11
ATOM     11  N   UNL A   1      32.123  26.848  22.529  1.00  0.00    -0.348 N 
ATOM     12  C   UNL A   1      33.118  25.920  22.687  1.00  0.00     0.243 C 
ATOM     13  O   UNL A   1      33.834  25.713  21.697  1.00  0.00    -0.273 OA
ATOM     14  H   UNL A   1      32.062  27.176  21.603  1.00  0.00     0.164 HD
BRANCH  12  15
ATOM     15  C   UNL A   1      33.398  25.186  24.017  1.00  0.00     0.173 C 
BRANCH  15  16
ATOM     16  N   UNL A   1      32.309  24.202  24.169  1.00  0.00    -0.344 N 
ATOM     17  C   UNL A   1      31.766  24.566  26.563  1.00  0.00     0.114 C 
ATOM     18  C   UNL A   1      31.545  23.877  25.245  1.00  0.00     0.217 C 
ATOM     19  O   UNL A   1      30.672  23.017  25.124  1.00  0.00    -0.275 OA
ATOM     20  H   UNL A   1      32.102  23.693  23.352  1.00  0.00     0.164 HD
ENDBRANCH  15  16
BRANCH  15  21
ATOM     21  C   UNL A   1      34.750  24.436  24.022  1.00  0.00     0.015 C 
ATOM     22  C   UNL A   1      35.388  24.324  25.403  1.00  0.00     0.010 C 
ATOM     23  C   UNL A   1      34.578  23.019  23.459  1.00  0.00     0.010 C 
ENDBRANCH  15  21
ENDBRANCH  12  15
ENDBRANCH   7  11
ENDBRANCH   6   7
ENDBRANCH   3   6
ENDBRANCH   1   2
BRANCH   1  24
ATOM     24  C   UNL A   1      31.391  32.143  26.515  1.00  0.00     0.042 C 
BRANCH  24  25
ATOM     25  C   UNL A   1      32.664  32.678  27.155  1.00  0.00     0.118 C 
BRANCH  25  26
ATOM     26  N   UNL A   1      32.532  34.075  27.525  1.00  0.00    -0.352 N 
ATOM     27  C   UNL A   1      33.084  34.761  28.577  1.00  0.00     0.251 C 
ATOM     28  H   UNL A   1      31.959  34.611  26.931  1.00  0.00     0.163 HD
ATOM     29  O   UNL A   1      32.600  35.839  28.911  1.00  0.00    -0.269 OA
BRANCH  27  30
ATOM     30  C   UNL A   1      34.245  34.216  29.317  1.00  0.00     0.039 A 
ATOM     31  C   UNL A   1      35.533  34.483  28.842  1.00  0.00     0.014 A 
ATOM     32  C   UNL A   1      34.076  33.377  30.420  1.00  0.00     0.014 A 
ATOM     33  C   UNL A   1      36.643  33.933  29.488  1.00  0.00     0.010 A 
ATOM     34  C   UNL A   1      35.182  32.917  31.126  1.00  0.00     0.010 A 
ATOM     35  C   UNL A   1      36.476  33.158  30.648  1.00  0.00    -0.014 A 
BRANCH  35  36
ATOM     36  C   UNL A   1      37.633  32.538  31.340  1.00  0.00     0.031 A 
ATOM     37  C   UNL A   1      38.362  31.387  30.696  1.00  0.00     0.074 A 
ATOM     38  C   UNL A   1      37.984  32.955  32.570  1.00  0.00     0.049 A 
ATOM     39  N   UNL A   1      39.330  30.646  31.172  1.00  0.00    -0.248 NA
ATOM     40  C   UNL A   1      37.913  30.990  29.351  1.00  0.00     0.031 C 
ATOM     41  C   UNL A   1      37.316  34.017  33.324  1.00  0.00     0.029 A 
ATOM     42  N   UNL A   1      38.976  32.521  33.412  1.00  0.00    -0.354 N 
ATOM     43  C   UNL A   1      39.579  29.681  30.204  1.00  0.00     0.074 A 
ATOM     44  C   UNL A   1      38.625  29.896  29.138  1.00  0.00     0.031 C 
ATOM     45  C   UNL A   1      37.926  34.163  34.510  1.00  0.00     0.029 A 
ATOM     46  C   UNL A   1      39.004  33.184  34.614  1.00  0.00     0.049 A 
ATOM     47  H   UNL A   1      39.608  31.804  33.176  1.00  0.00     0.167 HD
ATOM     48  C   UNL A   1      40.533  28.720  30.191  1.00  0.00     0.037 A 
ATOM     49  C   UNL A   1      39.805  33.014  35.682  1.00  0.00     0.037 A 
ATOM     50  C   UNL A   1      41.512  28.545  31.231  1.00  0.00     0.049 A 
ATOM     51  C   UNL A   1      40.888  31.972  35.628  1.00  0.00     0.074 A 
ATOM     52  C   UNL A   1      42.577  27.664  31.276  1.00  0.00     0.029 A 
ATOM     53  N   UNL A   1      41.542  29.272  32.413  1.00  0.00    -0.354 N 
ATOM     54  N   UNL A   1      41.166  31.117  34.674  1.00  0.00    -0.248 NA
ATOM     55  C   UNL A   1      41.777  31.879  36.795  1.00  0.00     0.031 C 
ATOM     56  C   UNL A   1      43.229  27.830  32.502  1.00  0.00     0.029 A 
ATOM     57  C   UNL A   1      42.596  28.847  33.203  1.00  0.00     0.049 A 
ATOM     58  H   UNL A   1      40.907  29.985  32.653  1.00  0.00     0.167 HD
ATOM     59  C   UNL A   1      42.269  30.399  35.112  1.00  0.00     0.074 A 
ATOM     60  C   UNL A   1      42.621  30.930  36.414  1.00  0.00     0.031 C 
ATOM     61  C   UNL A   1      42.930  29.388  34.495  1.00  0.00     0.037 A 
BRANCH  48  62
ATOM     62  C   UNL A   1      40.564  27.790  29.012  1.00  0.00     0.064 A 
ATOM     63  C   UNL A   1      41.401  28.022  27.909  1.00  0.00     0.173 A 
ATOM     64  C   UNL A   1      39.755  26.643  28.989  1.00  0.00     0.173 A 
ATOM     65  F   UNL A   1      42.186  29.109  27.874  1.00  0.00    -0.203 F 
ATOM     66  C   UNL A   1      41.395  27.165  26.811  1.00  0.00     0.198 A 
ATOM     67  C   UNL A   1      39.776  25.771  27.903  1.00  0.00     0.198 A 
ATOM     68  F   UNL A   1      38.942  26.369  30.020  1.00  0.00    -0.203 F 
ATOM     69  F   UNL A   1      42.157  27.443  25.743  1.00  0.00    -0.200 F 
ATOM     70  C   UNL A   1      40.588  26.038  26.810  1.00  0.00     0.200 A 
ATOM     71  F   UNL A   1      39.005  24.676  27.911  1.00  0.00    -0.200 F 
ATOM     72  F   UNL A   1      40.584  25.215  25.753  1.00  0.00    -0.200 F 
ENDBRANCH  48  62
BRANCH  49  73
ATOM     73  C   UNL A   1      39.623  33.876  36.879  1.00  0.00     0.064 A 
ATOM     74  C   UNL A   1      40.210  35.146  36.946  1.00  0.00     0.173 A 
ATOM     75  C   UNL A   1      38.838  33.459  37.963  1.00  0.00     0.173 A 
ATOM     76  F   UNL A   1      40.983  35.581  35.940  1.00  0.00    -0.203 F 
ATOM     77  C   UNL A   1      40.026  35.964  38.059  1.00  0.00     0.198 A 
ATOM     78  C   UNL A   1      38.633  34.288  39.064  1.00  0.00     0.198 A 
ATOM     79  F   UNL A   1      38.246  32.256  37.941  1.00  0.00    -0.203 F 
ATOM     80  F   UNL A   1      40.624  37.163  38.113  1.00  0.00    -0.200 F 
ATOM     81  C   UNL A   1      39.233  35.538  39.114  1.00  0.00     0.200 A 
ATOM     82  F   UNL A   1      37.851  33.880  40.072  1.00  0.00    -0.200 F 
ATOM     83  F   UNL A   1      39.046  36.330  40.178  1.00  0.00    -0.200 F 
ENDBRANCH  49  73
BRANCH  61  84
ATOM     84  C   UNL A   1      44.112  28.805  35.210  1.00  0.00     0.064 A 
ATOM     85  C   UNL A   1      45.404  29.321  35.032  1.00  0.00     0.173 A 
ATOM     86  C   UNL A   1      43.943  27.748  36.117  1.00  0.00     0.173 A 
ATOM     87  F   UNL A   1      45.617  30.321  34.163  1.00  0.00    -0.203 F 
ATOM     88  C   UNL A   1      46.488  28.783  35.718  1.00  0.00     0.198 A 
ATOM     89  C   UNL A   1      45.025  27.232  36.823  1.00  0.00     0.198 A 
ATOM     90  F   UNL A   1      42.726  27.225  36.327  1.00  0.00    -0.203 F 
ATOM     91  F   UNL A   1      47.721  29.262  35.501  1.00  0.00    -0.200 F 
ATOM     92  C   UNL A   1      46.298  27.746  36.619  1.00  0.00     0.200 A 
ATOM     93  F   UNL A   1      44.838  26.237  37.702  1.00  0.00    -0.200 F 
ATOM     94  F   UNL A   1      47.342  27.235  37.286  1.00  0.00    -0.200 F 
ENDBRANCH  61  84
ENDBRANCH  35  36
ENDBRANCH  27  30
ENDBRANCH  25  26
ENDBRANCH  24  25
ENDBRANCH   1  24
TORSDOF 15
ENDMDL
MODEL 2
REMARK VINA RESULT:     -11.6      1.274      1.895
REMARK SMILES CC(=O)N[C@H](C(=O)NC1(CC(=O)NCCCNC(=O)c2ccc(-c3c4nc(c(-c5c(F)c(F)c(F)c(F)c5F)c5ccc([nH]5)c(-c5c(F)c(F)c(F)c(F)c5F)c5nc(c(-c6c(F)c(F)c(F)c(F)c6F)c6ccc3[nH]6)C=C5)C=C4)cc2)CCC1)C(C)C
REMARK SMILES IDX 14 1 13 2 11 3 12 4 10 6 9 7 83 8 85 9 84 10 8 11 6 12 7 13
REMARK SMILES IDX 5 15 4 16 1 17 2 18 3 19 86 21 87 22 88 23 15 24 16 25 17 26
REMARK SMILES IDX 18 27 19 29 20 30 21 31 82 32 22 33 81 34 23 35 24 36 25 37
REMARK SMILES IDX 75 38 26 39 80 40 74 41 76 42 27 43 79 44 73 45 72 46 28 48
REMARK SMILES IDX 60 49 40 50 59 51 41 52 44 53 58 54 77 55 42 56 43 57 57 59
REMARK SMILES IDX 78 60 45 61 29 62 30 63 38 64 31 65 32 66 36 67 39 68 33 69
REMARK SMILES IDX 34 70 37 71 35 72 61 73 62 74 70 75 63 76 64 77 68 78 71 79
REMARK SMILES IDX 65 80 66 81 69 82 67 83 46 84 47 85 55 86 48 87 49 88 53 89
REMARK SMILES IDX 56 90 50 91 51 92 54 93 52 94
REMARK H PARENT 13 5 8 14 4 20 17 28 76 47 44 58
REMARK Flexibility Score: inf
ROOT
ATOM      1  C   UNL A   1      31.546  30.853  26.132  1.00  0.00     0.117 C 
ENDROOT
BRANCH   1   2
ATOM      2  N   UNL A   1      31.839  29.836  27.119  1.00  0.00    -0.356 N 
ATOM      3  C   UNL A   1      31.543  28.512  27.087  1.00  0.00     0.222 C 
ATOM      4  O   UNL A   1      31.435  27.936  28.167  1.00  0.00    -0.275 OA
ATOM      5  H   UNL A   1      32.317  30.147  27.923  1.00  0.00     0.163 HD
BRANCH   3   6
ATOM      6  C   UNL A   1      31.437  27.779  25.770  1.00  0.00     0.128 C 
BRANCH   6   7
ATOM      7  C   UNL A   1      32.214  26.465  25.644  1.00  0.00     0.049 C 
ATOM      8  C   UNL A   1      33.766  26.632  25.498  1.00  0.00     0.029 C 
ATOM      9  C   UNL A   1      32.277  25.924  24.165  1.00  0.00     0.029 C 
ATOM     10  C   UNL A   1      33.588  26.697  23.975  1.00  0.00     0.005 C 
BRANCH   7  11
ATOM     11  N   UNL A   1      31.839  25.375  26.585  1.00  0.00    -0.348 N 
ATOM     12  C   UNL A   1      32.060  24.025  26.655  1.00  0.00     0.243 C 
ATOM     13  O   UNL A   1      31.483  23.424  27.573  1.00  0.00    -0.273 OA
ATOM     14  H   UNL A   1      31.300  25.704  27.340  1.00  0.00     0.164 HD
BRANCH  12  15
ATOM     15  C   UNL A   1      32.929  23.248  25.641  1.00  0.00     0.173 C 
BRANCH  15  16
ATOM     16  N   UNL A   1      34.301  23.279  26.182  1.00  0.00    -0.344 N 
ATOM     17  C   UNL A   1      35.562  23.588  24.068  1.00  0.00     0.114 C 
ATOM     18  C   UNL A   1      35.500  23.429  25.562  1.00  0.00     0.217 C 
ATOM     19  O   UNL A   1      36.530  23.437  26.238  1.00  0.00    -0.275 OA
ATOM     20  H   UNL A   1      34.357  23.172  27.159  1.00  0.00     0.164 HD
ENDBRANCH  15  16
BRANCH  15  21
ATOM     21  C   UNL A   1      32.493  21.774  25.475  1.00  0.00     0.015 C 
ATOM     22  C   UNL A   1      32.493  21.290  24.028  1.00  0.00     0.010 C 
ATOM     23  C   UNL A   1      33.412  20.850  26.286  1.00  0.00     0.010 C 
ENDBRANCH  15  21
ENDBRANCH  12  15
ENDBRANCH   7  11
ENDBRANCH   6   7
ENDBRANCH   3   6
ENDBRANCH   1   2
BRANCH   1  24
ATOM     24  C   UNL A   1      31.388  32.209  26.814  1.00  0.00     0.042 C 
BRANCH  24  25
ATOM     25  C   UNL A   1      32.719  32.878  27.128  1.00  0.00     0.118 C 
BRANCH  25  26
ATOM     26  N   UNL A   1      32.539  34.244  27.582  1.00  0.00    -0.352 N 
ATOM     27  C   UNL A   1      33.046  34.877  28.689  1.00  0.00     0.251 C 
ATOM     28  H   UNL A   1      31.964  34.801  27.010  1.00  0.00     0.163 HD
ATOM     29  O   UNL A   1      32.525  35.917  29.078  1.00  0.00    -0.269 OA
BRANCH  27  30
ATOM     30  C   UNL A   1      34.206  34.318  29.421  1.00  0.00     0.039 A 
ATOM     31  C   UNL A   1      35.494  34.580  28.945  1.00  0.00     0.014 A 
ATOM     32  C   UNL A   1      34.034  33.470  30.517  1.00  0.00     0.014 A 
ATOM     33  C   UNL A   1      36.602  34.017  29.583  1.00  0.00     0.010 A 
ATOM     34  C   UNL A   1      35.139  32.997  31.216  1.00  0.00     0.010 A 
ATOM     35  C   UNL A   1      36.434  33.234  30.736  1.00  0.00    -0.014 A 
BRANCH  35  36
ATOM     36  C   UNL A   1      37.588  32.600  31.419  1.00  0.00     0.031 A 
ATOM     37  C   UNL A   1      38.301  31.443  30.769  1.00  0.00     0.074 A 
ATOM     38  C   UNL A   1      37.950  33.010  32.649  1.00  0.00     0.049 A 
ATOM     39  N   UNL A   1      39.265  30.691  31.237  1.00  0.00    -0.248 NA
ATOM     40  C   UNL A   1      37.840  31.054  29.426  1.00  0.00     0.031 C 
ATOM     41  C   UNL A   1      37.298  34.077  33.409  1.00  0.00     0.029 A 
ATOM     42  N   UNL A   1      38.943  32.565  33.483  1.00  0.00    -0.354 N 
ATOM     43  C   UNL A   1      39.498  29.726  30.265  1.00  0.00     0.074 A 
ATOM     44  C   UNL A   1      38.540  29.953  29.206  1.00  0.00     0.031 C 
ATOM     45  C   UNL A   1      37.917  34.214  34.592  1.00  0.00     0.029 A 
ATOM     46  C   UNL A   1      38.985  33.224  34.687  1.00  0.00     0.049 A 
ATOM     47  H   UNL A   1      39.567  31.842  33.242  1.00  0.00     0.167 HD
ATOM     48  C   UNL A   1      40.442  28.756  30.244  1.00  0.00     0.037 A 
ATOM     49  C   UNL A   1      39.791  33.043  35.750  1.00  0.00     0.037 A 
ATOM     50  C   UNL A   1      41.425  28.568  31.278  1.00  0.00     0.049 A 
ATOM     51  C   UNL A   1      40.863  31.991  35.687  1.00  0.00     0.074 A 
ATOM     52  C   UNL A   1      42.481  27.676  31.314  1.00  0.00     0.029 A 
ATOM     53  N   UNL A   1      41.470  29.292  32.461  1.00  0.00    -0.354 N 
ATOM     54  N   UNL A   1      41.126  31.135  34.729  1.00  0.00    -0.248 NA
ATOM     55  C   UNL A   1      41.758  31.886  36.848  1.00  0.00     0.031 C 
ATOM     56  C   UNL A   1      43.142  27.833  32.537  1.00  0.00     0.029 A 
ATOM     57  C   UNL A   1      42.525  28.854  33.244  1.00  0.00     0.049 A 
ATOM     58  H   UNL A   1      40.844  30.011  32.706  1.00  0.00     0.167 HD
ATOM     59  C   UNL A   1      42.225  30.404  35.159  1.00  0.00     0.074 A 
ATOM     60  C   UNL A   1      42.590  30.929  36.460  1.00  0.00     0.031 C 
ATOM     61  C   UNL A   1      42.871  29.389  34.535  1.00  0.00     0.037 A 
BRANCH  48  62
ATOM     62  C   UNL A   1      40.456  27.828  29.063  1.00  0.00     0.064 A 
ATOM     63  C   UNL A   1      41.268  28.069  27.943  1.00  0.00     0.173 A 
ATOM     64  C   UNL A   1      39.656  26.675  29.054  1.00  0.00     0.173 A 
ATOM     65  F   UNL A   1      42.044  29.162  27.894  1.00  0.00    -0.203 F 
ATOM     66  C   UNL A   1      41.246  27.215  26.844  1.00  0.00     0.198 A 
ATOM     67  C   UNL A   1      39.662  25.805  27.966  1.00  0.00     0.198 A 
ATOM     68  F   UNL A   1      38.867  26.392  30.100  1.00  0.00    -0.203 F 
ATOM     69  F   UNL A   1      41.984  27.500  25.761  1.00  0.00    -0.200 F 
ATOM     70  C   UNL A   1      40.449  26.081  26.858  1.00  0.00     0.200 A 
ATOM     71  F   UNL A   1      38.900  24.703  27.987  1.00  0.00    -0.200 F 
ATOM     72  F   UNL A   1      40.430  25.260  25.799  1.00  0.00    -0.200 F 
ENDBRANCH  48  62
BRANCH  49  73
ATOM     73  C   UNL A   1      39.626  33.904  36.950  1.00  0.00     0.064 A 
ATOM     74  C   UNL A   1      40.219  35.171  37.013  1.00  0.00     0.173 A 
ATOM     75  C   UNL A   1      38.848  33.489  38.041  1.00  0.00     0.173 A 
ATOM     76  F   UNL A   1      40.985  35.603  36.001  1.00  0.00    -0.203 F 
ATOM     77  C   UNL A   1      40.050  35.988  38.130  1.00  0.00     0.198 A 
ATOM     78  C   UNL A   1      38.658  34.317  39.145  1.00  0.00     0.198 A 
ATOM     79  F   UNL A   1      38.251  32.289  38.022  1.00  0.00    -0.203 F 
ATOM     80  F   UNL A   1      40.654  37.184  38.179  1.00  0.00    -0.200 F 
ATOM     81  C   UNL A   1      39.265  35.564  39.191  1.00  0.00     0.200 A 
ATOM     82  F   UNL A   1      37.885  33.912  40.160  1.00  0.00    -0.200 F 
ATOM     83  F   UNL A   1      39.093  36.356  40.258  1.00  0.00    -0.200 F 
ENDBRANCH  49  73
BRANCH  61  84
ATOM     84  C   UNL A   1      44.052  28.792  35.242  1.00  0.00     0.064 A 
ATOM     85  C   UNL A   1      45.350  29.284  35.044  1.00  0.00     0.173 A 
ATOM     86  C   UNL A   1      43.876  27.745  36.159  1.00  0.00     0.173 A 
ATOM     87  F   UNL A   1      45.570  30.273  34.164  1.00  0.00    -0.203 F 
ATOM     88  C   UNL A   1      46.433  28.734  35.723  1.00  0.00     0.198 A 
ATOM     89  C   UNL A   1      44.957  27.217  36.857  1.00  0.00     0.198 A 
ATOM     90  F   UNL A   1      42.652  27.245  36.387  1.00  0.00    -0.203 F 
ATOM     91  F   UNL A   1      47.671  29.190  35.487  1.00  0.00    -0.200 F 
ATOM     92  C   UNL A   1      46.235  27.708  36.635  1.00  0.00     0.200 A 
ATOM     93  F   UNL A   1      44.763  26.233  37.747  1.00  0.00    -0.200 F 
ATOM     94  F   UNL A   1      47.279  27.185  37.293  1.00  0.00    -0.200 F 
ENDBRANCH  61  84
ENDBRANCH  35  36
ENDBRANCH  27  30
ENDBRANCH  25  26
ENDBRANCH  24  25
ENDBRANCH   1  24
TORSDOF 15
ENDMDL
MODEL 3
REMARK VINA RESULT:     -11.5      5.624     11.110
REMARK SMILES CC(=O)N[C@H](C(=O)NC1(CC(=O)NCCCNC(=O)c2ccc(-c3c4nc(c(-c5c(F)c(F)c(F)c(F)c5F)c5ccc([nH]5)c(-c5c(F)c(F)c(F)c(F)c5F)c5nc(c(-c6c(F)c(F)c(F)c(F)c6F)c6ccc3[nH]6)C=C5)C=C4)cc2)CCC1)C(C)C
REMARK SMILES IDX 14 1 13 2 11 3 12 4 10 6 9 7 83 8 85 9 84 10 8 11 6 12 7 13
REMARK SMILES IDX 5 15 4 16 1 17 2 18 3 19 86 21 87 22 88 23 15 24 16 25 17 26
REMARK SMILES IDX 18 27 19 29 20 30 21 31 82 32 22 33 81 34 23 35 24 36 25 37
REMARK SMILES IDX 75 38 26 39 80 40 74 41 76 42 27 43 79 44 73 45 72 46 28 48
REMARK SMILES IDX 60 49 40 50 59 51 41 52 44 53 58 54 77 55 42 56 43 57 57 59
REMARK SMILES IDX 78 60 45 61 29 62 30 63 38 64 31 65 32 66 36 67 39 68 33 69
REMARK SMILES IDX 34 70 37 71 35 72 61 73 62 74 70 75 63 76 64 77 68 78 71 79
REMARK SMILES IDX 65 80 66 81 69 82 67 83 46 84 47 85 55 86 48 87 49 88 53 89
REMARK SMILES IDX 56 90 50 91 51 92 54 93 52 94
REMARK H PARENT 13 5 8 14 4 20 17 28 76 47 44 58
REMARK Flexibility Score: inf
ROOT
ATOM      1  C   UNL A   1      37.103  20.897  24.774  1.00  0.00     0.117 C 
ENDROOT
BRANCH   1   2
ATOM      2  N   UNL A   1      36.238  21.021  25.927  1.00  0.00    -0.356 N 
ATOM      3  C   UNL A   1      35.047  21.662  26.029  1.00  0.00     0.222 C 
ATOM      4  O   UNL A   1      34.718  22.060  27.144  1.00  0.00    -0.275 OA
ATOM      5  H   UNL A   1      36.557  20.582  26.750  1.00  0.00     0.163 HD
BRANCH   3   6
ATOM      6  C   UNL A   1      34.141  21.799  24.827  1.00  0.00     0.128 C 
BRANCH   6   7
ATOM      7  C   UNL A   1      32.725  21.231  24.958  1.00  0.00     0.049 C 
ATOM      8  C   UNL A   1      32.647  19.665  24.994  1.00  0.00     0.029 C 
ATOM      9  C   UNL A   1      31.983  21.093  23.574  1.00  0.00     0.029 C 
ATOM     10  C   UNL A   1      32.529  19.664  23.464  1.00  0.00     0.005 C 
BRANCH   7  11
ATOM     11  N   UNL A   1      31.838  21.874  25.965  1.00  0.00    -0.348 N 
ATOM     12  C   UNL A   1      31.437  23.155  26.239  1.00  0.00     0.243 C 
ATOM     13  O   UNL A   1      30.744  23.305  27.255  1.00  0.00    -0.273 OA
ATOM     14  H   UNL A   1      31.445  21.220  26.587  1.00  0.00     0.164 HD
BRANCH  12  15
ATOM     15  C   UNL A   1      31.843  24.377  25.385  1.00  0.00     0.173 C 
BRANCH  15  16
ATOM     16  N   UNL A   1      30.588  25.093  25.089  1.00  0.00    -0.344 N 
ATOM     17  C   UNL A   1      31.044  25.750  22.739  1.00  0.00     0.114 C 
ATOM     18  C   UNL A   1      30.163  25.714  23.957  1.00  0.00     0.217 C 
ATOM     19  O   UNL A   1      29.049  26.241  23.943  1.00  0.00    -0.275 OA
ATOM     20  H   UNL A   1      29.951  25.129  25.838  1.00  0.00     0.164 HD
ENDBRANCH  15  16
BRANCH  15  21
ATOM     21  C   UNL A   1      32.802  25.339  26.124  1.00  0.00     0.015 C 
ATOM     22  C   UNL A   1      34.042  25.714  25.317  1.00  0.00     0.010 C 
ATOM     23  C   UNL A   1      32.071  26.634  26.506  1.00  0.00     0.010 C 
ENDBRANCH  15  21
ENDBRANCH  12  15
ENDBRANCH   7  11
ENDBRANCH   6   7
ENDBRANCH   3   6
ENDBRANCH   1   2
BRANCH   1  24
ATOM     24  C   UNL A   1      38.125  19.788  25.008  1.00  0.00     0.042 C 
BRANCH  24  25
ATOM     25  C   UNL A   1      39.130  20.124  26.101  1.00  0.00     0.118 C 
BRANCH  25  26
ATOM     26  N   UNL A   1      40.232  19.180  26.125  1.00  0.00    -0.352 N 
ATOM     27  C   UNL A   1      41.585  19.407  26.078  1.00  0.00     0.251 C 
ATOM     28  H   UNL A   1      39.969  18.234  26.182  1.00  0.00     0.163 HD
ATOM     29  O   UNL A   1      42.338  18.486  25.778  1.00  0.00    -0.269 OA
BRANCH  27  30
ATOM     30  C   UNL A   1      42.143  20.745  26.377  1.00  0.00     0.039 A 
ATOM     31  C   UNL A   1      42.315  21.122  27.712  1.00  0.00     0.014 A 
ATOM     32  C   UNL A   1      42.417  21.662  25.360  1.00  0.00     0.014 A 
ATOM     33  C   UNL A   1      42.785  22.400  28.022  1.00  0.00     0.010 A 
ATOM     34  C   UNL A   1      42.985  22.894  25.663  1.00  0.00     0.010 A 
ATOM     35  C   UNL A   1      43.142  23.292  26.997  1.00  0.00    -0.014 A 
BRANCH  35  36
ATOM     36  C   UNL A   1      43.618  24.666  27.294  1.00  0.00     0.031 A 
ATOM     37  C   UNL A   1      42.649  25.699  27.807  1.00  0.00     0.074 A 
ATOM     38  C   UNL A   1      44.894  25.005  27.037  1.00  0.00     0.049 A 
ATOM     39  N   UNL A   1      42.839  26.975  28.036  1.00  0.00    -0.248 NA
ATOM     40  C   UNL A   1      41.271  25.247  28.058  1.00  0.00     0.031 C 
ATOM     41  C   UNL A   1      45.910  24.111  26.481  1.00  0.00     0.029 A 
ATOM     42  N   UNL A   1      45.549  26.201  27.191  1.00  0.00    -0.354 N 
ATOM     43  C   UNL A   1      41.602  27.477  28.421  1.00  0.00     0.074 A 
ATOM     44  C   UNL A   1      40.659  26.384  28.344  1.00  0.00     0.031 C 
ATOM     45  C   UNL A   1      47.064  24.784  26.353  1.00  0.00     0.029 A 
ATOM     46  C   UNL A   1      46.861  26.163  26.786  1.00  0.00     0.049 A 
ATOM     47  H   UNL A   1      45.121  27.008  27.557  1.00  0.00     0.167 HD
ATOM     48  C   UNL A   1      41.287  28.729  28.829  1.00  0.00     0.037 A 
ATOM     49  C   UNL A   1      47.791  27.136  26.761  1.00  0.00     0.037 A 
ATOM     50  C   UNL A   1      42.242  29.799  28.954  1.00  0.00     0.049 A 
ATOM     51  C   UNL A   1      47.432  28.507  27.262  1.00  0.00     0.074 A 
ATOM     52  C   UNL A   1      42.048  31.078  29.442  1.00  0.00     0.029 A 
ATOM     53  N   UNL A   1      43.576  29.709  28.584  1.00  0.00    -0.354 N 
ATOM     54  N   UNL A   1      46.279  28.951  27.700  1.00  0.00    -0.248 NA
ATOM     55  C   UNL A   1      48.506  29.509  27.277  1.00  0.00     0.031 C 
ATOM     56  C   UNL A   1      43.256  31.775  29.332  1.00  0.00     0.029 A 
ATOM     57  C   UNL A   1      44.214  30.916  28.816  1.00  0.00     0.049 A 
ATOM     58  H   UNL A   1      44.005  28.904  28.212  1.00  0.00     0.167 HD
ATOM     59  C   UNL A   1      46.490  30.275  28.060  1.00  0.00     0.074 A 
ATOM     60  C   UNL A   1      47.888  30.557  27.804  1.00  0.00     0.031 C 
ATOM     61  C   UNL A   1      45.606  31.176  28.555  1.00  0.00     0.037 A 
BRANCH  48  62
ATOM     62  C   UNL A   1      39.852  29.005  29.175  1.00  0.00     0.064 A 
ATOM     63  C   UNL A   1      39.365  28.865  30.484  1.00  0.00     0.173 A 
ATOM     64  C   UNL A   1      38.950  29.427  28.184  1.00  0.00     0.173 A 
ATOM     65  F   UNL A   1      40.181  28.453  31.466  1.00  0.00    -0.203 F 
ATOM     66  C   UNL A   1      38.025  29.095  30.781  1.00  0.00     0.198 A 
ATOM     67  C   UNL A   1      37.617  29.688  28.492  1.00  0.00     0.198 A 
ATOM     68  F   UNL A   1      39.362  29.585  26.918  1.00  0.00    -0.203 F 
ATOM     69  F   UNL A   1      37.572  28.894  32.027  1.00  0.00    -0.200 F 
ATOM     70  C   UNL A   1      37.153  29.512  29.787  1.00  0.00     0.200 A 
ATOM     71  F   UNL A   1      36.779  30.104  27.533  1.00  0.00    -0.200 F 
ATOM     72  F   UNL A   1      35.863  29.734  30.075  1.00  0.00    -0.200 F 
ENDBRANCH  48  62
BRANCH  49  73
ATOM     73  C   UNL A   1      49.158  26.829  26.267  1.00  0.00     0.064 A 
ATOM     74  C   UNL A   1      50.140  26.327  27.132  1.00  0.00     0.173 A 
ATOM     75  C   UNL A   1      49.500  27.003  24.918  1.00  0.00     0.173 A 
ATOM     76  F   UNL A   1      49.863  26.159  28.433  1.00  0.00    -0.203 F 
ATOM     77  C   UNL A   1      51.417  26.021  26.667  1.00  0.00     0.198 A 
ATOM     78  C   UNL A   1      50.770  26.672  24.450  1.00  0.00     0.198 A 
ATOM     79  F   UNL A   1      48.593  27.470  24.049  1.00  0.00    -0.203 F 
ATOM     80  F   UNL A   1      52.348  25.572  27.521  1.00  0.00    -0.200 F 
ATOM     81  C   UNL A   1      51.730  26.187  25.327  1.00  0.00     0.200 A 
ATOM     82  F   UNL A   1      51.063  26.817  23.151  1.00  0.00    -0.200 F 
ATOM     83  F   UNL A   1      52.955  25.880  24.879  1.00  0.00    -0.200 F 
ENDBRANCH  49  73
BRANCH  61  84
ATOM     84  C   UNL A   1      46.129  32.546  28.871  1.00  0.00     0.064 A 
ATOM     85  C   UNL A   1      46.685  32.846  30.123  1.00  0.00     0.173 A 
ATOM     86  C   UNL A   1      46.113  33.555  27.897  1.00  0.00     0.173 A 
ATOM     87  F   UNL A   1      46.709  31.918  31.092  1.00  0.00    -0.203 F 
ATOM     88  C   UNL A   1      47.186  34.116  30.395  1.00  0.00     0.198 A 
ATOM     89  C   UNL A   1      46.640  34.815  28.164  1.00  0.00     0.198 A 
ATOM     90  F   UNL A   1      45.596  33.314  26.683  1.00  0.00    -0.203 F 
ATOM     91  F   UNL A   1      47.674  34.395  31.612  1.00  0.00    -0.200 F 
ATOM     92  C   UNL A   1      47.171  35.096  29.414  1.00  0.00     0.200 A 
ATOM     93  F   UNL A   1      46.635  35.757  27.211  1.00  0.00    -0.200 F 
ATOM     94  F   UNL A   1      47.661  36.316  29.676  1.00  0.00    -0.200 F 
ENDBRANCH  61  84
ENDBRANCH  35  36
ENDBRANCH  27  30
ENDBRANCH  25  26
ENDBRANCH  24  25
ENDBRANCH   1  24
TORSDOF 15
ENDMDL
