MODEL 1
REMARK VINA RESULT:     -13.6      0.000      0.000
REMARK SMILES CC(C)[C@H](C)CNC(=O)N1CC(n2cc(C(=O)NCCCNC(=O)c3ccc(-c4c5nc(c(-c6c(F)c(F)c(F)c(F)c6F)c6ccc([nH]6)c(-c6c(F)c(F)c(F)c(F)c6F)c6nc(c(-c7c(F)c(F)c(F)c(F)c7F)c7ccc4[nH]7)C=C6)C=C5)cc3)nn2)C1
REMARK SMILES IDX 19 1 18 2 16 3 17 4 15 6 13 7 14 8 89 9 88 10 12 11 7 12
REMARK SMILES IDX 8 13 9 15 10 16 11 17 90 18 6 19 4 20 5 21 2 22 1 23 3 24
REMARK SMILES IDX 20 25 21 26 22 27 23 28 24 30 25 31 26 32 87 33 27 34 86 35
REMARK SMILES IDX 28 36 29 37 30 38 80 39 31 40 85 41 79 42 81 43 32 44 84 45
REMARK SMILES IDX 78 46 77 47 33 49 65 50 45 51 64 52 46 53 49 54 63 55 82 56
REMARK SMILES IDX 47 57 48 58 62 60 83 61 50 62 34 63 35 64 43 65 36 66 37 67
REMARK SMILES IDX 41 68 44 69 38 70 39 71 42 72 40 73 66 74 67 75 75 76 68 77
REMARK SMILES IDX 69 78 73 79 76 80 70 81 71 82 74 83 72 84 51 85 52 86 60 87
REMARK SMILES IDX 53 88 54 89 58 90 61 91 55 92 56 93 59 94 57 95
REMARK H PARENT 18 5 7 14 22 29 81 48 49 59
REMARK Flexibility Score: inf
ROOT
ATOM      1  C   UNL A   1      36.955  22.018  24.571  1.00  0.00     0.118 C 
ENDROOT
BRANCH   1   2
ATOM      2  N   UNL A   1      35.701  21.296  24.708  1.00  0.00    -0.351 N 
ATOM      3  C   UNL A   1      34.417  21.658  24.356  1.00  0.00     0.273 C 
ATOM      4  O   UNL A   1      33.550  20.788  24.425  1.00  0.00    -0.267 OA
ATOM      5  H   UNL A   1      35.780  20.406  25.121  1.00  0.00     0.163 HD
BRANCH   3   6
ATOM      6  C   UNL A   1      34.127  23.009  23.893  1.00  0.00     0.170 A 
ATOM      7  N   UNL A   1      33.657  25.117  23.665  1.00  0.00    -0.245 N 
ATOM      8  C   UNL A   1      33.622  24.099  24.576  1.00  0.00     0.145 A 
ATOM      9  N   UNL A   1      34.081  24.686  22.471  1.00  0.00    -0.066 NA
ATOM     10  N   UNL A   1      34.337  23.389  22.585  1.00  0.00    -0.125 NA
BRANCH   7  11
ATOM     11  C   UNL A   1      33.400  26.478  24.012  1.00  0.00     0.148 C 
ATOM     12  N   UNL A   1      30.777  29.683  23.465  1.00  0.00    -0.338 N 
ATOM     13  C   UNL A   1      31.392  28.972  24.442  1.00  0.00     0.317 C 
ATOM     14  H   UNL A   1      30.793  30.660  23.584  1.00  0.00     0.165 HD
ATOM     15  O   UNL A   1      31.607  29.515  25.523  1.00  0.00    -0.249 OA
ATOM     16  N   UNL A   1      31.754  27.689  24.188  1.00  0.00    -0.320 N 
ATOM     17  C   UNL A   1      32.356  26.725  25.107  1.00  0.00     0.150 C 
ATOM     18  C   UNL A   1      32.390  27.098  23.021  1.00  0.00     0.150 C 
BRANCH  12  19
ATOM     19  C   UNL A   1      30.098  29.219  22.269  1.00  0.00     0.121 C 
BRANCH  19  20
ATOM     20  C   UNL A   1      28.642  29.741  22.169  1.00  0.00     0.008 C 
ATOM     21  C   UNL A   1      27.685  28.763  22.867  1.00  0.00     0.010 C 
BRANCH  20  22
ATOM     22  C   UNL A   1      28.607  31.227  22.658  1.00  0.00    -0.013 C 
ATOM     23  C   UNL A   1      28.380  32.154  21.454  1.00  0.00     0.008 C 
ATOM     24  C   UNL A   1      27.582  31.563  23.741  1.00  0.00     0.008 C 
ENDBRANCH  20  22
ENDBRANCH  19  20
ENDBRANCH  12  19
ENDBRANCH   7  11
ENDBRANCH   3   6
ENDBRANCH   1   2
BRANCH   1  25
ATOM     25  C   UNL A   1      38.098  21.347  25.338  1.00  0.00     0.042 C 
BRANCH  25  26
ATOM     26  C   UNL A   1      38.928  22.347  26.129  1.00  0.00     0.118 C 
BRANCH  26  27
ATOM     27  N   UNL A   1      40.368  22.153  25.941  1.00  0.00    -0.352 N 
ATOM     28  C   UNL A   1      41.388  23.080  26.088  1.00  0.00     0.251 C 
ATOM     29  H   UNL A   1      40.647  21.247  25.676  1.00  0.00     0.163 HD
ATOM     30  O   UNL A   1      42.481  22.902  25.589  1.00  0.00    -0.269 OA
BRANCH  28  31
ATOM     31  C   UNL A   1      41.104  24.299  26.864  1.00  0.00     0.039 A 
ATOM     32  C   UNL A   1      41.565  24.449  28.174  1.00  0.00     0.014 A 
ATOM     33  C   UNL A   1      40.433  25.328  26.215  1.00  0.00     0.014 A 
ATOM     34  C   UNL A   1      41.436  25.692  28.788  1.00  0.00     0.010 A 
ATOM     35  C   UNL A   1      40.464  26.586  26.751  1.00  0.00     0.010 A 
ATOM     36  C   UNL A   1      40.913  26.770  28.056  1.00  0.00    -0.014 A 
BRANCH  36  37
ATOM     37  C   UNL A   1      40.942  28.128  28.595  1.00  0.00     0.031 A 
ATOM     38  C   UNL A   1      42.057  28.979  28.094  1.00  0.00     0.074 A 
ATOM     39  C   UNL A   1      39.915  28.649  29.301  1.00  0.00     0.049 A 
ATOM     40  N   UNL A   1      43.030  29.492  28.773  1.00  0.00    -0.248 NA
ATOM     41  C   UNL A   1      42.171  29.197  26.642  1.00  0.00     0.031 C 
ATOM     42  C   UNL A   1      38.619  28.025  29.606  1.00  0.00     0.029 A 
ATOM     43  N   UNL A   1      39.766  29.905  29.808  1.00  0.00    -0.354 N 
ATOM     44  C   UNL A   1      43.769  30.257  27.873  1.00  0.00     0.074 A 
ATOM     45  C   UNL A   1      43.301  29.902  26.560  1.00  0.00     0.031 C 
ATOM     46  C   UNL A   1      37.746  28.965  30.023  1.00  0.00     0.029 A 
ATOM     47  C   UNL A   1      38.470  30.206  30.207  1.00  0.00     0.049 A 
ATOM     48  H   UNL A   1      40.513  30.542  29.887  1.00  0.00     0.167 HD
ATOM     49  C   UNL A   1      44.517  31.311  28.304  1.00  0.00     0.037 A 
ATOM     50  C   UNL A   1      38.014  31.393  30.665  1.00  0.00     0.037 A 
ATOM     51  C   UNL A   1      44.710  31.248  29.731  1.00  0.00     0.049 A 
ATOM     52  C   UNL A   1      39.185  32.145  31.160  1.00  0.00     0.074 A 
ATOM     53  C   UNL A   1      45.388  30.430  30.608  1.00  0.00     0.029 A 
ATOM     54  N   UNL A   1      43.798  31.954  30.470  1.00  0.00    -0.354 N 
ATOM     55  N   UNL A   1      39.895  31.781  32.192  1.00  0.00    -0.248 NA
ATOM     56  C   UNL A   1      39.813  33.125  30.285  1.00  0.00     0.031 C 
ATOM     57  C   UNL A   1      44.615  30.432  31.809  1.00  0.00     0.029 A 
ATOM     58  C   UNL A   1      43.524  31.285  31.631  1.00  0.00     0.049 A 
ATOM     59  H   UNL A   1      43.399  32.815  30.205  1.00  0.00     0.167 HD
ATOM     60  C   UNL A   1      41.190  32.139  31.866  1.00  0.00     0.074 A 
ATOM     61  C   UNL A   1      41.052  33.105  30.783  1.00  0.00     0.031 C 
ATOM     62  C   UNL A   1      42.246  31.391  32.302  1.00  0.00     0.037 A 
BRANCH  49  63
ATOM     63  C   UNL A   1      44.668  32.626  27.560  1.00  0.00     0.064 A 
ATOM     64  C   UNL A   1      45.845  32.855  26.811  1.00  0.00     0.173 A 
ATOM     65  C   UNL A   1      43.889  33.775  27.817  1.00  0.00     0.173 A 
ATOM     66  F   UNL A   1      46.675  31.843  26.518  1.00  0.00    -0.203 F 
ATOM     67  C   UNL A   1      46.248  34.141  26.434  1.00  0.00     0.198 A 
ATOM     68  C   UNL A   1      44.268  35.049  27.395  1.00  0.00     0.198 A 
ATOM     69  F   UNL A   1      42.793  33.739  28.584  1.00  0.00    -0.203 F 
ATOM     70  F   UNL A   1      47.437  34.321  25.844  1.00  0.00    -0.200 F 
ATOM     71  C   UNL A   1      45.463  35.238  26.735  1.00  0.00     0.200 A 
ATOM     72  F   UNL A   1      43.504  36.102  27.715  1.00  0.00    -0.200 F 
ATOM     73  F   UNL A   1      45.876  36.476  26.436  1.00  0.00    -0.200 F 
ENDBRANCH  49  63
BRANCH  50  74
ATOM     74  C   UNL A   1      36.675  31.997  30.495  1.00  0.00     0.064 A 
ATOM     75  C   UNL A   1      35.920  32.424  31.599  1.00  0.00     0.173 A 
ATOM     76  C   UNL A   1      36.233  32.420  29.227  1.00  0.00     0.173 A 
ATOM     77  F   UNL A   1      36.300  32.095  32.842  1.00  0.00    -0.203 F 
ATOM     78  C   UNL A   1      34.806  33.254  31.444  1.00  0.00     0.198 A 
ATOM     79  C   UNL A   1      35.118  33.246  29.074  1.00  0.00     0.198 A 
ATOM     80  F   UNL A   1      36.931  32.118  28.123  1.00  0.00    -0.203 F 
ATOM     81  F   UNL A   1      34.148  33.696  32.525  1.00  0.00    -0.200 F 
ATOM     82  C   UNL A   1      34.415  33.675  30.184  1.00  0.00     0.200 A 
ATOM     83  F   UNL A   1      34.773  33.677  27.853  1.00  0.00    -0.200 F 
ATOM     84  F   UNL A   1      33.389  34.526  30.042  1.00  0.00    -0.200 F 
ENDBRANCH  50  74
BRANCH  62  85
ATOM     85  C   UNL A   1      41.993  30.457  33.452  1.00  0.00     0.064 A 
ATOM     86  C   UNL A   1      41.672  29.096  33.314  1.00  0.00     0.173 A 
ATOM     87  C   UNL A   1      42.182  30.945  34.750  1.00  0.00     0.173 A 
ATOM     88  F   UNL A   1      41.560  28.532  32.108  1.00  0.00    -0.203 F 
ATOM     89  C   UNL A   1      41.508  28.275  34.428  1.00  0.00     0.198 A 
ATOM     90  C   UNL A   1      42.054  30.115  35.861  1.00  0.00     0.198 A 
ATOM     91  F   UNL A   1      42.539  32.225  34.940  1.00  0.00    -0.203 F 
ATOM     92  F   UNL A   1      41.185  26.982  34.269  1.00  0.00    -0.200 F 
ATOM     93  C   UNL A   1      41.705  28.784  35.701  1.00  0.00     0.200 A 
ATOM     94  F   UNL A   1      42.291  30.602  37.086  1.00  0.00    -0.200 F 
ATOM     95  F   UNL A   1      41.584  27.986  36.771  1.00  0.00    -0.200 F 
ENDBRANCH  62  85
ENDBRANCH  36  37
ENDBRANCH  28  31
ENDBRANCH  26  27
ENDBRANCH  25  26
ENDBRANCH   1  25
TORSDOF 14
ENDMDL
MODEL 2
REMARK VINA RESULT:     -13.2      3.573      9.552
REMARK SMILES CC(C)[C@H](C)CNC(=O)N1CC(n2cc(C(=O)NCCCNC(=O)c3ccc(-c4c5nc(c(-c6c(F)c(F)c(F)c(F)c6F)c6ccc([nH]6)c(-c6c(F)c(F)c(F)c(F)c6F)c6nc(c(-c7c(F)c(F)c(F)c(F)c7F)c7ccc4[nH]7)C=C6)C=C5)cc3)nn2)C1
REMARK SMILES IDX 19 1 18 2 16 3 17 4 15 6 13 7 14 8 89 9 88 10 12 11 7 12
REMARK SMILES IDX 8 13 9 15 10 16 11 17 90 18 6 19 4 20 5 21 2 22 1 23 3 24
REMARK SMILES IDX 20 25 21 26 22 27 23 28 24 30 25 31 26 32 87 33 27 34 86 35
REMARK SMILES IDX 28 36 29 37 30 38 80 39 31 40 85 41 79 42 81 43 32 44 84 45
REMARK SMILES IDX 78 46 77 47 33 49 65 50 45 51 64 52 46 53 49 54 63 55 82 56
REMARK SMILES IDX 47 57 48 58 62 60 83 61 50 62 34 63 35 64 43 65 36 66 37 67
REMARK SMILES IDX 41 68 44 69 38 70 39 71 42 72 40 73 66 74 67 75 75 76 68 77
REMARK SMILES IDX 69 78 73 79 76 80 70 81 71 82 74 83 72 84 51 85 52 86 60 87
REMARK SMILES IDX 53 88 54 89 58 90 61 91 55 92 56 93 59 94 57 95
REMARK H PARENT 18 5 7 14 22 29 81 48 49 59
REMARK Flexibility Score: inf
ROOT
ATOM      1  C   UNL A   1      33.599  29.631  26.335  1.00  0.00     0.118 C 
ENDROOT
BRANCH   1   2
ATOM      2  N   UNL A   1      32.550  29.944  25.378  1.00  0.00    -0.351 N 
ATOM      3  C   UNL A   1      31.489  29.183  24.932  1.00  0.00     0.273 C 
ATOM      4  O   UNL A   1      30.643  29.750  24.242  1.00  0.00    -0.267 OA
ATOM      5  H   UNL A   1      32.608  30.844  24.983  1.00  0.00     0.163 HD
BRANCH   3   6
ATOM      6  C   UNL A   1      31.377  27.777  25.301  1.00  0.00     0.170 A 
ATOM      7  N   UNL A   1      31.321  25.608  25.397  1.00  0.00    -0.245 N 
ATOM      8  C   UNL A   1      31.320  26.647  24.509  1.00  0.00     0.145 A 
ATOM      9  N   UNL A   1      31.301  26.051  26.660  1.00  0.00    -0.066 NA
ATOM     10  N   UNL A   1      31.298  27.377  26.617  1.00  0.00    -0.125 NA
BRANCH   7  11
ATOM     11  C   UNL A   1      31.462  24.245  24.998  1.00  0.00     0.148 C 
ATOM     12  N   UNL A   1      33.959  20.901  25.156  1.00  0.00    -0.338 N 
ATOM     13  C   UNL A   1      32.677  21.278  25.389  1.00  0.00     0.317 C 
ATOM     14  H   UNL A   1      34.065  20.052  24.670  1.00  0.00     0.165 HD
ATOM     15  O   UNL A   1      31.788  20.434  25.306  1.00  0.00    -0.249 OA
ATOM     16  N   UNL A   1      32.424  22.575  25.698  1.00  0.00    -0.320 N 
ATOM     17  C   UNL A   1      31.143  23.181  26.054  1.00  0.00     0.150 C 
ATOM     18  C   UNL A   1      32.937  23.805  25.116  1.00  0.00     0.150 C 
BRANCH  12  19
ATOM     19  C   UNL A   1      35.200  21.561  25.520  1.00  0.00     0.121 C 
BRANCH  19  20
ATOM     20  C   UNL A   1      36.126  21.804  24.301  1.00  0.00     0.008 C 
ATOM     21  C   UNL A   1      36.058  23.280  23.877  1.00  0.00     0.010 C 
BRANCH  20  22
ATOM     22  C   UNL A   1      37.545  21.231  24.626  1.00  0.00    -0.013 C 
ATOM     23  C   UNL A   1      38.182  22.058  25.753  1.00  0.00     0.008 C 
ATOM     24  C   UNL A   1      37.613  19.751  24.999  1.00  0.00     0.008 C 
ENDBRANCH  20  22
ENDBRANCH  19  20
ENDBRANCH  12  19
ENDBRANCH   7  11
ENDBRANCH   3   6
ENDBRANCH   1   2
BRANCH   1  25
ATOM     25  C   UNL A   1      33.485  30.465  27.614  1.00  0.00     0.042 C 
BRANCH  25  26
ATOM     26  C   UNL A   1      34.629  31.457  27.759  1.00  0.00     0.118 C 
BRANCH  26  27
ATOM     27  N   UNL A   1      34.666  32.079  29.086  1.00  0.00    -0.352 N 
ATOM     28  C   UNL A   1      35.471  31.755  30.167  1.00  0.00     0.251 C 
ATOM     29  H   UNL A   1      34.038  32.824  29.228  1.00  0.00     0.163 HD
ATOM     30  O   UNL A   1      35.186  32.103  31.294  1.00  0.00    -0.269 OA
BRANCH  28  31
ATOM     31  C   UNL A   1      36.685  30.962  29.907  1.00  0.00     0.039 A 
ATOM     32  C   UNL A   1      37.914  31.578  29.653  1.00  0.00     0.014 A 
ATOM     33  C   UNL A   1      36.580  29.580  30.008  1.00  0.00     0.014 A 
ATOM     34  C   UNL A   1      39.058  30.787  29.609  1.00  0.00     0.010 A 
ATOM     35  C   UNL A   1      37.719  28.833  30.136  1.00  0.00     0.010 A 
ATOM     36  C   UNL A   1      38.958  29.414  29.886  1.00  0.00    -0.014 A 
BRANCH  36  37
ATOM     37  C   UNL A   1      40.155  28.590  30.041  1.00  0.00     0.031 A 
ATOM     38  C   UNL A   1      40.634  28.437  31.443  1.00  0.00     0.074 A 
ATOM     39  C   UNL A   1      40.650  27.835  29.036  1.00  0.00     0.049 A 
ATOM     40  N   UNL A   1      41.756  28.836  31.946  1.00  0.00    -0.248 NA
ATOM     41  C   UNL A   1      39.709  27.868  32.438  1.00  0.00     0.031 C 
ATOM     42  C   UNL A   1      40.097  27.651  27.686  1.00  0.00     0.029 A 
ATOM     43  N   UNL A   1      41.707  26.975  29.043  1.00  0.00    -0.354 N 
ATOM     44  C   UNL A   1      41.764  28.400  33.270  1.00  0.00     0.074 A 
ATOM     45  C   UNL A   1      40.423  27.968  33.562  1.00  0.00     0.031 C 
ATOM     46  C   UNL A   1      40.668  26.578  27.101  1.00  0.00     0.029 A 
ATOM     47  C   UNL A   1      41.758  26.129  27.943  1.00  0.00     0.049 A 
ATOM     48  H   UNL A   1      42.377  26.956  29.765  1.00  0.00     0.167 HD
ATOM     49  C   UNL A   1      42.939  28.184  33.925  1.00  0.00     0.037 A 
ATOM     50  C   UNL A   1      42.638  25.126  27.726  1.00  0.00     0.037 A 
ATOM     51  C   UNL A   1      44.034  28.807  33.224  1.00  0.00     0.049 A 
ATOM     52  C   UNL A   1      43.823  25.402  28.562  1.00  0.00     0.074 A 
ATOM     53  C   UNL A   1      44.439  30.096  32.957  1.00  0.00     0.029 A 
ATOM     54  N   UNL A   1      44.698  27.991  32.347  1.00  0.00    -0.354 N 
ATOM     55  N   UNL A   1      44.617  26.421  28.378  1.00  0.00    -0.248 NA
ATOM     56  C   UNL A   1      43.938  24.749  29.858  1.00  0.00     0.031 C 
ATOM     57  C   UNL A   1      45.088  30.037  31.686  1.00  0.00     0.029 A 
ATOM     58  C   UNL A   1      45.091  28.710  31.252  1.00  0.00     0.049 A 
ATOM     59  H   UNL A   1      44.867  27.031  32.484  1.00  0.00     0.167 HD
ATOM     60  C   UNL A   1      45.001  26.797  29.652  1.00  0.00     0.074 A 
ATOM     61  C   UNL A   1      44.703  25.642  30.491  1.00  0.00     0.031 C 
ATOM     62  C   UNL A   1      45.240  28.109  29.944  1.00  0.00     0.037 A 
BRANCH  49  63
ATOM     63  C   UNL A   1      43.189  27.046  34.899  1.00  0.00     0.064 A 
ATOM     64  C   UNL A   1      43.489  27.354  36.245  1.00  0.00     0.173 A 
ATOM     65  C   UNL A   1      43.478  25.721  34.509  1.00  0.00     0.173 A 
ATOM     66  F   UNL A   1      43.274  28.587  36.728  1.00  0.00    -0.203 F 
ATOM     67  C   UNL A   1      44.109  26.435  37.098  1.00  0.00     0.198 A 
ATOM     68  C   UNL A   1      44.051  24.791  35.377  1.00  0.00     0.198 A 
ATOM     69  F   UNL A   1      43.333  25.299  33.248  1.00  0.00    -0.203 F 
ATOM     70  F   UNL A   1      44.496  26.816  38.323  1.00  0.00    -0.200 F 
ATOM     71  C   UNL A   1      44.398  25.156  36.659  1.00  0.00     0.200 A 
ATOM     72  F   UNL A   1      44.341  23.563  34.926  1.00  0.00    -0.200 F 
ATOM     73  F   UNL A   1      45.053  24.295  37.449  1.00  0.00    -0.200 F 
ENDBRANCH  49  63
BRANCH  50  74
ATOM     74  C   UNL A   1      42.423  23.844  27.021  1.00  0.00     0.064 A 
ATOM     75  C   UNL A   1      43.285  23.419  25.999  1.00  0.00     0.173 A 
ATOM     76  C   UNL A   1      41.528  22.884  27.531  1.00  0.00     0.173 A 
ATOM     77  F   UNL A   1      44.193  24.264  25.489  1.00  0.00    -0.203 F 
ATOM     78  C   UNL A   1      43.275  22.099  25.536  1.00  0.00     0.198 A 
ATOM     79  C   UNL A   1      41.516  21.568  27.066  1.00  0.00     0.198 A 
ATOM     80  F   UNL A   1      40.716  23.182  28.556  1.00  0.00    -0.203 F 
ATOM     81  F   UNL A   1      44.157  21.712  24.605  1.00  0.00    -0.200 F 
ATOM     82  C   UNL A   1      42.400  21.173  26.080  1.00  0.00     0.200 A 
ATOM     83  F   UNL A   1      40.692  20.672  27.627  1.00  0.00    -0.200 F 
ATOM     84  F   UNL A   1      42.438  19.893  25.684  1.00  0.00    -0.200 F 
ENDBRANCH  50  74
BRANCH  62  85
ATOM     85  C   UNL A   1      45.479  29.035  28.785  1.00  0.00     0.064 A 
ATOM     86  C   UNL A   1      44.480  29.798  28.158  1.00  0.00     0.173 A 
ATOM     87  C   UNL A   1      46.798  29.227  28.358  1.00  0.00     0.173 A 
ATOM     88  F   UNL A   1      43.209  29.737  28.564  1.00  0.00    -0.203 F 
ATOM     89  C   UNL A   1      44.786  30.681  27.124  1.00  0.00     0.198 A 
ATOM     90  C   UNL A   1      47.107  30.137  27.350  1.00  0.00     0.198 A 
ATOM     91  F   UNL A   1      47.800  28.563  28.955  1.00  0.00    -0.203 F 
ATOM     92  F   UNL A   1      43.810  31.386  26.531  1.00  0.00    -0.200 F 
ATOM     93  C   UNL A   1      46.100  30.854  26.725  1.00  0.00     0.200 A 
ATOM     94  F   UNL A   1      48.385  30.334  27.001  1.00  0.00    -0.200 F 
ATOM     95  F   UNL A   1      46.400  31.731  25.756  1.00  0.00    -0.200 F 
ENDBRANCH  62  85
ENDBRANCH  36  37
ENDBRANCH  28  31
ENDBRANCH  26  27
ENDBRANCH  25  26
ENDBRANCH   1  25
TORSDOF 14
ENDMDL
MODEL 3
REMARK VINA RESULT:     -13.0      3.399      9.504
REMARK SMILES CC(C)[C@H](C)CNC(=O)N1CC(n2cc(C(=O)NCCCNC(=O)c3ccc(-c4c5nc(c(-c6c(F)c(F)c(F)c(F)c6F)c6ccc([nH]6)c(-c6c(F)c(F)c(F)c(F)c6F)c6nc(c(-c7c(F)c(F)c(F)c(F)c7F)c7ccc4[nH]7)C=C6)C=C5)cc3)nn2)C1
REMARK SMILES IDX 19 1 18 2 16 3 17 4 15 6 13 7 14 8 89 9 88 10 12 11 7 12
REMARK SMILES IDX 8 13 9 15 10 16 11 17 90 18 6 19 4 20 5 21 2 22 1 23 3 24
REMARK SMILES IDX 20 25 21 26 22 27 23 28 24 30 25 31 26 32 87 33 27 34 86 35
REMARK SMILES IDX 28 36 29 37 30 38 80 39 31 40 85 41 79 42 81 43 32 44 84 45
REMARK SMILES IDX 78 46 77 47 33 49 65 50 45 51 64 52 46 53 49 54 63 55 82 56
REMARK SMILES IDX 47 57 48 58 62 60 83 61 50 62 34 63 35 64 43 65 36 66 37 67
REMARK SMILES IDX 41 68 44 69 38 70 39 71 42 72 40 73 66 74 67 75 75 76 68 77
REMARK SMILES IDX 69 78 73 79 76 80 70 81 71 82 74 83 72 84 51 85 52 86 60 87
REMARK SMILES IDX 53 88 54 89 58 90 61 91 55 92 56 93 59 94 57 95
REMARK H PARENT 18 5 7 14 22 29 81 48 49 59
REMARK Flexibility Score: inf
ROOT
ATOM      1  C   UNL A   1      32.342  29.454  26.646  1.00  0.00     0.118 C 
ENDROOT
BRANCH   1   2
ATOM      2  N   UNL A   1      31.549  29.232  25.448  1.00  0.00    -0.351 N 
ATOM      3  C   UNL A   1      31.057  28.064  24.904  1.00  0.00     0.273 C 
ATOM      4  O   UNL A   1      30.265  28.171  23.969  1.00  0.00    -0.267 OA
ATOM      5  H   UNL A   1      31.327  30.048  24.943  1.00  0.00     0.163 HD
BRANCH   3   6
ATOM      6  C   UNL A   1      31.448  26.770  25.448  1.00  0.00     0.170 A 
ATOM      7  N   UNL A   1      32.416  24.904  25.993  1.00  0.00    -0.245 N 
ATOM      8  C   UNL A   1      32.459  25.909  25.068  1.00  0.00     0.145 A 
ATOM      9  N   UNL A   1      31.403  25.076  26.849  1.00  0.00    -0.066 NA
ATOM     10  N   UNL A   1      30.778  26.195  26.506  1.00  0.00    -0.125 NA
BRANCH   7  11
ATOM     11  C   UNL A   1      33.419  23.891  26.087  1.00  0.00     0.148 C 
ATOM     12  N   UNL A   1      34.200  19.825  25.535  1.00  0.00    -0.338 N 
ATOM     13  C   UNL A   1      34.683  21.051  25.211  1.00  0.00     0.317 C 
ATOM     14  H   UNL A   1      34.877  19.172  25.825  1.00  0.00     0.165 HD
ATOM     15  O   UNL A   1      35.882  21.170  24.969  1.00  0.00    -0.249 OA
ATOM     16  N   UNL A   1      33.825  22.101  25.172  1.00  0.00    -0.320 N 
ATOM     17  C   UNL A   1      34.108  23.481  24.781  1.00  0.00     0.150 C 
ATOM     18  C   UNL A   1      32.765  22.492  26.087  1.00  0.00     0.150 C 
BRANCH  12  19
ATOM     19  C   UNL A   1      32.835  19.332  25.516  1.00  0.00     0.121 C 
BRANCH  19  20
ATOM     20  C   UNL A   1      32.594  18.286  24.398  1.00  0.00     0.008 C 
ATOM     21  C   UNL A   1      32.406  18.995  23.048  1.00  0.00     0.010 C 
BRANCH  20  22
ATOM     22  C   UNL A   1      33.721  17.204  24.472  1.00  0.00    -0.013 C 
ATOM     23  C   UNL A   1      33.299  16.095  25.449  1.00  0.00     0.008 C 
ATOM     24  C   UNL A   1      34.139  16.564  23.148  1.00  0.00     0.008 C 
ENDBRANCH  20  22
ENDBRANCH  19  20
ENDBRANCH  12  19
ENDBRANCH   7  11
ENDBRANCH   3   6
ENDBRANCH   1   2
BRANCH   1  25
ATOM     25  C   UNL A   1      33.847  29.402  26.364  1.00  0.00     0.042 C 
BRANCH  25  26
ATOM     26  C   UNL A   1      34.676  29.623  27.619  1.00  0.00     0.118 C 
BRANCH  26  27
ATOM     27  N   UNL A   1      34.593  31.002  28.110  1.00  0.00    -0.352 N 
ATOM     28  C   UNL A   1      35.285  31.585  29.160  1.00  0.00     0.251 C 
ATOM     29  H   UNL A   1      33.965  31.589  27.631  1.00  0.00     0.163 HD
ATOM     30  O   UNL A   1      34.896  32.611  29.680  1.00  0.00    -0.269 OA
BRANCH  28  31
ATOM     31  C   UNL A   1      36.506  30.914  29.637  1.00  0.00     0.039 A 
ATOM     32  C   UNL A   1      36.454  29.654  30.239  1.00  0.00     0.014 A 
ATOM     33  C   UNL A   1      37.719  31.544  29.388  1.00  0.00     0.014 A 
ATOM     34  C   UNL A   1      37.650  28.987  30.490  1.00  0.00     0.010 A 
ATOM     35  C   UNL A   1      38.877  30.819  29.476  1.00  0.00     0.010 A 
ATOM     36  C   UNL A   1      38.861  29.562  30.074  1.00  0.00    -0.014 A 
BRANCH  36  37
ATOM     37  C   UNL A   1      40.112  28.811  30.143  1.00  0.00     0.031 A 
ATOM     38  C   UNL A   1      40.678  28.660  31.513  1.00  0.00     0.074 A 
ATOM     39  C   UNL A   1      40.594  28.108  29.096  1.00  0.00     0.049 A 
ATOM     40  N   UNL A   1      41.800  29.118  31.963  1.00  0.00    -0.248 NA
ATOM     41  C   UNL A   1      39.848  28.016  32.544  1.00  0.00     0.031 C 
ATOM     42  C   UNL A   1      39.978  27.917  27.775  1.00  0.00     0.029 A 
ATOM     43  N   UNL A   1      41.700  27.315  29.024  1.00  0.00    -0.354 N 
ATOM     44  C   UNL A   1      41.910  28.657  33.273  1.00  0.00     0.074 A 
ATOM     45  C   UNL A   1      40.617  28.137  33.629  1.00  0.00     0.031 C 
ATOM     46  C   UNL A   1      40.578  26.893  27.134  1.00  0.00     0.029 A 
ATOM     47  C   UNL A   1      41.739  26.496  27.903  1.00  0.00     0.049 A 
ATOM     48  H   UNL A   1      42.410  27.323  29.707  1.00  0.00     0.167 HD
ATOM     49  C   UNL A   1      43.131  28.501  33.857  1.00  0.00     0.037 A 
ATOM     50  C   UNL A   1      42.664  25.553  27.615  1.00  0.00     0.037 A 
ATOM     51  C   UNL A   1      44.145  29.204  33.111  1.00  0.00     0.049 A 
ATOM     52  C   UNL A   1      43.877  25.886  28.390  1.00  0.00     0.074 A 
ATOM     53  C   UNL A   1      44.456  30.521  32.852  1.00  0.00     0.029 A 
ATOM     54  N   UNL A   1      44.806  28.448  32.180  1.00  0.00    -0.354 N 
ATOM     55  N   UNL A   1      44.595  26.955  28.185  1.00  0.00    -0.248 NA
ATOM     56  C   UNL A   1      44.104  25.215  29.662  1.00  0.00     0.031 C 
ATOM     57  C   UNL A   1      45.033  30.527  31.546  1.00  0.00     0.029 A 
ATOM     58  C   UNL A   1      45.093  29.212  31.082  1.00  0.00     0.049 A 
ATOM     59  H   UNL A   1      45.041  27.498  32.285  1.00  0.00     0.167 HD
ATOM     60  C   UNL A   1      45.028  27.329  29.445  1.00  0.00     0.074 A 
ATOM     61  C   UNL A   1      44.848  26.142  30.272  1.00  0.00     0.031 C 
ATOM     62  C   UNL A   1      45.203  28.647  29.754  1.00  0.00     0.037 A 
BRANCH  49  63
ATOM     63  C   UNL A   1      43.505  27.362  34.789  1.00  0.00     0.064 A 
ATOM     64  C   UNL A   1      43.960  27.668  36.092  1.00  0.00     0.173 A 
ATOM     65  C   UNL A   1      43.757  26.040  34.361  1.00  0.00     0.173 A 
ATOM     66  F   UNL A   1      43.793  28.897  36.602  1.00  0.00    -0.203 F 
ATOM     67  C   UNL A   1      44.685  26.750  36.860  1.00  0.00     0.198 A 
ATOM     68  C   UNL A   1      44.436  25.112  35.151  1.00  0.00     0.198 A 
ATOM     69  F   UNL A   1      43.466  25.622  33.124  1.00  0.00    -0.203 F 
ATOM     70  F   UNL A   1      45.211  27.131  38.032  1.00  0.00    -0.200 F 
ATOM     71  C   UNL A   1      44.930  25.476  36.384  1.00  0.00     0.200 A 
ATOM     72  F   UNL A   1      44.681  23.889  34.663  1.00  0.00    -0.200 F 
ATOM     73  F   UNL A   1      45.681  24.618  37.086  1.00  0.00    -0.200 F 
ENDBRANCH  49  63
BRANCH  50  74
ATOM     74  C   UNL A   1      42.488  24.275  26.893  1.00  0.00     0.064 A 
ATOM     75  C   UNL A   1      43.271  23.954  25.774  1.00  0.00     0.173 A 
ATOM     76  C   UNL A   1      41.739  23.227  27.460  1.00  0.00     0.173 A 
ATOM     77  F   UNL A   1      44.043  24.889  25.201  1.00  0.00    -0.203 F 
ATOM     78  C   UNL A   1      43.326  22.650  25.271  1.00  0.00     0.198 A 
ATOM     79  C   UNL A   1      41.792  21.927  26.955  1.00  0.00     0.198 A 
ATOM     80  F   UNL A   1      41.018  23.425  28.573  1.00  0.00    -0.203 F 
ATOM     81  F   UNL A   1      44.135  22.366  24.241  1.00  0.00    -0.200 F 
ATOM     82  C   UNL A   1      42.597  21.636  25.871  1.00  0.00     0.200 A 
ATOM     83  F   UNL A   1      41.113  20.947  27.568  1.00  0.00    -0.200 F 
ATOM     84  F   UNL A   1      42.704  20.374  25.431  1.00  0.00    -0.200 F 
ENDBRANCH  50  74
BRANCH  62  85
ATOM     85  C   UNL A   1      45.319  29.609  28.605  1.00  0.00     0.064 A 
ATOM     86  C   UNL A   1      44.236  30.289  28.025  1.00  0.00     0.173 A 
ATOM     87  C   UNL A   1      46.601  29.926  28.140  1.00  0.00     0.173 A 
ATOM     88  F   UNL A   1      42.989  30.108  28.470  1.00  0.00    -0.203 F 
ATOM     89  C   UNL A   1      44.426  31.212  26.998  1.00  0.00     0.198 A 
ATOM     90  C   UNL A   1      46.793  30.875  27.139  1.00  0.00     0.198 A 
ATOM     91  F   UNL A   1      47.678  29.344  28.692  1.00  0.00    -0.203 F 
ATOM     92  F   UNL A   1      43.372  31.835  26.450  1.00  0.00    -0.200 F 
ATOM     93  C   UNL A   1      45.706  31.509  26.560  1.00  0.00     0.200 A 
ATOM     94  F   UNL A   1      48.036  31.191  26.753  1.00  0.00    -0.200 F 
ATOM     95  F   UNL A   1      45.894  32.423  25.599  1.00  0.00    -0.200 F 
ENDBRANCH  62  85
ENDBRANCH  36  37
ENDBRANCH  28  31
ENDBRANCH  26  27
ENDBRANCH  25  26
ENDBRANCH   1  25
TORSDOF 14
ENDMDL
