MODEL 1
REMARK VINA RESULT:     -14.3      0.000      0.000
REMARK SMILES O=C(NCCCNC(=O)[C@@H]1CCCN(c2ccc3cc(S(=O)(=O)N4CCCCC4)ccc3n2)C1)c1ccc(-c2c3nc(c(-c4c(F)c(F)c(F)c(F)c4F)c4ccc([nH]4)c(-c4c(F)c(F)c(F)c(F)c4F)c4nc(c(-c5c(F)c(F)c(F)c(F)c5F)c5ccc2[nH]5)C=C4)C=C3)cc1
REMARK SMILES IDX 5 1 4 2 3 3 1 4 2 5 35 7 36 8 97 9 37 10 96 11 38 12 39 13
REMARK SMILES IDX 40 14 90 15 41 16 95 17 89 18 91 19 42 20 94 21 88 22 87 23
REMARK SMILES IDX 43 25 75 26 55 27 74 28 56 29 59 30 73 31 92 32 57 33 58 34
REMARK SMILES IDX 72 36 93 37 60 38 44 39 45 40 53 41 46 42 47 43 51 44 54 45
REMARK SMILES IDX 48 46 49 47 52 48 50 49 76 50 77 51 85 52 78 53 79 54 83 55
REMARK SMILES IDX 86 56 80 57 81 58 84 59 82 60 61 61 62 62 70 63 63 64 64 65
REMARK SMILES IDX 68 66 71 67 65 68 66 69 69 70 67 71 6 72 7 73 8 74 9 76
REMARK SMILES IDX 10 77 11 78 34 79 12 80 14 81 13 82 15 83 16 84 33 85 17 86
REMARK SMILES IDX 32 87 18 88 31 89 19 90 30 91 20 92 21 93 22 94 23 95 24 96
REMARK SMILES IDX 25 97 29 98 26 99 28 100 27 101
REMARK H PARENT 3 6 91 24 59 35 7 75
REMARK Flexibility Score: inf
ROOT
ATOM      1  C   UNL A   1      46.452  25.001  39.640  1.00  0.00     0.042 C 
ENDROOT
BRANCH   1   2
ATOM      2  C   UNL A   1      46.731  26.234  38.793  1.00  0.00     0.118 C 
BRANCH   2   3
ATOM      3  N   UNL A   1      47.647  25.930  37.702  1.00  0.00    -0.352 N 
ATOM      4  O   UNL A   1      48.214  25.239  35.642  1.00  0.00    -0.269 OA
ATOM      5  C   UNL A   1      47.413  25.839  36.354  1.00  0.00     0.251 C 
ATOM      6  H   UNL A   1      48.578  25.762  37.975  1.00  0.00     0.163 HD
BRANCH   5   7
ATOM      7  C   UNL A   1      46.222  26.469  35.745  1.00  0.00     0.039 A 
ATOM      8  C   UNL A   1      46.315  27.696  35.080  1.00  0.00     0.014 A 
ATOM      9  C   UNL A   1      45.011  25.768  35.743  1.00  0.00     0.014 A 
ATOM     10  C   UNL A   1      45.186  28.266  34.500  1.00  0.00     0.010 A 
ATOM     11  C   UNL A   1      43.899  26.300  35.087  1.00  0.00     0.010 A 
ATOM     12  C   UNL A   1      43.978  27.557  34.468  1.00  0.00    -0.014 A 
BRANCH  12  13
ATOM     13  C   UNL A   1      42.827  28.092  33.701  1.00  0.00     0.031 A 
ATOM     14  C   UNL A   1      42.664  27.778  32.245  1.00  0.00     0.074 A 
ATOM     15  C   UNL A   1      41.953  28.904  34.325  1.00  0.00     0.049 A 
ATOM     16  N   UNL A   1      41.776  28.229  31.397  1.00  0.00    -0.248 NA
ATOM     17  C   UNL A   1      43.638  26.846  31.661  1.00  0.00     0.031 C 
ATOM     18  C   UNL A   1      42.024  29.285  35.737  1.00  0.00     0.029 A 
ATOM     19  N   UNL A   1      40.849  29.569  33.856  1.00  0.00    -0.354 N 
ATOM     20  C   UNL A   1      42.097  27.657  30.174  1.00  0.00     0.074 A 
ATOM     21  C   UNL A   1      43.278  26.848  30.385  1.00  0.00     0.031 C 
ATOM     22  C   UNL A   1      41.005  30.107  36.023  1.00  0.00     0.029 A 
ATOM     23  C   UNL A   1      40.252  30.366  34.800  1.00  0.00     0.049 A 
ATOM     24  H   UNL A   1      40.517  29.481  32.933  1.00  0.00     0.167 HD
ATOM     25  C   UNL A   1      41.456  27.797  28.988  1.00  0.00     0.037 A 
ATOM     26  C   UNL A   1      39.238  31.245  34.688  1.00  0.00     0.037 A 
ATOM     27  C   UNL A   1      40.282  28.611  28.798  1.00  0.00     0.049 A 
ATOM     28  C   UNL A   1      38.569  31.415  33.356  1.00  0.00     0.074 A 
ATOM     29  C   UNL A   1      39.527  28.784  27.652  1.00  0.00     0.029 A 
ATOM     30  N   UNL A   1      39.704  29.407  29.779  1.00  0.00    -0.354 N 
ATOM     31  N   UNL A   1      38.846  30.832  32.215  1.00  0.00    -0.248 NA
ATOM     32  C   UNL A   1      37.448  32.362  33.292  1.00  0.00     0.031 C 
ATOM     33  C   UNL A   1      38.538  29.736  27.919  1.00  0.00     0.029 A 
ATOM     34  C   UNL A   1      38.625  30.101  29.253  1.00  0.00     0.049 A 
ATOM     35  H   UNL A   1      40.015  29.469  30.712  1.00  0.00     0.167 HD
ATOM     36  C   UNL A   1      37.921  31.319  31.302  1.00  0.00     0.074 A 
ATOM     37  C   UNL A   1      37.072  32.245  32.025  1.00  0.00     0.031 C 
ATOM     38  C   UNL A   1      37.787  31.018  29.988  1.00  0.00     0.037 A 
BRANCH  25  39
ATOM     39  C   UNL A   1      42.041  27.090  27.797  1.00  0.00     0.064 A 
ATOM     40  C   UNL A   1      41.675  25.778  27.455  1.00  0.00     0.173 A 
ATOM     41  C   UNL A   1      42.984  27.736  26.982  1.00  0.00     0.173 A 
ATOM     42  F   UNL A   1      40.782  25.109  28.199  1.00  0.00    -0.203 F 
ATOM     43  C   UNL A   1      42.267  25.126  26.375  1.00  0.00     0.198 A 
ATOM     44  C   UNL A   1      43.545  27.095  25.882  1.00  0.00     0.198 A 
ATOM     45  F   UNL A   1      43.363  28.995  27.253  1.00  0.00    -0.203 F 
ATOM     46  F   UNL A   1      41.952  23.851  26.112  1.00  0.00    -0.200 F 
ATOM     47  C   UNL A   1      43.199  25.786  25.588  1.00  0.00     0.200 A 
ATOM     48  F   UNL A   1      44.432  27.741  25.111  1.00  0.00    -0.200 F 
ATOM     49  F   UNL A   1      43.769  25.156  24.553  1.00  0.00    -0.200 F 
ENDBRANCH  25  39
BRANCH  26  50
ATOM     50  C   UNL A   1      38.829  32.030  35.880  1.00  0.00     0.064 A 
ATOM     51  C   UNL A   1      38.066  31.454  36.902  1.00  0.00     0.173 A 
ATOM     52  C   UNL A   1      39.250  33.360  36.048  1.00  0.00     0.173 A 
ATOM     53  F   UNL A   1      37.626  30.193  36.780  1.00  0.00    -0.203 F 
ATOM     54  C   UNL A   1      37.737  32.177  38.047  1.00  0.00     0.198 A 
ATOM     55  C   UNL A   1      38.946  34.071  37.206  1.00  0.00     0.198 A 
ATOM     56  F   UNL A   1      39.991  33.954  35.101  1.00  0.00    -0.203 F 
ATOM     57  F   UNL A   1      36.983  31.612  39.000  1.00  0.00    -0.200 F 
ATOM     58  C   UNL A   1      38.186  33.480  38.203  1.00  0.00     0.200 A 
ATOM     59  F   UNL A   1      39.401  35.322  37.360  1.00  0.00    -0.200 F 
ATOM     60  F   UNL A   1      37.887  34.167  39.314  1.00  0.00    -0.200 F 
ENDBRANCH  26  50
BRANCH  38  61
ATOM     61  C   UNL A   1      36.654  31.661  29.241  1.00  0.00     0.064 A 
ATOM     62  C   UNL A   1      35.516  30.937  28.857  1.00  0.00     0.173 A 
ATOM     63  C   UNL A   1      36.677  33.039  28.980  1.00  0.00     0.173 A 
ATOM     64  F   UNL A   1      35.453  29.614  29.068  1.00  0.00    -0.203 F 
ATOM     65  C   UNL A   1      34.444  31.572  28.232  1.00  0.00     0.198 A 
ATOM     66  C   UNL A   1      35.591  33.675  28.385  1.00  0.00     0.198 A 
ATOM     67  F   UNL A   1      37.741  33.776  29.332  1.00  0.00    -0.203 F 
ATOM     68  F   UNL A   1      33.378  30.857  27.845  1.00  0.00    -0.200 F 
ATOM     69  C   UNL A   1      34.478  32.940  28.009  1.00  0.00     0.200 A 
ATOM     70  F   UNL A   1      35.619  35.000  28.186  1.00  0.00    -0.200 F 
ATOM     71  F   UNL A   1      33.435  33.552  27.430  1.00  0.00    -0.200 F 
ENDBRANCH  38  61
ENDBRANCH  12  13
ENDBRANCH   5   7
ENDBRANCH   2   3
ENDBRANCH   1   2
BRANCH   1  72
ATOM     72  C   UNL A   1      45.256  24.182  39.165  1.00  0.00     0.117 C 
BRANCH  72  73
ATOM     73  N   UNL A   1      45.057  22.964  39.919  1.00  0.00    -0.356 N 
ATOM     74  C   UNL A   1      45.743  21.803  40.005  1.00  0.00     0.224 C 
ATOM     75  H   UNL A   1      44.255  22.985  40.489  1.00  0.00     0.163 HD
ATOM     76  O   UNL A   1      45.324  21.019  40.871  1.00  0.00    -0.275 OA
BRANCH  74  77
ATOM     77  C   UNL A   1      46.877  21.331  39.095  1.00  0.00     0.098 C 
ATOM     78  C   UNL A   1      46.997  21.702  37.611  1.00  0.00     0.017 C 
ATOM     79  C   UNL A   1      47.030  19.827  39.289  1.00  0.00     0.131 C 
ATOM     80  C   UNL A   1      46.335  20.744  36.602  1.00  0.00     0.022 C 
ATOM     81  N   UNL A   1      46.068  19.159  38.427  1.00  0.00    -0.356 N 
ATOM     82  C   UNL A   1      46.323  19.261  37.000  1.00  0.00     0.118 C 
BRANCH  81  83
ATOM     83  C   UNL A   1      45.247  18.178  38.937  1.00  0.00     0.129 A 
ATOM     84  C   UNL A   1      44.527  17.344  38.080  1.00  0.00     0.047 A 
ATOM     85  N   UNL A   1      45.192  18.004  40.272  1.00  0.00    -0.231 NA
ATOM     86  C   UNL A   1      43.738  16.322  38.592  1.00  0.00     0.014 A 
ATOM     87  C   UNL A   1      44.387  17.056  40.775  1.00  0.00     0.073 A 
ATOM     88  C   UNL A   1      43.645  16.170  39.970  1.00  0.00     0.002 A 
ATOM     89  C   UNL A   1      44.260  16.946  42.148  1.00  0.00     0.030 A 
ATOM     90  C   UNL A   1      42.832  15.181  40.545  1.00  0.00     0.032 A 
ATOM     91  C   UNL A   1      43.429  15.986  42.736  1.00  0.00     0.024 A 
ATOM     92  C   UNL A   1      42.723  15.091  41.934  1.00  0.00     0.083 A 
BRANCH  92  93
ATOM     93  S   UNL A   1      41.653  13.811  42.568  1.00  0.00     0.243 S 
ATOM     94  O   UNL A   1      40.890  14.430  43.637  1.00  0.00    -0.207 OA
ATOM     95  O   UNL A   1      41.000  13.236  41.415  1.00  0.00    -0.207 OA
BRANCH  93  96
ATOM     96  N   UNL A   1      42.647  12.612  43.269  1.00  0.00    -0.198 NA
ATOM     97  C   UNL A   1      43.063  12.862  44.673  1.00  0.00     0.102 C 
ATOM     98  C   UNL A   1      42.376  11.219  42.839  1.00  0.00     0.102 C 
ATOM     99  C   UNL A   1      44.029  11.808  45.195  1.00  0.00     0.017 C 
ATOM    100  C   UNL A   1      43.372  10.224  43.414  1.00  0.00     0.017 C 
ATOM    101  C   UNL A   1      43.524  10.403  44.916  1.00  0.00     0.003 C 
ENDBRANCH  93  96
ENDBRANCH  92  93
ENDBRANCH  81  83
ENDBRANCH  74  77
ENDBRANCH  72  73
ENDBRANCH   1  72
TORSDOF 13
ENDMDL
MODEL 2
REMARK VINA RESULT:     -14.2      6.967     13.984
REMARK SMILES O=C(NCCCNC(=O)[C@@H]1CCCN(c2ccc3cc(S(=O)(=O)N4CCCCC4)ccc3n2)C1)c1ccc(-c2c3nc(c(-c4c(F)c(F)c(F)c(F)c4F)c4ccc([nH]4)c(-c4c(F)c(F)c(F)c(F)c4F)c4nc(c(-c5c(F)c(F)c(F)c(F)c5F)c5ccc2[nH]5)C=C4)C=C3)cc1
REMARK SMILES IDX 5 1 4 2 3 3 1 4 2 5 35 7 36 8 97 9 37 10 96 11 38 12 39 13
REMARK SMILES IDX 40 14 90 15 41 16 95 17 89 18 91 19 42 20 94 21 88 22 87 23
REMARK SMILES IDX 43 25 75 26 55 27 74 28 56 29 59 30 73 31 92 32 57 33 58 34
REMARK SMILES IDX 72 36 93 37 60 38 44 39 45 40 53 41 46 42 47 43 51 44 54 45
REMARK SMILES IDX 48 46 49 47 52 48 50 49 76 50 77 51 85 52 78 53 79 54 83 55
REMARK SMILES IDX 86 56 80 57 81 58 84 59 82 60 61 61 62 62 70 63 63 64 64 65
REMARK SMILES IDX 68 66 71 67 65 68 66 69 69 70 67 71 6 72 7 73 8 74 9 76
REMARK SMILES IDX 10 77 11 78 34 79 12 80 14 81 13 82 15 83 16 84 33 85 17 86
REMARK SMILES IDX 32 87 18 88 31 89 19 90 30 91 20 92 21 93 22 94 23 95 24 96
REMARK SMILES IDX 25 97 29 98 26 99 28 100 27 101
REMARK H PARENT 3 6 91 24 59 35 7 75
REMARK Flexibility Score: inf
ROOT
ATOM      1  C   UNL A   1      33.580  33.536  28.253  1.00  0.00     0.042 C 
ENDROOT
BRANCH   1   2
ATOM      2  C   UNL A   1      34.506  32.459  27.709  1.00  0.00     0.118 C 
BRANCH   2   3
ATOM      3  N   UNL A   1      33.906  31.137  27.828  1.00  0.00    -0.352 N 
ATOM      4  O   UNL A   1      33.828  28.902  27.626  1.00  0.00    -0.269 OA
ATOM      5  C   UNL A   1      34.498  29.901  27.874  1.00  0.00     0.251 C 
ATOM      6  H   UNL A   1      32.923  31.129  27.883  1.00  0.00     0.163 HD
BRANCH   5   7
ATOM      7  C   UNL A   1      35.924  29.754  28.237  1.00  0.00     0.039 A 
ATOM      8  C   UNL A   1      36.303  29.330  29.515  1.00  0.00     0.014 A 
ATOM      9  C   UNL A   1      36.897  29.937  27.248  1.00  0.00     0.014 A 
ATOM     10  C   UNL A   1      37.650  29.184  29.833  1.00  0.00     0.010 A 
ATOM     11  C   UNL A   1      38.242  29.707  27.544  1.00  0.00     0.010 A 
ATOM     12  C   UNL A   1      38.628  29.336  28.841  1.00  0.00    -0.014 A 
BRANCH  12  13
ATOM     13  C   UNL A   1      40.043  29.012  29.142  1.00  0.00     0.031 A 
ATOM     14  C   UNL A   1      40.930  30.012  29.819  1.00  0.00     0.074 A 
ATOM     15  C   UNL A   1      40.532  27.819  28.754  1.00  0.00     0.049 A 
ATOM     16  N   UNL A   1      42.211  29.939  30.078  1.00  0.00    -0.248 NA
ATOM     17  C   UNL A   1      40.298  31.267  30.249  1.00  0.00     0.031 C 
ATOM     18  C   UNL A   1      39.759  26.776  28.077  1.00  0.00     0.029 A 
ATOM     19  N   UNL A   1      41.792  27.288  28.855  1.00  0.00    -0.354 N 
ATOM     20  C   UNL A   1      42.544  31.145  30.678  1.00  0.00     0.074 A 
ATOM     21  C   UNL A   1      41.337  31.943  30.718  1.00  0.00     0.031 C 
ATOM     22  C   UNL A   1      40.557  25.728  27.831  1.00  0.00     0.029 A 
ATOM     23  C   UNL A   1      41.910  26.052  28.268  1.00  0.00     0.049 A 
ATOM     24  H   UNL A   1      42.539  27.746  29.305  1.00  0.00     0.167 HD
ATOM     25  C   UNL A   1      43.750  31.542  31.152  1.00  0.00     0.037 A 
ATOM     26  C   UNL A   1      42.995  25.282  28.064  1.00  0.00     0.037 A 
ATOM     27  C   UNL A   1      44.942  30.734  31.097  1.00  0.00     0.049 A 
ATOM     28  C   UNL A   1      44.329  25.758  28.559  1.00  0.00     0.074 A 
ATOM     29  C   UNL A   1      46.202  31.019  31.591  1.00  0.00     0.029 A 
ATOM     30  N   UNL A   1      45.024  29.484  30.494  1.00  0.00    -0.354 N 
ATOM     31  N   UNL A   1      44.627  26.879  29.171  1.00  0.00    -0.248 NA
ATOM     32  C   UNL A   1      45.476  24.868  28.339  1.00  0.00     0.031 C 
ATOM     33  C   UNL A   1      47.062  29.978  31.225  1.00  0.00     0.029 A 
ATOM     34  C   UNL A   1      46.323  29.005  30.571  1.00  0.00     0.049 A 
ATOM     35  H   UNL A   1      44.270  29.009  30.074  1.00  0.00     0.167 HD
ATOM     36  C   UNL A   1      45.988  26.820  29.433  1.00  0.00     0.074 A 
ATOM     37  C   UNL A   1      46.457  25.551  28.915  1.00  0.00     0.031 C 
ATOM     38  C   UNL A   1      46.773  27.735  30.053  1.00  0.00     0.037 A 
BRANCH  25  39
ATOM     39  C   UNL A   1      43.847  32.929  31.725  1.00  0.00     0.064 A 
ATOM     40  C   UNL A   1      43.741  33.174  33.103  1.00  0.00     0.173 A 
ATOM     41  C   UNL A   1      44.052  34.031  30.880  1.00  0.00     0.173 A 
ATOM     42  F   UNL A   1      43.541  32.160  33.957  1.00  0.00    -0.203 F 
ATOM     43  C   UNL A   1      43.785  34.473  33.606  1.00  0.00     0.198 A 
ATOM     44  C   UNL A   1      44.134  35.324  31.391  1.00  0.00     0.198 A 
ATOM     45  F   UNL A   1      44.173  33.856  29.555  1.00  0.00    -0.203 F 
ATOM     46  F   UNL A   1      43.611  34.687  34.917  1.00  0.00    -0.200 F 
ATOM     47  C   UNL A   1      43.985  35.546  32.750  1.00  0.00     0.200 A 
ATOM     48  F   UNL A   1      44.345  36.358  30.563  1.00  0.00    -0.200 F 
ATOM     49  F   UNL A   1      44.023  36.794  33.236  1.00  0.00    -0.200 F 
ENDBRANCH  25  39
BRANCH  26  50
ATOM     50  C   UNL A   1      42.839  23.996  27.337  1.00  0.00     0.064 A 
ATOM     51  C   UNL A   1      43.182  23.881  25.984  1.00  0.00     0.173 A 
ATOM     52  C   UNL A   1      42.403  22.838  28.002  1.00  0.00     0.173 A 
ATOM     53  F   UNL A   1      43.587  24.961  25.302  1.00  0.00    -0.203 F 
ATOM     54  C   UNL A   1      43.092  22.657  25.323  1.00  0.00     0.198 A 
ATOM     55  C   UNL A   1      42.343  21.611  27.348  1.00  0.00     0.198 A 
ATOM     56  F   UNL A   1      42.072  22.895  29.301  1.00  0.00    -0.203 F 
ATOM     57  F   UNL A   1      43.400  22.578  24.021  1.00  0.00    -0.200 F 
ATOM     58  C   UNL A   1      42.684  21.522  26.007  1.00  0.00     0.200 A 
ATOM     59  F   UNL A   1      41.969  20.514  28.020  1.00  0.00    -0.200 F 
ATOM     60  F   UNL A   1      42.619  20.342  25.376  1.00  0.00    -0.200 F 
ENDBRANCH  26  50
BRANCH  38  61
ATOM     61  C   UNL A   1      48.220  27.388  30.250  1.00  0.00     0.064 A 
ATOM     62  C   UNL A   1      48.657  26.627  31.344  1.00  0.00     0.173 A 
ATOM     63  C   UNL A   1      49.169  27.756  29.284  1.00  0.00     0.173 A 
ATOM     64  F   UNL A   1      47.792  26.265  32.303  1.00  0.00    -0.203 F 
ATOM     65  C   UNL A   1      49.994  26.253  31.465  1.00  0.00     0.198 A 
ATOM     66  C   UNL A   1      50.497  27.354  29.392  1.00  0.00     0.198 A 
ATOM     67  F   UNL A   1      48.801  28.480  28.216  1.00  0.00    -0.203 F 
ATOM     68  F   UNL A   1      50.396  25.551  32.534  1.00  0.00    -0.200 F 
ATOM     69  C   UNL A   1      50.908  26.606  30.484  1.00  0.00     0.200 A 
ATOM     70  F   UNL A   1      51.375  27.681  28.434  1.00  0.00    -0.200 F 
ATOM     71  F   UNL A   1      52.188  26.223  30.590  1.00  0.00    -0.200 F 
ENDBRANCH  38  61
ENDBRANCH  12  13
ENDBRANCH   5   7
ENDBRANCH   2   3
ENDBRANCH   1   2
BRANCH   1  72
ATOM     72  C   UNL A   1      34.307  34.695  28.928  1.00  0.00     0.117 C 
BRANCH  72  73
ATOM     73  N   UNL A   1      35.541  34.302  29.573  1.00  0.00    -0.356 N 
ATOM     74  C   UNL A   1      35.824  33.716  30.757  1.00  0.00     0.224 C 
ATOM     75  H   UNL A   1      36.342  34.503  29.038  1.00  0.00     0.163 HD
ATOM     76  O   UNL A   1      37.018  33.418  30.913  1.00  0.00    -0.275 OA
BRANCH  74  77
ATOM     77  C   UNL A   1      34.867  33.492  31.928  1.00  0.00     0.098 C 
ATOM     78  C   UNL A   1      34.397  34.603  32.876  1.00  0.00     0.017 C 
ATOM     79  C   UNL A   1      35.375  32.291  32.717  1.00  0.00     0.131 C 
ATOM     80  C   UNL A   1      35.243  34.839  34.141  1.00  0.00     0.022 C 
ATOM     81  N   UNL A   1      36.394  32.755  33.645  1.00  0.00    -0.356 N 
ATOM     82  C   UNL A   1      35.920  33.594  34.733  1.00  0.00     0.118 C 
BRANCH  81  83
ATOM     83  C   UNL A   1      37.609  32.110  33.717  1.00  0.00     0.129 A 
ATOM     84  C   UNL A   1      38.721  32.758  34.257  1.00  0.00     0.047 A 
ATOM     85  N   UNL A   1      37.692  30.830  33.306  1.00  0.00    -0.231 NA
ATOM     86  C   UNL A   1      39.934  32.093  34.377  1.00  0.00     0.014 A 
ATOM     87  C   UNL A   1      38.875  30.200  33.366  1.00  0.00     0.073 A 
ATOM     88  C   UNL A   1      40.032  30.787  33.913  1.00  0.00     0.002 A 
ATOM     89  C   UNL A   1      38.977  28.918  32.854  1.00  0.00     0.030 A 
ATOM     90  C   UNL A   1      41.242  30.078  33.971  1.00  0.00     0.032 A 
ATOM     91  C   UNL A   1      40.184  28.212  32.876  1.00  0.00     0.024 A 
ATOM     92  C   UNL A   1      41.317  28.785  33.448  1.00  0.00     0.083 A 
BRANCH  92  93
ATOM     93  S   UNL A   1      42.903  27.973  33.555  1.00  0.00     0.243 S 
ATOM     94  O   UNL A   1      43.359  27.819  32.186  1.00  0.00    -0.207 OA
ATOM     95  O   UNL A   1      43.668  28.728  34.520  1.00  0.00    -0.207 OA
BRANCH  93  96
ATOM     96  N   UNL A   1      42.637  26.411  34.190  1.00  0.00    -0.198 NA
ATOM     97  C   UNL A   1      43.736  25.434  33.978  1.00  0.00     0.102 C 
ATOM     98  C   UNL A   1      41.861  26.353  35.453  1.00  0.00     0.102 C 
ATOM     99  C   UNL A   1      43.387  24.040  34.477  1.00  0.00     0.017 C 
ATOM    100  C   UNL A   1      41.566  24.928  35.894  1.00  0.00     0.017 C 
ATOM    101  C   UNL A   1      42.826  24.078  35.889  1.00  0.00     0.003 C 
ENDBRANCH  93  96
ENDBRANCH  92  93
ENDBRANCH  81  83
ENDBRANCH  74  77
ENDBRANCH  72  73
ENDBRANCH   1  72
TORSDOF 13
ENDMDL
MODEL 3
REMARK VINA RESULT:     -14.1      7.063     14.017
REMARK SMILES O=C(NCCCNC(=O)[C@@H]1CCCN(c2ccc3cc(S(=O)(=O)N4CCCCC4)ccc3n2)C1)c1ccc(-c2c3nc(c(-c4c(F)c(F)c(F)c(F)c4F)c4ccc([nH]4)c(-c4c(F)c(F)c(F)c(F)c4F)c4nc(c(-c5c(F)c(F)c(F)c(F)c5F)c5ccc2[nH]5)C=C4)C=C3)cc1
REMARK SMILES IDX 5 1 4 2 3 3 1 4 2 5 35 7 36 8 97 9 37 10 96 11 38 12 39 13
REMARK SMILES IDX 40 14 90 15 41 16 95 17 89 18 91 19 42 20 94 21 88 22 87 23
REMARK SMILES IDX 43 25 75 26 55 27 74 28 56 29 59 30 73 31 92 32 57 33 58 34
REMARK SMILES IDX 72 36 93 37 60 38 44 39 45 40 53 41 46 42 47 43 51 44 54 45
REMARK SMILES IDX 48 46 49 47 52 48 50 49 76 50 77 51 85 52 78 53 79 54 83 55
REMARK SMILES IDX 86 56 80 57 81 58 84 59 82 60 61 61 62 62 70 63 63 64 64 65
REMARK SMILES IDX 68 66 71 67 65 68 66 69 69 70 67 71 6 72 7 73 8 74 9 76
REMARK SMILES IDX 10 77 11 78 34 79 12 80 14 81 13 82 15 83 16 84 33 85 17 86
REMARK SMILES IDX 32 87 18 88 31 89 19 90 30 91 20 92 21 93 22 94 23 95 24 96
REMARK SMILES IDX 25 97 29 98 26 99 28 100 27 101
REMARK H PARENT 3 6 91 24 59 35 7 75
REMARK Flexibility Score: inf
ROOT
ATOM      1  C   UNL A   1      33.671  33.915  28.135  1.00  0.00     0.042 C 
ENDROOT
BRANCH   1   2
ATOM      2  C   UNL A   1      34.580  32.701  28.009  1.00  0.00     0.118 C 
BRANCH   2   3
ATOM      3  N   UNL A   1      33.809  31.468  27.948  1.00  0.00    -0.352 N 
ATOM      4  O   UNL A   1      33.419  29.325  27.399  1.00  0.00    -0.269 OA
ATOM      5  C   UNL A   1      34.227  30.174  27.768  1.00  0.00     0.251 C 
ATOM      6  H   UNL A   1      32.835  31.580  28.050  1.00  0.00     0.163 HD
BRANCH   5   7
ATOM      7  C   UNL A   1      35.629  29.785  28.032  1.00  0.00     0.039 A 
ATOM      8  C   UNL A   1      36.605  29.887  27.036  1.00  0.00     0.014 A 
ATOM      9  C   UNL A   1      35.996  29.416  29.331  1.00  0.00     0.014 A 
ATOM     10  C   UNL A   1      37.923  29.530  27.308  1.00  0.00     0.010 A 
ATOM     11  C   UNL A   1      37.333  29.141  29.624  1.00  0.00     0.010 A 
ATOM     12  C   UNL A   1      38.304  29.189  28.612  1.00  0.00    -0.014 A 
BRANCH  12  13
ATOM     13  C   UNL A   1      39.737  28.977  28.932  1.00  0.00     0.031 A 
ATOM     14  C   UNL A   1      40.545  30.060  29.579  1.00  0.00     0.074 A 
ATOM     15  C   UNL A   1      40.312  27.809  28.590  1.00  0.00     0.049 A 
ATOM     16  N   UNL A   1      41.825  30.088  29.848  1.00  0.00    -0.248 NA
ATOM     17  C   UNL A   1      39.822  31.282  29.961  1.00  0.00     0.031 C 
ATOM     18  C   UNL A   1      39.621  26.691  27.945  1.00  0.00     0.029 A 
ATOM     19  N   UNL A   1      41.606  27.372  28.717  1.00  0.00    -0.354 N 
ATOM     20  C   UNL A   1      42.067  31.335  30.406  1.00  0.00     0.074 A 
ATOM     21  C   UNL A   1      40.806  32.046  30.412  1.00  0.00     0.031 C 
ATOM     22  C   UNL A   1      40.492  25.694  27.741  1.00  0.00     0.029 A 
ATOM     23  C   UNL A   1      41.815  26.129  28.174  1.00  0.00     0.049 A 
ATOM     24  H   UNL A   1      42.314  27.898  29.155  1.00  0.00     0.167 HD
ATOM     25  C   UNL A   1      43.239  31.832  30.873  1.00  0.00     0.037 A 
ATOM     26  C   UNL A   1      42.953  25.431  28.004  1.00  0.00     0.037 A 
ATOM     27  C   UNL A   1      44.485  31.109  30.854  1.00  0.00     0.049 A 
ATOM     28  C   UNL A   1      44.246  26.017  28.490  1.00  0.00     0.074 A 
ATOM     29  C   UNL A   1      45.718  31.500  31.345  1.00  0.00     0.029 A 
ATOM     30  N   UNL A   1      44.661  29.849  30.296  1.00  0.00    -0.354 N 
ATOM     31  N   UNL A   1      44.460  27.177  29.063  1.00  0.00    -0.248 NA
ATOM     32  C   UNL A   1      45.455  25.204  28.308  1.00  0.00     0.031 C 
ATOM     33  C   UNL A   1      46.651  30.511  31.021  1.00  0.00     0.029 A 
ATOM     34  C   UNL A   1      45.989  29.465  30.397  1.00  0.00     0.049 A 
ATOM     35  H   UNL A   1      43.945  29.307  29.888  1.00  0.00     0.167 HD
ATOM     36  C   UNL A   1      45.819  27.224  29.335  1.00  0.00     0.074 A 
ATOM     37  C   UNL A   1      46.381  25.974  28.865  1.00  0.00     0.031 C 
ATOM     38  C   UNL A   1      46.532  28.214  29.926  1.00  0.00     0.037 A 
BRANCH  25  39
ATOM     39  C   UNL A   1      43.232  33.242  31.397  1.00  0.00     0.064 A 
ATOM     40  C   UNL A   1      43.240  34.354  30.541  1.00  0.00     0.173 A 
ATOM     41  C   UNL A   1      43.216  33.483  32.780  1.00  0.00     0.173 A 
ATOM     42  F   UNL A   1      43.260  34.185  29.211  1.00  0.00    -0.203 F 
ATOM     43  C   UNL A   1      43.283  35.651  31.050  1.00  0.00     0.198 A 
ATOM     44  C   UNL A   1      43.220  34.780  33.284  1.00  0.00     0.198 A 
ATOM     45  F   UNL A   1      43.195  32.458  33.646  1.00  0.00    -0.203 F 
ATOM     46  F   UNL A   1      43.361  36.694  30.213  1.00  0.00    -0.200 F 
ATOM     47  C   UNL A   1      43.269  35.863  32.421  1.00  0.00     0.200 A 
ATOM     48  F   UNL A   1      43.189  34.982  34.610  1.00  0.00    -0.200 F 
ATOM     49  F   UNL A   1      43.314  37.110  32.908  1.00  0.00    -0.200 F 
ENDBRANCH  25  39
BRANCH  26  50
ATOM     50  C   UNL A   1      42.895  24.113  27.322  1.00  0.00     0.064 A 
ATOM     51  C   UNL A   1      43.222  23.981  25.967  1.00  0.00     0.173 A 
ATOM     52  C   UNL A   1      42.572  22.945  28.032  1.00  0.00     0.173 A 
ATOM     53  F   UNL A   1      43.522  25.068  25.242  1.00  0.00    -0.203 F 
ATOM     54  C   UNL A   1      43.226  22.733  25.347  1.00  0.00     0.198 A 
ATOM     55  C   UNL A   1      42.605  21.695  27.419  1.00  0.00     0.198 A 
ATOM     56  F   UNL A   1      42.260  23.017  29.335  1.00  0.00    -0.203 F 
ATOM     57  F   UNL A   1      43.516  22.636  24.042  1.00  0.00    -0.200 F 
ATOM     58  C   UNL A   1      42.928  21.590  26.076  1.00  0.00     0.200 A 
ATOM     59  F   UNL A   1      42.337  20.594  28.134  1.00  0.00    -0.200 F 
ATOM     60  F   UNL A   1      42.953  20.389  25.484  1.00  0.00    -0.200 F 
ENDBRANCH  26  50
BRANCH  38  61
ATOM     61  C   UNL A   1      47.999  27.977  30.144  1.00  0.00     0.064 A 
ATOM     62  C   UNL A   1      48.963  28.413  29.225  1.00  0.00     0.173 A 
ATOM     63  C   UNL A   1      48.445  27.375  31.331  1.00  0.00     0.173 A 
ATOM     64  F   UNL A   1      48.588  28.978  28.068  1.00  0.00    -0.203 F 
ATOM     65  C   UNL A   1      50.323  28.249  29.485  1.00  0.00     0.198 A 
ATOM     66  C   UNL A   1      49.804  27.243  31.601  1.00  0.00     0.198 A 
ATOM     67  F   UNL A   1      47.561  26.945  32.244  1.00  0.00    -0.203 F 
ATOM     68  F   UNL A   1      51.228  28.646  28.580  1.00  0.00    -0.200 F 
ATOM     69  C   UNL A   1      50.740  27.677  30.677  1.00  0.00     0.200 A 
ATOM     70  F   UNL A   1      50.205  26.705  32.761  1.00  0.00    -0.200 F 
ATOM     71  F   UNL A   1      52.049  27.543  30.936  1.00  0.00    -0.200 F 
ENDBRANCH  38  61
ENDBRANCH  12  13
ENDBRANCH   5   7
ENDBRANCH   2   3
ENDBRANCH   1   2
BRANCH   1  72
ATOM     72  C   UNL A   1      34.130  34.926  29.182  1.00  0.00     0.117 C 
BRANCH  72  73
ATOM     73  N   UNL A   1      35.398  34.589  29.791  1.00  0.00    -0.356 N 
ATOM     74  C   UNL A   1      35.740  33.967  30.940  1.00  0.00     0.224 C 
ATOM     75  H   UNL A   1      36.174  34.873  29.256  1.00  0.00     0.163 HD
ATOM     76  O   UNL A   1      36.955  33.746  31.065  1.00  0.00    -0.275 OA
BRANCH  74  77
ATOM     77  C   UNL A   1      34.821  33.618  32.110  1.00  0.00     0.098 C 
ATOM     78  C   UNL A   1      34.373  34.624  33.177  1.00  0.00     0.017 C 
ATOM     79  C   UNL A   1      35.360  32.348  32.759  1.00  0.00     0.131 C 
ATOM     80  C   UNL A   1      35.255  34.740  34.434  1.00  0.00     0.022 C 
ATOM     81  N   UNL A   1      36.403  32.727  33.698  1.00  0.00    -0.356 N 
ATOM     82  C   UNL A   1      35.957  33.448  34.878  1.00  0.00     0.118 C 
BRANCH  81  83
ATOM     83  C   UNL A   1      37.623  32.089  33.670  1.00  0.00     0.129 A 
ATOM     84  C   UNL A   1      38.770  32.738  34.131  1.00  0.00     0.047 A 
ATOM     85  N   UNL A   1      37.682  30.815  33.238  1.00  0.00    -0.231 NA
ATOM     86  C   UNL A   1      39.992  32.078  34.150  1.00  0.00     0.014 A 
ATOM     87  C   UNL A   1      38.870  30.191  33.199  1.00  0.00     0.073 A 
ATOM     88  C   UNL A   1      40.062  30.779  33.664  1.00  0.00     0.002 A 
ATOM     89  C   UNL A   1      38.940  28.917  32.665  1.00  0.00     0.030 A 
ATOM     90  C   UNL A   1      41.277  30.078  33.620  1.00  0.00     0.032 A 
ATOM     91  C   UNL A   1      40.148  28.217  32.586  1.00  0.00     0.024 A 
ATOM     92  C   UNL A   1      41.319  28.792  33.077  1.00  0.00     0.083 A 
BRANCH  92  93
ATOM     93  S   UNL A   1      42.913  27.988  33.053  1.00  0.00     0.243 S 
ATOM     94  O   UNL A   1      43.018  27.364  31.747  1.00  0.00    -0.207 OA
ATOM     95  O   UNL A   1      43.863  28.986  33.487  1.00  0.00    -0.207 OA
BRANCH  93  96
ATOM     96  N   UNL A   1      42.878  26.743  34.221  1.00  0.00    -0.198 NA
ATOM     97  C   UNL A   1      41.618  26.627  34.999  1.00  0.00     0.102 C 
ATOM     98  C   UNL A   1      43.618  25.508  33.867  1.00  0.00     0.102 C 
ATOM     99  C   UNL A   1      41.697  25.567  36.089  1.00  0.00     0.017 C 
ATOM    100  C   UNL A   1      43.639  24.493  35.000  1.00  0.00     0.017 C 
ATOM    101  C   UNL A   1      42.243  24.256  35.552  1.00  0.00     0.003 C 
ENDBRANCH  93  96
ENDBRANCH  92  93
ENDBRANCH  81  83
ENDBRANCH  74  77
ENDBRANCH  72  73
ENDBRANCH   1  72
TORSDOF 13
ENDMDL
