MODEL 1
REMARK VINA RESULT:     -12.2      0.000      0.000
REMARK SMILES O=C(NCCCNC(=O)[C@H](CCc1ccccn1)c1ccccc1Br)c1ccc(-c2c3nc(c(-c4c(F)c(F)c(F)c(F)c4F)c4ccc([nH]4)c(-c4c(F)c(F)c(F)c(F)c4F)c4nc(c(-c5c(F)c(F)c(F)c(F)c5F)c5ccc2[nH]5)C=C4)C=C3)cc1
REMARK SMILES IDX 5 1 4 2 3 3 1 4 2 5 26 7 27 8 88 9 28 10 87 11 29 12 30 13
REMARK SMILES IDX 31 14 81 15 32 16 86 17 80 18 82 19 33 20 85 21 79 22 78 23
REMARK SMILES IDX 34 25 66 26 46 27 65 28 47 29 50 30 64 31 83 32 48 33 49 34
REMARK SMILES IDX 63 36 84 37 51 38 35 39 36 40 44 41 37 42 38 43 42 44 45 45
REMARK SMILES IDX 39 46 40 47 43 48 41 49 67 50 68 51 76 52 69 53 70 54 74 55
REMARK SMILES IDX 77 56 71 57 72 58 75 59 73 60 52 61 53 62 61 63 54 64 55 65
REMARK SMILES IDX 59 66 62 67 56 68 57 69 60 70 58 71 6 72 7 73 8 74 9 76
REMARK SMILES IDX 10 77 19 78 20 79 24 80 21 81 23 82 25 83 22 84 11 85 12 86
REMARK SMILES IDX 13 87 14 88 18 89 15 90 17 91 16 92
REMARK H PARENT 3 6 82 24 50 35 7 75
REMARK Flexibility Score: inf
ROOT
ATOM      1  C   UNL A   1      31.389  32.317  26.688  1.00  0.00     0.042 C 
ENDROOT
BRANCH   1   2
ATOM      2  C   UNL A   1      32.663  32.915  27.251  1.00  0.00     0.118 C 
BRANCH   2   3
ATOM      3  N   UNL A   1      32.482  34.310  27.635  1.00  0.00    -0.352 N 
ATOM      4  O   UNL A   1      32.594  36.100  29.000  1.00  0.00    -0.269 OA
ATOM      5  C   UNL A   1      33.050  35.007  28.669  1.00  0.00     0.251 C 
ATOM      6  H   UNL A   1      31.864  34.825  27.068  1.00  0.00     0.163 HD
BRANCH   5   7
ATOM      7  C   UNL A   1      34.213  34.443  29.383  1.00  0.00     0.039 A 
ATOM      8  C   UNL A   1      34.027  33.751  30.580  1.00  0.00     0.014 A 
ATOM      9  C   UNL A   1      35.492  34.568  28.834  1.00  0.00     0.014 A 
ATOM     10  C   UNL A   1      35.124  33.314  31.304  1.00  0.00     0.010 A 
ATOM     11  C   UNL A   1      36.586  34.012  29.502  1.00  0.00     0.010 A 
ATOM     12  C   UNL A   1      36.406  33.385  30.745  1.00  0.00    -0.014 A 
BRANCH  12  13
ATOM     13  C   UNL A   1      37.506  32.653  31.415  1.00  0.00     0.031 A 
ATOM     14  C   UNL A   1      38.198  31.500  30.755  1.00  0.00     0.074 A 
ATOM     15  C   UNL A   1      37.876  33.075  32.640  1.00  0.00     0.049 A 
ATOM     16  N   UNL A   1      39.171  30.758  31.218  1.00  0.00    -0.248 NA
ATOM     17  C   UNL A   1      37.741  31.120  29.410  1.00  0.00     0.031 C 
ATOM     18  C   UNL A   1      37.251  34.181  33.374  1.00  0.00     0.029 A 
ATOM     19  N   UNL A   1      38.868  32.645  33.482  1.00  0.00    -0.354 N 
ATOM     20  C   UNL A   1      39.430  29.813  30.236  1.00  0.00     0.074 A 
ATOM     21  C   UNL A   1      38.502  30.064  29.154  1.00  0.00     0.031 C 
ATOM     22  C   UNL A   1      37.900  34.371  34.530  1.00  0.00     0.029 A 
ATOM     23  C   UNL A   1      38.926  33.348  34.661  1.00  0.00     0.049 A 
ATOM     24  H   UNL A   1      39.479  31.904  33.263  1.00  0.00     0.167 HD
ATOM     25  C   UNL A   1      40.362  28.831  30.249  1.00  0.00     0.037 A 
ATOM     26  C   UNL A   1      39.696  33.164  35.748  1.00  0.00     0.037 A 
ATOM     27  C   UNL A   1      41.289  28.611  31.330  1.00  0.00     0.049 A 
ATOM     28  C   UNL A   1      40.692  32.042  35.736  1.00  0.00     0.074 A 
ATOM     29  C   UNL A   1      42.310  27.680  31.412  1.00  0.00     0.029 A 
ATOM     30  N   UNL A   1      41.301  29.322  32.523  1.00  0.00    -0.354 N 
ATOM     31  N   UNL A   1      40.967  31.192  34.777  1.00  0.00    -0.248 NA
ATOM     32  C   UNL A   1      41.481  31.849  36.958  1.00  0.00     0.031 C 
ATOM     33  C   UNL A   1      42.897  27.783  32.677  1.00  0.00     0.029 A 
ATOM     34  C   UNL A   1      42.284  28.821  33.361  1.00  0.00     0.049 A 
ATOM     35  H   UNL A   1      40.699  30.070  32.740  1.00  0.00     0.167 HD
ATOM     36  C   UNL A   1      41.969  30.372  35.273  1.00  0.00     0.074 A 
ATOM     37  C   UNL A   1      42.278  30.850  36.605  1.00  0.00     0.031 C 
ATOM     38  C   UNL A   1      42.574  29.312  34.685  1.00  0.00     0.037 A 
BRANCH  25  39
ATOM     39  C   UNL A   1      40.428  27.896  29.076  1.00  0.00     0.064 A 
ATOM     40  C   UNL A   1      39.653  26.728  29.015  1.00  0.00     0.173 A 
ATOM     41  C   UNL A   1      41.200  28.231  27.953  1.00  0.00     0.173 A 
ATOM     42  F   UNL A   1      38.904  26.358  30.064  1.00  0.00    -0.203 F 
ATOM     43  C   UNL A   1      39.654  25.928  27.874  1.00  0.00     0.198 A 
ATOM     44  C   UNL A   1      41.178  27.443  26.805  1.00  0.00     0.198 A 
ATOM     45  F   UNL A   1      41.954  29.340  27.957  1.00  0.00    -0.203 F 
ATOM     46  F   UNL A   1      38.923  24.805  27.845  1.00  0.00    -0.200 F 
ATOM     47  C   UNL A   1      40.406  26.293  26.767  1.00  0.00     0.200 A 
ATOM     48  F   UNL A   1      41.894  27.806  25.730  1.00  0.00    -0.200 F 
ATOM     49  F   UNL A   1      40.385  25.535  25.661  1.00  0.00    -0.200 F 
ENDBRANCH  25  39
BRANCH  26  50
ATOM     50  C   UNL A   1      39.520  34.028  36.944  1.00  0.00     0.064 A 
ATOM     51  C   UNL A   1      40.159  35.270  37.045  1.00  0.00     0.173 A 
ATOM     52  C   UNL A   1      38.726  33.615  38.027  1.00  0.00     0.173 A 
ATOM     53  F   UNL A   1      40.941  35.704  36.044  1.00  0.00    -0.203 F 
ATOM     54  C   UNL A   1      40.042  36.049  38.194  1.00  0.00     0.198 A 
ATOM     55  C   UNL A   1      38.576  34.412  39.158  1.00  0.00     0.198 A 
ATOM     56  F   UNL A   1      38.084  32.439  37.980  1.00  0.00    -0.203 F 
ATOM     57  F   UNL A   1      40.718  37.202  38.290  1.00  0.00    -0.200 F 
ATOM     58  C   UNL A   1      39.247  35.622  39.247  1.00  0.00     0.200 A 
ATOM     59  F   UNL A   1      37.790  34.005  40.163  1.00  0.00    -0.200 F 
ATOM     60  F   UNL A   1      39.137  36.370  40.353  1.00  0.00    -0.200 F 
ENDBRANCH  26  50
BRANCH  38  61
ATOM     61  C   UNL A   1      43.642  28.616  35.476  1.00  0.00     0.064 A 
ATOM     62  C   UNL A   1      43.333  27.590  36.381  1.00  0.00     0.173 A 
ATOM     63  C   UNL A   1      44.990  28.967  35.313  1.00  0.00     0.173 A 
ATOM     64  F   UNL A   1      42.057  27.233  36.588  1.00  0.00    -0.203 F 
ATOM     65  C   UNL A   1      44.333  26.963  37.118  1.00  0.00     0.198 A 
ATOM     66  C   UNL A   1      45.991  28.312  36.023  1.00  0.00     0.198 A 
ATOM     67  F   UNL A   1      45.338  29.938  34.455  1.00  0.00    -0.203 F 
ATOM     68  F   UNL A   1      44.010  26.027  38.021  1.00  0.00    -0.200 F 
ATOM     69  C   UNL A   1      45.661  27.318  36.933  1.00  0.00     0.200 A 
ATOM     70  F   UNL A   1      47.275  28.647  35.832  1.00  0.00    -0.200 F 
ATOM     71  F   UNL A   1      46.624  26.709  37.638  1.00  0.00    -0.200 F 
ENDBRANCH  38  61
ENDBRANCH  12  13
ENDBRANCH   5   7
ENDBRANCH   2   3
ENDBRANCH   1   2
BRANCH   1  72
ATOM     72  C   UNL A   1      31.618  30.945  26.081  1.00  0.00     0.117 C 
BRANCH  72  73
ATOM     73  N   UNL A   1      30.689  30.682  25.001  1.00  0.00    -0.356 N 
ATOM     74  C   UNL A   1      30.726  29.764  23.997  1.00  0.00     0.227 C 
ATOM     75  H   UNL A   1      29.897  31.267  24.992  1.00  0.00     0.163 HD
ATOM     76  O   UNL A   1      29.822  29.831  23.158  1.00  0.00    -0.274 OA
BRANCH  74  77
ATOM     77  C   UNL A   1      31.817  28.687  23.903  1.00  0.00     0.110 C 
BRANCH  77  78
ATOM     78  C   UNL A   1      31.417  27.410  24.655  1.00  0.00    -0.021 A 
ATOM     79  C   UNL A   1      30.320  26.632  24.234  1.00  0.00     0.006 A 
ATOM     80  C   UNL A   1      32.104  26.964  25.805  1.00  0.00     0.021 A 
ATOM     81  C   UNL A   1      29.894  25.501  24.941  1.00  0.00     0.000 A 
ATOM     82  C   UNL A   1      31.688  25.818  26.501  1.00  0.00     0.016 A 
ATOM     83  Br  UNL A   1      33.653  27.828  26.499  1.00  0.00    -0.051 Br
ATOM     84  C   UNL A   1      30.578  25.095  26.078  1.00  0.00     0.001 A 
ENDBRANCH  77  78
BRANCH  77  85
ATOM     85  C   UNL A   1      32.375  28.545  22.457  1.00  0.00     0.025 C 
BRANCH  85  86
ATOM     86  C   UNL A   1      33.720  27.806  22.377  1.00  0.00     0.057 C 
BRANCH  86  87
ATOM     87  C   UNL A   1      33.613  26.308  22.293  1.00  0.00     0.040 A 
ATOM     88  C   UNL A   1      34.028  25.527  23.365  1.00  0.00     0.024 A 
ATOM     89  N   UNL A   1      33.096  25.771  21.165  1.00  0.00    -0.261 NA
ATOM     90  C   UNL A   1      33.847  24.150  23.299  1.00  0.00     0.003 A 
ATOM     91  C   UNL A   1      32.905  24.437  21.135  1.00  0.00     0.111 A 
ATOM     92  C   UNL A   1      33.259  23.592  22.171  1.00  0.00     0.020 A 
ENDBRANCH  86  87
ENDBRANCH  85  86
ENDBRANCH  77  85
ENDBRANCH  74  77
ENDBRANCH  72  73
ENDBRANCH   1  72
TORSDOF 14
ENDMDL
MODEL 2
REMARK VINA RESULT:     -12.2      1.509      7.792
REMARK SMILES O=C(NCCCNC(=O)[C@H](CCc1ccccn1)c1ccccc1Br)c1ccc(-c2c3nc(c(-c4c(F)c(F)c(F)c(F)c4F)c4ccc([nH]4)c(-c4c(F)c(F)c(F)c(F)c4F)c4nc(c(-c5c(F)c(F)c(F)c(F)c5F)c5ccc2[nH]5)C=C4)C=C3)cc1
REMARK SMILES IDX 5 1 4 2 3 3 1 4 2 5 26 7 27 8 88 9 28 10 87 11 29 12 30 13
REMARK SMILES IDX 31 14 81 15 32 16 86 17 80 18 82 19 33 20 85 21 79 22 78 23
REMARK SMILES IDX 34 25 66 26 46 27 65 28 47 29 50 30 64 31 83 32 48 33 49 34
REMARK SMILES IDX 63 36 84 37 51 38 35 39 36 40 44 41 37 42 38 43 42 44 45 45
REMARK SMILES IDX 39 46 40 47 43 48 41 49 67 50 68 51 76 52 69 53 70 54 74 55
REMARK SMILES IDX 77 56 71 57 72 58 75 59 73 60 52 61 53 62 61 63 54 64 55 65
REMARK SMILES IDX 59 66 62 67 56 68 57 69 60 70 58 71 6 72 7 73 8 74 9 76
REMARK SMILES IDX 10 77 19 78 20 79 24 80 21 81 23 82 25 83 22 84 11 85 12 86
REMARK SMILES IDX 13 87 14 88 18 89 15 90 17 91 16 92
REMARK H PARENT 3 6 82 24 50 35 7 75
REMARK Flexibility Score: inf
ROOT
ATOM      1  C   UNL A   1      31.551  31.438  26.440  1.00  0.00     0.042 C 
ENDROOT
BRANCH   1   2
ATOM      2  C   UNL A   1      32.791  32.097  27.010  1.00  0.00     0.118 C 
BRANCH   2   3
ATOM      3  N   UNL A   1      32.558  33.499  27.335  1.00  0.00    -0.352 N 
ATOM      4  O   UNL A   1      32.599  35.348  28.624  1.00  0.00    -0.269 OA
ATOM      5  C   UNL A   1      33.096  34.260  28.340  1.00  0.00     0.251 C 
ATOM      6  H   UNL A   1      31.924  33.968  26.746  1.00  0.00     0.163 HD
BRANCH   5   7
ATOM      7  C   UNL A   1      34.277  33.769  29.079  1.00  0.00     0.039 A 
ATOM      8  C   UNL A   1      34.125  32.795  30.067  1.00  0.00     0.014 A 
ATOM      9  C   UNL A   1      35.548  34.252  28.757  1.00  0.00     0.014 A 
ATOM     10  C   UNL A   1      35.213  32.411  30.832  1.00  0.00     0.010 A 
ATOM     11  C   UNL A   1      36.664  33.767  29.443  1.00  0.00     0.010 A 
ATOM     12  C   UNL A   1      36.500  32.846  30.490  1.00  0.00    -0.014 A 
BRANCH  12  13
ATOM     13  C   UNL A   1      37.659  32.194  31.142  1.00  0.00     0.031 A 
ATOM     14  C   UNL A   1      38.097  32.572  32.524  1.00  0.00     0.074 A 
ATOM     15  C   UNL A   1      38.299  31.230  30.451  1.00  0.00     0.049 A 
ATOM     16  N   UNL A   1      39.096  32.096  33.223  1.00  0.00    -0.248 NA
ATOM     17  C   UNL A   1      37.330  33.621  33.211  1.00  0.00     0.031 C 
ATOM     18  C   UNL A   1      37.955  30.801  29.091  1.00  0.00     0.029 A 
ATOM     19  N   UNL A   1      39.354  30.424  30.791  1.00  0.00    -0.354 N 
ATOM     20  C   UNL A   1      39.091  32.797  34.420  1.00  0.00     0.074 A 
ATOM     21  C   UNL A   1      37.999  33.744  34.350  1.00  0.00     0.031 C 
ATOM     22  C   UNL A   1      38.751  29.786  28.730  1.00  0.00     0.029 A 
ATOM     23  C   UNL A   1      39.716  29.551  29.794  1.00  0.00     0.049 A 
ATOM     24  H   UNL A   1      39.808  30.468  31.663  1.00  0.00     0.167 HD
ATOM     25  C   UNL A   1      39.928  32.652  35.475  1.00  0.00     0.037 A 
ATOM     26  C   UNL A   1      40.740  28.681  29.727  1.00  0.00     0.037 A 
ATOM     27  C   UNL A   1      40.998  31.689  35.530  1.00  0.00     0.049 A 
ATOM     28  C   UNL A   1      41.665  28.576  30.903  1.00  0.00     0.074 A 
ATOM     29  C   UNL A   1      41.864  31.423  36.577  1.00  0.00     0.029 A 
ATOM     30  N   UNL A   1      41.357  30.840  34.491  1.00  0.00    -0.354 N 
ATOM     31  N   UNL A   1      41.615  29.204  32.052  1.00  0.00    -0.248 NA
ATOM     32  C   UNL A   1      42.795  27.648  30.772  1.00  0.00     0.031 C 
ATOM     33  C   UNL A   1      42.786  30.463  36.151  1.00  0.00     0.029 A 
ATOM     34  C   UNL A   1      42.457  30.082  34.860  1.00  0.00     0.049 A 
ATOM     35  H   UNL A   1      40.898  30.785  33.622  1.00  0.00     0.167 HD
ATOM     36  C   UNL A   1      42.695  28.738  32.787  1.00  0.00     0.074 A 
ATOM     37  C   UNL A   1      43.361  27.748  31.965  1.00  0.00     0.031 C 
ATOM     38  C   UNL A   1      43.106  29.102  34.026  1.00  0.00     0.037 A 
BRANCH  25  39
ATOM     39  C   UNL A   1      39.750  33.562  36.656  1.00  0.00     0.064 A 
ATOM     40  C   UNL A   1      40.347  34.830  36.711  1.00  0.00     0.173 A 
ATOM     41  C   UNL A   1      38.883  33.198  37.698  1.00  0.00     0.173 A 
ATOM     42  F   UNL A   1      41.190  35.223  35.745  1.00  0.00    -0.203 F 
ATOM     43  C   UNL A   1      40.086  35.697  37.770  1.00  0.00     0.198 A 
ATOM     44  C   UNL A   1      38.605  34.078  38.741  1.00  0.00     0.198 A 
ATOM     45  F   UNL A   1      38.282  31.999  37.690  1.00  0.00    -0.203 F 
ATOM     46  F   UNL A   1      40.684  36.896  37.815  1.00  0.00    -0.200 F 
ATOM     47  C   UNL A   1      39.207  35.326  38.776  1.00  0.00     0.200 A 
ATOM     48  F   UNL A   1      37.743  33.722  39.705  1.00  0.00    -0.200 F 
ATOM     49  F   UNL A   1      38.939  36.171  39.781  1.00  0.00    -0.200 F 
ENDBRANCH  25  39
BRANCH  26  50
ATOM     50  C   UNL A   1      40.965  27.885  28.493  1.00  0.00     0.064 A 
ATOM     51  C   UNL A   1      41.761  28.372  27.448  1.00  0.00     0.173 A 
ATOM     52  C   UNL A   1      40.366  26.626  28.322  1.00  0.00     0.173 A 
ATOM     53  F   UNL A   1      42.344  29.576  27.556  1.00  0.00    -0.203 F 
ATOM     54  C   UNL A   1      41.919  27.651  26.267  1.00  0.00     0.198 A 
ATOM     55  C   UNL A   1      40.558  25.888  27.158  1.00  0.00     0.198 A 
ATOM     56  F   UNL A   1      39.601  26.107  29.293  1.00  0.00    -0.203 F 
ATOM     57  F   UNL A   1      42.631  28.171  25.258  1.00  0.00    -0.200 F 
ATOM     58  C   UNL A   1      41.323  26.407  26.124  1.00  0.00     0.200 A 
ATOM     59  F   UNL A   1      39.997  24.678  27.034  1.00  0.00    -0.200 F 
ATOM     60  F   UNL A   1      41.473  25.716  24.987  1.00  0.00    -0.200 F 
ENDBRANCH  26  50
BRANCH  38  61
ATOM     61  C   UNL A   1      44.320  28.408  34.568  1.00  0.00     0.064 A 
ATOM     62  C   UNL A   1      44.222  27.190  35.257  1.00  0.00     0.173 A 
ATOM     63  C   UNL A   1      45.597  28.957  34.379  1.00  0.00     0.173 A 
ATOM     64  F   UNL A   1      43.022  26.635  35.481  1.00  0.00    -0.203 F 
ATOM     65  C   UNL A   1      45.356  26.564  35.765  1.00  0.00     0.198 A 
ATOM     66  C   UNL A   1      46.732  28.310  34.856  1.00  0.00     0.198 A 
ATOM     67  F   UNL A   1      45.744  30.117  33.721  1.00  0.00    -0.203 F 
ATOM     68  F   UNL A   1      45.234  25.433  36.473  1.00  0.00    -0.200 F 
ATOM     69  C   UNL A   1      46.610  27.120  35.558  1.00  0.00     0.200 A 
ATOM     70  F   UNL A   1      47.944  28.841  34.641  1.00  0.00    -0.200 F 
ATOM     71  F   UNL A   1      47.702  26.513  36.042  1.00  0.00    -0.200 F 
ENDBRANCH  38  61
ENDBRANCH  12  13
ENDBRANCH   5   7
ENDBRANCH   2   3
ENDBRANCH   1   2
BRANCH   1  72
ATOM     72  C   UNL A   1      31.822  30.025  25.956  1.00  0.00     0.117 C 
BRANCH  72  73
ATOM     73  N   UNL A   1      32.738  30.016  24.834  1.00  0.00    -0.356 N 
ATOM     74  C   UNL A   1      32.888  29.129  23.813  1.00  0.00     0.227 C 
ATOM     75  H   UNL A   1      33.356  30.782  24.805  1.00  0.00     0.163 HD
ATOM     76  O   UNL A   1      33.825  29.339  23.036  1.00  0.00    -0.274 OA
BRANCH  74  77
ATOM     77  C   UNL A   1      31.947  27.930  23.616  1.00  0.00     0.110 C 
BRANCH  77  78
ATOM     78  C   UNL A   1      32.573  26.629  24.138  1.00  0.00    -0.021 A 
ATOM     79  C   UNL A   1      32.799  26.432  25.516  1.00  0.00     0.006 A 
ATOM     80  C   UNL A   1      32.970  25.584  23.276  1.00  0.00     0.021 A 
ATOM     81  C   UNL A   1      33.429  25.283  26.009  1.00  0.00     0.000 A 
ATOM     82  C   UNL A   1      33.583  24.424  23.776  1.00  0.00     0.016 A 
ATOM     83  Br  UNL A   1      32.692  25.618  21.393  1.00  0.00    -0.051 Br
ATOM     84  C   UNL A   1      33.824  24.279  25.138  1.00  0.00     0.001 A 
ENDBRANCH  77  78
BRANCH  77  85
ATOM     85  C   UNL A   1      30.485  28.261  24.033  1.00  0.00     0.025 C 
BRANCH  85  86
ATOM     86  C   UNL A   1      29.506  28.359  22.852  1.00  0.00     0.057 C 
BRANCH  86  87
ATOM     87  C   UNL A   1      29.009  29.749  22.558  1.00  0.00     0.040 A 
ATOM     88  C   UNL A   1      29.085  30.730  23.540  1.00  0.00     0.024 A 
ATOM     89  N   UNL A   1      28.514  29.997  21.325  1.00  0.00    -0.261 NA
ATOM     90  C   UNL A   1      28.694  32.025  23.222  1.00  0.00     0.003 A 
ATOM     91  C   UNL A   1      28.167  31.266  21.032  1.00  0.00     0.111 A 
ATOM     92  C   UNL A   1      28.242  32.307  21.939  1.00  0.00     0.020 A 
ENDBRANCH  86  87
ENDBRANCH  85  86
ENDBRANCH  77  85
ENDBRANCH  74  77
ENDBRANCH  72  73
ENDBRANCH   1  72
TORSDOF 14
ENDMDL
MODEL 3
REMARK VINA RESULT:     -12.2      6.064     10.116
REMARK SMILES O=C(NCCCNC(=O)[C@H](CCc1ccccn1)c1ccccc1Br)c1ccc(-c2c3nc(c(-c4c(F)c(F)c(F)c(F)c4F)c4ccc([nH]4)c(-c4c(F)c(F)c(F)c(F)c4F)c4nc(c(-c5c(F)c(F)c(F)c(F)c5F)c5ccc2[nH]5)C=C4)C=C3)cc1
REMARK SMILES IDX 5 1 4 2 3 3 1 4 2 5 26 7 27 8 88 9 28 10 87 11 29 12 30 13
REMARK SMILES IDX 31 14 81 15 32 16 86 17 80 18 82 19 33 20 85 21 79 22 78 23
REMARK SMILES IDX 34 25 66 26 46 27 65 28 47 29 50 30 64 31 83 32 48 33 49 34
REMARK SMILES IDX 63 36 84 37 51 38 35 39 36 40 44 41 37 42 38 43 42 44 45 45
REMARK SMILES IDX 39 46 40 47 43 48 41 49 67 50 68 51 76 52 69 53 70 54 74 55
REMARK SMILES IDX 77 56 71 57 72 58 75 59 73 60 52 61 53 62 61 63 54 64 55 65
REMARK SMILES IDX 59 66 62 67 56 68 57 69 60 70 58 71 6 72 7 73 8 74 9 76
REMARK SMILES IDX 10 77 19 78 20 79 24 80 21 81 23 82 25 83 22 84 11 85 12 86
REMARK SMILES IDX 13 87 14 88 18 89 15 90 17 91 16 92
REMARK H PARENT 3 6 82 24 50 35 7 75
REMARK Flexibility Score: inf
ROOT
ATOM      1  C   UNL A   1      37.555  20.030  24.984  1.00  0.00     0.042 C 
ENDROOT
BRANCH   1   2
ATOM      2  C   UNL A   1      38.819  20.521  25.660  1.00  0.00     0.118 C 
BRANCH   2   3
ATOM      3  N   UNL A   1      39.795  19.451  25.827  1.00  0.00    -0.352 N 
ATOM      4  O   UNL A   1      41.854  18.537  25.908  1.00  0.00    -0.269 OA
ATOM      5  C   UNL A   1      41.145  19.532  26.047  1.00  0.00     0.251 C 
ATOM      6  H   UNL A   1      39.431  18.538  25.774  1.00  0.00     0.163 HD
BRANCH   5   7
ATOM      7  C   UNL A   1      41.746  20.818  26.453  1.00  0.00     0.039 A 
ATOM      8  C   UNL A   1      42.135  21.743  25.484  1.00  0.00     0.014 A 
ATOM      9  C   UNL A   1      41.884  21.122  27.810  1.00  0.00     0.014 A 
ATOM     10  C   UNL A   1      42.794  22.902  25.858  1.00  0.00     0.010 A 
ATOM     11  C   UNL A   1      42.432  22.350  28.190  1.00  0.00     0.010 A 
ATOM     12  C   UNL A   1      42.894  23.245  27.213  1.00  0.00    -0.014 A 
BRANCH  12  13
ATOM     13  C   UNL A   1      43.342  24.614  27.559  1.00  0.00     0.031 A 
ATOM     14  C   UNL A   1      44.791  24.993  27.547  1.00  0.00     0.074 A 
ATOM     15  C   UNL A   1      42.391  25.517  27.871  1.00  0.00     0.049 A 
ATOM     16  N   UNL A   1      45.335  26.148  27.834  1.00  0.00    -0.248 NA
ATOM     17  C   UNL A   1      45.757  23.949  27.177  1.00  0.00     0.031 C 
ATOM     18  C   UNL A   1      40.952  25.239  27.925  1.00  0.00     0.029 A 
ATOM     19  N   UNL A   1      42.478  26.848  28.184  1.00  0.00    -0.354 N 
ATOM     20  C   UNL A   1      46.704  25.967  27.699  1.00  0.00     0.074 A 
ATOM     21  C   UNL A   1      46.913  24.586  27.320  1.00  0.00     0.031 C 
ATOM     22  C   UNL A   1      40.291  26.369  28.207  1.00  0.00     0.029 A 
ATOM     23  C   UNL A   1      41.260  27.429  28.440  1.00  0.00     0.049 A 
ATOM     24  H   UNL A   1      43.330  27.339  28.224  1.00  0.00     0.167 HD
ATOM     25  C   UNL A   1      47.687  26.881  27.879  1.00  0.00     0.037 A 
ATOM     26  C   UNL A   1      40.957  28.672  28.856  1.00  0.00     0.037 A 
ATOM     27  C   UNL A   1      47.455  28.257  28.239  1.00  0.00     0.049 A 
ATOM     28  C   UNL A   1      42.078  29.643  29.077  1.00  0.00     0.074 A 
ATOM     29  C   UNL A   1      48.381  29.276  28.386  1.00  0.00     0.029 A 
ATOM     30  N   UNL A   1      46.211  28.805  28.520  1.00  0.00    -0.354 N 
ATOM     31  N   UNL A   1      43.365  29.476  28.890  1.00  0.00    -0.248 NA
ATOM     32  C   UNL A   1      41.708  30.974  29.573  1.00  0.00     0.031 C 
ATOM     33  C   UNL A   1      47.707  30.421  28.819  1.00  0.00     0.029 A 
ATOM     34  C   UNL A   1      46.353  30.136  28.880  1.00  0.00     0.049 A 
ATOM     35  H   UNL A   1      45.356  28.320  28.471  1.00  0.00     0.167 HD
ATOM     36  C   UNL A   1      43.957  30.682  29.232  1.00  0.00     0.074 A 
ATOM     37  C   UNL A   1      42.884  31.583  29.603  1.00  0.00     0.031 C 
ATOM     38  C   UNL A   1      45.271  31.014  29.247  1.00  0.00     0.037 A 
BRANCH  25  39
ATOM     39  C   UNL A   1      49.112  26.436  27.714  1.00  0.00     0.064 A 
ATOM     40  C   UNL A   1      49.705  26.305  26.449  1.00  0.00     0.173 A 
ATOM     41  C   UNL A   1      49.922  26.239  28.843  1.00  0.00     0.173 A 
ATOM     42  F   UNL A   1      48.973  26.474  25.339  1.00  0.00    -0.203 F 
ATOM     43  C   UNL A   1      51.056  25.989  26.323  1.00  0.00     0.198 A 
ATOM     44  C   UNL A   1      51.278  25.949  28.712  1.00  0.00     0.198 A 
ATOM     45  F   UNL A   1      49.405  26.358  30.075  1.00  0.00    -0.203 F 
ATOM     46  F   UNL A   1      51.598  25.849  25.105  1.00  0.00    -0.200 F 
ATOM     47  C   UNL A   1      51.843  25.825  27.453  1.00  0.00     0.200 A 
ATOM     48  F   UNL A   1      52.040  25.805  29.806  1.00  0.00    -0.200 F 
ATOM     49  F   UNL A   1      53.148  25.546  27.328  1.00  0.00    -0.200 F 
ENDBRANCH  25  39
BRANCH  26  50
ATOM     50  C   UNL A   1      39.545  29.044  29.133  1.00  0.00     0.064 A 
ATOM     51  C   UNL A   1      39.009  28.954  30.425  1.00  0.00     0.173 A 
ATOM     52  C   UNL A   1      38.693  29.476  28.104  1.00  0.00     0.173 A 
ATOM     53  F   UNL A   1      39.778  28.533  31.441  1.00  0.00    -0.203 F 
ATOM     54  C   UNL A   1      37.669  29.244  30.669  1.00  0.00     0.198 A 
ATOM     55  C   UNL A   1      37.365  29.805  28.357  1.00  0.00     0.198 A 
ATOM     56  F   UNL A   1      39.155  29.589  26.850  1.00  0.00    -0.203 F 
ATOM     57  F   UNL A   1      37.166  29.085  31.901  1.00  0.00    -0.200 F 
ATOM     58  C   UNL A   1      36.849  29.675  29.637  1.00  0.00     0.200 A 
ATOM     59  F   UNL A   1      36.583  30.241  27.360  1.00  0.00    -0.200 F 
ATOM     60  F   UNL A   1      35.560  29.951  29.873  1.00  0.00    -0.200 F 
ENDBRANCH  26  50
BRANCH  38  61
ATOM     61  C   UNL A   1      45.610  32.416  29.661  1.00  0.00     0.064 A 
ATOM     62  C   UNL A   1      45.903  32.737  30.995  1.00  0.00     0.173 A 
ATOM     63  C   UNL A   1      45.663  33.445  28.709  1.00  0.00     0.173 A 
ATOM     64  F   UNL A   1      45.846  31.792  31.945  1.00  0.00    -0.203 F 
ATOM     65  C   UNL A   1      46.203  34.044  31.365  1.00  0.00     0.198 A 
ATOM     66  C   UNL A   1      46.000  34.743  29.077  1.00  0.00     0.198 A 
ATOM     67  F   UNL A   1      45.397  33.188  27.419  1.00  0.00    -0.203 F 
ATOM     68  F   UNL A   1      46.420  34.340  32.654  1.00  0.00    -0.200 F 
ATOM     69  C   UNL A   1      46.260  35.044  30.406  1.00  0.00     0.200 A 
ATOM     70  F   UNL A   1      46.069  35.705  28.146  1.00  0.00    -0.200 F 
ATOM     71  F   UNL A   1      46.556  36.301  30.763  1.00  0.00    -0.200 F 
ENDBRANCH  38  61
ENDBRANCH  12  13
ENDBRANCH   5   7
ENDBRANCH   2   3
ENDBRANCH   1   2
BRANCH   1  72
ATOM     72  C   UNL A   1      36.452  21.072  25.002  1.00  0.00     0.117 C 
BRANCH  72  73
ATOM     73  N   UNL A   1      35.795  21.127  26.291  1.00  0.00    -0.356 N 
ATOM     74  C   UNL A   1      34.538  21.519  26.636  1.00  0.00     0.227 C 
ATOM     75  H   UNL A   1      36.352  20.831  27.047  1.00  0.00     0.163 HD
ATOM     76  O   UNL A   1      34.281  21.540  27.844  1.00  0.00    -0.274 OA
BRANCH  74  77
ATOM     77  C   UNL A   1      33.479  21.906  25.592  1.00  0.00     0.110 C 
BRANCH  77  78
ATOM     78  C   UNL A   1      33.364  23.430  25.444  1.00  0.00    -0.021 A 
ATOM     79  C   UNL A   1      34.405  24.187  24.870  1.00  0.00     0.006 A 
ATOM     80  C   UNL A   1      32.233  24.148  25.889  1.00  0.00     0.021 A 
ATOM     81  C   UNL A   1      34.352  25.583  24.786  1.00  0.00     0.000 A 
ATOM     82  C   UNL A   1      32.172  25.547  25.785  1.00  0.00     0.016 A 
ATOM     83  Br  UNL A   1      30.688  23.314  26.629  1.00  0.00    -0.051 Br
ATOM     84  C   UNL A   1      33.235  26.264  25.247  1.00  0.00     0.001 A 
ENDBRANCH  77  78
BRANCH  77  85
ATOM     85  C   UNL A   1      33.593  21.049  24.298  1.00  0.00     0.025 C 
BRANCH  85  86
ATOM     86  C   UNL A   1      32.523  19.952  24.180  1.00  0.00     0.057 C 
BRANCH  86  87
ATOM     87  C   UNL A   1      32.999  18.568  24.529  1.00  0.00     0.040 A 
ATOM     88  C   UNL A   1      34.304  18.193  24.235  1.00  0.00     0.024 A 
ATOM     89  N   UNL A   1      32.126  17.733  25.138  1.00  0.00    -0.261 NA
ATOM     90  C   UNL A   1      34.746  16.938  24.637  1.00  0.00     0.003 A 
ATOM     91  C   UNL A   1      32.586  16.532  25.542  1.00  0.00     0.111 A 
ATOM     92  C   UNL A   1      33.878  16.095  25.319  1.00  0.00     0.020 A 
ENDBRANCH  86  87
ENDBRANCH  85  86
ENDBRANCH  77  85
ENDBRANCH  74  77
ENDBRANCH  72  73
ENDBRANCH   1  72
TORSDOF 14
ENDMDL
