MODEL 1
REMARK VINA RESULT:     -12.8      0.000      0.000
REMARK SMILES CSc1ccc(CNc2ccc(N3CCOCC3)c(C(=O)NCCCNC(=O)c3ccc(-c4c5nc(c(-c6c(F)c(F)c(F)c(F)c6F)c6ccc([nH]6)c(-c6c(F)c(F)c(F)c(F)c6F)c6nc(c(-c7c(F)c(F)c(F)c(F)c7F)c7ccc4[nH]7)C=C6)C=C5)cc3)c2)cc1
REMARK SMILES IDX 23 1 22 2 20 3 21 4 19 6 9 7 10 8 92 9 11 10 12 11 8 12 7 14
REMARK SMILES IDX 6 15 3 16 4 17 94 18 5 19 93 20 2 21 1 22 13 23 14 24 18 25
REMARK SMILES IDX 15 26 17 27 16 28 24 29 25 30 26 31 27 32 28 34 29 35 30 36
REMARK SMILES IDX 91 37 31 38 90 39 32 40 33 41 34 42 84 43 35 44 89 45 83 46
REMARK SMILES IDX 85 47 36 48 88 49 82 50 81 51 37 53 69 54 49 55 68 56 50 57
REMARK SMILES IDX 53 58 67 59 86 60 51 61 52 62 66 64 87 65 54 66 38 67 39 68
REMARK SMILES IDX 47 69 40 70 41 71 45 72 48 73 42 74 43 75 46 76 44 77 70 78
REMARK SMILES IDX 71 79 79 80 72 81 73 82 77 83 80 84 74 85 75 86 78 87 76 88
REMARK SMILES IDX 55 89 56 90 64 91 57 92 58 93 62 94 65 95 59 96 60 97 63 98
REMARK SMILES IDX 61 99
REMARK H PARENT 22 5 8 13 26 33 85 52 53 63
REMARK Flexibility Score: inf
ROOT
ATOM      1  C   UNL A   1      37.188  21.034  24.588  1.00  0.00     0.118 C 
ENDROOT
BRANCH   1   2
ATOM      2  N   UNL A   1      36.262  21.258  25.694  1.00  0.00    -0.352 N 
ATOM      3  C   UNL A   1      34.885  21.309  25.837  1.00  0.00     0.253 C 
ATOM      4  O   UNL A   1      34.495  21.439  26.996  1.00  0.00    -0.269 OA
ATOM      5  H   UNL A   1      36.730  21.410  26.547  1.00  0.00     0.163 HD
BRANCH   3   6
ATOM      6  C   UNL A   1      33.931  21.268  24.678  1.00  0.00     0.065 A 
ATOM      7  C   UNL A   1      32.772  22.620  22.979  1.00  0.00     0.035 A 
ATOM      8  C   UNL A   1      31.945  21.534  22.723  1.00  0.00     0.028 A 
ATOM      9  C   UNL A   1      33.809  22.415  23.884  1.00  0.00     0.041 A 
ATOM     10  C   UNL A   1      32.190  20.297  23.325  1.00  0.00     0.029 A 
ATOM     11  C   UNL A   1      33.201  20.124  24.292  1.00  0.00     0.050 A 
BRANCH   7  12
ATOM     12  N   UNL A   1      32.564  23.812  22.328  1.00  0.00    -0.381 N 
ATOM     13  H   UNL A   1      33.136  23.997  21.547  1.00  0.00     0.160 HD
BRANCH  12  14
ATOM     14  C   UNL A   1      31.584  24.825  22.675  1.00  0.00     0.148 C 
BRANCH  14  15
ATOM     15  C   UNL A   1      32.186  25.777  23.678  1.00  0.00    -0.029 A 
ATOM     16  C   UNL A   1      33.293  27.553  25.572  1.00  0.00     0.007 A 
ATOM     17  C   UNL A   1      32.349  26.594  25.958  1.00  0.00     0.015 A 
ATOM     18  C   UNL A   1      33.658  27.627  24.224  1.00  0.00     0.015 A 
ATOM     19  C   UNL A   1      31.793  25.725  25.022  1.00  0.00     0.007 A 
ATOM     20  C   UNL A   1      33.107  26.751  23.282  1.00  0.00     0.007 A 
BRANCH  16  21
ATOM     21  S   UNL A   1      33.958  28.581  26.875  1.00  0.00    -0.130 SA
ATOM     22  C   UNL A   1      33.036  30.127  26.693  1.00  0.00     0.091 C 
ENDBRANCH  16  21
ENDBRANCH  14  15
ENDBRANCH  12  14
ENDBRANCH   7  12
BRANCH  11  23
ATOM     23  N   UNL A   1      33.513  18.834  24.672  1.00  0.00    -0.366 N 
ATOM     24  C   UNL A   1      34.723  18.125  24.253  1.00  0.00     0.145 C 
ATOM     25  C   UNL A   1      32.742  18.198  25.747  1.00  0.00     0.145 C 
ATOM     26  C   UNL A   1      34.411  16.630  24.028  1.00  0.00     0.181 C 
ATOM     27  C   UNL A   1      32.487  16.730  25.383  1.00  0.00     0.181 C 
ATOM     28  O   UNL A   1      33.728  16.039  25.153  1.00  0.00    -0.378 OA
ENDBRANCH  11  23
ENDBRANCH   3   6
ENDBRANCH   1   2
BRANCH   1  29
ATOM     29  C   UNL A   1      38.179  19.905  24.808  1.00  0.00     0.042 C 
BRANCH  29  30
ATOM     30  C   UNL A   1      39.100  20.087  26.001  1.00  0.00     0.118 C 
BRANCH  30  31
ATOM     31  N   UNL A   1      40.186  19.115  26.034  1.00  0.00    -0.352 N 
ATOM     32  C   UNL A   1      41.548  19.275  26.125  1.00  0.00     0.251 C 
ATOM     33  H   UNL A   1      39.891  18.177  25.984  1.00  0.00     0.163 HD
ATOM     34  O   UNL A   1      42.281  18.310  25.931  1.00  0.00    -0.269 OA
BRANCH  32  35
ATOM     35  C   UNL A   1      42.146  20.594  26.429  1.00  0.00     0.039 A 
ATOM     36  C   UNL A   1      42.572  21.406  25.372  1.00  0.00     0.014 A 
ATOM     37  C   UNL A   1      42.330  21.026  27.743  1.00  0.00     0.014 A 
ATOM     38  C   UNL A   1      43.104  22.673  25.632  1.00  0.00     0.010 A 
ATOM     39  C   UNL A   1      42.758  22.324  27.998  1.00  0.00     0.010 A 
ATOM     40  C   UNL A   1      43.159  23.160  26.947  1.00  0.00    -0.014 A 
BRANCH  40  41
ATOM     41  C   UNL A   1      43.643  24.532  27.253  1.00  0.00     0.031 A 
ATOM     42  C   UNL A   1      42.676  25.584  27.728  1.00  0.00     0.074 A 
ATOM     43  C   UNL A   1      44.932  24.854  27.020  1.00  0.00     0.049 A 
ATOM     44  N   UNL A   1      42.877  26.861  27.939  1.00  0.00    -0.248 NA
ATOM     45  C   UNL A   1      41.287  25.153  27.967  1.00  0.00     0.031 C 
ATOM     46  C   UNL A   1      45.953  23.940  26.502  1.00  0.00     0.029 A 
ATOM     47  N   UNL A   1      45.600  26.044  27.167  1.00  0.00    -0.354 N 
ATOM     48  C   UNL A   1      41.642  27.384  28.301  1.00  0.00     0.074 A 
ATOM     49  C   UNL A   1      40.687  26.301  28.239  1.00  0.00     0.031 C 
ATOM     50  C   UNL A   1      47.118  24.598  26.390  1.00  0.00     0.029 A 
ATOM     51  C   UNL A   1      46.919  25.988  26.785  1.00  0.00     0.049 A 
ATOM     52  H   UNL A   1      45.175  26.861  27.515  1.00  0.00     0.167 HD
ATOM     53  C   UNL A   1      41.339  28.650  28.673  1.00  0.00     0.037 A 
ATOM     54  C   UNL A   1      47.857  26.954  26.742  1.00  0.00     0.037 A 
ATOM     55  C   UNL A   1      42.303  29.711  28.785  1.00  0.00     0.049 A 
ATOM     56  C   UNL A   1      47.494  28.347  27.186  1.00  0.00     0.074 A 
ATOM     57  C   UNL A   1      42.113  31.002  29.244  1.00  0.00     0.029 A 
ATOM     58  N   UNL A   1      43.641  29.602  28.436  1.00  0.00    -0.354 N 
ATOM     59  N   UNL A   1      46.342  28.806  27.611  1.00  0.00    -0.248 NA
ATOM     60  C   UNL A   1      48.563  29.354  27.153  1.00  0.00     0.031 C 
ATOM     61  C   UNL A   1      43.323  31.692  29.122  1.00  0.00     0.029 A 
ATOM     62  C   UNL A   1      44.280  30.813  28.644  1.00  0.00     0.049 A 
ATOM     63  H   UNL A   1      44.071  28.787  28.091  1.00  0.00     0.167 HD
ATOM     64  C   UNL A   1      46.556  30.141  27.927  1.00  0.00     0.074 A 
ATOM     65  C   UNL A   1      47.952  30.414  27.662  1.00  0.00     0.031 C 
ATOM     66  C   UNL A   1      45.676  31.060  28.392  1.00  0.00     0.037 A 
BRANCH  53  67
ATOM     67  C   UNL A   1      39.909  28.968  29.003  1.00  0.00     0.064 A 
ATOM     68  C   UNL A   1      39.001  29.391  28.021  1.00  0.00     0.173 A 
ATOM     69  C   UNL A   1      39.421  28.765  30.303  1.00  0.00     0.173 A 
ATOM     70  F   UNL A   1      39.418  29.610  26.765  1.00  0.00    -0.203 F 
ATOM     71  C   UNL A   1      37.662  29.613  28.331  1.00  0.00     0.198 A 
ATOM     72  C   UNL A   1      38.076  28.960  30.603  1.00  0.00     0.198 A 
ATOM     73  F   UNL A   1      40.247  28.355  31.278  1.00  0.00    -0.203 F 
ATOM     74  F   UNL A   1      36.820  30.048  27.384  1.00  0.00    -0.200 F 
ATOM     75  C   UNL A   1      37.199  29.386  29.619  1.00  0.00     0.200 A 
ATOM     76  F   UNL A   1      37.627  28.725  31.844  1.00  0.00    -0.200 F 
ATOM     77  F   UNL A   1      35.905  29.580  29.910  1.00  0.00    -0.200 F 
ENDBRANCH  53  67
BRANCH  54  78
ATOM     78  C   UNL A   1      49.233  26.648  26.264  1.00  0.00     0.064 A 
ATOM     79  C   UNL A   1      50.217  26.178  27.145  1.00  0.00     0.173 A 
ATOM     80  C   UNL A   1      49.604  26.857  24.928  1.00  0.00     0.173 A 
ATOM     81  F   UNL A   1      49.917  25.978  28.438  1.00  0.00    -0.203 F 
ATOM     82  C   UNL A   1      51.526  25.966  26.719  1.00  0.00     0.198 A 
ATOM     83  C   UNL A   1      50.906  26.613  24.494  1.00  0.00     0.198 A 
ATOM     84  F   UNL A   1      48.701  27.298  24.039  1.00  0.00    -0.203 F 
ATOM     85  F   UNL A   1      52.461  25.581  27.599  1.00  0.00    -0.200 F 
ATOM     86  C   UNL A   1      51.870  26.181  25.393  1.00  0.00     0.200 A 
ATOM     87  F   UNL A   1      51.229  26.805  23.208  1.00  0.00    -0.200 F 
ATOM     88  F   UNL A   1      53.130  25.983  24.984  1.00  0.00    -0.200 F 
ENDBRANCH  54  78
BRANCH  66  89
ATOM     89  C   UNL A   1      46.205  32.434  28.688  1.00  0.00     0.064 A 
ATOM     90  C   UNL A   1      46.741  32.763  29.942  1.00  0.00     0.173 A 
ATOM     91  C   UNL A   1      46.214  33.418  27.689  1.00  0.00     0.173 A 
ATOM     92  F   UNL A   1      46.742  31.860  30.934  1.00  0.00    -0.203 F 
ATOM     93  C   UNL A   1      47.241  34.038  30.192  1.00  0.00     0.198 A 
ATOM     94  C   UNL A   1      46.745  34.681  27.933  1.00  0.00     0.198 A 
ATOM     95  F   UNL A   1      45.720  33.152  26.470  1.00  0.00    -0.203 F 
ATOM     96  F   UNL A   1      47.701  34.347  31.412  1.00  0.00    -0.200 F 
ATOM     97  C   UNL A   1      47.250  34.993  29.185  1.00  0.00     0.200 A 
ATOM     98  F   UNL A   1      46.769  35.597  26.955  1.00  0.00    -0.200 F 
ATOM     99  F   UNL A   1      47.740  36.217  29.426  1.00  0.00    -0.200 F 
ENDBRANCH  66  89
ENDBRANCH  40  41
ENDBRANCH  32  35
ENDBRANCH  30  31
ENDBRANCH  29  30
ENDBRANCH   1  29
TORSDOF 15
ENDMDL
MODEL 2
REMARK VINA RESULT:     -12.5      0.690      7.080
REMARK SMILES CSc1ccc(CNc2ccc(N3CCOCC3)c(C(=O)NCCCNC(=O)c3ccc(-c4c5nc(c(-c6c(F)c(F)c(F)c(F)c6F)c6ccc([nH]6)c(-c6c(F)c(F)c(F)c(F)c6F)c6nc(c(-c7c(F)c(F)c(F)c(F)c7F)c7ccc4[nH]7)C=C6)C=C5)cc3)c2)cc1
REMARK SMILES IDX 23 1 22 2 20 3 21 4 19 6 9 7 10 8 92 9 11 10 12 11 8 12 7 14
REMARK SMILES IDX 6 15 3 16 4 17 94 18 5 19 93 20 2 21 1 22 13 23 14 24 18 25
REMARK SMILES IDX 15 26 17 27 16 28 24 29 25 30 26 31 27 32 28 34 29 35 30 36
REMARK SMILES IDX 91 37 31 38 90 39 32 40 33 41 34 42 84 43 35 44 89 45 83 46
REMARK SMILES IDX 85 47 36 48 88 49 82 50 81 51 37 53 69 54 49 55 68 56 50 57
REMARK SMILES IDX 53 58 67 59 86 60 51 61 52 62 66 64 87 65 54 66 38 67 39 68
REMARK SMILES IDX 47 69 40 70 41 71 45 72 48 73 42 74 43 75 46 76 44 77 70 78
REMARK SMILES IDX 71 79 79 80 72 81 73 82 77 83 80 84 74 85 75 86 78 87 76 88
REMARK SMILES IDX 55 89 56 90 64 91 57 92 58 93 62 94 65 95 59 96 60 97 63 98
REMARK SMILES IDX 61 99
REMARK H PARENT 22 5 8 13 26 33 85 52 53 63
REMARK Flexibility Score: inf
ROOT
ATOM      1  C   UNL A   1      37.220  20.772  24.664  1.00  0.00     0.118 C 
ENDROOT
BRANCH   1   2
ATOM      2  N   UNL A   1      36.294  21.079  25.750  1.00  0.00    -0.352 N 
ATOM      3  C   UNL A   1      34.919  21.198  25.873  1.00  0.00     0.253 C 
ATOM      4  O   UNL A   1      34.523  21.388  27.023  1.00  0.00    -0.269 OA
ATOM      5  H   UNL A   1      36.759  21.242  26.603  1.00  0.00     0.163 HD
BRANCH   3   6
ATOM      6  C   UNL A   1      33.977  21.156  24.705  1.00  0.00     0.065 A 
ATOM      7  C   UNL A   1      32.850  22.505  22.983  1.00  0.00     0.035 A 
ATOM      8  C   UNL A   1      32.013  21.426  22.727  1.00  0.00     0.028 A 
ATOM      9  C   UNL A   1      33.875  22.297  23.900  1.00  0.00     0.041 A 
ATOM     10  C   UNL A   1      32.240  20.192  23.343  1.00  0.00     0.029 A 
ATOM     11  C   UNL A   1      33.239  20.016  24.322  1.00  0.00     0.050 A 
BRANCH   7  12
ATOM     12  N   UNL A   1      32.661  23.694  22.319  1.00  0.00    -0.381 N 
ATOM     13  H   UNL A   1      33.239  23.863  21.539  1.00  0.00     0.160 HD
BRANCH  12  14
ATOM     14  C   UNL A   1      31.693  24.724  22.652  1.00  0.00     0.148 C 
BRANCH  14  15
ATOM     15  C   UNL A   1      32.282  25.641  23.694  1.00  0.00    -0.029 A 
ATOM     16  C   UNL A   1      33.403  27.364  25.628  1.00  0.00     0.007 A 
ATOM     17  C   UNL A   1      33.707  27.519  24.271  1.00  0.00     0.015 A 
ATOM     18  C   UNL A   1      32.551  26.322  26.007  1.00  0.00     0.015 A 
ATOM     19  C   UNL A   1      33.164  26.661  23.317  1.00  0.00     0.007 A 
ATOM     20  C   UNL A   1      31.998  25.463  25.051  1.00  0.00     0.007 A 
BRANCH  16  21
ATOM     21  S   UNL A   1      34.133  28.553  26.746  1.00  0.00    -0.130 SA
ATOM     22  C   UNL A   1      32.864  29.838  26.868  1.00  0.00     0.091 C 
ENDBRANCH  16  21
ENDBRANCH  14  15
ENDBRANCH  12  14
ENDBRANCH   7  12
BRANCH  11  23
ATOM     23  N   UNL A   1      33.533  18.727  24.716  1.00  0.00    -0.366 N 
ATOM     24  C   UNL A   1      34.722  17.989  24.288  1.00  0.00     0.145 C 
ATOM     25  C   UNL A   1      32.769  18.122  25.813  1.00  0.00     0.145 C 
ATOM     26  C   UNL A   1      34.378  16.496  24.091  1.00  0.00     0.181 C 
ATOM     27  C   UNL A   1      32.481  16.653  25.476  1.00  0.00     0.181 C 
ATOM     28  O   UNL A   1      33.704  15.936  25.236  1.00  0.00    -0.378 OA
ENDBRANCH  11  23
ENDBRANCH   3   6
ENDBRANCH   1   2
BRANCH   1  29
ATOM     29  C   UNL A   1      38.218  19.670  24.974  1.00  0.00     0.042 C 
BRANCH  29  30
ATOM     30  C   UNL A   1      39.222  20.005  26.062  1.00  0.00     0.118 C 
BRANCH  30  31
ATOM     31  N   UNL A   1      40.399  19.145  26.035  1.00  0.00    -0.352 N 
ATOM     32  C   UNL A   1      41.741  19.437  26.082  1.00  0.00     0.251 C 
ATOM     33  H   UNL A   1      40.196  18.183  25.974  1.00  0.00     0.163 HD
ATOM     34  O   UNL A   1      42.557  18.553  25.839  1.00  0.00    -0.269 OA
BRANCH  32  35
ATOM     35  C   UNL A   1      42.218  20.803  26.395  1.00  0.00     0.039 A 
ATOM     36  C   UNL A   1      42.474  21.690  25.344  1.00  0.00     0.014 A 
ATOM     37  C   UNL A   1      42.455  21.208  27.709  1.00  0.00     0.014 A 
ATOM     38  C   UNL A   1      42.887  22.997  25.617  1.00  0.00     0.010 A 
ATOM     39  C   UNL A   1      42.761  22.536  27.985  1.00  0.00     0.010 A 
ATOM     40  C   UNL A   1      42.991  23.445  26.944  1.00  0.00    -0.014 A 
BRANCH  40  41
ATOM     41  C   UNL A   1      43.349  24.850  27.269  1.00  0.00     0.031 A 
ATOM     42  C   UNL A   1      44.776  25.315  27.134  1.00  0.00     0.074 A 
ATOM     43  C   UNL A   1      42.412  25.681  27.769  1.00  0.00     0.049 A 
ATOM     44  N   UNL A   1      45.310  26.461  27.473  1.00  0.00    -0.248 NA
ATOM     45  C   UNL A   1      45.739  24.351  26.573  1.00  0.00     0.031 C 
ATOM     46  C   UNL A   1      41.009  25.331  28.005  1.00  0.00     0.029 A 
ATOM     47  N   UNL A   1      42.501  26.984  28.190  1.00  0.00    -0.354 N 
ATOM     48  C   UNL A   1      46.666  26.343  27.198  1.00  0.00     0.074 A 
ATOM     49  C   UNL A   1      46.885  25.002  26.706  1.00  0.00     0.031 C 
ATOM     50  C   UNL A   1      40.368  26.395  28.513  1.00  0.00     0.029 A 
ATOM     51  C   UNL A   1      41.320  27.488  28.679  1.00  0.00     0.049 A 
ATOM     52  H   UNL A   1      43.332  27.510  28.145  1.00  0.00     0.167 HD
ATOM     53  C   UNL A   1      47.637  27.278  27.324  1.00  0.00     0.037 A 
ATOM     54  C   UNL A   1      41.041  28.691  29.219  1.00  0.00     0.037 A 
ATOM     55  C   UNL A   1      47.405  28.629  27.763  1.00  0.00     0.049 A 
ATOM     56  C   UNL A   1      42.137  29.719  29.321  1.00  0.00     0.074 A 
ATOM     57  C   UNL A   1      48.304  29.677  27.834  1.00  0.00     0.029 A 
ATOM     58  N   UNL A   1      46.183  29.116  28.203  1.00  0.00    -0.354 N 
ATOM     59  N   UNL A   1      43.397  29.622  28.973  1.00  0.00    -0.248 NA
ATOM     60  C   UNL A   1      41.772  31.026  29.883  1.00  0.00     0.031 C 
ATOM     61  C   UNL A   1      47.641  30.786  28.368  1.00  0.00     0.029 A 
ATOM     62  C   UNL A   1      46.315  30.444  28.574  1.00  0.00     0.049 A 
ATOM     63  H   UNL A   1      45.349  28.596  28.247  1.00  0.00     0.167 HD
ATOM     64  C   UNL A   1      43.964  30.861  29.242  1.00  0.00     0.074 A 
ATOM     65  C   UNL A   1      42.907  31.699  29.765  1.00  0.00     0.031 C 
ATOM     66  C   UNL A   1      45.245  31.268  29.075  1.00  0.00     0.037 A 
BRANCH  53  67
ATOM     67  C   UNL A   1      49.044  26.891  26.972  1.00  0.00     0.064 A 
ATOM     68  C   UNL A   1      49.538  27.009  25.665  1.00  0.00     0.173 A 
ATOM     69  C   UNL A   1      49.935  26.475  27.975  1.00  0.00     0.173 A 
ATOM     70  F   UNL A   1      48.725  27.392  24.668  1.00  0.00    -0.203 F 
ATOM     71  C   UNL A   1      50.866  26.712  25.371  1.00  0.00     0.198 A 
ATOM     72  C   UNL A   1      51.269  26.208  27.682  1.00  0.00     0.198 A 
ATOM     73  F   UNL A   1      49.514  26.351  29.243  1.00  0.00    -0.203 F 
ATOM     74  F   UNL A   1      51.307  26.801  24.109  1.00  0.00    -0.200 F 
ATOM     75  C   UNL A   1      51.732  26.323  26.382  1.00  0.00     0.200 A 
ATOM     76  F   UNL A   1      52.109  25.847  28.663  1.00  0.00    -0.200 F 
ATOM     77  F   UNL A   1      53.016  26.059  26.100  1.00  0.00    -0.200 F 
ENDBRANCH  53  67
BRANCH  54  78
ATOM     78  C   UNL A   1      39.668  29.000  29.703  1.00  0.00     0.064 A 
ATOM     79  C   UNL A   1      39.286  28.722  31.022  1.00  0.00     0.173 A 
ATOM     80  C   UNL A   1      38.697  29.542  28.847  1.00  0.00     0.173 A 
ATOM     81  F   UNL A   1      40.172  28.186  31.876  1.00  0.00    -0.203 F 
ATOM     82  C   UNL A   1      37.980  28.935  31.457  1.00  0.00     0.198 A 
ATOM     83  C   UNL A   1      37.399  29.787  29.291  1.00  0.00     0.198 A 
ATOM     84  F   UNL A   1      39.010  29.836  27.576  1.00  0.00    -0.203 F 
ATOM     85  F   UNL A   1      37.626  28.596  32.705  1.00  0.00    -0.200 F 
ATOM     86  C   UNL A   1      37.037  29.470  30.591  1.00  0.00     0.200 A 
ATOM     87  F   UNL A   1      36.497  30.321  28.456  1.00  0.00    -0.200 F 
ATOM     88  F   UNL A   1      35.779  29.671  31.007  1.00  0.00    -0.200 F 
ENDBRANCH  54  78
BRANCH  66  89
ATOM     89  C   UNL A   1      45.566  32.695  29.415  1.00  0.00     0.064 A 
ATOM     90  C   UNL A   1      46.016  33.065  30.691  1.00  0.00     0.173 A 
ATOM     91  C   UNL A   1      45.464  33.695  28.438  1.00  0.00     0.173 A 
ATOM     92  F   UNL A   1      46.117  32.146  31.664  1.00  0.00    -0.203 F 
ATOM     93  C   UNL A   1      46.324  34.391  30.983  1.00  0.00     0.198 A 
ATOM     94  C   UNL A   1      45.805  35.014  28.724  1.00  0.00     0.198 A 
ATOM     95  F   UNL A   1      45.047  33.392  27.199  1.00  0.00    -0.203 F 
ATOM     96  F   UNL A   1      46.702  34.730  32.223  1.00  0.00    -0.200 F 
ATOM     97  C   UNL A   1      46.226  35.362  29.997  1.00  0.00     0.200 A 
ATOM     98  F   UNL A   1      45.726  35.948  27.765  1.00  0.00    -0.200 F 
ATOM     99  F   UNL A   1      46.532  36.636  30.278  1.00  0.00    -0.200 F 
ENDBRANCH  66  89
ENDBRANCH  40  41
ENDBRANCH  32  35
ENDBRANCH  30  31
ENDBRANCH  29  30
ENDBRANCH   1  29
TORSDOF 15
ENDMDL
MODEL 3
REMARK VINA RESULT:     -12.5      0.591      2.064
REMARK SMILES CSc1ccc(CNc2ccc(N3CCOCC3)c(C(=O)NCCCNC(=O)c3ccc(-c4c5nc(c(-c6c(F)c(F)c(F)c(F)c6F)c6ccc([nH]6)c(-c6c(F)c(F)c(F)c(F)c6F)c6nc(c(-c7c(F)c(F)c(F)c(F)c7F)c7ccc4[nH]7)C=C6)C=C5)cc3)c2)cc1
REMARK SMILES IDX 23 1 22 2 20 3 21 4 19 6 9 7 10 8 92 9 11 10 12 11 8 12 7 14
REMARK SMILES IDX 6 15 3 16 4 17 94 18 5 19 93 20 2 21 1 22 13 23 14 24 18 25
REMARK SMILES IDX 15 26 17 27 16 28 24 29 25 30 26 31 27 32 28 34 29 35 30 36
REMARK SMILES IDX 91 37 31 38 90 39 32 40 33 41 34 42 84 43 35 44 89 45 83 46
REMARK SMILES IDX 85 47 36 48 88 49 82 50 81 51 37 53 69 54 49 55 68 56 50 57
REMARK SMILES IDX 53 58 67 59 86 60 51 61 52 62 66 64 87 65 54 66 38 67 39 68
REMARK SMILES IDX 47 69 40 70 41 71 45 72 48 73 42 74 43 75 46 76 44 77 70 78
REMARK SMILES IDX 71 79 79 80 72 81 73 82 77 83 80 84 74 85 75 86 78 87 76 88
REMARK SMILES IDX 55 89 56 90 64 91 57 92 58 93 62 94 65 95 59 96 60 97 63 98
REMARK SMILES IDX 61 99
REMARK H PARENT 22 5 8 13 26 33 85 52 53 63
REMARK Flexibility Score: inf
ROOT
ATOM      1  C   UNL A   1      36.745  20.606  24.693  1.00  0.00     0.118 C 
ENDROOT
BRANCH   1   2
ATOM      2  N   UNL A   1      35.668  20.679  25.675  1.00  0.00    -0.352 N 
ATOM      3  C   UNL A   1      34.289  20.802  25.624  1.00  0.00     0.253 C 
ATOM      4  O   UNL A   1      33.728  20.733  26.717  1.00  0.00    -0.269 OA
ATOM      5  H   UNL A   1      36.003  20.630  26.600  1.00  0.00     0.163 HD
BRANCH   3   6
ATOM      6  C   UNL A   1      33.527  21.053  24.355  1.00  0.00     0.065 A 
ATOM      7  C   UNL A   1      32.813  22.774  22.748  1.00  0.00     0.035 A 
ATOM      8  C   UNL A   1      31.911  21.860  22.216  1.00  0.00     0.028 A 
ATOM      9  C   UNL A   1      33.666  22.304  23.741  1.00  0.00     0.041 A 
ATOM     10  C   UNL A   1      31.912  20.530  22.646  1.00  0.00     0.029 A 
ATOM     11  C   UNL A   1      32.735  20.086  23.701  1.00  0.00     0.050 A 
BRANCH   7  12
ATOM     12  N   UNL A   1      32.850  24.061  22.268  1.00  0.00    -0.381 N 
ATOM     13  H   UNL A   1      33.691  24.353  21.845  1.00  0.00     0.160 HD
BRANCH  12  14
ATOM     14  C   UNL A   1      31.774  25.034  22.322  1.00  0.00     0.148 C 
BRANCH  14  15
ATOM     15  C   UNL A   1      31.947  25.900  23.544  1.00  0.00    -0.029 A 
ATOM     16  C   UNL A   1      32.295  27.509  25.837  1.00  0.00     0.007 A 
ATOM     17  C   UNL A   1      33.381  26.836  25.265  1.00  0.00     0.015 A 
ATOM     18  C   UNL A   1      31.031  27.349  25.261  1.00  0.00     0.015 A 
ATOM     19  C   UNL A   1      33.208  26.031  24.141  1.00  0.00     0.007 A 
ATOM     20  C   UNL A   1      30.855  26.548  24.128  1.00  0.00     0.007 A 
BRANCH  16  21
ATOM     21  S   UNL A   1      32.657  28.539  27.253  1.00  0.00    -0.130 SA
ATOM     22  C   UNL A   1      33.334  30.043  26.507  1.00  0.00     0.091 C 
ENDBRANCH  16  21
ENDBRANCH  14  15
ENDBRANCH  12  14
ENDBRANCH   7  12
BRANCH  11  23
ATOM     23  N   UNL A   1      32.829  18.726  23.914  1.00  0.00    -0.366 N 
ATOM     24  C   UNL A   1      32.523  18.070  25.185  1.00  0.00     0.145 C 
ATOM     25  C   UNL A   1      33.005  17.832  22.762  1.00  0.00     0.145 C 
ATOM     26  C   UNL A   1      33.492  16.892  25.423  1.00  0.00     0.181 C 
ATOM     27  C   UNL A   1      34.004  16.728  23.130  1.00  0.00     0.181 C 
ATOM     28  O   UNL A   1      33.557  16.002  24.289  1.00  0.00    -0.378 OA
ENDBRANCH  11  23
ENDBRANCH   3   6
ENDBRANCH   1   2
BRANCH   1  29
ATOM     29  C   UNL A   1      37.823  19.584  25.007  1.00  0.00     0.042 C 
BRANCH  29  30
ATOM     30  C   UNL A   1      39.023  20.132  25.758  1.00  0.00     0.118 C 
BRANCH  30  31
ATOM     31  N   UNL A   1      40.100  19.159  25.898  1.00  0.00    -0.352 N 
ATOM     32  C   UNL A   1      41.451  19.318  26.091  1.00  0.00     0.251 C 
ATOM     33  H   UNL A   1      39.806  18.220  25.847  1.00  0.00     0.163 HD
ATOM     34  O   UNL A   1      42.193  18.347  25.976  1.00  0.00    -0.269 OA
BRANCH  32  35
ATOM     35  C   UNL A   1      42.029  20.643  26.409  1.00  0.00     0.039 A 
ATOM     36  C   UNL A   1      42.313  21.528  25.364  1.00  0.00     0.014 A 
ATOM     37  C   UNL A   1      42.333  21.008  27.721  1.00  0.00     0.014 A 
ATOM     38  C   UNL A   1      42.823  22.800  25.644  1.00  0.00     0.010 A 
ATOM     39  C   UNL A   1      42.737  22.308  28.008  1.00  0.00     0.010 A 
ATOM     40  C   UNL A   1      42.997  23.217  26.973  1.00  0.00    -0.014 A 
BRANCH  40  41
ATOM     41  C   UNL A   1      43.460  24.589  27.308  1.00  0.00     0.031 A 
ATOM     42  C   UNL A   1      42.479  25.611  27.821  1.00  0.00     0.074 A 
ATOM     43  C   UNL A   1      44.739  24.940  27.069  1.00  0.00     0.049 A 
ATOM     44  N   UNL A   1      42.659  26.885  28.062  1.00  0.00    -0.248 NA
ATOM     45  C   UNL A   1      41.101  25.148  28.063  1.00  0.00     0.031 C 
ATOM     46  C   UNL A   1      45.770  24.058  26.517  1.00  0.00     0.029 A 
ATOM     47  N   UNL A   1      45.388  26.138  27.239  1.00  0.00    -0.354 N 
ATOM     48  C   UNL A   1      41.420  27.376  28.451  1.00  0.00     0.074 A 
ATOM     49  C   UNL A   1      40.483  26.278  28.372  1.00  0.00     0.031 C 
ATOM     50  C   UNL A   1      46.922  24.740  26.409  1.00  0.00     0.029 A 
ATOM     51  C   UNL A   1      46.703  26.115  26.842  1.00  0.00     0.049 A 
ATOM     52  H   UNL A   1      44.952  26.938  27.613  1.00  0.00     0.167 HD
ATOM     53  C   UNL A   1      41.098  28.626  28.858  1.00  0.00     0.037 A 
ATOM     54  C   UNL A   1      47.623  27.099  26.813  1.00  0.00     0.037 A 
ATOM     55  C   UNL A   1      42.045  29.702  28.987  1.00  0.00     0.049 A 
ATOM     56  C   UNL A   1      47.240  28.473  27.297  1.00  0.00     0.074 A 
ATOM     57  C   UNL A   1      41.837  30.978  29.481  1.00  0.00     0.029 A 
ATOM     58  N   UNL A   1      43.380  29.626  28.621  1.00  0.00    -0.354 N 
ATOM     59  N   UNL A   1      46.085  28.900  27.746  1.00  0.00    -0.248 NA
ATOM     60  C   UNL A   1      48.291  29.500  27.278  1.00  0.00     0.031 C 
ATOM     61  C   UNL A   1      43.033  31.692  29.364  1.00  0.00     0.029 A 
ATOM     62  C   UNL A   1      44.000  30.843  28.852  1.00  0.00     0.049 A 
ATOM     63  H   UNL A   1      43.821  28.828  28.250  1.00  0.00     0.167 HD
ATOM     64  C   UNL A   1      46.279  30.230  28.093  1.00  0.00     0.074 A 
ATOM     65  C   UNL A   1      47.667  30.535  27.820  1.00  0.00     0.031 C 
ATOM     66  C   UNL A   1      45.388  31.122  28.591  1.00  0.00     0.037 A 
BRANCH  53  67
ATOM     67  C   UNL A   1      39.667  28.910  29.212  1.00  0.00     0.064 A 
ATOM     68  C   UNL A   1      39.174  28.714  30.510  1.00  0.00     0.173 A 
ATOM     69  C   UNL A   1      38.799  29.466  28.258  1.00  0.00     0.173 A 
ATOM     70  F   UNL A   1      39.959  28.176  31.456  1.00  0.00    -0.203 F 
ATOM     71  C   UNL A   1      37.863  29.049  30.838  1.00  0.00     0.198 A 
ATOM     72  C   UNL A   1      37.498  29.827  28.597  1.00  0.00     0.198 A 
ATOM     73  F   UNL A   1      39.222  29.679  27.003  1.00  0.00    -0.203 F 
ATOM     74  F   UNL A   1      37.405  28.822  32.076  1.00  0.00    -0.200 F 
ATOM     75  C   UNL A   1      37.030  29.616  29.884  1.00  0.00     0.200 A 
ATOM     76  F   UNL A   1      36.700  30.389  27.677  1.00  0.00    -0.200 F 
ATOM     77  F   UNL A   1      35.775  29.958  30.207  1.00  0.00    -0.200 F 
ENDBRANCH  53  67
BRANCH  54  78
ATOM     78  C   UNL A   1      48.999  26.830  26.312  1.00  0.00     0.064 A 
ATOM     79  C   UNL A   1      49.332  27.034  24.966  1.00  0.00     0.173 A 
ATOM     80  C   UNL A   1      49.997  26.325  27.159  1.00  0.00     0.173 A 
ATOM     81  F   UNL A   1      48.407  27.498  24.111  1.00  0.00    -0.203 F 
ATOM     82  C   UNL A   1      50.595  26.708  24.477  1.00  0.00     0.198 A 
ATOM     83  C   UNL A   1      51.271  26.031  26.677  1.00  0.00     0.198 A 
ATOM     84  F   UNL A   1      49.736  26.119  28.458  1.00  0.00    -0.203 F 
ATOM     85  F   UNL A   1      50.863  26.851  23.171  1.00  0.00    -0.200 F 
ATOM     86  C   UNL A   1      51.565  26.209  25.333  1.00  0.00     0.200 A 
ATOM     87  F   UNL A   1      52.210  25.566  27.511  1.00  0.00    -0.200 F 
ATOM     88  F   UNL A   1      52.778  25.890  24.862  1.00  0.00    -0.200 F 
ENDBRANCH  54  78
BRANCH  66  89
ATOM     89  C   UNL A   1      45.896  32.497  28.917  1.00  0.00     0.064 A 
ATOM     90  C   UNL A   1      45.838  33.544  27.985  1.00  0.00     0.173 A 
ATOM     91  C   UNL A   1      46.405  32.778  30.193  1.00  0.00     0.173 A 
ATOM     92  F   UNL A   1      45.372  33.321  26.747  1.00  0.00    -0.203 F 
ATOM     93  C   UNL A   1      46.299  34.816  28.312  1.00  0.00     0.198 A 
ATOM     94  C   UNL A   1      46.833  34.060  30.526  1.00  0.00     0.198 A 
ATOM     95  F   UNL A   1      46.474  31.814  31.123  1.00  0.00    -0.203 F 
ATOM     96  F   UNL A   1      46.282  35.789  27.390  1.00  0.00    -0.200 F 
ATOM     97  C   UNL A   1      46.788  35.075  29.584  1.00  0.00     0.200 A 
ATOM     98  F   UNL A   1      47.290  34.312  31.761  1.00  0.00    -0.200 F 
ATOM     99  F   UNL A   1      47.222  36.303  29.898  1.00  0.00    -0.200 F 
ENDBRANCH  66  89
ENDBRANCH  40  41
ENDBRANCH  32  35
ENDBRANCH  30  31
ENDBRANCH  29  30
ENDBRANCH   1  29
TORSDOF 15
ENDMDL
