MODEL 1
REMARK VINA RESULT:     -13.3      0.000      0.000
REMARK SMILES CN1C(=O)/C(=C\c2ccc(-c3ccccc3C(=O)NCCCNC(=O)c3ccc(-c4c5nc(c(-c6c(F)c(F)c(F)c(F)c6F)c6ccc([nH]6)c(-c6c(F)c(F)c(F)c(F)c6F)c6nc(c(-c7c(F)c(F)c(F)c(F)c7F)c7ccc4[nH]7)C=C6)C=C5)cc3)o2)C(=O)[NH+]=C1S
REMARK SMILES IDX 20 1 19 2 17 3 18 4 16 6 11 7 12 8 13 9 15 10 14 11 10 12
REMARK SMILES IDX 7 13 8 14 89 15 9 16 6 17 1 18 2 19 3 20 93 21 4 22 5 23
REMARK SMILES IDX 92 24 90 25 91 27 94 28 21 30 22 31 23 32 24 33 25 35 26 36
REMARK SMILES IDX 27 37 88 38 28 39 87 40 29 41 30 42 31 43 81 44 32 45 86 46
REMARK SMILES IDX 80 47 82 48 33 49 85 50 79 51 78 52 34 54 66 55 46 56 65 57
REMARK SMILES IDX 47 58 50 59 64 60 83 61 48 62 49 63 63 65 84 66 51 67 35 68
REMARK SMILES IDX 36 69 44 70 37 71 38 72 42 73 45 74 39 75 40 76 43 77 41 78
REMARK SMILES IDX 67 79 68 80 76 81 69 82 70 83 74 84 77 85 71 86 72 87 75 88
REMARK SMILES IDX 73 89 52 90 53 91 61 92 54 93 55 94 59 95 62 96 56 97 57 98
REMARK SMILES IDX 60 99 58 100
REMARK H PARENT 19 5 92 26 94 29 23 34 82 53 50 64
REMARK Flexibility Score: inf
ROOT
ATOM      1  C   UNL A   1      33.991  26.703  25.717  1.00  0.00     0.118 C 
ENDROOT
BRANCH   1   2
ATOM      2  N   UNL A   1      33.952  26.240  24.366  1.00  0.00    -0.352 N 
ATOM      3  C   UNL A   1      33.032  26.377  23.360  1.00  0.00     0.252 C 
ATOM      4  O   UNL A   1      33.517  26.134  22.245  1.00  0.00    -0.269 OA
ATOM      5  H   UNL A   1      34.745  25.716  24.106  1.00  0.00     0.163 HD
BRANCH   3   6
ATOM      6  C   UNL A   1      31.547  26.691  23.436  1.00  0.00     0.050 A 
ATOM      7  C   UNL A   1      30.452  26.095  24.108  1.00  0.00     0.030 A 
ATOM      8  C   UNL A   1      29.153  26.648  23.952  1.00  0.00     0.013 A 
ATOM      9  C   UNL A   1      28.913  27.786  23.190  1.00  0.00     0.001 A 
ATOM     10  C   UNL A   1      31.250  27.853  22.665  1.00  0.00     0.014 A 
ATOM     11  C   UNL A   1      29.971  28.398  22.550  1.00  0.00     0.001 A 
BRANCH   7  12
ATOM     12  C   UNL A   1      30.470  24.975  25.030  1.00  0.00     0.135 A 
ATOM     13  C   UNL A   1      31.115  22.899  25.583  1.00  0.00     0.128 A 
ATOM     14  C   UNL A   1      30.449  23.467  26.669  1.00  0.00     0.051 A 
ATOM     15  O   UNL A   1      31.101  23.849  24.577  1.00  0.00    -0.457 OA
ATOM     16  C   UNL A   1      29.988  24.755  26.299  1.00  0.00     0.051 A 
BRANCH  13  17
ATOM     17  C   UNL A   1      31.824  21.667  25.437  1.00  0.00     0.071 C 
ATOM     18  C   UNL A   1      36.267  23.516  25.661  1.00  0.00     0.301 C 
ATOM     19  N   UNL A   1      35.389  22.358  25.546  1.00  0.00    -0.189 N 
ATOM     20  C   UNL A   1      34.104  22.517  26.009  1.00  0.00     0.349 C 
ATOM     21  C   UNL A   1      35.814  21.101  25.195  1.00  0.00     0.318 C 
ATOM     22  O   UNL A   1      33.789  23.401  26.799  1.00  0.00    -0.240 OA
ATOM     23  C   UNL A   1      33.154  21.486  25.557  1.00  0.00     0.157 C 
ATOM     24  N   UNL A   1      35.062  20.072  25.057  1.00  0.00    -0.200 N 
ATOM     25  C   UNL A   1      33.702  20.155  25.188  1.00  0.00     0.347 C 
ATOM     26  H   UNL A   1      35.473  19.200  24.852  1.00  0.00     0.316 HD
ATOM     27  O   UNL A   1      32.977  19.197  24.985  1.00  0.00    -0.241 OA
BRANCH  21  28
ATOM     28  S   UNL A   1      37.525  20.844  24.949  1.00  0.00    -0.055 SA
ATOM     29  H   UNL A   1      37.868  19.610  25.405  1.00  0.00     0.116 HD
ENDBRANCH  21  28
ENDBRANCH  13  17
ENDBRANCH   7  12
ENDBRANCH   3   6
ENDBRANCH   1   2
BRANCH   1  30
ATOM     30  C   UNL A   1      33.880  28.197  25.916  1.00  0.00     0.042 C 
BRANCH  30  31
ATOM     31  C   UNL A   1      33.376  28.586  27.295  1.00  0.00     0.118 C 
BRANCH  31  32
ATOM     32  N   UNL A   1      33.571  29.999  27.636  1.00  0.00    -0.352 N 
ATOM     33  C   UNL A   1      34.616  30.706  28.176  1.00  0.00     0.251 C 
ATOM     34  H   UNL A   1      32.786  30.558  27.437  1.00  0.00     0.163 HD
ATOM     35  O   UNL A   1      34.430  31.880  28.496  1.00  0.00    -0.269 OA
BRANCH  33  36
ATOM     36  C   UNL A   1      35.936  30.087  28.433  1.00  0.00     0.039 A 
ATOM     37  C   UNL A   1      36.922  30.162  27.440  1.00  0.00     0.014 A 
ATOM     38  C   UNL A   1      36.226  29.436  29.626  1.00  0.00     0.014 A 
ATOM     39  C   UNL A   1      38.213  29.694  27.697  1.00  0.00     0.010 A 
ATOM     40  C   UNL A   1      37.538  29.113  29.940  1.00  0.00     0.010 A 
ATOM     41  C   UNL A   1      38.548  29.230  28.978  1.00  0.00    -0.014 A 
BRANCH  41  42
ATOM     42  C   UNL A   1      39.936  28.855  29.351  1.00  0.00     0.031 A 
ATOM     43  C   UNL A   1      40.793  29.822  30.123  1.00  0.00     0.074 A 
ATOM     44  C   UNL A   1      40.461  27.702  28.892  1.00  0.00     0.049 A 
ATOM     45  N   UNL A   1      42.073  29.768  30.391  1.00  0.00    -0.248 NA
ATOM     46  C   UNL A   1      40.132  31.040  30.620  1.00  0.00     0.031 C 
ATOM     47  C   UNL A   1      39.753  26.713  28.077  1.00  0.00     0.029 A 
ATOM     48  N   UNL A   1      41.723  27.178  29.020  1.00  0.00    -0.354 N 
ATOM     49  C   UNL A   1      42.371  30.953  31.050  1.00  0.00     0.074 A 
ATOM     50  C   UNL A   1      41.157  31.737  31.083  1.00  0.00     0.031 C 
ATOM     51  C   UNL A   1      40.579  25.695  27.798  1.00  0.00     0.029 A 
ATOM     52  C   UNL A   1      41.889  25.981  28.366  1.00  0.00     0.049 A 
ATOM     53  H   UNL A   1      42.439  27.617  29.533  1.00  0.00     0.167 HD
ATOM     54  C   UNL A   1      43.543  31.338  31.606  1.00  0.00     0.037 A 
ATOM     55  C   UNL A   1      42.984  25.210  28.226  1.00  0.00     0.037 A 
ATOM     56  C   UNL A   1      44.733  30.531  31.608  1.00  0.00     0.049 A 
ATOM     57  C   UNL A   1      44.273  25.656  28.859  1.00  0.00     0.074 A 
ATOM     58  C   UNL A   1      45.949  30.786  32.215  1.00  0.00     0.029 A 
ATOM     59  N   UNL A   1      44.852  29.303  30.971  1.00  0.00    -0.354 N 
ATOM     60  N   UNL A   1      44.525  26.745  29.545  1.00  0.00    -0.248 NA
ATOM     61  C   UNL A   1      45.429  24.763  28.704  1.00  0.00     0.031 C 
ATOM     62  C   UNL A   1      46.820  29.736  31.906  1.00  0.00     0.029 A 
ATOM     63  C   UNL A   1      46.129  28.799  31.151  1.00  0.00     0.049 A 
ATOM     64  H   UNL A   1      44.134  28.855  30.467  1.00  0.00     0.167 HD
ATOM     65  C   UNL A   1      45.856  26.658  29.923  1.00  0.00     0.074 A 
ATOM     66  C   UNL A   1      46.355  25.399  29.407  1.00  0.00     0.031 C 
ATOM     67  C   UNL A   1      46.602  27.542  30.631  1.00  0.00     0.037 A 
BRANCH  54  68
ATOM     68  C   UNL A   1      43.589  32.687  32.269  1.00  0.00     0.064 A 
ATOM     69  C   UNL A   1      43.284  32.851  33.629  1.00  0.00     0.173 A 
ATOM     70  C   UNL A   1      43.966  33.826  31.541  1.00  0.00     0.173 A 
ATOM     71  F   UNL A   1      42.905  31.798  34.369  1.00  0.00    -0.203 F 
ATOM     72  C   UNL A   1      43.317  34.109  34.227  1.00  0.00     0.198 A 
ATOM     73  C   UNL A   1      44.031  35.077  32.150  1.00  0.00     0.198 A 
ATOM     74  F   UNL A   1      44.272  33.728  30.239  1.00  0.00    -0.203 F 
ATOM     75  F   UNL A   1      42.961  34.247  35.510  1.00  0.00    -0.200 F 
ATOM     76  C   UNL A   1      43.698  35.219  33.488  1.00  0.00     0.200 A 
ATOM     77  F   UNL A   1      44.412  36.148  31.440  1.00  0.00    -0.200 F 
ATOM     78  F   UNL A   1      43.734  36.428  34.066  1.00  0.00    -0.200 F 
ENDBRANCH  54  68
BRANCH  55  79
ATOM     79  C   UNL A   1      42.900  23.931  27.474  1.00  0.00     0.064 A 
ATOM     80  C   UNL A   1      43.199  23.885  26.105  1.00  0.00     0.173 A 
ATOM     81  C   UNL A   1      42.525  22.733  28.100  1.00  0.00     0.173 A 
ATOM     82  F   UNL A   1      43.541  25.008  25.457  1.00  0.00    -0.203 F 
ATOM     83  C   UNL A   1      43.106  22.695  25.387  1.00  0.00     0.198 A 
ATOM     84  C   UNL A   1      42.462  21.537  27.387  1.00  0.00     0.198 A 
ATOM     85  F   UNL A   1      42.230  22.722  29.408  1.00  0.00    -0.203 F 
ATOM     86  F   UNL A   1      43.349  22.689  24.069  1.00  0.00    -0.200 F 
ATOM     87  C   UNL A   1      42.744  21.520  26.030  1.00  0.00     0.200 A 
ATOM     88  F   UNL A   1      42.122  20.402  28.013  1.00  0.00    -0.200 F 
ATOM     89  F   UNL A   1      42.656  20.376  25.339  1.00  0.00    -0.200 F 
ENDBRANCH  55  79
BRANCH  67  90
ATOM     90  C   UNL A   1      48.027  27.162  30.913  1.00  0.00     0.064 A 
ATOM     91  C   UNL A   1      48.373  26.385  32.028  1.00  0.00     0.173 A 
ATOM     92  C   UNL A   1      49.051  27.549  30.035  1.00  0.00     0.173 A 
ATOM     93  F   UNL A   1      47.432  26.003  32.905  1.00  0.00    -0.203 F 
ATOM     94  C   UNL A   1      49.698  26.031  32.268  1.00  0.00     0.198 A 
ATOM     95  C   UNL A   1      50.369  27.166  30.261  1.00  0.00     0.198 A 
ATOM     96  F   UNL A   1      48.770  28.287  28.951  1.00  0.00    -0.203 F 
ATOM     97  F   UNL A   1      50.013  25.330  33.365  1.00  0.00    -0.200 F 
ATOM     98  C   UNL A   1      50.692  26.414  31.381  1.00  0.00     0.200 A 
ATOM     99  F   UNL A   1      51.327  27.523  29.394  1.00  0.00    -0.200 F 
ATOM    100  F   UNL A   1      51.966  26.064  31.608  1.00  0.00    -0.200 F 
ENDBRANCH  67  90
ENDBRANCH  41  42
ENDBRANCH  33  36
ENDBRANCH  31  32
ENDBRANCH  30  31
ENDBRANCH   1  30
TORSDOF 13
ENDMDL
MODEL 2
REMARK VINA RESULT:     -13.2      2.749      7.509
REMARK SMILES CN1C(=O)/C(=C\c2ccc(-c3ccccc3C(=O)NCCCNC(=O)c3ccc(-c4c5nc(c(-c6c(F)c(F)c(F)c(F)c6F)c6ccc([nH]6)c(-c6c(F)c(F)c(F)c(F)c6F)c6nc(c(-c7c(F)c(F)c(F)c(F)c7F)c7ccc4[nH]7)C=C6)C=C5)cc3)o2)C(=O)[NH+]=C1S
REMARK SMILES IDX 20 1 19 2 17 3 18 4 16 6 11 7 12 8 13 9 15 10 14 11 10 12
REMARK SMILES IDX 7 13 8 14 89 15 9 16 6 17 1 18 2 19 3 20 93 21 4 22 5 23
REMARK SMILES IDX 92 24 90 25 91 27 94 28 21 30 22 31 23 32 24 33 25 35 26 36
REMARK SMILES IDX 27 37 88 38 28 39 87 40 29 41 30 42 31 43 81 44 32 45 86 46
REMARK SMILES IDX 80 47 82 48 33 49 85 50 79 51 78 52 34 54 66 55 46 56 65 57
REMARK SMILES IDX 47 58 50 59 64 60 83 61 48 62 49 63 63 65 84 66 51 67 35 68
REMARK SMILES IDX 36 69 44 70 37 71 38 72 42 73 45 74 39 75 40 76 43 77 41 78
REMARK SMILES IDX 67 79 68 80 76 81 69 82 70 83 74 84 77 85 71 86 72 87 75 88
REMARK SMILES IDX 73 89 52 90 53 91 61 92 54 93 55 94 59 95 62 96 56 97 57 98
REMARK SMILES IDX 60 99 58 100
REMARK H PARENT 19 5 92 26 94 29 23 34 82 53 50 64
REMARK Flexibility Score: inf
ROOT
ATOM      1  C   UNL A   1      33.831  26.754  25.792  1.00  0.00     0.118 C 
ENDROOT
BRANCH   1   2
ATOM      2  N   UNL A   1      33.843  26.337  24.425  1.00  0.00    -0.352 N 
ATOM      3  C   UNL A   1      32.953  26.493  23.395  1.00  0.00     0.252 C 
ATOM      4  O   UNL A   1      33.478  26.297  22.289  1.00  0.00    -0.269 OA
ATOM      5  H   UNL A   1      34.653  25.836  24.174  1.00  0.00     0.163 HD
BRANCH   3   6
ATOM      6  C   UNL A   1      31.462  26.780  23.433  1.00  0.00     0.050 A 
ATOM      7  C   UNL A   1      30.360  26.162  24.075  1.00  0.00     0.030 A 
ATOM      8  C   UNL A   1      29.056  26.691  23.887  1.00  0.00     0.013 A 
ATOM      9  C   UNL A   1      28.815  27.827  23.121  1.00  0.00     0.001 A 
ATOM     10  C   UNL A   1      31.164  27.937  22.656  1.00  0.00     0.014 A 
ATOM     11  C   UNL A   1      29.878  28.459  22.509  1.00  0.00     0.001 A 
BRANCH   7  12
ATOM     12  C   UNL A   1      30.375  25.040  24.995  1.00  0.00     0.135 A 
ATOM     13  C   UNL A   1      30.992  22.952  25.535  1.00  0.00     0.128 A 
ATOM     14  C   UNL A   1      30.358  23.531  26.634  1.00  0.00     0.051 A 
ATOM     15  O   UNL A   1      30.977  23.904  24.530  1.00  0.00    -0.457 OA
ATOM     16  C   UNL A   1      29.914  24.828  26.273  1.00  0.00     0.051 A 
BRANCH  13  17
ATOM     17  C   UNL A   1      31.675  21.708  25.374  1.00  0.00     0.071 C 
ATOM     18  C   UNL A   1      36.154  23.444  25.750  1.00  0.00     0.301 C 
ATOM     19  N   UNL A   1      35.253  22.310  25.584  1.00  0.00    -0.189 N 
ATOM     20  C   UNL A   1      33.961  22.488  26.021  1.00  0.00     0.349 C 
ATOM     21  C   UNL A   1      35.656  21.053  25.212  1.00  0.00     0.318 C 
ATOM     22  O   UNL A   1      33.647  23.360  26.826  1.00  0.00    -0.240 OA
ATOM     23  C   UNL A   1      32.998  21.492  25.520  1.00  0.00     0.157 C 
ATOM     24  N   UNL A   1      34.884  20.046  25.030  1.00  0.00    -0.200 N 
ATOM     25  C   UNL A   1      33.524  20.158  25.131  1.00  0.00     0.347 C 
ATOM     26  H   UNL A   1      35.279  19.170  24.812  1.00  0.00     0.316 HD
ATOM     27  O   UNL A   1      32.781  19.223  24.886  1.00  0.00    -0.241 OA
BRANCH  21  28
ATOM     28  S   UNL A   1      37.366  20.761  25.000  1.00  0.00    -0.055 SA
ATOM     29  H   UNL A   1      38.015  21.947  24.863  1.00  0.00     0.116 HD
ENDBRANCH  21  28
ENDBRANCH  13  17
ENDBRANCH   7  12
ENDBRANCH   3   6
ENDBRANCH   1   2
BRANCH   1  30
ATOM     30  C   UNL A   1      32.957  27.943  26.120  1.00  0.00     0.042 C 
BRANCH  30  31
ATOM     31  C   UNL A   1      33.396  29.223  25.430  1.00  0.00     0.118 C 
BRANCH  31  32
ATOM     32  N   UNL A   1      33.001  30.452  26.124  1.00  0.00    -0.352 N 
ATOM     33  C   UNL A   1      33.562  31.187  27.139  1.00  0.00     0.251 C 
ATOM     34  H   UNL A   1      32.154  30.830  25.794  1.00  0.00     0.163 HD
ATOM     35  O   UNL A   1      32.909  32.109  27.629  1.00  0.00    -0.269 OA
BRANCH  33  36
ATOM     36  C   UNL A   1      34.896  30.871  27.695  1.00  0.00     0.039 A 
ATOM     37  C   UNL A   1      35.802  31.918  27.913  1.00  0.00     0.014 A 
ATOM     38  C   UNL A   1      35.277  29.571  28.006  1.00  0.00     0.014 A 
ATOM     39  C   UNL A   1      37.022  31.668  28.546  1.00  0.00     0.010 A 
ATOM     40  C   UNL A   1      36.412  29.345  28.770  1.00  0.00     0.010 A 
ATOM     41  C   UNL A   1      37.305  30.388  29.045  1.00  0.00    -0.014 A 
BRANCH  41  42
ATOM     42  C   UNL A   1      38.518  30.096  29.849  1.00  0.00     0.031 A 
ATOM     43  C   UNL A   1      39.555  29.140  29.323  1.00  0.00     0.074 A 
ATOM     44  C   UNL A   1      38.626  30.592  31.098  1.00  0.00     0.049 A 
ATOM     45  N   UNL A   1      40.587  28.614  29.934  1.00  0.00    -0.248 NA
ATOM     46  C   UNL A   1      39.383  28.675  27.937  1.00  0.00     0.031 C 
ATOM     47  C   UNL A   1      37.654  31.474  31.746  1.00  0.00     0.029 A 
ATOM     48  N   UNL A   1      39.588  30.402  32.058  1.00  0.00    -0.354 N 
ATOM     49  C   UNL A   1      41.156  27.735  29.022  1.00  0.00     0.074 A 
ATOM     50  C   UNL A   1      40.321  27.747  27.842  1.00  0.00     0.031 C 
ATOM     51  C   UNL A   1      38.078  31.768  32.984  1.00  0.00     0.029 A 
ATOM     52  C   UNL A   1      39.321  31.053  33.238  1.00  0.00     0.049 A 
ATOM     53  H   UNL A   1      40.392  29.852  31.914  1.00  0.00     0.167 HD
ATOM     54  C   UNL A   1      42.292  27.009  29.145  1.00  0.00     0.037 A 
ATOM     55  C   UNL A   1      39.997  31.057  34.403  1.00  0.00     0.037 A 
ATOM     56  C   UNL A   1      43.141  27.039  30.306  1.00  0.00     0.049 A 
ATOM     57  C   UNL A   1      41.260  30.249  34.513  1.00  0.00     0.074 A 
ATOM     58  C   UNL A   1      44.356  26.410  30.504  1.00  0.00     0.029 A 
ATOM     59  N   UNL A   1      42.860  27.746  31.468  1.00  0.00    -0.354 N 
ATOM     60  N   UNL A   1      41.831  29.479  33.618  1.00  0.00    -0.248 NA
ATOM     61  C   UNL A   1      41.976  30.313  35.793  1.00  0.00     0.031 C 
ATOM     62  C   UNL A   1      44.789  26.697  31.803  1.00  0.00     0.029 A 
ATOM     63  C   UNL A   1      43.869  27.548  32.395  1.00  0.00     0.049 A 
ATOM     64  H   UNL A   1      42.062  28.305  31.611  1.00  0.00     0.167 HD
ATOM     65  C   UNL A   1      42.982  28.987  34.214  1.00  0.00     0.074 A 
ATOM     66  C   UNL A   1      43.040  29.562  35.543  1.00  0.00     0.031 C 
ATOM     67  C   UNL A   1      43.907  28.134  33.711  1.00  0.00     0.037 A 
BRANCH  54  68
ATOM     68  C   UNL A   1      42.685  26.131  27.990  1.00  0.00     0.064 A 
ATOM     69  C   UNL A   1      42.160  24.838  27.834  1.00  0.00     0.173 A 
ATOM     70  C   UNL A   1      43.579  26.596  27.013  1.00  0.00     0.173 A 
ATOM     71  F   UNL A   1      41.312  24.338  28.746  1.00  0.00    -0.203 F 
ATOM     72  C   UNL A   1      42.544  24.030  26.767  1.00  0.00     0.198 A 
ATOM     73  C   UNL A   1      43.933  25.798  25.928  1.00  0.00     0.198 A 
ATOM     74  F   UNL A   1      44.108  27.824  27.108  1.00  0.00    -0.203 F 
ATOM     75  F   UNL A   1      42.076  22.779  26.675  1.00  0.00    -0.200 F 
ATOM     76  C   UNL A   1      43.424  24.514  25.810  1.00  0.00     0.200 A 
ATOM     77  F   UNL A   1      44.773  26.271  24.997  1.00  0.00    -0.200 F 
ATOM     78  F   UNL A   1      43.788  23.737  24.780  1.00  0.00    -0.200 F 
ENDBRANCH  54  68
BRANCH  55  79
ATOM     79  C   UNL A   1      39.504  31.871  35.545  1.00  0.00     0.064 A 
ATOM     80  C   UNL A   1      38.596  31.332  36.468  1.00  0.00     0.173 A 
ATOM     81  C   UNL A   1      39.926  33.194  35.742  1.00  0.00     0.173 A 
ATOM     82  F   UNL A   1      38.147  30.078  36.310  1.00  0.00    -0.203 F 
ATOM     83  C   UNL A   1      38.114  32.091  37.531  1.00  0.00     0.198 A 
ATOM     84  C   UNL A   1      39.466  33.943  36.823  1.00  0.00     0.198 A 
ATOM     85  F   UNL A   1      40.794  33.757  34.888  1.00  0.00    -0.203 F 
ATOM     86  F   UNL A   1      37.210  31.567  38.370  1.00  0.00    -0.200 F 
ATOM     87  C   UNL A   1      38.555  33.394  37.712  1.00  0.00     0.200 A 
ATOM     88  F   UNL A   1      39.901  35.197  37.002  1.00  0.00    -0.200 F 
ATOM     89  F   UNL A   1      38.091  34.123  38.736  1.00  0.00    -0.200 F 
ENDBRANCH  55  79
BRANCH  67  90
ATOM     90  C   UNL A   1      45.075  27.796  34.591  1.00  0.00     0.064 A 
ATOM     91  C   UNL A   1      46.234  28.586  34.610  1.00  0.00     0.173 A 
ATOM     92  C   UNL A   1      45.017  26.690  35.453  1.00  0.00     0.173 A 
ATOM     93  F   UNL A   1      46.344  29.645  33.793  1.00  0.00    -0.203 F 
ATOM     94  C   UNL A   1      47.304  28.266  35.441  1.00  0.00     0.198 A 
ATOM     95  C   UNL A   1      46.075  26.393  36.306  1.00  0.00     0.198 A 
ATOM     96  F   UNL A   1      43.928  25.908  35.477  1.00  0.00    -0.203 F 
ATOM     97  F   UNL A   1      48.420  29.005  35.407  1.00  0.00    -0.200 F 
ATOM     98  C   UNL A   1      47.220  27.175  36.294  1.00  0.00     0.200 A 
ATOM     99  F   UNL A   1      45.987  25.347  37.141  1.00  0.00    -0.200 F 
ATOM    100  F   UNL A   1      48.247  26.874  37.101  1.00  0.00    -0.200 F 
ENDBRANCH  67  90
ENDBRANCH  41  42
ENDBRANCH  33  36
ENDBRANCH  31  32
ENDBRANCH  30  31
ENDBRANCH   1  30
TORSDOF 13
ENDMDL
MODEL 3
REMARK VINA RESULT:     -13.0      3.160      8.738
REMARK SMILES CN1C(=O)/C(=C\c2ccc(-c3ccccc3C(=O)NCCCNC(=O)c3ccc(-c4c5nc(c(-c6c(F)c(F)c(F)c(F)c6F)c6ccc([nH]6)c(-c6c(F)c(F)c(F)c(F)c6F)c6nc(c(-c7c(F)c(F)c(F)c(F)c7F)c7ccc4[nH]7)C=C6)C=C5)cc3)o2)C(=O)[NH+]=C1S
REMARK SMILES IDX 20 1 19 2 17 3 18 4 16 6 11 7 12 8 13 9 15 10 14 11 10 12
REMARK SMILES IDX 7 13 8 14 89 15 9 16 6 17 1 18 2 19 3 20 93 21 4 22 5 23
REMARK SMILES IDX 92 24 90 25 91 27 94 28 21 30 22 31 23 32 24 33 25 35 26 36
REMARK SMILES IDX 27 37 88 38 28 39 87 40 29 41 30 42 31 43 81 44 32 45 86 46
REMARK SMILES IDX 80 47 82 48 33 49 85 50 79 51 78 52 34 54 66 55 46 56 65 57
REMARK SMILES IDX 47 58 50 59 64 60 83 61 48 62 49 63 63 65 84 66 51 67 35 68
REMARK SMILES IDX 36 69 44 70 37 71 38 72 42 73 45 74 39 75 40 76 43 77 41 78
REMARK SMILES IDX 67 79 68 80 76 81 69 82 70 83 74 84 77 85 71 86 72 87 75 88
REMARK SMILES IDX 73 89 52 90 53 91 61 92 54 93 55 94 59 95 62 96 56 97 57 98
REMARK SMILES IDX 60 99 58 100
REMARK H PARENT 19 5 92 26 94 29 23 34 82 53 50 64
REMARK Flexibility Score: inf
ROOT
ATOM      1  C   UNL A   1      34.991  24.617  25.647  1.00  0.00     0.118 C 
ENDROOT
BRANCH   1   2
ATOM      2  N   UNL A   1      33.647  24.528  26.124  1.00  0.00    -0.352 N 
ATOM      3  C   UNL A   1      32.654  23.602  25.944  1.00  0.00     0.252 C 
ATOM      4  O   UNL A   1      31.759  23.701  26.797  1.00  0.00    -0.269 OA
ATOM      5  H   UNL A   1      33.381  25.285  26.697  1.00  0.00     0.163 HD
BRANCH   3   6
ATOM      6  C   UNL A   1      32.471  22.573  24.841  1.00  0.00     0.050 A 
ATOM      7  C   UNL A   1      32.317  22.659  23.435  1.00  0.00     0.030 A 
ATOM      8  C   UNL A   1      32.153  21.470  22.677  1.00  0.00     0.013 A 
ATOM      9  C   UNL A   1      32.176  20.206  23.257  1.00  0.00     0.001 A 
ATOM     10  C   UNL A   1      32.484  21.257  25.389  1.00  0.00     0.014 A 
ATOM     11  C   UNL A   1      32.352  20.099  24.621  1.00  0.00     0.001 A 
BRANCH   7  12
ATOM     12  C   UNL A   1      32.363  23.845  22.601  1.00  0.00     0.135 A 
ATOM     13  C   UNL A   1      31.781  25.969  22.176  1.00  0.00     0.128 A 
ATOM     14  C   UNL A   1      32.709  25.559  21.220  1.00  0.00     0.051 A 
ATOM     15  O   UNL A   1      31.575  24.885  23.011  1.00  0.00    -0.457 OA
ATOM     16  C   UNL A   1      33.031  24.197  21.451  1.00  0.00     0.051 A 
BRANCH  13  17
ATOM     17  C   UNL A   1      31.185  27.240  22.443  1.00  0.00     0.071 C 
ATOM     18  C   UNL A   1      33.866  28.351  26.289  1.00  0.00     0.301 C 
ATOM     19  N   UNL A   1      32.822  28.708  25.336  1.00  0.00    -0.189 N 
ATOM     20  C   UNL A   1      32.844  28.047  24.130  1.00  0.00     0.349 C 
ATOM     21  C   UNL A   1      31.967  29.769  25.491  1.00  0.00     0.318 C 
ATOM     22  O   UNL A   1      33.846  27.482  23.701  1.00  0.00    -0.240 OA
ATOM     23  C   UNL A   1      31.600  28.148  23.348  1.00  0.00     0.157 C 
ATOM     24  N   UNL A   1      31.022  30.090  24.686  1.00  0.00    -0.200 N 
ATOM     25  C   UNL A   1      30.728  29.328  23.587  1.00  0.00     0.347 C 
ATOM     26  H   UNL A   1      30.495  30.903  24.862  1.00  0.00     0.316 HD
ATOM     27  O   UNL A   1      29.784  29.586  22.860  1.00  0.00    -0.241 OA
BRANCH  21  28
ATOM     28  S   UNL A   1      32.188  30.815  26.874  1.00  0.00    -0.055 SA
ATOM     29  H   UNL A   1      30.997  31.377  27.213  1.00  0.00     0.116 HD
ENDBRANCH  21  28
ENDBRANCH  13  17
ENDBRANCH   7  12
ENDBRANCH   3   6
ENDBRANCH   1   2
BRANCH   1  30
ATOM     30  C   UNL A   1      35.876  23.422  25.912  1.00  0.00     0.042 C 
BRANCH  30  31
ATOM     31  C   UNL A   1      37.059  23.324  24.964  1.00  0.00     0.118 C 
BRANCH  31  32
ATOM     32  N   UNL A   1      38.188  22.546  25.482  1.00  0.00    -0.352 N 
ATOM     33  C   UNL A   1      39.290  22.864  26.236  1.00  0.00     0.251 C 
ATOM     34  H   UNL A   1      38.149  21.594  25.234  1.00  0.00     0.163 HD
ATOM     35  O   UNL A   1      40.165  22.012  26.389  1.00  0.00    -0.269 OA
BRANCH  33  36
ATOM     36  C   UNL A   1      39.480  24.209  26.822  1.00  0.00     0.039 A 
ATOM     37  C   UNL A   1      39.009  24.454  28.119  1.00  0.00     0.014 A 
ATOM     38  C   UNL A   1      40.110  25.235  26.127  1.00  0.00     0.014 A 
ATOM     39  C   UNL A   1      39.279  25.674  28.744  1.00  0.00     0.010 A 
ATOM     40  C   UNL A   1      40.513  26.382  26.795  1.00  0.00     0.010 A 
ATOM     41  C   UNL A   1      40.097  26.621  28.110  1.00  0.00    -0.014 A 
BRANCH  41  42
ATOM     42  C   UNL A   1      40.535  27.872  28.781  1.00  0.00     0.031 A 
ATOM     43  C   UNL A   1      41.926  27.972  29.347  1.00  0.00     0.074 A 
ATOM     44  C   UNL A   1      39.646  28.864  28.987  1.00  0.00     0.049 A 
ATOM     45  N   UNL A   1      42.445  28.893  30.120  1.00  0.00    -0.248 NA
ATOM     46  C   UNL A   1      42.845  26.862  29.044  1.00  0.00     0.031 C 
ATOM     47  C   UNL A   1      38.251  28.857  28.547  1.00  0.00     0.029 A 
ATOM     48  N   UNL A   1      39.777  30.061  29.646  1.00  0.00    -0.354 N 
ATOM     49  C   UNL A   1      43.728  28.453  30.420  1.00  0.00     0.074 A 
ATOM     50  C   UNL A   1      43.887  27.155  29.804  1.00  0.00     0.031 C 
ATOM     51  C   UNL A   1      37.660  30.000  28.925  1.00  0.00     0.029 A 
ATOM     52  C   UNL A   1      38.617  30.797  29.680  1.00  0.00     0.049 A 
ATOM     53  H   UNL A   1      40.620  30.363  30.054  1.00  0.00     0.167 HD
ATOM     54  C   UNL A   1      44.696  29.091  31.118  1.00  0.00     0.037 A 
ATOM     55  C   UNL A   1      38.352  31.977  30.273  1.00  0.00     0.037 A 
ATOM     56  C   UNL A   1      44.543  30.403  31.687  1.00  0.00     0.049 A 
ATOM     57  C   UNL A   1      39.447  32.669  31.037  1.00  0.00     0.074 A 
ATOM     58  C   UNL A   1      45.485  31.176  32.340  1.00  0.00     0.029 A 
ATOM     59  N   UNL A   1      43.365  31.137  31.665  1.00  0.00    -0.354 N 
ATOM     60  N   UNL A   1      40.680  32.279  31.252  1.00  0.00    -0.248 NA
ATOM     61  C   UNL A   1      39.114  33.968  31.636  1.00  0.00     0.031 C 
ATOM     62  C   UNL A   1      44.865  32.359  32.756  1.00  0.00     0.029 A 
ATOM     63  C   UNL A   1      43.551  32.346  32.314  1.00  0.00     0.049 A 
ATOM     64  H   UNL A   1      42.523  30.843  31.249  1.00  0.00     0.167 HD
ATOM     65  C   UNL A   1      41.277  33.291  31.988  1.00  0.00     0.074 A 
ATOM     66  C   UNL A   1      40.276  34.323  32.166  1.00  0.00     0.031 C 
ATOM     67  C   UNL A   1      42.540  33.360  32.476  1.00  0.00     0.037 A 
BRANCH  54  68
ATOM     68  C   UNL A   1      46.009  28.381  31.293  1.00  0.00     0.064 A 
ATOM     69  C   UNL A   1      47.051  28.516  30.361  1.00  0.00     0.173 A 
ATOM     70  C   UNL A   1      46.240  27.574  32.418  1.00  0.00     0.173 A 
ATOM     71  F   UNL A   1      46.880  29.264  29.261  1.00  0.00    -0.203 F 
ATOM     72  C   UNL A   1      48.257  27.841  30.528  1.00  0.00     0.198 A 
ATOM     73  C   UNL A   1      47.460  26.928  32.599  1.00  0.00     0.198 A 
ATOM     74  F   UNL A   1      45.283  27.412  33.343  1.00  0.00    -0.203 F 
ATOM     75  F   UNL A   1      49.211  27.937  29.593  1.00  0.00    -0.200 F 
ATOM     76  C   UNL A   1      48.463  27.054  31.651  1.00  0.00     0.200 A 
ATOM     77  F   UNL A   1      47.664  26.178  33.691  1.00  0.00    -0.200 F 
ATOM     78  F   UNL A   1      49.628  26.409  31.813  1.00  0.00    -0.200 F 
ENDBRANCH  54  68
BRANCH  55  79
ATOM     79  C   UNL A   1      37.001  32.584  30.146  1.00  0.00     0.064 A 
ATOM     80  C   UNL A   1      36.053  32.441  31.170  1.00  0.00     0.173 A 
ATOM     81  C   UNL A   1      36.629  33.319  29.011  1.00  0.00     0.173 A 
ATOM     82  F   UNL A   1      36.355  31.728  32.265  1.00  0.00    -0.203 F 
ATOM     83  C   UNL A   1      34.779  32.990  31.053  1.00  0.00     0.198 A 
ATOM     84  C   UNL A   1      35.363  33.894  28.909  1.00  0.00     0.198 A 
ATOM     85  F   UNL A   1      37.498  33.487  28.004  1.00  0.00    -0.203 F 
ATOM     86  F   UNL A   1      33.876  32.795  32.024  1.00  0.00    -0.200 F 
ATOM     87  C   UNL A   1      34.437  33.723  29.926  1.00  0.00     0.200 A 
ATOM     88  F   UNL A   1      35.040  34.610  27.824  1.00  0.00    -0.200 F 
ATOM     89  F   UNL A   1      33.211  34.252  29.816  1.00  0.00    -0.200 F 
ENDBRANCH  55  79
BRANCH  67  90
ATOM     90  C   UNL A   1      42.917  34.606  33.224  1.00  0.00     0.064 A 
ATOM     91  C   UNL A   1      43.380  35.751  32.558  1.00  0.00     0.173 A 
ATOM     92  C   UNL A   1      42.775  34.667  34.618  1.00  0.00     0.173 A 
ATOM     93  F   UNL A   1      43.547  35.738  31.227  1.00  0.00    -0.203 F 
ATOM     94  C   UNL A   1      43.712  36.903  33.265  1.00  0.00     0.198 A 
ATOM     95  C   UNL A   1      43.078  35.830  35.318  1.00  0.00     0.198 A 
ATOM     96  F   UNL A   1      42.330  33.601  35.300  1.00  0.00    -0.203 F 
ATOM     97  F   UNL A   1      44.199  37.968  32.615  1.00  0.00    -0.200 F 
ATOM     98  C   UNL A   1      43.553  36.944  34.643  1.00  0.00     0.200 A 
ATOM     99  F   UNL A   1      42.909  35.875  36.647  1.00  0.00    -0.200 F 
ATOM    100  F   UNL A   1      43.865  38.057  35.321  1.00  0.00    -0.200 F 
ENDBRANCH  67  90
ENDBRANCH  41  42
ENDBRANCH  33  36
ENDBRANCH  31  32
ENDBRANCH  30  31
ENDBRANCH   1  30
TORSDOF 13
ENDMDL
