MODEL 1
REMARK VINA RESULT:     -13.5      0.000      0.000
REMARK SMILES O=C(NCCCNC(=O)c1cc(N2C(=O)C[C@H](Nc3ccccc3O)C2=O)ccc1O)c1ccc(-c2c3nc(c(-c4c(F)c(F)c(F)c(F)c4F)c4ccc([nH]4)c(-c4c(F)c(F)c(F)c(F)c4F)c4nc(c(-c5c(F)c(F)c(F)c(F)c5F)c5ccc2[nH]5)C=C4)C=C3)cc1
REMARK SMILES IDX 6 1 5 2 4 3 3 4 1 5 2 6 32 8 33 9 94 10 34 11 93 12 35 13
REMARK SMILES IDX 36 14 37 15 87 16 38 17 92 18 86 19 88 20 39 21 91 22 85 23
REMARK SMILES IDX 84 24 40 26 72 27 52 28 71 29 53 30 56 31 70 32 89 33 54 34
REMARK SMILES IDX 55 35 69 37 90 38 57 39 41 40 42 41 50 42 43 43 44 44 48 45
REMARK SMILES IDX 51 46 45 47 46 48 49 49 47 50 73 51 74 52 82 53 75 54 76 55
REMARK SMILES IDX 80 56 83 57 77 58 78 59 81 60 79 61 58 62 59 63 67 64 60 65
REMARK SMILES IDX 61 66 65 67 68 68 62 69 63 70 66 71 64 72 7 73 8 74 9 76
REMARK SMILES IDX 10 77 11 78 30 79 12 80 29 81 28 82 31 83 13 85 14 86 26 87
REMARK SMILES IDX 15 88 16 89 17 90 27 91 18 92 19 94 20 95 24 96 21 97 23 98
REMARK SMILES IDX 22 99 25 100
REMARK H PARENT 3 7 88 25 56 36 7 75 31 84 18 93 25 101
REMARK Flexibility Score: inf
ROOT
ATOM      1  C   UNL A   1      31.502  30.705  26.390  1.00  0.00     0.118 C 
ENDROOT
BRANCH   1   2
ATOM      2  C   UNL A   1      31.403  32.211  26.577  1.00  0.00     0.042 C 
BRANCH   2   3
ATOM      3  C   UNL A   1      32.670  32.850  27.126  1.00  0.00     0.118 C 
BRANCH   3   4
ATOM      4  N   UNL A   1      32.458  34.203  27.626  1.00  0.00    -0.352 N 
ATOM      5  O   UNL A   1      32.617  35.959  29.030  1.00  0.00    -0.269 OA
ATOM      6  C   UNL A   1      33.061  34.876  28.661  1.00  0.00     0.251 C 
ATOM      7  H   UNL A   1      31.771  34.718  27.145  1.00  0.00     0.163 HD
BRANCH   6   8
ATOM      8  C   UNL A   1      34.227  34.287  29.356  1.00  0.00     0.039 A 
ATOM      9  C   UNL A   1      35.528  34.578  28.948  1.00  0.00     0.014 A 
ATOM     10  C   UNL A   1      34.013  33.438  30.446  1.00  0.00     0.014 A 
ATOM     11  C   UNL A   1      36.597  33.880  29.494  1.00  0.00     0.010 A 
ATOM     12  C   UNL A   1      35.101  32.823  31.074  1.00  0.00     0.010 A 
ATOM     13  C   UNL A   1      36.399  33.005  30.574  1.00  0.00    -0.014 A 
BRANCH  13  14
ATOM     14  C   UNL A   1      37.574  32.336  31.189  1.00  0.00     0.031 A 
ATOM     15  C   UNL A   1      38.025  32.676  32.581  1.00  0.00     0.074 A 
ATOM     16  C   UNL A   1      38.215  31.383  30.484  1.00  0.00     0.049 A 
ATOM     17  N   UNL A   1      39.016  32.171  33.275  1.00  0.00    -0.248 NA
ATOM     18  C   UNL A   1      37.279  33.729  33.286  1.00  0.00     0.031 C 
ATOM     19  C   UNL A   1      37.871  30.973  29.122  1.00  0.00     0.029 A 
ATOM     20  N   UNL A   1      39.268  30.573  30.820  1.00  0.00    -0.354 N 
ATOM     21  C   UNL A   1      39.026  32.857  34.481  1.00  0.00     0.074 A 
ATOM     22  C   UNL A   1      37.961  33.835  34.418  1.00  0.00     0.031 C 
ATOM     23  C   UNL A   1      38.657  29.950  28.760  1.00  0.00     0.029 A 
ATOM     24  C   UNL A   1      39.605  29.679  29.835  1.00  0.00     0.049 A 
ATOM     25  H   UNL A   1      39.737  30.626  31.684  1.00  0.00     0.167 HD
ATOM     26  C   UNL A   1      39.845  32.680  35.547  1.00  0.00     0.037 A 
ATOM     27  C   UNL A   1      40.578  28.751  29.791  1.00  0.00     0.037 A 
ATOM     28  C   UNL A   1      40.892  31.691  35.610  1.00  0.00     0.049 A 
ATOM     29  C   UNL A   1      41.487  28.593  30.975  1.00  0.00     0.074 A 
ATOM     30  C   UNL A   1      41.748  31.404  36.659  1.00  0.00     0.029 A 
ATOM     31  N   UNL A   1      41.230  30.829  34.574  1.00  0.00    -0.354 N 
ATOM     32  N   UNL A   1      41.466  29.226  32.123  1.00  0.00    -0.248 NA
ATOM     33  C   UNL A   1      42.558  27.597  30.854  1.00  0.00     0.031 C 
ATOM     34  C   UNL A   1      42.636  30.406  36.241  1.00  0.00     0.029 A 
ATOM     35  C   UNL A   1      42.298  30.030  34.951  1.00  0.00     0.049 A 
ATOM     36  H   UNL A   1      40.776  30.792  33.701  1.00  0.00     0.167 HD
ATOM     37  C   UNL A   1      42.504  28.692  32.870  1.00  0.00     0.074 A 
ATOM     38  C   UNL A   1      43.126  27.671  32.049  1.00  0.00     0.031 C 
ATOM     39  C   UNL A   1      42.907  29.019  34.123  1.00  0.00     0.037 A 
BRANCH  26  40
ATOM     40  C   UNL A   1      39.661  33.597  36.724  1.00  0.00     0.064 A 
ATOM     41  C   UNL A   1      40.306  34.841  36.804  1.00  0.00     0.173 A 
ATOM     42  C   UNL A   1      38.807  33.235  37.778  1.00  0.00     0.173 A 
ATOM     43  F   UNL A   1      41.141  35.232  35.830  1.00  0.00    -0.203 F 
ATOM     44  C   UNL A   1      40.131  35.670  37.909  1.00  0.00     0.198 A 
ATOM     45  C   UNL A   1      38.610  34.082  38.866  1.00  0.00     0.198 A 
ATOM     46  F   UNL A   1      38.157  32.062  37.750  1.00  0.00    -0.203 F 
ATOM     47  F   UNL A   1      40.800  36.828  37.988  1.00  0.00    -0.200 F 
ATOM     48  C   UNL A   1      39.279  35.293  38.936  1.00  0.00     0.200 A 
ATOM     49  F   UNL A   1      37.775  33.720  39.852  1.00  0.00    -0.200 F 
ATOM     50  F   UNL A   1      39.111  36.094  39.997  1.00  0.00    -0.200 F 
ENDBRANCH  26  40
BRANCH  27  51
ATOM     51  C   UNL A   1      40.723  27.899  28.585  1.00  0.00     0.064 A 
ATOM     52  C   UNL A   1      40.043  26.679  28.481  1.00  0.00     0.173 A 
ATOM     53  C   UNL A   1      41.513  28.304  27.497  1.00  0.00     0.173 A 
ATOM     54  F   UNL A   1      39.291  26.242  29.501  1.00  0.00    -0.203 F 
ATOM     55  C   UNL A   1      40.153  25.891  27.336  1.00  0.00     0.198 A 
ATOM     56  C   UNL A   1      41.598  27.529  26.344  1.00  0.00     0.198 A 
ATOM     57  F   UNL A   1      42.177  29.468  27.547  1.00  0.00    -0.203 F 
ATOM     58  F   UNL A   1      39.517  24.713  27.274  1.00  0.00    -0.200 F 
ATOM     59  C   UNL A   1      40.922  26.321  26.266  1.00  0.00     0.200 A 
ATOM     60  F   UNL A   1      42.327  27.959  25.304  1.00  0.00    -0.200 F 
ATOM     61  F   UNL A   1      41.014  25.571  25.160  1.00  0.00    -0.200 F 
ENDBRANCH  27  51
BRANCH  39  62
ATOM     62  C   UNL A   1      44.054  28.238  34.695  1.00  0.00     0.064 A 
ATOM     63  C   UNL A   1      45.378  28.687  34.585  1.00  0.00     0.173 A 
ATOM     64  C   UNL A   1      43.822  27.036  35.380  1.00  0.00     0.173 A 
ATOM     65  F   UNL A   1      45.654  29.822  33.924  1.00  0.00    -0.203 F 
ATOM     66  C   UNL A   1      46.431  27.947  35.117  1.00  0.00     0.198 A 
ATOM     67  C   UNL A   1      44.873  26.315  35.936  1.00  0.00     0.198 A 
ATOM     68  F   UNL A   1      42.574  26.565  35.515  1.00  0.00    -0.203 F 
ATOM     69  F   UNL A   1      47.693  28.369  34.956  1.00  0.00    -0.200 F 
ATOM     70  C   UNL A   1      46.177  26.766  35.798  1.00  0.00     0.200 A 
ATOM     71  F   UNL A   1      44.625  25.179  36.603  1.00  0.00    -0.200 F 
ATOM     72  F   UNL A   1      47.191  26.056  36.312  1.00  0.00    -0.200 F 
ENDBRANCH  39  62
ENDBRANCH  13  14
ENDBRANCH   6   8
ENDBRANCH   3   4
ENDBRANCH   2   3
ENDBRANCH   1   2
BRANCH   1  73
ATOM     73  N   UNL A   1      32.572  30.344  25.481  1.00  0.00    -0.352 N 
ATOM     74  C   UNL A   1      32.638  29.313  24.584  1.00  0.00     0.255 C 
ATOM     75  H   UNL A   1      33.366  30.925  25.513  1.00  0.00     0.163 HD
ATOM     76  O   UNL A   1      33.699  29.087  24.006  1.00  0.00    -0.269 OA
BRANCH  74  77
ATOM     77  C   UNL A   1      31.475  28.442  24.318  1.00  0.00     0.083 A 
ATOM     78  C   UNL A   1      31.579  27.107  24.737  1.00  0.00     0.044 A 
ATOM     79  C   UNL A   1      30.379  28.846  23.550  1.00  0.00     0.128 A 
ATOM     80  C   UNL A   1      30.620  26.162  24.352  1.00  0.00     0.053 A 
ATOM     81  C   UNL A   1      29.386  27.927  23.216  1.00  0.00     0.049 A 
ATOM     82  C   UNL A   1      29.524  26.587  23.591  1.00  0.00     0.031 A 
BRANCH  79  83
ATOM     83  O   UNL A   1      30.278  30.129  23.089  1.00  0.00    -0.507 OA
ATOM     84  H   UNL A   1      31.007  30.531  22.658  1.00  0.00     0.293 HD
ENDBRANCH  79  83
BRANCH  80  85
ATOM     85  N   UNL A   1      30.805  24.795  24.666  1.00  0.00    -0.249 N 
ATOM     86  C   UNL A   1      30.489  24.238  25.880  1.00  0.00     0.236 C 
ATOM     87  C   UNL A   1      31.326  23.876  23.787  1.00  0.00     0.256 C 
ATOM     88  O   UNL A   1      30.059  24.799  26.876  1.00  0.00    -0.274 OA
ATOM     89  C   UNL A   1      30.653  22.750  25.799  1.00  0.00     0.136 C 
ATOM     90  C   UNL A   1      31.295  22.499  24.445  1.00  0.00     0.179 C 
ATOM     91  O   UNL A   1      31.836  24.125  22.700  1.00  0.00    -0.272 OA
BRANCH  90  92
ATOM     92  N   UNL A   1      32.645  21.948  24.643  1.00  0.00    -0.370 N 
ATOM     93  H   UNL A   1      33.411  22.526  24.863  1.00  0.00     0.161 HD
BRANCH  92  94
ATOM     94  C   UNL A   1      32.788  20.558  24.504  1.00  0.00     0.077 A 
ATOM     95  C   UNL A   1      32.505  19.964  23.271  1.00  0.00     0.029 A 
ATOM     96  C   UNL A   1      33.052  19.717  25.598  1.00  0.00     0.138 A 
ATOM     97  C   UNL A   1      32.528  18.573  23.125  1.00  0.00     0.002 A 
ATOM     98  C   UNL A   1      33.072  18.329  25.464  1.00  0.00     0.048 A 
ATOM     99  C   UNL A   1      32.810  17.757  24.221  1.00  0.00     0.004 A 
BRANCH  96 100
ATOM    100  O   UNL A   1      33.278  20.282  26.822  1.00  0.00    -0.506 OA
ATOM    101  H   UNL A   1      32.802  19.984  27.571  1.00  0.00     0.293 HD
ENDBRANCH  96 100
ENDBRANCH  92  94
ENDBRANCH  90  92
ENDBRANCH  80  85
ENDBRANCH  74  77
ENDBRANCH   1  73
TORSDOF 15
ENDMDL
MODEL 2
REMARK VINA RESULT:     -13.5      0.132      1.103
REMARK SMILES O=C(NCCCNC(=O)c1cc(N2C(=O)C[C@H](Nc3ccccc3O)C2=O)ccc1O)c1ccc(-c2c3nc(c(-c4c(F)c(F)c(F)c(F)c4F)c4ccc([nH]4)c(-c4c(F)c(F)c(F)c(F)c4F)c4nc(c(-c5c(F)c(F)c(F)c(F)c5F)c5ccc2[nH]5)C=C4)C=C3)cc1
REMARK SMILES IDX 6 1 5 2 4 3 3 4 1 5 2 6 32 8 33 9 94 10 34 11 93 12 35 13
REMARK SMILES IDX 36 14 37 15 87 16 38 17 92 18 86 19 88 20 39 21 91 22 85 23
REMARK SMILES IDX 84 24 40 26 72 27 52 28 71 29 53 30 56 31 70 32 89 33 54 34
REMARK SMILES IDX 55 35 69 37 90 38 57 39 41 40 42 41 50 42 43 43 44 44 48 45
REMARK SMILES IDX 51 46 45 47 46 48 49 49 47 50 73 51 74 52 82 53 75 54 76 55
REMARK SMILES IDX 80 56 83 57 77 58 78 59 81 60 79 61 58 62 59 63 67 64 60 65
REMARK SMILES IDX 61 66 65 67 68 68 62 69 63 70 66 71 64 72 7 73 8 74 9 76
REMARK SMILES IDX 10 77 11 78 30 79 12 80 29 81 28 82 31 83 13 85 14 86 26 87
REMARK SMILES IDX 15 88 16 89 17 90 27 91 18 92 19 94 20 95 24 96 21 97 23 98
REMARK SMILES IDX 22 99 25 100
REMARK H PARENT 3 7 88 25 56 36 7 75 31 84 18 93 25 101
REMARK Flexibility Score: inf
ROOT
ATOM      1  C   UNL A   1      31.490  30.689  26.397  1.00  0.00     0.118 C 
ENDROOT
BRANCH   1   2
ATOM      2  C   UNL A   1      31.388  32.198  26.557  1.00  0.00     0.042 C 
BRANCH   2   3
ATOM      3  C   UNL A   1      32.662  32.853  27.072  1.00  0.00     0.118 C 
BRANCH   3   4
ATOM      4  N   UNL A   1      32.449  34.207  27.567  1.00  0.00    -0.352 N 
ATOM      5  O   UNL A   1      32.611  35.969  28.964  1.00  0.00    -0.269 OA
ATOM      6  C   UNL A   1      33.056  34.885  28.597  1.00  0.00     0.251 C 
ATOM      7  H   UNL A   1      31.758  34.718  27.088  1.00  0.00     0.163 HD
BRANCH   6   8
ATOM      8  C   UNL A   1      34.227  34.302  29.288  1.00  0.00     0.039 A 
ATOM      9  C   UNL A   1      35.526  34.645  28.914  1.00  0.00     0.014 A 
ATOM     10  C   UNL A   1      34.019  33.403  30.339  1.00  0.00     0.014 A 
ATOM     11  C   UNL A   1      36.605  33.956  29.451  1.00  0.00     0.010 A 
ATOM     12  C   UNL A   1      35.115  32.794  30.961  1.00  0.00     0.010 A 
ATOM     13  C   UNL A   1      36.415  33.033  30.491  1.00  0.00    -0.014 A 
BRANCH  13  14
ATOM     14  C   UNL A   1      37.598  32.373  31.099  1.00  0.00     0.031 A 
ATOM     15  C   UNL A   1      38.055  32.716  32.488  1.00  0.00     0.074 A 
ATOM     16  C   UNL A   1      38.243  31.426  30.390  1.00  0.00     0.049 A 
ATOM     17  N   UNL A   1      39.054  32.219  33.177  1.00  0.00    -0.248 NA
ATOM     18  C   UNL A   1      37.304  33.763  33.198  1.00  0.00     0.031 C 
ATOM     19  C   UNL A   1      37.895  31.013  29.030  1.00  0.00     0.029 A 
ATOM     20  N   UNL A   1      39.305  30.624  30.719  1.00  0.00    -0.354 N 
ATOM     21  C   UNL A   1      39.065  32.904  34.384  1.00  0.00     0.074 A 
ATOM     22  C   UNL A   1      37.992  33.874  34.326  1.00  0.00     0.031 C 
ATOM     23  C   UNL A   1      38.687  29.997  28.662  1.00  0.00     0.029 A 
ATOM     24  C   UNL A   1      39.643  29.733  29.732  1.00  0.00     0.049 A 
ATOM     25  H   UNL A   1      39.778  30.681  31.581  1.00  0.00     0.167 HD
ATOM     26  C   UNL A   1      39.891  32.733  35.445  1.00  0.00     0.037 A 
ATOM     27  C   UNL A   1      40.623  28.812  29.683  1.00  0.00     0.037 A 
ATOM     28  C   UNL A   1      40.946  31.753  35.501  1.00  0.00     0.049 A 
ATOM     29  C   UNL A   1      41.540  28.662  30.861  1.00  0.00     0.074 A 
ATOM     30  C   UNL A   1      41.811  31.472  36.545  1.00  0.00     0.029 A 
ATOM     31  N   UNL A   1      41.285  30.894  34.463  1.00  0.00    -0.354 N 
ATOM     32  N   UNL A   1      41.520  29.294  32.009  1.00  0.00    -0.248 NA
ATOM     33  C   UNL A   1      42.618  27.674  30.734  1.00  0.00     0.031 C 
ATOM     34  C   UNL A   1      42.705  30.481  36.122  1.00  0.00     0.029 A 
ATOM     35  C   UNL A   1      42.362  30.103  34.834  1.00  0.00     0.049 A 
ATOM     36  H   UNL A   1      40.827  30.853  33.593  1.00  0.00     0.167 HD
ATOM     37  C   UNL A   1      42.567  28.768  32.750  1.00  0.00     0.074 A 
ATOM     38  C   UNL A   1      43.193  27.753  31.926  1.00  0.00     0.031 C 
ATOM     39  C   UNL A   1      42.974  29.097  34.001  1.00  0.00     0.037 A 
BRANCH  26  40
ATOM     40  C   UNL A   1      39.707  33.648  36.623  1.00  0.00     0.064 A 
ATOM     41  C   UNL A   1      40.383  34.873  36.724  1.00  0.00     0.173 A 
ATOM     42  C   UNL A   1      38.820  33.303  37.656  1.00  0.00     0.173 A 
ATOM     43  F   UNL A   1      41.249  35.247  35.771  1.00  0.00    -0.203 F 
ATOM     44  C   UNL A   1      40.206  35.701  37.831  1.00  0.00     0.198 A 
ATOM     45  C   UNL A   1      38.623  34.149  38.745  1.00  0.00     0.198 A 
ATOM     46  F   UNL A   1      38.140  32.148  37.607  1.00  0.00    -0.203 F 
ATOM     47  F   UNL A   1      40.905  36.840  37.931  1.00  0.00    -0.200 F 
ATOM     48  C   UNL A   1      39.322  35.342  38.837  1.00  0.00     0.200 A 
ATOM     49  F   UNL A   1      37.757  33.805  39.710  1.00  0.00    -0.200 F 
ATOM     50  F   UNL A   1      39.153  36.140  39.900  1.00  0.00    -0.200 F 
ENDBRANCH  26  40
BRANCH  27  51
ATOM     51  C   UNL A   1      40.769  27.963  28.475  1.00  0.00     0.064 A 
ATOM     52  C   UNL A   1      41.566  28.374  27.399  1.00  0.00     0.173 A 
ATOM     53  C   UNL A   1      40.146  26.708  28.386  1.00  0.00     0.173 A 
ATOM     54  F   UNL A   1      42.167  29.572  27.431  1.00  0.00    -0.203 F 
ATOM     55  C   UNL A   1      41.731  27.565  26.277  1.00  0.00     0.198 A 
ATOM     56  C   UNL A   1      40.335  25.889  27.277  1.00  0.00     0.198 A 
ATOM     57  F   UNL A   1      39.379  26.267  29.394  1.00  0.00    -0.203 F 
ATOM     58  F   UNL A   1      42.474  27.995  25.248  1.00  0.00    -0.200 F 
ATOM     59  C   UNL A   1      41.123  26.320  26.221  1.00  0.00     0.200 A 
ATOM     60  F   UNL A   1      39.761  24.678  27.236  1.00  0.00    -0.200 F 
ATOM     61  F   UNL A   1      41.294  25.536  25.148  1.00  0.00    -0.200 F 
ENDBRANCH  27  51
BRANCH  39  62
ATOM     62  C   UNL A   1      44.131  28.326  34.566  1.00  0.00     0.064 A 
ATOM     63  C   UNL A   1      45.448  28.800  34.476  1.00  0.00     0.173 A 
ATOM     64  C   UNL A   1      43.915  27.106  35.225  1.00  0.00     0.173 A 
ATOM     65  F   UNL A   1      45.709  29.952  33.840  1.00  0.00    -0.203 F 
ATOM     66  C   UNL A   1      46.510  28.068  35.001  1.00  0.00     0.198 A 
ATOM     67  C   UNL A   1      44.975  26.392  35.775  1.00  0.00     0.198 A 
ATOM     68  F   UNL A   1      42.674  26.611  35.341  1.00  0.00    -0.203 F 
ATOM     69  F   UNL A   1      47.765  28.515  34.858  1.00  0.00    -0.200 F 
ATOM     70  C   UNL A   1      46.272  26.869  35.656  1.00  0.00     0.200 A 
ATOM     71  F   UNL A   1      44.742  25.238  36.417  1.00  0.00    -0.200 F 
ATOM     72  F   UNL A   1      47.294  26.167  36.164  1.00  0.00    -0.200 F 
ENDBRANCH  39  62
ENDBRANCH  13  14
ENDBRANCH   6   8
ENDBRANCH   3   4
ENDBRANCH   2   3
ENDBRANCH   1   2
BRANCH   1  73
ATOM     73  N   UNL A   1      32.558  30.314  25.492  1.00  0.00    -0.352 N 
ATOM     74  C   UNL A   1      32.619  29.274  24.605  1.00  0.00     0.255 C 
ATOM     75  H   UNL A   1      33.356  30.891  25.519  1.00  0.00     0.163 HD
ATOM     76  O   UNL A   1      33.679  29.038  24.029  1.00  0.00    -0.269 OA
BRANCH  74  77
ATOM     77  C   UNL A   1      31.451  28.407  24.346  1.00  0.00     0.083 A 
ATOM     78  C   UNL A   1      31.559  27.069  24.753  1.00  0.00     0.044 A 
ATOM     79  C   UNL A   1      30.346  28.820  23.595  1.00  0.00     0.128 A 
ATOM     80  C   UNL A   1      30.593  26.129  24.372  1.00  0.00     0.053 A 
ATOM     81  C   UNL A   1      29.347  27.905  23.267  1.00  0.00     0.049 A 
ATOM     82  C   UNL A   1      29.488  26.561  23.629  1.00  0.00     0.031 A 
BRANCH  79  83
ATOM     83  O   UNL A   1      30.241  30.106  23.147  1.00  0.00    -0.507 OA
ATOM     84  H   UNL A   1      30.965  30.511  22.710  1.00  0.00     0.293 HD
ENDBRANCH  79  83
BRANCH  80  85
ATOM     85  N   UNL A   1      30.780  24.759  24.672  1.00  0.00    -0.249 N 
ATOM     86  C   UNL A   1      30.502  24.197  25.893  1.00  0.00     0.236 C 
ATOM     87  C   UNL A   1      31.264  23.841  23.770  1.00  0.00     0.256 C 
ATOM     88  O   UNL A   1      30.110  24.756  26.906  1.00  0.00    -0.274 OA
ATOM     89  C   UNL A   1      30.653  22.709  25.798  1.00  0.00     0.136 C 
ATOM     90  C   UNL A   1      31.246  22.461  24.421  1.00  0.00     0.179 C 
ATOM     91  O   UNL A   1      31.738  24.093  22.667  1.00  0.00    -0.272 OA
BRANCH  90  92
ATOM     92  N   UNL A   1      32.599  21.900  24.570  1.00  0.00    -0.370 N 
ATOM     93  H   UNL A   1      33.377  22.473  24.760  1.00  0.00     0.161 HD
BRANCH  92  94
ATOM     94  C   UNL A   1      32.727  20.509  24.428  1.00  0.00     0.077 A 
ATOM     95  C   UNL A   1      32.396  19.916  23.207  1.00  0.00     0.029 A 
ATOM     96  C   UNL A   1      33.022  19.667  25.513  1.00  0.00     0.138 A 
ATOM     97  C   UNL A   1      32.404  18.524  23.062  1.00  0.00     0.002 A 
ATOM     98  C   UNL A   1      33.026  18.279  25.381  1.00  0.00     0.048 A 
ATOM     99  C   UNL A   1      32.718  17.707  24.148  1.00  0.00     0.004 A 
BRANCH  96 100
ATOM    100  O   UNL A   1      33.294  20.232  26.728  1.00  0.00    -0.506 OA
ATOM    101  H   UNL A   1      32.623  20.290  27.379  1.00  0.00     0.293 HD
ENDBRANCH  96 100
ENDBRANCH  92  94
ENDBRANCH  90  92
ENDBRANCH  80  85
ENDBRANCH  74  77
ENDBRANCH   1  73
TORSDOF 15
ENDMDL
MODEL 3
REMARK VINA RESULT:     -13.4      0.388      7.126
REMARK SMILES O=C(NCCCNC(=O)c1cc(N2C(=O)C[C@H](Nc3ccccc3O)C2=O)ccc1O)c1ccc(-c2c3nc(c(-c4c(F)c(F)c(F)c(F)c4F)c4ccc([nH]4)c(-c4c(F)c(F)c(F)c(F)c4F)c4nc(c(-c5c(F)c(F)c(F)c(F)c5F)c5ccc2[nH]5)C=C4)C=C3)cc1
REMARK SMILES IDX 6 1 5 2 4 3 3 4 1 5 2 6 32 8 33 9 94 10 34 11 93 12 35 13
REMARK SMILES IDX 36 14 37 15 87 16 38 17 92 18 86 19 88 20 39 21 91 22 85 23
REMARK SMILES IDX 84 24 40 26 72 27 52 28 71 29 53 30 56 31 70 32 89 33 54 34
REMARK SMILES IDX 55 35 69 37 90 38 57 39 41 40 42 41 50 42 43 43 44 44 48 45
REMARK SMILES IDX 51 46 45 47 46 48 49 49 47 50 73 51 74 52 82 53 75 54 76 55
REMARK SMILES IDX 80 56 83 57 77 58 78 59 81 60 79 61 58 62 59 63 67 64 60 65
REMARK SMILES IDX 61 66 65 67 68 68 62 69 63 70 66 71 64 72 7 73 8 74 9 76
REMARK SMILES IDX 10 77 11 78 30 79 12 80 29 81 28 82 31 83 13 85 14 86 26 87
REMARK SMILES IDX 15 88 16 89 17 90 27 91 18 92 19 94 20 95 24 96 21 97 23 98
REMARK SMILES IDX 22 99 25 100
REMARK H PARENT 3 7 88 25 56 36 7 75 31 84 18 93 25 101
REMARK Flexibility Score: inf
ROOT
ATOM      1  C   UNL A   1      31.507  30.730  26.495  1.00  0.00     0.118 C 
ENDROOT
BRANCH   1   2
ATOM      2  C   UNL A   1      31.385  32.240  26.620  1.00  0.00     0.042 C 
BRANCH   2   3
ATOM      3  C   UNL A   1      32.659  32.928  27.088  1.00  0.00     0.118 C 
BRANCH   3   4
ATOM      4  N   UNL A   1      32.431  34.277  27.589  1.00  0.00    -0.352 N 
ATOM      5  O   UNL A   1      32.547  36.026  29.007  1.00  0.00    -0.269 OA
ATOM      6  C   UNL A   1      33.003  34.945  28.645  1.00  0.00     0.251 C 
ATOM      7  H   UNL A   1      31.757  34.794  27.091  1.00  0.00     0.163 HD
BRANCH   6   8
ATOM      8  C   UNL A   1      34.149  34.354  29.370  1.00  0.00     0.039 A 
ATOM      9  C   UNL A   1      35.459  34.568  28.940  1.00  0.00     0.014 A 
ATOM     10  C   UNL A   1      33.908  33.581  30.510  1.00  0.00     0.014 A 
ATOM     11  C   UNL A   1      36.502  33.862  29.524  1.00  0.00     0.010 A 
ATOM     12  C   UNL A   1      34.975  32.963  31.170  1.00  0.00     0.010 A 
ATOM     13  C   UNL A   1      36.277  33.063  30.655  1.00  0.00    -0.014 A 
BRANCH  13  14
ATOM     14  C   UNL A   1      37.428  32.386  31.305  1.00  0.00     0.031 A 
ATOM     15  C   UNL A   1      38.200  31.309  30.599  1.00  0.00     0.074 A 
ATOM     16  C   UNL A   1      37.795  32.782  32.540  1.00  0.00     0.049 A 
ATOM     17  N   UNL A   1      39.243  30.632  31.013  1.00  0.00    -0.248 NA
ATOM     18  C   UNL A   1      37.737  30.928  29.256  1.00  0.00     0.031 C 
ATOM     19  C   UNL A   1      37.118  33.814  33.327  1.00  0.00     0.029 A 
ATOM     20  N   UNL A   1      38.837  32.387  33.338  1.00  0.00    -0.354 N 
ATOM     21  C   UNL A   1      39.545  29.735  29.998  1.00  0.00     0.074 A 
ATOM     22  C   UNL A   1      38.558  29.931  28.957  1.00  0.00     0.031 C 
ATOM     23  C   UNL A   1      37.794  34.012  34.467  1.00  0.00     0.029 A 
ATOM     24  C   UNL A   1      38.909  33.074  34.523  1.00  0.00     0.049 A 
ATOM     25  H   UNL A   1      39.472  31.678  33.085  1.00  0.00     0.167 HD
ATOM     26  C   UNL A   1      40.558  28.836  29.939  1.00  0.00     0.037 A 
ATOM     27  C   UNL A   1      39.769  32.956  35.551  1.00  0.00     0.037 A 
ATOM     28  C   UNL A   1      41.547  28.659  30.972  1.00  0.00     0.049 A 
ATOM     29  C   UNL A   1      40.865  31.935  35.470  1.00  0.00     0.074 A 
ATOM     30  C   UNL A   1      42.637  27.806  30.989  1.00  0.00     0.029 A 
ATOM     31  N   UNL A   1      41.563  29.348  32.178  1.00  0.00    -0.354 N 
ATOM     32  N   UNL A   1      41.159  31.115  34.491  1.00  0.00    -0.248 NA
ATOM     33  C   UNL A   1      41.744  31.820  36.640  1.00  0.00     0.031 C 
ATOM     34  C   UNL A   1      43.281  27.939  32.224  1.00  0.00     0.029 A 
ATOM     35  C   UNL A   1      42.627  28.918  32.956  1.00  0.00     0.049 A 
ATOM     36  H   UNL A   1      40.914  30.040  32.441  1.00  0.00     0.167 HD
ATOM     37  C   UNL A   1      42.269  30.400  34.915  1.00  0.00     0.074 A 
ATOM     38  C   UNL A   1      42.605  30.896  36.235  1.00  0.00     0.031 C 
ATOM     39  C   UNL A   1      42.949  29.421  34.269  1.00  0.00     0.037 A 
BRANCH  26  40
ATOM     40  C   UNL A   1      40.630  27.950  28.726  1.00  0.00     0.064 A 
ATOM     41  C   UNL A   1      39.940  26.730  28.656  1.00  0.00     0.173 A 
ATOM     42  C   UNL A   1      41.382  28.341  27.607  1.00  0.00     0.173 A 
ATOM     43  F   UNL A   1      39.215  26.303  29.701  1.00  0.00    -0.203 F 
ATOM     44  C   UNL A   1      40.030  25.919  27.527  1.00  0.00     0.198 A 
ATOM     45  C   UNL A   1      41.443  27.542  26.467  1.00  0.00     0.198 A 
ATOM     46  F   UNL A   1      42.054  29.502  27.614  1.00  0.00    -0.203 F 
ATOM     47  F   UNL A   1      39.407  24.733  27.506  1.00  0.00    -0.200 F 
ATOM     48  C   UNL A   1      40.776  26.327  26.432  1.00  0.00     0.200 A 
ATOM     49  F   UNL A   1      42.155  27.946  25.405  1.00  0.00    -0.200 F 
ATOM     50  F   UNL A   1      40.859  25.546  25.347  1.00  0.00    -0.200 F 
ENDBRANCH  26  40
BRANCH  27  51
ATOM     51  C   UNL A   1      39.622  33.842  36.733  1.00  0.00     0.064 A 
ATOM     52  C   UNL A   1      38.857  33.445  37.837  1.00  0.00     0.173 A 
ATOM     53  C   UNL A   1      40.271  35.084  36.799  1.00  0.00     0.173 A 
ATOM     54  F   UNL A   1      38.204  32.275  37.814  1.00  0.00    -0.203 F 
ATOM     55  C   UNL A   1      38.742  34.261  38.962  1.00  0.00     0.198 A 
ATOM     56  C   UNL A   1      40.179  35.884  37.934  1.00  0.00     0.198 A 
ATOM     57  F   UNL A   1      41.021  35.505  35.770  1.00  0.00    -0.203 F 
ATOM     58  F   UNL A   1      37.979  33.872  39.992  1.00  0.00    -0.200 F 
ATOM     59  C   UNL A   1      39.410  35.475  39.012  1.00  0.00     0.200 A 
ATOM     60  F   UNL A   1      40.842  37.048  37.986  1.00  0.00    -0.200 F 
ATOM     61  F   UNL A   1      39.311  36.251  40.100  1.00  0.00    -0.200 F 
ENDBRANCH  27  51
BRANCH  39  62
ATOM     62  C   UNL A   1      44.145  28.846  34.969  1.00  0.00     0.064 A 
ATOM     63  C   UNL A   1      45.422  29.408  34.829  1.00  0.00     0.173 A 
ATOM     64  C   UNL A   1      44.006  27.730  35.809  1.00  0.00     0.173 A 
ATOM     65  F   UNL A   1      45.610  30.464  34.023  1.00  0.00    -0.203 F 
ATOM     66  C   UNL A   1      46.522  28.857  35.482  1.00  0.00     0.198 A 
ATOM     67  C   UNL A   1      45.101  27.202  36.484  1.00  0.00     0.198 A 
ATOM     68  F   UNL A   1      42.805  27.158  35.980  1.00  0.00    -0.203 F 
ATOM     69  F   UNL A   1      47.742  29.379  35.292  1.00  0.00    -0.200 F 
ATOM     70  C   UNL A   1      46.360  27.760  36.314  1.00  0.00     0.200 A 
ATOM     71  F   UNL A   1      44.941  26.148  37.296  1.00  0.00    -0.200 F 
ATOM     72  F   UNL A   1      47.418  27.233  36.945  1.00  0.00    -0.200 F 
ENDBRANCH  39  62
ENDBRANCH  13  14
ENDBRANCH   6   8
ENDBRANCH   3   4
ENDBRANCH   2   3
ENDBRANCH   1   2
BRANCH   1  73
ATOM     73  N   UNL A   1      32.579  30.349  25.596  1.00  0.00    -0.352 N 
ATOM     74  C   UNL A   1      32.639  29.311  24.708  1.00  0.00     0.255 C 
ATOM     75  H   UNL A   1      33.380  30.920  25.630  1.00  0.00     0.163 HD
ATOM     76  O   UNL A   1      33.702  29.068  24.139  1.00  0.00    -0.269 OA
BRANCH  74  77
ATOM     77  C   UNL A   1      31.467  28.452  24.439  1.00  0.00     0.083 A 
ATOM     78  C   UNL A   1      31.574  27.105  24.818  1.00  0.00     0.044 A 
ATOM     79  C   UNL A   1      30.358  28.882  23.704  1.00  0.00     0.128 A 
ATOM     80  C   UNL A   1      30.603  26.176  24.424  1.00  0.00     0.053 A 
ATOM     81  C   UNL A   1      29.355  27.977  23.364  1.00  0.00     0.049 A 
ATOM     82  C   UNL A   1      29.494  26.626  23.698  1.00  0.00     0.031 A 
BRANCH  79  83
ATOM     83  O   UNL A   1      30.254  30.178  23.282  1.00  0.00    -0.507 OA
ATOM     84  H   UNL A   1      30.401  30.881  23.885  1.00  0.00     0.293 HD
ENDBRANCH  79  83
BRANCH  80  85
ATOM     85  N   UNL A   1      30.788  24.799  24.696  1.00  0.00    -0.249 N 
ATOM     86  C   UNL A   1      30.505  24.211  25.903  1.00  0.00     0.236 C 
ATOM     87  C   UNL A   1      31.276  23.901  23.777  1.00  0.00     0.256 C 
ATOM     88  O   UNL A   1      30.109  24.748  26.927  1.00  0.00    -0.274 OA
ATOM     89  C   UNL A   1      30.656  22.726  25.777  1.00  0.00     0.136 C 
ATOM     90  C   UNL A   1      31.255  22.508  24.398  1.00  0.00     0.179 C 
ATOM     91  O   UNL A   1      31.755  24.177  22.682  1.00  0.00    -0.272 OA
BRANCH  90  92
ATOM     92  N   UNL A   1      32.607  21.943  24.540  1.00  0.00    -0.370 N 
ATOM     93  H   UNL A   1      33.391  22.516  24.702  1.00  0.00     0.161 HD
BRANCH  92  94
ATOM     94  C   UNL A   1      32.725  20.548  24.435  1.00  0.00     0.077 A 
ATOM     95  C   UNL A   1      32.384  19.924  23.231  1.00  0.00     0.029 A 
ATOM     96  C   UNL A   1      33.021  19.733  25.540  1.00  0.00     0.138 A 
ATOM     97  C   UNL A   1      32.381  18.530  23.123  1.00  0.00     0.002 A 
ATOM     98  C   UNL A   1      33.015  18.342  25.444  1.00  0.00     0.048 A 
ATOM     99  C   UNL A   1      32.696  17.740  24.229  1.00  0.00     0.004 A 
BRANCH  96 100
ATOM    100  O   UNL A   1      33.304  20.328  26.737  1.00  0.00    -0.506 OA
ATOM    101  H   UNL A   1      33.799  19.867  27.385  1.00  0.00     0.293 HD
ENDBRANCH  96 100
ENDBRANCH  92  94
ENDBRANCH  90  92
ENDBRANCH  80  85
ENDBRANCH  74  77
ENDBRANCH   1  73
TORSDOF 15
ENDMDL
