MODEL 1
REMARK VINA RESULT:     -12.3      0.000      0.000
REMARK SMILES C[N@@H+](CCS(C)(=O)=O)Cc1oc2ccccc2c1C(=O)NCCCNC(=O)c1ccc(-c2c3nc(c(-c4c(F)c(F)c(F)c(F)c4F)c4ccc([nH]4)c(-c4c(F)c(F)c(F)c(F)c4F)c4nc(c(-c5c(F)c(F)c(F)c(F)c5F)c5ccc2[nH]5)C=C4)C=C3)cc1
REMARK SMILES IDX 19 1 20 2 21 3 18 5 10 6 11 7 12 8 17 9 13 10 16 11 14 12
REMARK SMILES IDX 15 13 9 14 2 15 1 16 3 18 4 19 5 20 6 21 7 22 8 23 22 24
REMARK SMILES IDX 23 25 24 26 25 27 26 28 27 30 28 31 29 32 90 33 30 34 89 35
REMARK SMILES IDX 31 36 32 37 33 38 83 39 34 40 88 41 82 42 84 43 35 44 87 45
REMARK SMILES IDX 81 46 80 47 36 49 68 50 48 51 67 52 49 53 52 54 66 55 85 56
REMARK SMILES IDX 50 57 51 58 65 60 86 61 53 62 37 63 38 64 46 65 39 66 40 67
REMARK SMILES IDX 44 68 47 69 41 70 42 71 45 72 43 73 69 74 70 75 78 76 71 77
REMARK SMILES IDX 72 78 76 79 79 80 73 81 74 82 77 83 75 84 54 85 55 86 63 87
REMARK SMILES IDX 56 88 57 89 61 90 64 91 58 92 59 93 62 94 60 95
REMARK H PARENT 21 4 2 17 25 29 84 48 52 59
REMARK Flexibility Score: inf
ROOT
ATOM      1  C   UNL A   1      34.707  21.178  26.427  1.00  0.00     0.255 C 
ATOM      2  O   UNL A   1      34.354  21.452  27.572  1.00  0.00    -0.269 OA
ATOM      3  N   UNL A   1      35.966  21.576  26.042  1.00  0.00    -0.352 N 
ATOM      4  H   UNL A   1      36.433  22.188  26.658  1.00  0.00     0.163 HD
ENDROOT
BRANCH   1   5
ATOM      5  C   UNL A   1      33.806  20.567  25.467  1.00  0.00     0.095 A 
ATOM      6  C   UNL A   1      32.687  21.241  24.983  1.00  0.00     0.172 A 
ATOM      7  O   UNL A   1      32.034  20.457  24.085  1.00  0.00    -0.454 OA
ATOM      8  C   UNL A   1      32.762  19.341  23.886  1.00  0.00     0.135 A 
ATOM      9  C   UNL A   1      33.830  19.298  24.770  1.00  0.00     0.034 A 
ATOM     10  C   UNL A   1      32.497  18.390  22.903  1.00  0.00     0.048 A 
ATOM     11  C   UNL A   1      34.634  18.136  24.726  1.00  0.00     0.013 A 
ATOM     12  C   UNL A   1      33.409  17.342  22.782  1.00  0.00     0.004 A 
ATOM     13  C   UNL A   1      34.455  17.206  23.690  1.00  0.00     0.001 A 
BRANCH   6  14
ATOM     14  C   UNL A   1      32.060  22.583  25.202  1.00  0.00     0.339 C 
BRANCH  14  15
ATOM     15  N   UNL A   1      32.862  23.773  24.887  1.00  0.00    -0.330 N 
ATOM     16  C   UNL A   1      33.345  24.542  26.014  1.00  0.00     0.333 C 
ATOM     17  H   UNL A   1      32.110  24.360  24.527  1.00  0.00     0.348 HD
BRANCH  15  18
ATOM     18  C   UNL A   1      33.695  23.772  23.685  1.00  0.00     0.278 C 
BRANCH  18  19
ATOM     19  C   UNL A   1      34.187  25.103  23.125  1.00  0.00     0.197 C 
BRANCH  19  20
ATOM     20  S   UNL A   1      32.947  25.967  22.152  1.00  0.00     0.152 S 
ATOM     21  C   UNL A   1      33.298  27.683  22.398  1.00  0.00     0.158 C 
ATOM     22  O   UNL A   1      33.222  25.691  20.751  1.00  0.00    -0.229 OA
ATOM     23  O   UNL A   1      31.628  25.767  22.709  1.00  0.00    -0.229 OA
ENDBRANCH  19  20
ENDBRANCH  18  19
ENDBRANCH  15  18
ENDBRANCH  14  15
ENDBRANCH   6  14
ENDBRANCH   1   5
BRANCH   3  24
ATOM     24  C   UNL A   1      36.686  21.211  24.847  1.00  0.00     0.118 C 
BRANCH  24  25
ATOM     25  C   UNL A   1      37.685  20.086  24.974  1.00  0.00     0.042 C 
BRANCH  25  26
ATOM     26  C   UNL A   1      38.956  20.442  25.714  1.00  0.00     0.118 C 
BRANCH  26  27
ATOM     27  N   UNL A   1      39.906  19.343  25.835  1.00  0.00    -0.352 N 
ATOM     28  C   UNL A   1      41.261  19.340  26.076  1.00  0.00     0.251 C 
ATOM     29  H   UNL A   1      39.511  18.447  25.724  1.00  0.00     0.163 HD
ATOM     30  O   UNL A   1      41.891  18.288  26.020  1.00  0.00    -0.269 OA
BRANCH  28  31
ATOM     31  C   UNL A   1      41.967  20.608  26.353  1.00  0.00     0.039 A 
ATOM     32  C   UNL A   1      42.293  21.455  25.292  1.00  0.00     0.014 A 
ATOM     33  C   UNL A   1      42.269  20.982  27.659  1.00  0.00     0.014 A 
ATOM     34  C   UNL A   1      42.822  22.720  25.558  1.00  0.00     0.010 A 
ATOM     35  C   UNL A   1      42.640  22.290  27.929  1.00  0.00     0.010 A 
ATOM     36  C   UNL A   1      42.943  23.169  26.883  1.00  0.00    -0.014 A 
BRANCH  36  37
ATOM     37  C   UNL A   1      43.411  24.539  27.207  1.00  0.00     0.031 A 
ATOM     38  C   UNL A   1      42.444  25.551  27.759  1.00  0.00     0.074 A 
ATOM     39  C   UNL A   1      44.677  24.902  26.919  1.00  0.00     0.049 A 
ATOM     40  N   UNL A   1      42.628  26.819  28.024  1.00  0.00    -0.248 NA
ATOM     41  C   UNL A   1      41.068  25.085  28.000  1.00  0.00     0.031 C 
ATOM     42  C   UNL A   1      45.687  24.036  26.309  1.00  0.00     0.029 A 
ATOM     43  N   UNL A   1      45.325  26.099  27.091  1.00  0.00    -0.354 N 
ATOM     44  C   UNL A   1      41.391  27.301  28.432  1.00  0.00     0.074 A 
ATOM     45  C   UNL A   1      40.447  26.214  28.300  1.00  0.00     0.031 C 
ATOM     46  C   UNL A   1      46.836  24.719  26.189  1.00  0.00     0.029 A 
ATOM     47  C   UNL A   1      46.632  26.082  26.669  1.00  0.00     0.049 A 
ATOM     48  H   UNL A   1      44.895  26.894  27.479  1.00  0.00     0.167 HD
ATOM     49  C   UNL A   1      41.075  28.528  28.907  1.00  0.00     0.037 A 
ATOM     50  C   UNL A   1      47.558  27.058  26.661  1.00  0.00     0.037 A 
ATOM     51  C   UNL A   1      42.029  29.593  29.064  1.00  0.00     0.049 A 
ATOM     52  C   UNL A   1      47.196  28.411  27.209  1.00  0.00     0.074 A 
ATOM     53  C   UNL A   1      41.839  30.848  29.614  1.00  0.00     0.029 A 
ATOM     54  N   UNL A   1      43.355  29.529  28.656  1.00  0.00    -0.354 N 
ATOM     55  N   UNL A   1      46.047  28.831  27.682  1.00  0.00    -0.248 NA
ATOM     56  C   UNL A   1      48.261  29.423  27.232  1.00  0.00     0.031 C 
ATOM     57  C   UNL A   1      43.032  31.567  29.477  1.00  0.00     0.029 A 
ATOM     58  C   UNL A   1      43.986  30.736  28.908  1.00  0.00     0.049 A 
ATOM     59  H   UNL A   1      43.782  28.742  28.248  1.00  0.00     0.167 HD
ATOM     60  C   UNL A   1      46.252  30.145  28.078  1.00  0.00     0.074 A 
ATOM     61  C   UNL A   1      47.644  30.447  27.805  1.00  0.00     0.031 C 
ATOM     62  C   UNL A   1      45.371  31.022  28.621  1.00  0.00     0.037 A 
BRANCH  49  63
ATOM     63  C   UNL A   1      39.638  28.777  29.276  1.00  0.00     0.064 A 
ATOM     64  C   UNL A   1      38.710  29.292  28.356  1.00  0.00     0.173 A 
ATOM     65  C   UNL A   1      39.185  28.510  30.577  1.00  0.00     0.173 A 
ATOM     66  F   UNL A   1      39.089  29.577  27.101  1.00  0.00    -0.203 F 
ATOM     67  C   UNL A   1      37.402  29.582  28.738  1.00  0.00     0.198 A 
ATOM     68  C   UNL A   1      37.865  28.762  30.944  1.00  0.00     0.198 A 
ATOM     69  F   UNL A   1      40.023  28.012  31.498  1.00  0.00    -0.203 F 
ATOM     70  F   UNL A   1      36.562  30.152  27.863  1.00  0.00    -0.200 F 
ATOM     71  C   UNL A   1      36.979  29.313  30.030  1.00  0.00     0.200 A 
ATOM     72  F   UNL A   1      37.454  28.485  32.189  1.00  0.00    -0.200 F 
ATOM     73  F   UNL A   1      35.723  29.597  30.399  1.00  0.00    -0.200 F 
ENDBRANCH  49  63
BRANCH  50  74
ATOM     74  C   UNL A   1      48.922  26.769  26.144  1.00  0.00     0.064 A 
ATOM     75  C   UNL A   1      49.881  26.137  26.946  1.00  0.00     0.173 A 
ATOM     76  C   UNL A   1      49.278  27.079  24.823  1.00  0.00     0.173 A 
ATOM     77  F   UNL A   1      49.594  25.836  28.222  1.00  0.00    -0.203 F 
ATOM     78  C   UNL A   1      51.146  25.832  26.451  1.00  0.00     0.198 A 
ATOM     79  C   UNL A   1      50.534  26.747  24.319  1.00  0.00     0.198 A 
ATOM     80  F   UNL A   1      48.393  27.676  24.011  1.00  0.00    -0.203 F 
ATOM     81  F   UNL A   1      52.055  25.253  27.248  1.00  0.00    -0.200 F 
ATOM     82  C   UNL A   1      51.469  26.127  25.134  1.00  0.00     0.200 A 
ATOM     83  F   UNL A   1      50.834  27.017  23.041  1.00  0.00    -0.200 F 
ATOM     84  F   UNL A   1      52.680  25.817  24.652  1.00  0.00    -0.200 F 
ENDBRANCH  50  74
BRANCH  62  85
ATOM     85  C   UNL A   1      45.888  32.386  28.980  1.00  0.00     0.064 A 
ATOM     86  C   UNL A   1      46.484  32.648  30.222  1.00  0.00     0.173 A 
ATOM     87  C   UNL A   1      45.827  33.434  28.047  1.00  0.00     0.173 A 
ATOM     88  F   UNL A   1      46.556  31.685  31.154  1.00  0.00    -0.203 F 
ATOM     89  C   UNL A   1      46.975  33.916  30.527  1.00  0.00     0.198 A 
ATOM     90  C   UNL A   1      46.351  34.689  28.343  1.00  0.00     0.198 A 
ATOM     91  F   UNL A   1      45.275  33.235  26.841  1.00  0.00    -0.203 F 
ATOM     92  F   UNL A   1      47.493  34.156  31.739  1.00  0.00    -0.200 F 
ATOM     93  C   UNL A   1      46.916  34.931  29.584  1.00  0.00     0.200 A 
ATOM     94  F   UNL A   1      46.311  35.663  27.423  1.00  0.00    -0.200 F 
ATOM     95  F   UNL A   1      47.399  36.147  29.877  1.00  0.00    -0.200 F 
ENDBRANCH  62  85
ENDBRANCH  36  37
ENDBRANCH  28  31
ENDBRANCH  26  27
ENDBRANCH  25  26
ENDBRANCH  24  25
ENDBRANCH   3  24
TORSDOF 15
ENDMDL
MODEL 2
REMARK VINA RESULT:     -12.1      5.734     11.280
REMARK SMILES C[N@@H+](CCS(C)(=O)=O)Cc1oc2ccccc2c1C(=O)NCCCNC(=O)c1ccc(-c2c3nc(c(-c4c(F)c(F)c(F)c(F)c4F)c4ccc([nH]4)c(-c4c(F)c(F)c(F)c(F)c4F)c4nc(c(-c5c(F)c(F)c(F)c(F)c5F)c5ccc2[nH]5)C=C4)C=C3)cc1
REMARK SMILES IDX 19 1 20 2 21 3 18 5 10 6 11 7 12 8 17 9 13 10 16 11 14 12
REMARK SMILES IDX 15 13 9 14 2 15 1 16 3 18 4 19 5 20 6 21 7 22 8 23 22 24
REMARK SMILES IDX 23 25 24 26 25 27 26 28 27 30 28 31 29 32 90 33 30 34 89 35
REMARK SMILES IDX 31 36 32 37 33 38 83 39 34 40 88 41 82 42 84 43 35 44 87 45
REMARK SMILES IDX 81 46 80 47 36 49 68 50 48 51 67 52 49 53 52 54 66 55 85 56
REMARK SMILES IDX 50 57 51 58 65 60 86 61 53 62 37 63 38 64 46 65 39 66 40 67
REMARK SMILES IDX 44 68 47 69 41 70 42 71 45 72 43 73 69 74 70 75 78 76 71 77
REMARK SMILES IDX 72 78 76 79 79 80 73 81 74 82 77 83 75 84 54 85 55 86 63 87
REMARK SMILES IDX 56 88 57 89 61 90 64 91 58 92 59 93 62 94 60 95
REMARK H PARENT 21 4 2 17 25 29 84 48 52 59
REMARK Flexibility Score: inf
ROOT
ATOM      1  C   UNL A   1      32.726  29.329  24.062  1.00  0.00     0.255 C 
ATOM      2  O   UNL A   1      33.672  29.324  23.276  1.00  0.00    -0.269 OA
ATOM      3  N   UNL A   1      32.901  29.984  25.257  1.00  0.00    -0.352 N 
ATOM      4  H   UNL A   1      33.821  30.268  25.464  1.00  0.00     0.163 HD
ENDROOT
BRANCH   1   5
ATOM      5  C   UNL A   1      31.510  28.577  23.809  1.00  0.00     0.095 A 
ATOM      6  C   UNL A   1      31.448  27.199  24.000  1.00  0.00     0.172 A 
ATOM      7  O   UNL A   1      30.197  26.753  23.716  1.00  0.00    -0.454 OA
ATOM      8  C   UNL A   1      29.414  27.819  23.458  1.00  0.00     0.135 A 
ATOM      9  C   UNL A   1      30.176  28.976  23.412  1.00  0.00     0.034 A 
ATOM     10  C   UNL A   1      28.030  27.764  23.301  1.00  0.00     0.048 A 
ATOM     11  C   UNL A   1      29.491  30.165  23.068  1.00  0.00     0.013 A 
ATOM     12  C   UNL A   1      27.369  28.979  23.128  1.00  0.00     0.004 A 
ATOM     13  C   UNL A   1      28.089  30.164  22.997  1.00  0.00     0.001 A 
BRANCH   6  14
ATOM     14  C   UNL A   1      32.400  26.129  24.441  1.00  0.00     0.339 C 
BRANCH  14  15
ATOM     15  N   UNL A   1      32.364  24.846  23.726  1.00  0.00    -0.330 N 
ATOM     16  C   UNL A   1      33.014  24.809  22.434  1.00  0.00     0.333 C 
ATOM     17  H   UNL A   1      31.376  24.852  23.475  1.00  0.00     0.348 HD
BRANCH  15  18
ATOM     18  C   UNL A   1      32.356  23.603  24.496  1.00  0.00     0.278 C 
BRANCH  18  19
ATOM     19  C   UNL A   1      31.028  23.061  25.015  1.00  0.00     0.197 C 
BRANCH  19  20
ATOM     20  S   UNL A   1      30.579  23.710  26.631  1.00  0.00     0.152 S 
ATOM     21  C   UNL A   1      29.371  22.578  27.250  1.00  0.00     0.158 C 
ATOM     22  O   UNL A   1      31.744  23.577  27.492  1.00  0.00    -0.229 OA
ATOM     23  O   UNL A   1      29.885  24.971  26.501  1.00  0.00    -0.229 OA
ENDBRANCH  19  20
ENDBRANCH  18  19
ENDBRANCH  15  18
ENDBRANCH  14  15
ENDBRANCH   6  14
ENDBRANCH   1   5
BRANCH   3  24
ATOM     24  C   UNL A   1      31.903  30.305  26.248  1.00  0.00     0.118 C 
BRANCH  24  25
ATOM     25  C   UNL A   1      31.646  31.771  26.502  1.00  0.00     0.042 C 
BRANCH  25  26
ATOM     26  C   UNL A   1      32.711  32.474  27.315  1.00  0.00     0.118 C 
BRANCH  26  27
ATOM     27  N   UNL A   1      32.433  33.881  27.577  1.00  0.00    -0.352 N 
ATOM     28  C   UNL A   1      33.004  34.768  28.461  1.00  0.00     0.251 C 
ATOM     29  H   UNL A   1      31.711  34.264  27.027  1.00  0.00     0.163 HD
ATOM     30  O   UNL A   1      32.528  35.890  28.598  1.00  0.00    -0.269 OA
BRANCH  28  31
ATOM     31  C   UNL A   1      34.160  34.353  29.283  1.00  0.00     0.039 A 
ATOM     32  C   UNL A   1      33.938  33.768  30.531  1.00  0.00     0.014 A 
ATOM     33  C   UNL A   1      35.460  34.500  28.805  1.00  0.00     0.014 A 
ATOM     34  C   UNL A   1      35.015  33.238  31.244  1.00  0.00     0.010 A 
ATOM     35  C   UNL A   1      36.500  33.834  29.433  1.00  0.00     0.010 A 
ATOM     36  C   UNL A   1      36.297  33.214  30.672  1.00  0.00    -0.014 A 
BRANCH  36  37
ATOM     37  C   UNL A   1      37.449  32.575  31.356  1.00  0.00     0.031 A 
ATOM     38  C   UNL A   1      38.156  31.416  30.707  1.00  0.00     0.074 A 
ATOM     39  C   UNL A   1      37.800  32.974  32.594  1.00  0.00     0.049 A 
ATOM     40  N   UNL A   1      39.121  30.666  31.173  1.00  0.00    -0.248 NA
ATOM     41  C   UNL A   1      37.679  31.013  29.374  1.00  0.00     0.031 C 
ATOM     42  C   UNL A   1      37.142  34.034  33.360  1.00  0.00     0.029 A 
ATOM     43  N   UNL A   1      38.791  32.525  33.431  1.00  0.00    -0.354 N 
ATOM     44  C   UNL A   1      39.343  29.694  30.206  1.00  0.00     0.074 A 
ATOM     45  C   UNL A   1      38.357  29.897  29.168  1.00  0.00     0.031 C 
ATOM     46  C   UNL A   1      37.767  34.176  34.539  1.00  0.00     0.029 A 
ATOM     47  C   UNL A   1      38.838  33.189  34.632  1.00  0.00     0.049 A 
ATOM     48  H   UNL A   1      39.408  31.797  33.193  1.00  0.00     0.167 HD
ATOM     49  C   UNL A   1      40.301  28.739  30.168  1.00  0.00     0.037 A 
ATOM     50  C   UNL A   1      39.649  33.015  35.692  1.00  0.00     0.037 A 
ATOM     51  C   UNL A   1      41.296  28.566  31.191  1.00  0.00     0.049 A 
ATOM     52  C   UNL A   1      40.720  31.962  35.626  1.00  0.00     0.074 A 
ATOM     53  C   UNL A   1      42.366  27.690  31.216  1.00  0.00     0.029 A 
ATOM     54  N   UNL A   1      41.335  29.281  32.381  1.00  0.00    -0.354 N 
ATOM     55  N   UNL A   1      40.983  31.109  34.666  1.00  0.00    -0.248 NA
ATOM     56  C   UNL A   1      41.615  31.854  36.787  1.00  0.00     0.031 C 
ATOM     57  C   UNL A   1      43.012  27.827  32.450  1.00  0.00     0.029 A 
ATOM     58  C   UNL A   1      42.388  28.839  33.164  1.00  0.00     0.049 A 
ATOM     59  H   UNL A   1      40.706  29.996  32.630  1.00  0.00     0.167 HD
ATOM     60  C   UNL A   1      42.083  30.377  35.092  1.00  0.00     0.074 A 
ATOM     61  C   UNL A   1      42.448  30.901  36.393  1.00  0.00     0.031 C 
ATOM     62  C   UNL A   1      42.733  29.367  34.463  1.00  0.00     0.037 A 
BRANCH  49  63
ATOM     63  C   UNL A   1      40.303  27.810  28.985  1.00  0.00     0.064 A 
ATOM     64  C   UNL A   1      39.605  26.590  28.993  1.00  0.00     0.173 A 
ATOM     65  C   UNL A   1      41.027  28.136  27.829  1.00  0.00     0.173 A 
ATOM     66  F   UNL A   1      38.904  26.220  30.076  1.00  0.00    -0.203 F 
ATOM     67  C   UNL A   1      39.678  25.711  27.916  1.00  0.00     0.198 A 
ATOM     68  C   UNL A   1      41.064  27.273  26.735  1.00  0.00     0.198 A 
ATOM     69  F   UNL A   1      41.709  29.289  27.759  1.00  0.00    -0.203 F 
ATOM     70  F   UNL A   1      39.072  24.518  27.985  1.00  0.00    -0.200 F 
ATOM     71  C   UNL A   1      40.404  26.055  26.786  1.00  0.00     0.200 A 
ATOM     72  F   UNL A   1      41.752  27.615  25.638  1.00  0.00    -0.200 F 
ATOM     73  F   UNL A   1      40.478  25.207  25.752  1.00  0.00    -0.200 F 
ENDBRANCH  49  63
BRANCH  50  74
ATOM     74  C   UNL A   1      39.488  33.886  36.887  1.00  0.00     0.064 A 
ATOM     75  C   UNL A   1      38.749  33.461  37.998  1.00  0.00     0.173 A 
ATOM     76  C   UNL A   1      40.110  35.143  36.958  1.00  0.00     0.173 A 
ATOM     77  F   UNL A   1      38.122  32.275  37.971  1.00  0.00    -0.203 F 
ATOM     78  C   UNL A   1      38.629  34.261  39.133  1.00  0.00     0.198 A 
ATOM     79  C   UNL A   1      40.014  35.929  38.105  1.00  0.00     0.198 A 
ATOM     80  F   UNL A   1      40.837  35.592  35.925  1.00  0.00    -0.203 F 
ATOM     81  F   UNL A   1      37.891  33.843  40.170  1.00  0.00    -0.200 F 
ATOM     82  C   UNL A   1      39.271  35.490  39.190  1.00  0.00     0.200 A 
ATOM     83  F   UNL A   1      40.651  37.106  38.162  1.00  0.00    -0.200 F 
ATOM     84  F   UNL A   1      39.171  36.250  40.288  1.00  0.00    -0.200 F 
ENDBRANCH  50  74
BRANCH  62  85
ATOM     85  C   UNL A   1      43.922  28.772  35.161  1.00  0.00     0.064 A 
ATOM     86  C   UNL A   1      43.796  27.696  36.052  1.00  0.00     0.173 A 
ATOM     87  C   UNL A   1      45.213  29.256  34.896  1.00  0.00     0.173 A 
ATOM     88  F   UNL A   1      42.583  27.204  36.349  1.00  0.00    -0.203 F 
ATOM     89  C   UNL A   1      44.914  27.146  36.673  1.00  0.00     0.198 A 
ATOM     90  C   UNL A   1      46.332  28.680  35.492  1.00  0.00     0.198 A 
ATOM     91  F   UNL A   1      45.391  30.278  34.046  1.00  0.00    -0.203 F 
ATOM     92  F   UNL A   1      44.764  26.153  37.560  1.00  0.00    -0.200 F 
ATOM     93  C   UNL A   1      46.181  27.633  36.386  1.00  0.00     0.200 A 
ATOM     94  F   UNL A   1      47.556  29.140  35.198  1.00  0.00    -0.200 F 
ATOM     95  F   UNL A   1      47.257  27.094  36.977  1.00  0.00    -0.200 F 
ENDBRANCH  62  85
ENDBRANCH  36  37
ENDBRANCH  28  31
ENDBRANCH  26  27
ENDBRANCH  25  26
ENDBRANCH  24  25
ENDBRANCH   3  24
TORSDOF 15
ENDMDL
MODEL 3
REMARK VINA RESULT:     -12.0      4.853      8.008
REMARK SMILES C[N@@H+](CCS(C)(=O)=O)Cc1oc2ccccc2c1C(=O)NCCCNC(=O)c1ccc(-c2c3nc(c(-c4c(F)c(F)c(F)c(F)c4F)c4ccc([nH]4)c(-c4c(F)c(F)c(F)c(F)c4F)c4nc(c(-c5c(F)c(F)c(F)c(F)c5F)c5ccc2[nH]5)C=C4)C=C3)cc1
REMARK SMILES IDX 19 1 20 2 21 3 18 5 10 6 11 7 12 8 17 9 13 10 16 11 14 12
REMARK SMILES IDX 15 13 9 14 2 15 1 16 3 18 4 19 5 20 6 21 7 22 8 23 22 24
REMARK SMILES IDX 23 25 24 26 25 27 26 28 27 30 28 31 29 32 90 33 30 34 89 35
REMARK SMILES IDX 31 36 32 37 33 38 83 39 34 40 88 41 82 42 84 43 35 44 87 45
REMARK SMILES IDX 81 46 80 47 36 49 68 50 48 51 67 52 49 53 52 54 66 55 85 56
REMARK SMILES IDX 50 57 51 58 65 60 86 61 53 62 37 63 38 64 46 65 39 66 40 67
REMARK SMILES IDX 44 68 47 69 41 70 42 71 45 72 43 73 69 74 70 75 78 76 71 77
REMARK SMILES IDX 72 78 76 79 79 80 73 81 74 82 77 83 75 84 54 85 55 86 63 87
REMARK SMILES IDX 56 88 57 89 61 90 64 91 58 92 59 93 62 94 60 95
REMARK H PARENT 21 4 2 17 25 29 84 48 52 59
REMARK Flexibility Score: inf
ROOT
ATOM      1  C   UNL A   1      31.699  24.770  26.528  1.00  0.00     0.255 C 
ATOM      2  O   UNL A   1      30.992  24.001  27.177  1.00  0.00    -0.269 OA
ATOM      3  N   UNL A   1      31.672  26.099  26.877  1.00  0.00    -0.352 N 
ATOM      4  H   UNL A   1      30.972  26.363  27.519  1.00  0.00     0.163 HD
ENDROOT
BRANCH   1   5
ATOM      5  C   UNL A   1      32.444  24.333  25.361  1.00  0.00     0.095 A 
ATOM      6  C   UNL A   1      31.972  24.549  24.069  1.00  0.00     0.172 A 
ATOM      7  O   UNL A   1      32.868  24.067  23.167  1.00  0.00    -0.454 OA
ATOM      8  C   UNL A   1      33.961  23.650  23.837  1.00  0.00     0.135 A 
ATOM      9  C   UNL A   1      33.738  23.704  25.204  1.00  0.00     0.034 A 
ATOM     10  C   UNL A   1      35.155  23.261  23.233  1.00  0.00     0.048 A 
ATOM     11  C   UNL A   1      34.779  23.215  26.028  1.00  0.00     0.013 A 
ATOM     12  C   UNL A   1      36.214  22.944  24.084  1.00  0.00     0.004 A 
ATOM     13  C   UNL A   1      36.026  22.906  25.463  1.00  0.00     0.001 A 
BRANCH   6  14
ATOM     14  C   UNL A   1      30.757  25.175  23.456  1.00  0.00     0.339 C 
BRANCH  14  15
ATOM     15  N   UNL A   1      30.761  26.631  23.264  1.00  0.00    -0.330 N 
ATOM     16  C   UNL A   1      31.699  27.151  22.292  1.00  0.00     0.333 C 
ATOM     17  H   UNL A   1      31.196  26.890  24.149  1.00  0.00     0.348 HD
BRANCH  15  18
ATOM     18  C   UNL A   1      29.515  27.377  23.441  1.00  0.00     0.278 C 
BRANCH  18  19
ATOM     19  C   UNL A   1      29.558  28.902  23.440  1.00  0.00     0.197 C 
BRANCH  19  20
ATOM     20  S   UNL A   1      28.105  29.653  22.696  1.00  0.00     0.152 S 
ATOM     21  C   UNL A   1      28.014  31.266  23.415  1.00  0.00     0.158 C 
ATOM     22  O   UNL A   1      28.393  29.853  21.284  1.00  0.00    -0.229 OA
ATOM     23  O   UNL A   1      26.902  28.978  23.126  1.00  0.00    -0.229 OA
ENDBRANCH  19  20
ENDBRANCH  18  19
ENDBRANCH  15  18
ENDBRANCH  14  15
ENDBRANCH   6  14
ENDBRANCH   1   5
BRANCH   3  24
ATOM     24  C   UNL A   1      32.541  27.155  26.419  1.00  0.00     0.118 C 
BRANCH  24  25
ATOM     25  C   UNL A   1      31.948  28.542  26.356  1.00  0.00     0.042 C 
BRANCH  25  26
ATOM     26  C   UNL A   1      32.871  29.605  25.801  1.00  0.00     0.118 C 
BRANCH  26  27
ATOM     27  N   UNL A   1      32.651  30.937  26.354  1.00  0.00    -0.352 N 
ATOM     28  C   UNL A   1      33.388  31.678  27.248  1.00  0.00     0.251 C 
ATOM     29  H   UNL A   1      31.834  31.383  26.032  1.00  0.00     0.163 HD
ATOM     30  O   UNL A   1      32.950  32.744  27.670  1.00  0.00    -0.269 OA
BRANCH  28  31
ATOM     31  C   UNL A   1      34.685  31.169  27.742  1.00  0.00     0.039 A 
ATOM     32  C   UNL A   1      35.728  32.066  27.976  1.00  0.00     0.014 A 
ATOM     33  C   UNL A   1      34.858  29.815  28.015  1.00  0.00     0.014 A 
ATOM     34  C   UNL A   1      36.901  31.615  28.584  1.00  0.00     0.010 A 
ATOM     35  C   UNL A   1      35.950  29.400  28.761  1.00  0.00     0.010 A 
ATOM     36  C   UNL A   1      36.997  30.288  29.035  1.00  0.00    -0.014 A 
BRANCH  36  37
ATOM     37  C   UNL A   1      38.187  29.793  29.770  1.00  0.00     0.031 A 
ATOM     38  C   UNL A   1      38.459  30.277  31.168  1.00  0.00     0.074 A 
ATOM     39  C   UNL A   1      39.070  28.986  29.150  1.00  0.00     0.049 A 
ATOM     40  N   UNL A   1      39.484  30.037  31.946  1.00  0.00    -0.248 NA
ATOM     41  C   UNL A   1      37.469  31.196  31.754  1.00  0.00     0.031 C 
ATOM     42  C   UNL A   1      38.959  28.511  27.770  1.00  0.00     0.029 A 
ATOM     43  N   UNL A   1      40.243  28.431  29.599  1.00  0.00    -0.354 N 
ATOM     44  C   UNL A   1      39.272  30.794  33.091  1.00  0.00     0.074 A 
ATOM     45  C   UNL A   1      38.068  31.564  32.874  1.00  0.00     0.031 C 
ATOM     46  C   UNL A   1      40.001  27.710  27.496  1.00  0.00     0.029 A 
ATOM     47  C   UNL A   1      40.876  27.653  28.662  1.00  0.00     0.049 A 
ATOM     48  H   UNL A   1      40.596  28.578  30.506  1.00  0.00     0.167 HD
ATOM     49  C   UNL A   1      39.995  30.821  34.235  1.00  0.00     0.037 A 
ATOM     50  C   UNL A   1      42.037  26.975  28.733  1.00  0.00     0.037 A 
ATOM     51  C   UNL A   1      41.174  30.026  34.452  1.00  0.00     0.049 A 
ATOM     52  C   UNL A   1      42.819  27.000  30.017  1.00  0.00     0.074 A 
ATOM     53  C   UNL A   1      41.936  29.908  35.600  1.00  0.00     0.029 A 
ATOM     54  N   UNL A   1      41.769  29.221  33.490  1.00  0.00    -0.354 N 
ATOM     55  N   UNL A   1      42.561  27.645  31.129  1.00  0.00    -0.248 NA
ATOM     56  C   UNL A   1      44.048  26.197  30.059  1.00  0.00     0.031 C 
ATOM     57  C   UNL A   1      43.030  29.085  35.313  1.00  0.00     0.029 A 
ATOM     58  C   UNL A   1      42.911  28.632  34.008  1.00  0.00     0.049 A 
ATOM     59  H   UNL A   1      41.430  29.089  32.576  1.00  0.00     0.167 HD
ATOM     60  C   UNL A   1      43.579  27.310  32.012  1.00  0.00     0.074 A 
ATOM     61  C   UNL A   1      44.451  26.391  31.308  1.00  0.00     0.031 C 
ATOM     62  C   UNL A   1      43.774  27.724  33.289  1.00  0.00     0.037 A 
BRANCH  49  63
ATOM     63  C   UNL A   1      39.530  31.747  35.325  1.00  0.00     0.064 A 
ATOM     64  C   UNL A   1      38.627  31.334  36.320  1.00  0.00     0.173 A 
ATOM     65  C   UNL A   1      39.982  33.074  35.367  1.00  0.00     0.173 A 
ATOM     66  F   UNL A   1      38.153  30.079  36.323  1.00  0.00    -0.203 F 
ATOM     67  C   UNL A   1      38.153  32.227  37.277  1.00  0.00     0.198 A 
ATOM     68  C   UNL A   1      39.537  33.954  36.353  1.00  0.00     0.198 A 
ATOM     69  F   UNL A   1      40.848  33.526  34.448  1.00  0.00    -0.203 F 
ATOM     70  F   UNL A   1      37.228  31.829  38.162  1.00  0.00    -0.200 F 
ATOM     71  C   UNL A   1      38.612  33.535  37.296  1.00  0.00     0.200 A 
ATOM     72  F   UNL A   1      39.995  35.213  36.379  1.00  0.00    -0.200 F 
ATOM     73  F   UNL A   1      38.152  34.395  38.214  1.00  0.00    -0.200 F 
ENDBRANCH  49  63
BRANCH  50  74
ATOM     74  C   UNL A   1      42.502  26.194  27.556  1.00  0.00     0.064 A 
ATOM     75  C   UNL A   1      43.446  26.721  26.665  1.00  0.00     0.173 A 
ATOM     76  C   UNL A   1      42.044  24.887  27.324  1.00  0.00     0.173 A 
ATOM     77  F   UNL A   1      43.901  27.972  26.834  1.00  0.00    -0.203 F 
ATOM     78  C   UNL A   1      43.910  25.975  25.583  1.00  0.00     0.198 A 
ATOM     79  C   UNL A   1      42.531  24.132  26.259  1.00  0.00     0.198 A 
ATOM     80  F   UNL A   1      41.147  24.334  28.153  1.00  0.00    -0.203 F 
ATOM     81  F   UNL A   1      44.791  26.514  24.729  1.00  0.00    -0.200 F 
ATOM     82  C   UNL A   1      43.460  24.678  25.387  1.00  0.00     0.200 A 
ATOM     83  F   UNL A   1      42.107  22.873  26.086  1.00  0.00    -0.200 F 
ATOM     84  F   UNL A   1      43.921  23.954  24.357  1.00  0.00    -0.200 F 
ENDBRANCH  50  74
BRANCH  62  85
ATOM     85  C   UNL A   1      44.962  27.170  34.020  1.00  0.00     0.064 A 
ATOM     86  C   UNL A   1      44.896  25.962  34.732  1.00  0.00     0.173 A 
ATOM     87  C   UNL A   1      46.199  27.832  33.967  1.00  0.00     0.173 A 
ATOM     88  F   UNL A   1      43.735  25.296  34.824  1.00  0.00    -0.203 F 
ATOM     89  C   UNL A   1      46.016  25.455  35.387  1.00  0.00     0.198 A 
ATOM     90  C   UNL A   1      47.324  27.304  34.592  1.00  0.00     0.198 A 
ATOM     91  F   UNL A   1      46.319  28.986  33.293  1.00  0.00    -0.203 F 
ATOM     92  F   UNL A   1      45.915  24.328  36.104  1.00  0.00    -0.200 F 
ATOM     93  C   UNL A   1      47.229  26.121  35.308  1.00  0.00     0.200 A 
ATOM     94  F   UNL A   1      48.500  27.939  34.499  1.00  0.00    -0.200 F 
ATOM     95  F   UNL A   1      48.308  25.625  35.930  1.00  0.00    -0.200 F 
ENDBRANCH  62  85
ENDBRANCH  36  37
ENDBRANCH  28  31
ENDBRANCH  26  27
ENDBRANCH  25  26
ENDBRANCH  24  25
ENDBRANCH   3  24
TORSDOF 15
ENDMDL
