MODEL 1
REMARK VINA RESULT:     -13.5      0.000      0.000
REMARK SMILES CC(C)Oc1ccc(-c2ccc(/C(=C\c3ccc(S(C)(=O)=O)cc3)C(=O)NCCCNC(=O)c3ccc(-c4c5nc(c(-c6c(F)c(F)c(F)c(F)c6F)c6ccc([nH]6)c(-c6c(F)c(F)c(F)c(F)c6F)c6nc(c(-c7c(F)c(F)c(F)c(F)c7F)c7ccc4[nH]7)C=C6)C=C5)cc3)cc2)cc1
REMARK SMILES IDX 28 1 27 2 25 3 26 4 13 6 14 7 12 8 9 9 10 10 98 11 11 12
REMARK SMILES IDX 97 13 8 14 5 15 6 16 100 17 7 18 99 19 4 20 2 21 1 22 3 23
REMARK SMILES IDX 15 24 16 25 24 26 17 27 23 28 18 29 19 30 20 31 21 32 22 33
REMARK SMILES IDX 29 34 30 35 31 36 32 37 33 39 34 40 35 41 96 42 36 43 95 44
REMARK SMILES IDX 37 45 38 46 39 47 89 48 40 49 94 50 88 51 90 52 41 53 93 54
REMARK SMILES IDX 87 55 86 56 42 58 74 59 54 60 73 61 55 62 58 63 72 64 91 65
REMARK SMILES IDX 56 66 57 67 71 69 92 70 59 71 43 72 44 73 52 74 45 75 46 76
REMARK SMILES IDX 50 77 53 78 47 79 48 80 51 81 49 82 75 83 76 84 84 85 77 86
REMARK SMILES IDX 78 87 82 88 85 89 79 90 80 91 83 92 81 93 60 94 61 95 69 96
REMARK SMILES IDX 62 97 63 98 67 99 70 100 64 101 65 102 68 103 66 104
REMARK H PARENT 27 5 31 38 90 57 58 68
REMARK Flexibility Score: inf
ROOT
ATOM      1  C   UNL A   1      34.658  23.694  24.326  1.00  0.00     0.118 C 
ENDROOT
BRANCH   1   2
ATOM      2  N   UNL A   1      33.652  23.308  25.298  1.00  0.00    -0.352 N 
ATOM      3  C   UNL A   1      32.555  23.902  25.840  1.00  0.00     0.251 C 
ATOM      4  O   UNL A   1      31.992  23.223  26.701  1.00  0.00    -0.269 OA
ATOM      5  H   UNL A   1      33.799  22.399  25.648  1.00  0.00     0.163 HD
BRANCH   3   6
ATOM      6  C   UNL A   1      32.008  25.253  25.397  1.00  0.00     0.047 C 
ATOM      7  C   UNL A   1      31.313  25.305  24.233  1.00  0.00     0.022 C 
BRANCH   6   8
ATOM      8  C   UNL A   1      32.410  26.506  26.140  1.00  0.00    -0.013 A 
ATOM      9  C   UNL A   1      33.095  29.143  27.084  1.00  0.00    -0.018 A 
ATOM     10  C   UNL A   1      31.820  28.598  27.274  1.00  0.00     0.009 A 
ATOM     11  C   UNL A   1      34.056  28.286  26.536  1.00  0.00     0.009 A 
ATOM     12  C   UNL A   1      31.504  27.292  26.862  1.00  0.00     0.009 A 
ATOM     13  C   UNL A   1      33.714  27.016  26.047  1.00  0.00     0.009 A 
BRANCH   9  14
ATOM     14  C   UNL A   1      33.396  30.564  27.382  1.00  0.00    -0.018 A 
ATOM     15  C   UNL A   1      34.046  33.293  27.807  1.00  0.00     0.119 A 
ATOM     16  C   UNL A   1      32.750  32.923  27.461  1.00  0.00     0.047 A 
ATOM     17  C   UNL A   1      35.008  32.311  28.000  1.00  0.00     0.047 A 
ATOM     18  C   UNL A   1      32.430  31.576  27.250  1.00  0.00     0.012 A 
ATOM     19  C   UNL A   1      34.690  30.968  27.768  1.00  0.00     0.012 A 
BRANCH  15  20
ATOM     20  O   UNL A   1      34.279  34.613  28.049  1.00  0.00    -0.491 OA
BRANCH  20  21
ATOM     21  C   UNL A   1      33.404  35.287  28.972  1.00  0.00     0.167 C 
ATOM     22  C   UNL A   1      33.695  34.931  30.427  1.00  0.00     0.052 C 
ATOM     23  C   UNL A   1      33.277  36.793  28.751  1.00  0.00     0.052 C 
ENDBRANCH  20  21
ENDBRANCH  15  20
ENDBRANCH   9  14
ENDBRANCH   6   8
BRANCH   7  24
ATOM     24  C   UNL A   1      30.552  26.425  23.660  1.00  0.00    -0.025 A 
ATOM     25  C   UNL A   1      29.160  26.438  23.859  1.00  0.00     0.009 A 
ATOM     26  C   UNL A   1      31.171  27.506  23.027  1.00  0.00     0.009 A 
ATOM     27  C   UNL A   1      28.405  27.554  23.503  1.00  0.00     0.021 A 
ATOM     28  C   UNL A   1      30.418  28.628  22.665  1.00  0.00     0.021 A 
ATOM     29  C   UNL A   1      29.043  28.652  22.921  1.00  0.00     0.067 A 
BRANCH  29  30
ATOM     30  S   UNL A   1      28.105  30.138  22.640  1.00  0.00     0.175 S 
ATOM     31  C   UNL A   1      29.128  31.423  23.304  1.00  0.00     0.163 C 
ATOM     32  O   UNL A   1      28.023  30.320  21.205  1.00  0.00    -0.224 OA
ATOM     33  O   UNL A   1      26.904  30.060  23.451  1.00  0.00    -0.224 OA
ENDBRANCH  29  30
ENDBRANCH   7  24
ENDBRANCH   3   6
ENDBRANCH   1   2
BRANCH   1  34
ATOM     34  C   UNL A   1      35.896  22.801  24.446  1.00  0.00     0.042 C 
BRANCH  34  35
ATOM     35  C   UNL A   1      36.320  22.544  25.891  1.00  0.00     0.118 C 
BRANCH  35  36
ATOM     36  N   UNL A   1      37.301  21.473  25.987  1.00  0.00    -0.352 N 
ATOM     37  C   UNL A   1      38.664  21.542  26.127  1.00  0.00     0.251 C 
ATOM     38  H   UNL A   1      36.930  20.561  25.947  1.00  0.00     0.163 HD
ATOM     39  O   UNL A   1      39.350  20.542  25.937  1.00  0.00    -0.269 OA
BRANCH  37  40
ATOM     40  C   UNL A   1      39.313  22.818  26.496  1.00  0.00     0.039 A 
ATOM     41  C   UNL A   1      40.359  22.805  27.422  1.00  0.00     0.014 A 
ATOM     42  C   UNL A   1      38.863  24.029  25.962  1.00  0.00     0.014 A 
ATOM     43  C   UNL A   1      40.991  24.001  27.773  1.00  0.00     0.010 A 
ATOM     44  C   UNL A   1      39.539  25.209  26.257  1.00  0.00     0.010 A 
ATOM     45  C   UNL A   1      40.606  25.208  27.170  1.00  0.00    -0.014 A 
BRANCH  45  46
ATOM     46  C   UNL A   1      41.287  26.490  27.483  1.00  0.00     0.031 A 
ATOM     47  C   UNL A   1      42.705  26.712  27.030  1.00  0.00     0.074 A 
ATOM     48  C   UNL A   1      40.667  27.410  28.245  1.00  0.00     0.049 A 
ATOM     49  N   UNL A   1      43.524  27.692  27.318  1.00  0.00    -0.248 NA
ATOM     50  C   UNL A   1      43.289  25.677  26.161  1.00  0.00     0.031 C 
ATOM     51  C   UNL A   1      39.306  27.293  28.773  1.00  0.00     0.029 A 
ATOM     52  N   UNL A   1      41.108  28.617  28.730  1.00  0.00    -0.354 N 
ATOM     53  C   UNL A   1      44.722  27.378  26.690  1.00  0.00     0.074 A 
ATOM     54  C   UNL A   1      44.540  26.099  26.041  1.00  0.00     0.031 C 
ATOM     55  C   UNL A   1      39.022  28.385  29.502  1.00  0.00     0.029 A 
ATOM     56  C   UNL A   1      40.193  29.255  29.531  1.00  0.00     0.049 A 
ATOM     57  H   UNL A   1      41.995  28.990  28.522  1.00  0.00     0.167 HD
ATOM     58  C   UNL A   1      45.866  28.104  26.645  1.00  0.00     0.037 A 
ATOM     59  C   UNL A   1      40.295  30.404  30.229  1.00  0.00     0.037 A 
ATOM     60  C   UNL A   1      46.028  29.392  27.264  1.00  0.00     0.049 A 
ATOM     61  C   UNL A   1      41.580  31.187  30.164  1.00  0.00     0.074 A 
ATOM     62  C   UNL A   1      47.123  30.237  27.222  1.00  0.00     0.029 A 
ATOM     63  N   UNL A   1      45.065  30.024  28.036  1.00  0.00    -0.354 N 
ATOM     64  N   UNL A   1      42.686  30.912  29.515  1.00  0.00    -0.248 NA
ATOM     65  C   UNL A   1      41.631  32.444  30.924  1.00  0.00     0.031 C 
ATOM     66  C   UNL A   1      46.841  31.356  28.009  1.00  0.00     0.029 A 
ATOM     67  C   UNL A   1      45.548  31.238  28.494  1.00  0.00     0.049 A 
ATOM     68  H   UNL A   1      44.170  29.662  28.231  1.00  0.00     0.167 HD
ATOM     69  C   UNL A   1      43.546  31.974  29.758  1.00  0.00     0.074 A 
ATOM     70  C   UNL A   1      42.832  32.905  30.606  1.00  0.00     0.031 C 
ATOM     71  C   UNL A   1      44.814  32.163  29.318  1.00  0.00     0.037 A 
BRANCH  58  72
ATOM     72  C   UNL A   1      47.034  27.526  25.900  1.00  0.00     0.064 A 
ATOM     73  C   UNL A   1      47.190  27.708  24.518  1.00  0.00     0.173 A 
ATOM     74  C   UNL A   1      48.042  26.831  26.588  1.00  0.00     0.173 A 
ATOM     75  F   UNL A   1      46.251  28.357  23.812  1.00  0.00    -0.203 F 
ATOM     76  C   UNL A   1      48.298  27.197  23.848  1.00  0.00     0.198 A 
ATOM     77  C   UNL A   1      49.163  26.349  25.919  1.00  0.00     0.198 A 
ATOM     78  F   UNL A   1      47.946  26.635  27.910  1.00  0.00    -0.203 F 
ATOM     79  F   UNL A   1      48.405  27.347  22.520  1.00  0.00    -0.200 F 
ATOM     80  C   UNL A   1      49.288  26.526  24.550  1.00  0.00     0.200 A 
ATOM     81  F   UNL A   1      50.127  25.714  26.602  1.00  0.00    -0.200 F 
ATOM     82  F   UNL A   1      50.362  26.048  23.906  1.00  0.00    -0.200 F 
ENDBRANCH  58  72
BRANCH  59  83
ATOM     83  C   UNL A   1      39.151  30.890  31.045  1.00  0.00     0.064 A 
ATOM     84  C   UNL A   1      39.022  30.526  32.393  1.00  0.00     0.173 A 
ATOM     85  C   UNL A   1      38.154  31.707  30.493  1.00  0.00     0.173 A 
ATOM     86  F   UNL A   1      39.941  29.731  32.962  1.00  0.00    -0.203 F 
ATOM     87  C   UNL A   1      37.925  30.936  33.149  1.00  0.00     0.198 A 
ATOM     88  C   UNL A   1      37.074  32.143  31.259  1.00  0.00     0.198 A 
ATOM     89  F   UNL A   1      38.232  32.091  29.211  1.00  0.00    -0.203 F 
ATOM     90  F   UNL A   1      37.800  30.527  34.419  1.00  0.00    -0.200 F 
ATOM     91  C   UNL A   1      36.955  31.748  32.582  1.00  0.00     0.200 A 
ATOM     92  F   UNL A   1      36.147  32.942  30.712  1.00  0.00    -0.200 F 
ATOM     93  F   UNL A   1      35.901  32.142  33.309  1.00  0.00    -0.200 F 
ENDBRANCH  59  83
BRANCH  71  94
ATOM     94  C   UNL A   1      45.495  33.446  29.694  1.00  0.00     0.064 A 
ATOM     95  C   UNL A   1      46.292  33.551  30.842  1.00  0.00     0.173 A 
ATOM     96  C   UNL A   1      45.395  34.569  28.856  1.00  0.00     0.173 A 
ATOM     97  F   UNL A   1      46.406  32.511  31.683  1.00  0.00    -0.203 F 
ATOM     98  C   UNL A   1      46.950  34.739  31.149  1.00  0.00     0.198 A 
ATOM     99  C   UNL A   1      46.080  35.744  29.150  1.00  0.00     0.198 A 
ATOM    100  F   UNL A   1      44.651  34.516  27.742  1.00  0.00    -0.203 F 
ATOM    101  F   UNL A   1      47.673  34.830  32.273  1.00  0.00    -0.200 F 
ATOM    102  C   UNL A   1      46.852  35.830  30.298  1.00  0.00     0.200 A 
ATOM    103  F   UNL A   1      45.996  36.792  28.318  1.00  0.00    -0.200 F 
ATOM    104  F   UNL A   1      47.498  36.968  30.588  1.00  0.00    -0.200 F 
ENDBRANCH  71  94
ENDBRANCH  45  46
ENDBRANCH  37  40
ENDBRANCH  35  36
ENDBRANCH  34  35
ENDBRANCH   1  34
TORSDOF 16
ENDMDL
MODEL 2
REMARK VINA RESULT:     -13.3      0.462      6.994
REMARK SMILES CC(C)Oc1ccc(-c2ccc(/C(=C\c3ccc(S(C)(=O)=O)cc3)C(=O)NCCCNC(=O)c3ccc(-c4c5nc(c(-c6c(F)c(F)c(F)c(F)c6F)c6ccc([nH]6)c(-c6c(F)c(F)c(F)c(F)c6F)c6nc(c(-c7c(F)c(F)c(F)c(F)c7F)c7ccc4[nH]7)C=C6)C=C5)cc3)cc2)cc1
REMARK SMILES IDX 28 1 27 2 25 3 26 4 13 6 14 7 12 8 9 9 10 10 98 11 11 12
REMARK SMILES IDX 97 13 8 14 5 15 6 16 100 17 7 18 99 19 4 20 2 21 1 22 3 23
REMARK SMILES IDX 15 24 16 25 24 26 17 27 23 28 18 29 19 30 20 31 21 32 22 33
REMARK SMILES IDX 29 34 30 35 31 36 32 37 33 39 34 40 35 41 96 42 36 43 95 44
REMARK SMILES IDX 37 45 38 46 39 47 89 48 40 49 94 50 88 51 90 52 41 53 93 54
REMARK SMILES IDX 87 55 86 56 42 58 74 59 54 60 73 61 55 62 58 63 72 64 91 65
REMARK SMILES IDX 56 66 57 67 71 69 92 70 59 71 43 72 44 73 52 74 45 75 46 76
REMARK SMILES IDX 50 77 53 78 47 79 48 80 51 81 49 82 75 83 76 84 84 85 77 86
REMARK SMILES IDX 78 87 82 88 85 89 79 90 80 91 83 92 81 93 60 94 61 95 69 96
REMARK SMILES IDX 62 97 63 98 67 99 70 100 64 101 65 102 68 103 66 104
REMARK H PARENT 27 5 31 38 90 57 58 68
REMARK Flexibility Score: inf
ROOT
ATOM      1  C   UNL A   1      34.799  23.539  23.836  1.00  0.00     0.118 C 
ENDROOT
BRANCH   1   2
ATOM      2  N   UNL A   1      33.778  23.033  24.733  1.00  0.00    -0.352 N 
ATOM      3  C   UNL A   1      32.651  23.544  25.299  1.00  0.00     0.251 C 
ATOM      4  O   UNL A   1      32.083  22.767  26.070  1.00  0.00    -0.269 OA
ATOM      5  H   UNL A   1      33.939  22.097  24.995  1.00  0.00     0.163 HD
BRANCH   3   6
ATOM      6  C   UNL A   1      32.081  24.919  24.977  1.00  0.00     0.047 C 
ATOM      7  C   UNL A   1      31.334  25.049  23.853  1.00  0.00     0.022 C 
BRANCH   6   8
ATOM      8  C   UNL A   1      32.512  26.119  25.788  1.00  0.00    -0.013 A 
ATOM      9  C   UNL A   1      33.205  28.690  26.894  1.00  0.00    -0.018 A 
ATOM     10  C   UNL A   1      31.966  28.088  27.142  1.00  0.00     0.009 A 
ATOM     11  C   UNL A   1      34.138  27.914  26.196  1.00  0.00     0.009 A 
ATOM     12  C   UNL A   1      31.651  26.811  26.648  1.00  0.00     0.009 A 
ATOM     13  C   UNL A   1      33.789  26.678  25.631  1.00  0.00     0.009 A 
BRANCH   9  14
ATOM     14  C   UNL A   1      33.493  30.091  27.286  1.00  0.00    -0.018 A 
ATOM     15  C   UNL A   1      34.111  32.793  27.889  1.00  0.00     0.119 A 
ATOM     16  C   UNL A   1      32.807  32.422  27.573  1.00  0.00     0.047 A 
ATOM     17  C   UNL A   1      35.098  31.821  27.964  1.00  0.00     0.047 A 
ATOM     18  C   UNL A   1      32.504  31.088  27.275  1.00  0.00     0.012 A 
ATOM     19  C   UNL A   1      34.796  30.492  27.644  1.00  0.00     0.012 A 
BRANCH  15  20
ATOM     20  O   UNL A   1      34.330  34.096  28.220  1.00  0.00    -0.491 OA
BRANCH  20  21
ATOM     21  C   UNL A   1      33.437  34.701  29.173  1.00  0.00     0.167 C 
ATOM     22  C   UNL A   1      33.991  34.685  30.595  1.00  0.00     0.052 C 
ATOM     23  C   UNL A   1      32.904  36.075  28.768  1.00  0.00     0.052 C 
ENDBRANCH  20  21
ENDBRANCH  15  20
ENDBRANCH   9  14
ENDBRANCH   6   8
BRANCH   7  24
ATOM     24  C   UNL A   1      30.545  26.201  23.394  1.00  0.00    -0.025 A 
ATOM     25  C   UNL A   1      29.206  26.285  23.816  1.00  0.00     0.009 A 
ATOM     26  C   UNL A   1      31.105  27.246  22.654  1.00  0.00     0.009 A 
ATOM     27  C   UNL A   1      28.458  27.435  23.570  1.00  0.00     0.021 A 
ATOM     28  C   UNL A   1      30.357  28.402  22.403  1.00  0.00     0.021 A 
ATOM     29  C   UNL A   1      29.045  28.496  22.877  1.00  0.00     0.067 A 
BRANCH  29  30
ATOM     30  S   UNL A   1      28.147  30.025  22.732  1.00  0.00     0.175 S 
ATOM     31  C   UNL A   1      29.151  31.198  23.598  1.00  0.00     0.163 C 
ATOM     32  O   UNL A   1      28.145  30.380  21.326  1.00  0.00    -0.224 OA
ATOM     33  O   UNL A   1      26.902  29.875  23.463  1.00  0.00    -0.224 OA
ENDBRANCH  29  30
ENDBRANCH   7  24
ENDBRANCH   3   6
ENDBRANCH   1   2
BRANCH   1  34
ATOM     34  C   UNL A   1      36.110  22.770  24.022  1.00  0.00     0.042 C 
BRANCH  34  35
ATOM     35  C   UNL A   1      36.609  22.761  25.466  1.00  0.00     0.118 C 
BRANCH  35  36
ATOM     36  N   UNL A   1      37.409  21.581  25.758  1.00  0.00    -0.352 N 
ATOM     37  C   UNL A   1      38.728  21.483  26.121  1.00  0.00     0.251 C 
ATOM     38  H   UNL A   1      36.930  20.722  25.685  1.00  0.00     0.163 HD
ATOM     39  O   UNL A   1      39.295  20.395  26.081  1.00  0.00    -0.269 OA
BRANCH  37  40
ATOM     40  C   UNL A   1      39.474  22.683  26.554  1.00  0.00     0.039 A 
ATOM     41  C   UNL A   1      40.528  22.539  27.460  1.00  0.00     0.014 A 
ATOM     42  C   UNL A   1      39.109  23.954  26.100  1.00  0.00     0.014 A 
ATOM     43  C   UNL A   1      41.250  23.663  27.870  1.00  0.00     0.010 A 
ATOM     44  C   UNL A   1      39.874  25.062  26.452  1.00  0.00     0.010 A 
ATOM     45  C   UNL A   1      40.948  24.929  27.346  1.00  0.00    -0.014 A 
BRANCH  45  46
ATOM     46  C   UNL A   1      41.727  26.136  27.722  1.00  0.00     0.031 A 
ATOM     47  C   UNL A   1      41.095  27.194  28.585  1.00  0.00     0.074 A 
ATOM     48  C   UNL A   1      42.961  26.321  27.216  1.00  0.00     0.049 A 
ATOM     49  N   UNL A   1      41.546  28.380  28.908  1.00  0.00    -0.248 NA
ATOM     50  C   UNL A   1      39.764  26.888  29.134  1.00  0.00     0.031 C 
ATOM     51  C   UNL A   1      43.666  25.383  26.340  1.00  0.00     0.029 A 
ATOM     52  N   UNL A   1      43.835  27.372  27.347  1.00  0.00    -0.354 N 
ATOM     53  C   UNL A   1      40.546  28.968  29.672  1.00  0.00     0.074 A 
ATOM     54  C   UNL A   1      39.448  28.030  29.730  1.00  0.00     0.031 C 
ATOM     55  C   UNL A   1      44.864  25.898  26.017  1.00  0.00     0.029 A 
ATOM     56  C   UNL A   1      44.993  27.219  26.624  1.00  0.00     0.049 A 
ATOM     57  H   UNL A   1      43.649  28.162  27.906  1.00  0.00     0.167 HD
ATOM     58  C   UNL A   1      40.555  30.176  30.284  1.00  0.00     0.037 A 
ATOM     59  C   UNL A   1      46.033  28.059  26.453  1.00  0.00     0.037 A 
ATOM     60  C   UNL A   1      41.665  31.090  30.251  1.00  0.00     0.049 A 
ATOM     61  C   UNL A   1      46.012  29.398  27.143  1.00  0.00     0.074 A 
ATOM     62  C   UNL A   1      41.799  32.309  30.892  1.00  0.00     0.029 A 
ATOM     63  N   UNL A   1      42.837  30.882  29.539  1.00  0.00    -0.354 N 
ATOM     64  N   UNL A   1      45.089  29.919  27.914  1.00  0.00    -0.248 NA
ATOM     65  C   UNL A   1      47.181  30.266  26.943  1.00  0.00     0.031 C 
ATOM     66  C   UNL A   1      43.030  32.861  30.528  1.00  0.00     0.029 A 
ATOM     67  C   UNL A   1      43.690  31.961  29.708  1.00  0.00     0.049 A 
ATOM     68  H   UNL A   1      43.034  30.086  28.994  1.00  0.00     0.167 HD
ATOM     69  C   UNL A   1      45.579  31.152  28.319  1.00  0.00     0.074 A 
ATOM     70  C   UNL A   1      46.887  31.301  27.716  1.00  0.00     0.031 C 
ATOM     71  C   UNL A   1      44.999  32.080  29.118  1.00  0.00     0.037 A 
BRANCH  58  72
ATOM     72  C   UNL A   1      39.328  30.585  31.047  1.00  0.00     0.064 A 
ATOM     73  C   UNL A   1      39.131  30.208  32.384  1.00  0.00     0.173 A 
ATOM     74  C   UNL A   1      38.363  31.412  30.450  1.00  0.00     0.173 A 
ATOM     75  F   UNL A   1      40.018  29.410  32.998  1.00  0.00    -0.203 F 
ATOM     76  C   UNL A   1      38.006  30.625  33.088  1.00  0.00     0.198 A 
ATOM     77  C   UNL A   1      37.255  31.852  31.168  1.00  0.00     0.198 A 
ATOM     78  F   UNL A   1      38.505  31.807  29.177  1.00  0.00    -0.203 F 
ATOM     79  F   UNL A   1      37.819  30.218  34.352  1.00  0.00    -0.200 F 
ATOM     80  C   UNL A   1      37.073  31.454  32.483  1.00  0.00     0.200 A 
ATOM     81  F   UNL A   1      36.362  32.666  30.586  1.00  0.00    -0.200 F 
ATOM     82  F   UNL A   1      35.997  31.867  33.167  1.00  0.00    -0.200 F 
ENDBRANCH  58  72
BRANCH  59  83
ATOM     83  C   UNL A   1      47.184  27.663  25.600  1.00  0.00     0.064 A 
ATOM     84  C   UNL A   1      48.364  27.162  26.169  1.00  0.00     0.173 A 
ATOM     85  C   UNL A   1      47.139  27.794  24.205  1.00  0.00     0.173 A 
ATOM     86  F   UNL A   1      48.462  27.035  27.501  1.00  0.00    -0.203 F 
ATOM     87  C   UNL A   1      49.465  26.838  25.378  1.00  0.00     0.198 A 
ATOM     88  C   UNL A   1      48.229  27.439  23.412  1.00  0.00     0.198 A 
ATOM     89  F   UNL A   1      46.033  28.259  23.607  1.00  0.00    -0.203 F 
ATOM     90  F   UNL A   1      50.598  26.415  25.954  1.00  0.00    -0.200 F 
ATOM     91  C   UNL A   1      49.394  26.972  24.001  1.00  0.00     0.200 A 
ATOM     92  F   UNL A   1      48.152  27.553  22.079  1.00  0.00    -0.200 F 
ATOM     93  F   UNL A   1      50.453  26.660  23.241  1.00  0.00    -0.200 F 
ENDBRANCH  59  83
BRANCH  71  94
ATOM     94  C   UNL A   1      45.791  33.314  29.439  1.00  0.00     0.064 A 
ATOM     95  C   UNL A   1      45.694  34.476  28.662  1.00  0.00     0.173 A 
ATOM     96  C   UNL A   1      46.613  33.348  30.576  1.00  0.00     0.173 A 
ATOM     97  F   UNL A   1      44.934  34.489  27.556  1.00  0.00    -0.203 F 
ATOM     98  C   UNL A   1      46.405  35.624  29.002  1.00  0.00     0.198 A 
ATOM     99  C   UNL A   1      47.298  34.506  30.930  1.00  0.00     0.198 A 
ATOM    100  F   UNL A   1      46.734  32.263  31.356  1.00  0.00    -0.203 F 
ATOM    101  F   UNL A   1      46.330  36.711  28.223  1.00  0.00    -0.200 F 
ATOM    102  C   UNL A   1      47.198  35.641  30.141  1.00  0.00     0.200 A 
ATOM    103  F   UNL A   1      48.051  34.525  32.039  1.00  0.00    -0.200 F 
ATOM    104  F   UNL A   1      47.870  36.752  30.474  1.00  0.00    -0.200 F 
ENDBRANCH  71  94
ENDBRANCH  45  46
ENDBRANCH  37  40
ENDBRANCH  35  36
ENDBRANCH  34  35
ENDBRANCH   1  34
TORSDOF 16
ENDMDL
MODEL 3
REMARK VINA RESULT:     -12.6      5.314      9.589
REMARK SMILES CC(C)Oc1ccc(-c2ccc(/C(=C\c3ccc(S(C)(=O)=O)cc3)C(=O)NCCCNC(=O)c3ccc(-c4c5nc(c(-c6c(F)c(F)c(F)c(F)c6F)c6ccc([nH]6)c(-c6c(F)c(F)c(F)c(F)c6F)c6nc(c(-c7c(F)c(F)c(F)c(F)c7F)c7ccc4[nH]7)C=C6)C=C5)cc3)cc2)cc1
REMARK SMILES IDX 28 1 27 2 25 3 26 4 13 6 14 7 12 8 9 9 10 10 98 11 11 12
REMARK SMILES IDX 97 13 8 14 5 15 6 16 100 17 7 18 99 19 4 20 2 21 1 22 3 23
REMARK SMILES IDX 15 24 16 25 24 26 17 27 23 28 18 29 19 30 20 31 21 32 22 33
REMARK SMILES IDX 29 34 30 35 31 36 32 37 33 39 34 40 35 41 96 42 36 43 95 44
REMARK SMILES IDX 37 45 38 46 39 47 89 48 40 49 94 50 88 51 90 52 41 53 93 54
REMARK SMILES IDX 87 55 86 56 42 58 74 59 54 60 73 61 55 62 58 63 72 64 91 65
REMARK SMILES IDX 56 66 57 67 71 69 92 70 59 71 43 72 44 73 52 74 45 75 46 76
REMARK SMILES IDX 50 77 53 78 47 79 48 80 51 81 49 82 75 83 76 84 84 85 77 86
REMARK SMILES IDX 78 87 82 88 85 89 79 90 80 91 83 92 81 93 60 94 61 95 69 96
REMARK SMILES IDX 62 97 63 98 67 99 70 100 64 101 65 102 68 103 66 104
REMARK H PARENT 27 5 31 38 90 57 58 68
REMARK Flexibility Score: inf
ROOT
ATOM      1  C   UNL A   1      42.976  23.824  26.105  1.00  0.00     0.118 C 
ENDROOT
BRANCH   1   2
ATOM      2  N   UNL A   1      43.450  23.922  27.472  1.00  0.00    -0.352 N 
ATOM      3  C   UNL A   1      44.550  24.446  28.077  1.00  0.00     0.251 C 
ATOM      4  O   UNL A   1      44.589  24.257  29.295  1.00  0.00    -0.269 OA
ATOM      5  H   UNL A   1      42.828  23.511  28.115  1.00  0.00     0.163 HD
BRANCH   3   6
ATOM      6  C   UNL A   1      45.619  25.255  27.354  1.00  0.00     0.047 C 
ATOM      7  C   UNL A   1      46.745  24.609  26.959  1.00  0.00     0.022 C 
BRANCH   6   8
ATOM      8  C   UNL A   1      45.496  26.759  27.272  1.00  0.00    -0.013 A 
ATOM      9  C   UNL A   1      44.921  29.572  27.532  1.00  0.00    -0.018 A 
ATOM     10  C   UNL A   1      46.063  28.995  28.099  1.00  0.00     0.009 A 
ATOM     11  C   UNL A   1      44.149  28.736  26.717  1.00  0.00     0.009 A 
ATOM     12  C   UNL A   1      46.370  27.635  27.925  1.00  0.00     0.009 A 
ATOM     13  C   UNL A   1      44.411  27.361  26.618  1.00  0.00     0.009 A 
BRANCH   9  14
ATOM     14  C   UNL A   1      44.512  30.967  27.829  1.00  0.00    -0.018 A 
ATOM     15  C   UNL A   1      43.884  33.668  28.424  1.00  0.00     0.119 A 
ATOM     16  C   UNL A   1      43.908  33.225  27.105  1.00  0.00     0.047 A 
ATOM     17  C   UNL A   1      44.112  32.765  29.452  1.00  0.00     0.047 A 
ATOM     18  C   UNL A   1      44.219  31.892  26.812  1.00  0.00     0.012 A 
ATOM     19  C   UNL A   1      44.443  31.437  29.155  1.00  0.00     0.012 A 
BRANCH  15  20
ATOM     20  O   UNL A   1      43.523  34.963  28.645  1.00  0.00    -0.491 OA
BRANCH  20  21
ATOM     21  C   UNL A   1      42.206  35.369  28.228  1.00  0.00     0.167 C 
ATOM     22  C   UNL A   1      41.130  35.021  29.253  1.00  0.00     0.052 C 
ATOM     23  C   UNL A   1      42.106  36.814  27.741  1.00  0.00     0.052 C 
ENDBRANCH  20  21
ENDBRANCH  15  20
ENDBRANCH   9  14
ENDBRANCH   6   8
BRANCH   7  24
ATOM     24  C   UNL A   1      47.846  25.099  26.118  1.00  0.00    -0.025 A 
ATOM     25  C   UNL A   1      47.542  25.473  24.797  1.00  0.00     0.009 A 
ATOM     26  C   UNL A   1      49.137  25.299  26.615  1.00  0.00     0.009 A 
ATOM     27  C   UNL A   1      48.495  26.113  24.006  1.00  0.00     0.021 A 
ATOM     28  C   UNL A   1      50.098  25.939  25.824  1.00  0.00     0.021 A 
ATOM     29  C   UNL A   1      49.765  26.357  24.531  1.00  0.00     0.067 A 
BRANCH  29  30
ATOM     30  S   UNL A   1      50.910  27.336  23.585  1.00  0.00     0.175 S 
ATOM     31  C   UNL A   1      52.499  26.703  24.044  1.00  0.00     0.163 C 
ATOM     32  O   UNL A   1      50.682  27.019  22.189  1.00  0.00    -0.224 OA
ATOM     33  O   UNL A   1      50.819  28.703  24.061  1.00  0.00    -0.224 OA
ENDBRANCH  29  30
ENDBRANCH   7  24
ENDBRANCH   3   6
ENDBRANCH   1   2
BRANCH   1  34
ATOM     34  C   UNL A   1      42.282  22.479  25.869  1.00  0.00     0.042 C 
BRANCH  34  35
ATOM     35  C   UNL A   1      41.071  22.254  26.771  1.00  0.00     0.118 C 
BRANCH  35  36
ATOM     36  N   UNL A   1      39.822  22.572  26.094  1.00  0.00    -0.352 N 
ATOM     37  C   UNL A   1      38.967  23.628  26.282  1.00  0.00     0.251 C 
ATOM     38  H   UNL A   1      39.550  21.932  25.396  1.00  0.00     0.163 HD
ATOM     39  O   UNL A   1      37.840  23.596  25.797  1.00  0.00    -0.269 OA
BRANCH  37  40
ATOM     40  C   UNL A   1      39.393  24.802  27.071  1.00  0.00     0.039 A 
ATOM     41  C   UNL A   1      40.157  25.796  26.454  1.00  0.00     0.014 A 
ATOM     42  C   UNL A   1      39.077  24.904  28.429  1.00  0.00     0.014 A 
ATOM     43  C   UNL A   1      40.558  26.919  27.184  1.00  0.00     0.010 A 
ATOM     44  C   UNL A   1      39.415  26.054  29.135  1.00  0.00     0.010 A 
ATOM     45  C   UNL A   1      40.164  27.070  28.522  1.00  0.00    -0.014 A 
BRANCH  45  46
ATOM     46  C   UNL A   1      40.531  28.273  29.312  1.00  0.00     0.031 A 
ATOM     47  C   UNL A   1      41.855  28.323  30.026  1.00  0.00     0.074 A 
ATOM     48  C   UNL A   1      39.642  29.273  29.460  1.00  0.00     0.049 A 
ATOM     49  N   UNL A   1      42.305  29.210  30.877  1.00  0.00    -0.248 NA
ATOM     50  C   UNL A   1      42.784  27.211  29.769  1.00  0.00     0.031 C 
ATOM     51  C   UNL A   1      38.314  29.323  28.847  1.00  0.00     0.029 A 
ATOM     52  N   UNL A   1      39.712  30.433  30.193  1.00  0.00    -0.354 N 
ATOM     53  C   UNL A   1      43.553  28.749  31.276  1.00  0.00     0.074 A 
ATOM     54  C   UNL A   1      43.773  27.485  30.609  1.00  0.00     0.031 C 
ATOM     55  C   UNL A   1      37.697  30.455  29.224  1.00  0.00     0.029 A 
ATOM     56  C   UNL A   1      38.566  31.188  30.139  1.00  0.00     0.049 A 
ATOM     57  H   UNL A   1      40.508  30.698  30.708  1.00  0.00     0.167 HD
ATOM     58  C   UNL A   1      44.442  29.339  32.111  1.00  0.00     0.037 A 
ATOM     59  C   UNL A   1      38.244  32.332  30.774  1.00  0.00     0.037 A 
ATOM     60  C   UNL A   1      44.232  30.614  32.743  1.00  0.00     0.049 A 
ATOM     61  C   UNL A   1      39.251  32.963  31.700  1.00  0.00     0.074 A 
ATOM     62  C   UNL A   1      45.096  31.328  33.553  1.00  0.00     0.029 A 
ATOM     63  N   UNL A   1      43.072  31.367  32.633  1.00  0.00    -0.354 N 
ATOM     64  N   UNL A   1      40.453  32.551  32.021  1.00  0.00    -0.248 NA
ATOM     65  C   UNL A   1      38.858  34.222  32.349  1.00  0.00     0.031 C 
ATOM     66  C   UNL A   1      44.442  32.489  33.974  1.00  0.00     0.029 A 
ATOM     67  C   UNL A   1      43.191  32.528  33.379  1.00  0.00     0.049 A 
ATOM     68  H   UNL A   1      42.281  31.113  32.105  1.00  0.00     0.167 HD
ATOM     69  C   UNL A   1      40.972  33.513  32.876  1.00  0.00     0.074 A 
ATOM     70  C   UNL A   1      39.958  34.537  33.018  1.00  0.00     0.031 C 
ATOM     71  C   UNL A   1      42.180  33.547  33.489  1.00  0.00     0.037 A 
BRANCH  58  72
ATOM     72  C   UNL A   1      45.729  28.617  32.389  1.00  0.00     0.064 A 
ATOM     73  C   UNL A   1      46.925  28.965  31.743  1.00  0.00     0.173 A 
ATOM     74  C   UNL A   1      45.778  27.602  33.357  1.00  0.00     0.173 A 
ATOM     75  F   UNL A   1      46.930  29.922  30.803  1.00  0.00    -0.203 F 
ATOM     76  C   UNL A   1      48.117  28.310  32.039  1.00  0.00     0.198 A 
ATOM     77  C   UNL A   1      46.978  26.971  33.673  1.00  0.00     0.198 A 
ATOM     78  F   UNL A   1      44.666  27.234  34.009  1.00  0.00    -0.203 F 
ATOM     79  F   UNL A   1      49.238  28.632  31.379  1.00  0.00    -0.200 F 
ATOM     80  C   UNL A   1      48.145  27.320  33.010  1.00  0.00     0.200 A 
ATOM     81  F   UNL A   1      47.006  26.024  34.622  1.00  0.00    -0.200 F 
ATOM     82  F   UNL A   1      49.296  26.700  33.304  1.00  0.00    -0.200 F 
ENDBRANCH  58  72
BRANCH  59  83
ATOM     83  C   UNL A   1      36.914  32.961  30.557  1.00  0.00     0.064 A 
ATOM     84  C   UNL A   1      35.910  32.879  31.532  1.00  0.00     0.173 A 
ATOM     85  C   UNL A   1      36.612  33.639  29.367  1.00  0.00     0.173 A 
ATOM     86  F   UNL A   1      36.144  32.226  32.680  1.00  0.00    -0.203 F 
ATOM     87  C   UNL A   1      34.646  33.422  31.312  1.00  0.00     0.198 A 
ATOM     88  C   UNL A   1      35.358  34.211  29.161  1.00  0.00     0.198 A 
ATOM     89  F   UNL A   1      37.539  33.755  28.404  1.00  0.00    -0.203 F 
ATOM     90  F   UNL A   1      33.688  33.279  32.238  1.00  0.00    -0.200 F 
ATOM     91  C   UNL A   1      34.373  34.091  30.129  1.00  0.00     0.200 A 
ATOM     92  F   UNL A   1      35.103  34.871  28.024  1.00  0.00    -0.200 F 
ATOM     93  F   UNL A   1      33.157  34.614  29.919  1.00  0.00    -0.200 F 
ENDBRANCH  59  83
BRANCH  71  94
ATOM     94  C   UNL A   1      42.502  34.753  34.323  1.00  0.00     0.064 A 
ATOM     95  C   UNL A   1      42.329  34.756  35.714  1.00  0.00     0.173 A 
ATOM     96  C   UNL A   1      43.048  35.900  33.724  1.00  0.00     0.173 A 
ATOM     97  F   UNL A   1      41.795  33.691  36.331  1.00  0.00    -0.203 F 
ATOM     98  C   UNL A   1      42.674  35.871  36.474  1.00  0.00     0.198 A 
ATOM     99  C   UNL A   1      43.421  36.999  34.491  1.00  0.00     0.198 A 
ATOM    100  F   UNL A   1      43.239  35.943  32.397  1.00  0.00    -0.203 F 
ATOM    101  F   UNL A   1      42.461  35.868  37.797  1.00  0.00    -0.200 F 
ATOM    102  C   UNL A   1      43.228  36.986  35.863  1.00  0.00     0.200 A 
ATOM    103  F   UNL A   1      43.971  38.069  33.900  1.00  0.00    -0.200 F 
ATOM    104  F   UNL A   1      43.573  38.052  36.599  1.00  0.00    -0.200 F 
ENDBRANCH  71  94
ENDBRANCH  45  46
ENDBRANCH  37  40
ENDBRANCH  35  36
ENDBRANCH  34  35
ENDBRANCH   1  34
TORSDOF 16
ENDMDL
