MODEL 1
REMARK VINA RESULT:     -11.8      0.000      0.000
REMARK SMILES Cc1ccsc1CNS(=O)(=O)c1ccc(C(=O)NCCCNC(=O)c2ccc(-c3c4nc(c(-c5c(F)c(F)c(F)c(F)c5F)c5ccc([nH]5)c(-c5c(F)c(F)c(F)c(F)c5F)c5nc(c(-c6c(F)c(F)c(F)c(F)c6F)c6ccc3[nH]6)C=C5)C=C4)cc2)s1
REMARK SMILES IDX 19 1 18 2 16 3 17 4 15 6 12 7 13 8 88 9 14 10 9 11 10 12
REMARK SMILES IDX 11 13 8 14 7 16 6 17 1 18 2 19 3 20 4 21 5 22 20 23 21 24
REMARK SMILES IDX 22 25 23 26 24 28 25 29 26 30 87 31 27 32 86 33 28 34 29 35
REMARK SMILES IDX 30 36 80 37 31 38 85 39 79 40 81 41 32 42 84 43 78 44 77 45
REMARK SMILES IDX 33 47 65 48 45 49 64 50 46 51 49 52 63 53 82 54 47 55 48 56
REMARK SMILES IDX 62 58 83 59 50 60 34 61 35 62 43 63 36 64 37 65 41 66 44 67
REMARK SMILES IDX 38 68 39 69 42 70 40 71 66 72 67 73 75 74 68 75 69 76 73 77
REMARK SMILES IDX 76 78 70 79 71 80 74 81 72 82 51 83 52 84 60 85 53 86 54 87
REMARK SMILES IDX 58 88 61 89 55 90 56 91 59 92 57 93
REMARK H PARENT 18 5 8 15 22 27 81 46 49 57
REMARK Flexibility Score: inf
ROOT
ATOM      1  C   UNL A   1      31.773  30.570  26.874  1.00  0.00     0.118 C 
ENDROOT
BRANCH   1   2
ATOM      2  N   UNL A   1      33.160  30.324  27.211  1.00  0.00    -0.351 N 
ATOM      3  C   UNL A   1      34.011  29.292  26.900  1.00  0.00     0.261 C 
ATOM      4  O   UNL A   1      35.161  29.423  27.327  1.00  0.00    -0.268 OA
ATOM      5  H   UNL A   1      33.569  31.027  27.765  1.00  0.00     0.163 HD
BRANCH   3   6
ATOM      6  C   UNL A   1      33.581  28.160  26.088  1.00  0.00     0.093 A 
ATOM      7  C   UNL A   1      32.874  26.872  24.079  1.00  0.00     0.135 A 
ATOM      8  C   UNL A   1      32.716  26.154  25.246  1.00  0.00     0.034 A 
ATOM      9  S   UNL A   1      33.627  28.365  24.379  1.00  0.00    -0.117 S 
ATOM     10  C   UNL A   1      33.150  26.882  26.396  1.00  0.00     0.027 A 
BRANCH   7  11
ATOM     11  S   UNL A   1      32.441  26.477  22.402  1.00  0.00     0.250 S 
ATOM     12  O   UNL A   1      32.205  25.049  22.416  1.00  0.00    -0.206 OA
ATOM     13  O   UNL A   1      33.509  27.048  21.612  1.00  0.00    -0.206 OA
BRANCH  11  14
ATOM     14  N   UNL A   1      31.026  27.231  21.911  1.00  0.00    -0.205 NA
ATOM     15  H   UNL A   1      31.279  28.140  21.526  1.00  0.00     0.141 HD
BRANCH  14  16
ATOM     16  C   UNL A   1      30.000  27.456  22.939  1.00  0.00     0.145 C 
BRANCH  16  17
ATOM     17  C   UNL A   1      29.281  28.750  22.652  1.00  0.00     0.022 A 
ATOM     18  C   UNL A   1      26.908  28.203  23.501  1.00  0.00     0.045 C 
ATOM     19  C   UNL A   1      27.952  29.080  22.887  1.00  0.00    -0.036 A 
ATOM     20  C   UNL A   1      27.673  30.427  22.472  1.00  0.00     0.015 A 
ATOM     21  C   UNL A   1      28.777  31.070  21.966  1.00  0.00     0.065 A 
ATOM     22  S   UNL A   1      30.160  30.078  21.999  1.00  0.00    -0.147 S 
ENDBRANCH  16  17
ENDBRANCH  14  16
ENDBRANCH  11  14
ENDBRANCH   7  11
ENDBRANCH   3   6
ENDBRANCH   1   2
BRANCH   1  23
ATOM     23  C   UNL A   1      31.460  32.064  26.885  1.00  0.00     0.042 C 
BRANCH  23  24
ATOM     24  C   UNL A   1      32.713  32.940  26.888  1.00  0.00     0.118 C 
BRANCH  24  25
ATOM     25  N   UNL A   1      32.489  34.206  27.571  1.00  0.00    -0.352 N 
ATOM     26  C   UNL A   1      33.028  34.693  28.734  1.00  0.00     0.251 C 
ATOM     27  H   UNL A   1      31.849  34.809  27.126  1.00  0.00     0.163 HD
ATOM     28  O   UNL A   1      32.534  35.687  29.259  1.00  0.00    -0.269 OA
BRANCH  26  29
ATOM     29  C   UNL A   1      34.192  34.034  29.367  1.00  0.00     0.039 A 
ATOM     30  C   UNL A   1      35.477  34.445  28.999  1.00  0.00     0.014 A 
ATOM     31  C   UNL A   1      34.028  32.976  30.265  1.00  0.00     0.014 A 
ATOM     32  C   UNL A   1      36.595  33.827  29.565  1.00  0.00     0.010 A 
ATOM     33  C   UNL A   1      35.142  32.403  30.877  1.00  0.00     0.010 A 
ATOM     34  C   UNL A   1      36.436  32.818  30.527  1.00  0.00    -0.014 A 
BRANCH  34  35
ATOM     35  C   UNL A   1      37.610  32.174  31.168  1.00  0.00     0.031 A 
ATOM     36  C   UNL A   1      38.381  31.109  30.439  1.00  0.00     0.074 A 
ATOM     37  C   UNL A   1      37.944  32.504  32.431  1.00  0.00     0.049 A 
ATOM     38  N   UNL A   1      39.374  30.367  30.860  1.00  0.00    -0.248 NA
ATOM     39  C   UNL A   1      37.964  30.822  29.057  1.00  0.00     0.031 C 
ATOM     40  C   UNL A   1      37.251  33.494  33.256  1.00  0.00     0.029 A 
ATOM     41  N   UNL A   1      38.941  32.031  33.247  1.00  0.00    -0.354 N 
ATOM     42  C   UNL A   1      39.686  29.517  29.808  1.00  0.00     0.074 A 
ATOM     43  C   UNL A   1      38.749  29.804  28.741  1.00  0.00     0.031 C 
ATOM     44  C   UNL A   1      37.851  33.565  34.455  1.00  0.00     0.029 A 
ATOM     45  C   UNL A   1      38.947  32.601  34.496  1.00  0.00     0.049 A 
ATOM     46  H   UNL A   1      39.590  31.347  32.963  1.00  0.00     0.167 HD
ATOM     47  C   UNL A   1      40.675  28.595  29.731  1.00  0.00     0.037 A 
ATOM     48  C   UNL A   1      39.741  32.365  35.557  1.00  0.00     0.037 A 
ATOM     49  C   UNL A   1      41.624  28.335  30.781  1.00  0.00     0.049 A 
ATOM     50  C   UNL A   1      40.835  31.338  35.443  1.00  0.00     0.074 A 
ATOM     51  C   UNL A   1      42.696  27.459  30.780  1.00  0.00     0.029 A 
ATOM     52  N   UNL A   1      41.616  28.955  32.022  1.00  0.00    -0.354 N 
ATOM     53  N   UNL A   1      41.154  30.579  34.422  1.00  0.00    -0.248 NA
ATOM     54  C   UNL A   1      41.684  31.141  36.626  1.00  0.00     0.031 C 
ATOM     55  C   UNL A   1      43.315  27.523  32.032  1.00  0.00     0.029 A 
ATOM     56  C   UNL A   1      42.656  28.470  32.799  1.00  0.00     0.049 A 
ATOM     57  H   UNL A   1      40.967  29.638  32.308  1.00  0.00     0.167 HD
ATOM     58  C   UNL A   1      42.255  29.838  34.829  1.00  0.00     0.074 A 
ATOM     59  C   UNL A   1      42.557  30.247  36.185  1.00  0.00     0.031 C 
ATOM     60  C   UNL A   1      42.951  28.901  34.141  1.00  0.00     0.037 A 
BRANCH  47  61
ATOM     61  C   UNL A   1      40.788  27.801  28.463  1.00  0.00     0.064 A 
ATOM     62  C   UNL A   1      41.582  28.237  27.392  1.00  0.00     0.173 A 
ATOM     63  C   UNL A   1      40.133  26.567  28.333  1.00  0.00     0.173 A 
ATOM     64  F   UNL A   1      42.221  29.415  27.461  1.00  0.00    -0.203 F 
ATOM     65  C   UNL A   1      41.696  27.481  26.229  1.00  0.00     0.198 A 
ATOM     66  C   UNL A   1      40.271  25.799  27.179  1.00  0.00     0.198 A 
ATOM     67  F   UNL A   1      39.366  26.100  29.329  1.00  0.00    -0.203 F 
ATOM     68  F   UNL A   1      42.425  27.939  25.202  1.00  0.00    -0.200 F 
ATOM     69  C   UNL A   1      41.046  26.260  26.126  1.00  0.00     0.200 A 
ATOM     70  F   UNL A   1      39.653  24.614  27.086  1.00  0.00    -0.200 F 
ATOM     71  F   UNL A   1      41.164  25.528  25.009  1.00  0.00    -0.200 F 
ENDBRANCH  47  61
BRANCH  48  72
ATOM     72  C   UNL A   1      39.546  33.130  36.816  1.00  0.00     0.064 A 
ATOM     73  C   UNL A   1      38.622  32.703  37.780  1.00  0.00     0.173 A 
ATOM     74  C   UNL A   1      40.269  34.302  37.077  1.00  0.00     0.173 A 
ATOM     75  F   UNL A   1      37.893  31.599  37.565  1.00  0.00    -0.203 F 
ATOM     76  C   UNL A   1      38.413  33.433  38.948  1.00  0.00     0.198 A 
ATOM     77  C   UNL A   1      40.078  35.016  38.259  1.00  0.00     0.198 A 
ATOM     78  F   UNL A   1      41.170  34.750  36.190  1.00  0.00    -0.203 F 
ATOM     79  F   UNL A   1      37.490  33.027  39.831  1.00  0.00    -0.200 F 
ATOM     80  C   UNL A   1      39.144  34.586  39.189  1.00  0.00     0.200 A 
ATOM     81  F   UNL A   1      40.796  36.123  38.495  1.00  0.00    -0.200 F 
ATOM     82  F   UNL A   1      38.943  35.286  40.314  1.00  0.00    -0.200 F 
ENDBRANCH  48  72
BRANCH  60  83
ATOM     83  C   UNL A   1      44.134  28.283  34.827  1.00  0.00     0.064 A 
ATOM     84  C   UNL A   1      44.018  27.096  35.565  1.00  0.00     0.173 A 
ATOM     85  C   UNL A   1      45.405  28.867  34.712  1.00  0.00     0.173 A 
ATOM     86  F   UNL A   1      42.821  26.510  35.718  1.00  0.00    -0.203 F 
ATOM     87  C   UNL A   1      45.129  26.528  36.183  1.00  0.00     0.198 A 
ATOM     88  C   UNL A   1      46.518  28.281  35.307  1.00  0.00     0.198 A 
ATOM     89  F   UNL A   1      45.567  29.999  34.011  1.00  0.00    -0.203 F 
ATOM     90  F   UNL A   1      44.989  25.418  36.921  1.00  0.00    -0.200 F 
ATOM     91  C   UNL A   1      46.378  27.116  36.047  1.00  0.00     0.200 A 
ATOM     92  F   UNL A   1      47.725  28.844  35.167  1.00  0.00    -0.200 F 
ATOM     93  F   UNL A   1      47.447  26.564  36.638  1.00  0.00    -0.200 F 
ENDBRANCH  60  83
ENDBRANCH  34  35
ENDBRANCH  26  29
ENDBRANCH  24  25
ENDBRANCH  23  24
ENDBRANCH   1  23
TORSDOF 14
ENDMDL
MODEL 2
REMARK VINA RESULT:     -11.7      6.198     11.431
REMARK SMILES Cc1ccsc1CNS(=O)(=O)c1ccc(C(=O)NCCCNC(=O)c2ccc(-c3c4nc(c(-c5c(F)c(F)c(F)c(F)c5F)c5ccc([nH]5)c(-c5c(F)c(F)c(F)c(F)c5F)c5nc(c(-c6c(F)c(F)c(F)c(F)c6F)c6ccc3[nH]6)C=C5)C=C4)cc2)s1
REMARK SMILES IDX 19 1 18 2 16 3 17 4 15 6 12 7 13 8 88 9 14 10 9 11 10 12
REMARK SMILES IDX 11 13 8 14 7 16 6 17 1 18 2 19 3 20 4 21 5 22 20 23 21 24
REMARK SMILES IDX 22 25 23 26 24 28 25 29 26 30 87 31 27 32 86 33 28 34 29 35
REMARK SMILES IDX 30 36 80 37 31 38 85 39 79 40 81 41 32 42 84 43 78 44 77 45
REMARK SMILES IDX 33 47 65 48 45 49 64 50 46 51 49 52 63 53 82 54 47 55 48 56
REMARK SMILES IDX 62 58 83 59 50 60 34 61 35 62 43 63 36 64 37 65 41 66 44 67
REMARK SMILES IDX 38 68 39 69 42 70 40 71 66 72 67 73 75 74 68 75 69 76 73 77
REMARK SMILES IDX 76 78 70 79 71 80 74 81 72 82 51 83 52 84 60 85 53 86 54 87
REMARK SMILES IDX 58 88 61 89 55 90 56 91 59 92 57 93
REMARK H PARENT 18 5 8 15 22 27 81 46 49 57
REMARK Flexibility Score: inf
ROOT
ATOM      1  C   UNL A   1      37.457  20.834  24.618  1.00  0.00     0.118 C 
ENDROOT
BRANCH   1   2
ATOM      2  N   UNL A   1      37.976  22.003  25.296  1.00  0.00    -0.351 N 
ATOM      3  C   UNL A   1      37.381  23.177  25.688  1.00  0.00     0.261 C 
ATOM      4  O   UNL A   1      38.124  23.959  26.288  1.00  0.00    -0.268 OA
ATOM      5  H   UNL A   1      38.934  21.947  25.516  1.00  0.00     0.163 HD
BRANCH   3   6
ATOM      6  C   UNL A   1      35.968  23.440  25.445  1.00  0.00     0.093 A 
ATOM      7  C   UNL A   1      33.495  23.221  25.622  1.00  0.00     0.135 A 
ATOM      8  C   UNL A   1      33.876  24.061  24.597  1.00  0.00     0.034 A 
ATOM      9  S   UNL A   1      34.842  22.707  26.521  1.00  0.00    -0.117 S 
ATOM     10  C   UNL A   1      35.294  24.211  24.514  1.00  0.00     0.027 A 
BRANCH   7  11
ATOM     11  S   UNL A   1      31.891  22.642  26.119  1.00  0.00     0.250 S 
ATOM     12  O   UNL A   1      30.963  23.456  25.362  1.00  0.00    -0.206 OA
ATOM     13  O   UNL A   1      31.921  22.696  27.563  1.00  0.00    -0.206 OA
BRANCH  11  14
ATOM     14  N   UNL A   1      31.631  21.039  25.704  1.00  0.00    -0.205 NA
ATOM     15  H   UNL A   1      32.060  20.461  26.425  1.00  0.00     0.141 HD
BRANCH  14  16
ATOM     16  C   UNL A   1      32.158  20.592  24.407  1.00  0.00     0.145 C 
BRANCH  16  17
ATOM     17  C   UNL A   1      32.528  19.133  24.494  1.00  0.00     0.022 A 
ATOM     18  C   UNL A   1      32.489  18.458  22.005  1.00  0.00     0.045 C 
ATOM     19  C   UNL A   1      32.671  18.206  23.468  1.00  0.00    -0.036 A 
ATOM     20  C   UNL A   1      33.045  16.919  23.984  1.00  0.00     0.015 A 
ATOM     21  C   UNL A   1      33.192  16.912  25.350  1.00  0.00     0.065 A 
ATOM     22  S   UNL A   1      32.903  18.448  26.028  1.00  0.00    -0.147 S 
ENDBRANCH  16  17
ENDBRANCH  14  16
ENDBRANCH  11  14
ENDBRANCH   7  11
ENDBRANCH   3   6
ENDBRANCH   1   2
BRANCH   1  23
ATOM     23  C   UNL A   1      38.301  19.600  24.925  1.00  0.00     0.042 C 
BRANCH  23  24
ATOM     24  C   UNL A   1      39.203  19.777  26.145  1.00  0.00     0.118 C 
BRANCH  24  25
ATOM     25  N   UNL A   1      40.379  18.921  26.081  1.00  0.00    -0.352 N 
ATOM     26  C   UNL A   1      41.711  19.247  26.035  1.00  0.00     0.251 C 
ATOM     27  H   UNL A   1      40.189  17.955  26.068  1.00  0.00     0.163 HD
ATOM     28  O   UNL A   1      42.535  18.383  25.751  1.00  0.00    -0.269 OA
BRANCH  26  29
ATOM     29  C   UNL A   1      42.166  20.626  26.317  1.00  0.00     0.039 A 
ATOM     30  C   UNL A   1      42.342  21.016  27.649  1.00  0.00     0.014 A 
ATOM     31  C   UNL A   1      42.356  21.554  25.289  1.00  0.00     0.014 A 
ATOM     32  C   UNL A   1      42.751  22.318  27.947  1.00  0.00     0.010 A 
ATOM     33  C   UNL A   1      42.826  22.833  25.582  1.00  0.00     0.010 A 
ATOM     34  C   UNL A   1      43.021  23.230  26.914  1.00  0.00    -0.014 A 
BRANCH  34  35
ATOM     35  C   UNL A   1      43.493  24.606  27.207  1.00  0.00     0.031 A 
ATOM     36  C   UNL A   1      42.540  25.631  27.757  1.00  0.00     0.074 A 
ATOM     37  C   UNL A   1      44.762  24.950  26.919  1.00  0.00     0.049 A 
ATOM     38  N   UNL A   1      42.735  26.904  27.992  1.00  0.00    -0.248 NA
ATOM     39  C   UNL A   1      41.176  25.168  28.063  1.00  0.00     0.031 C 
ATOM     40  C   UNL A   1      45.770  24.057  26.347  1.00  0.00     0.029 A 
ATOM     41  N   UNL A   1      45.418  26.149  27.053  1.00  0.00    -0.354 N 
ATOM     42  C   UNL A   1      41.521  27.396  28.452  1.00  0.00     0.074 A 
ATOM     43  C   UNL A   1      40.581  26.295  28.423  1.00  0.00     0.031 C 
ATOM     44  C   UNL A   1      46.920  24.733  26.193  1.00  0.00     0.029 A 
ATOM     45  C   UNL A   1      46.721  26.115  26.619  1.00  0.00     0.049 A 
ATOM     46  H   UNL A   1      44.994  26.956  27.425  1.00  0.00     0.167 HD
ATOM     47  C   UNL A   1      41.222  28.647  28.876  1.00  0.00     0.037 A 
ATOM     48  C   UNL A   1      47.645  27.092  26.563  1.00  0.00     0.037 A 
ATOM     49  C   UNL A   1      42.167  29.731  28.934  1.00  0.00     0.049 A 
ATOM     50  C   UNL A   1      47.288  28.471  27.046  1.00  0.00     0.074 A 
ATOM     51  C   UNL A   1      41.976  31.021  29.400  1.00  0.00     0.029 A 
ATOM     52  N   UNL A   1      43.486  29.649  28.513  1.00  0.00    -0.354 N 
ATOM     53  N   UNL A   1      46.150  28.910  27.529  1.00  0.00    -0.248 NA
ATOM     54  C   UNL A   1      48.345  29.490  26.982  1.00  0.00     0.031 C 
ATOM     55  C   UNL A   1      43.169  31.730  29.228  1.00  0.00     0.029 A 
ATOM     56  C   UNL A   1      44.116  30.870  28.695  1.00  0.00     0.049 A 
ATOM     57  H   UNL A   1      43.912  28.844  28.140  1.00  0.00     0.167 HD
ATOM     58  C   UNL A   1      46.364  30.243  27.853  1.00  0.00     0.074 A 
ATOM     59  C   UNL A   1      47.742  30.538  27.523  1.00  0.00     0.031 C 
ATOM     60  C   UNL A   1      45.494  31.141  28.375  1.00  0.00     0.037 A 
BRANCH  47  61
ATOM     61  C   UNL A   1      39.814  28.912  29.323  1.00  0.00     0.064 A 
ATOM     62  C   UNL A   1      38.834  29.369  28.430  1.00  0.00     0.173 A 
ATOM     63  C   UNL A   1      39.427  28.661  30.649  1.00  0.00     0.173 A 
ATOM     64  F   UNL A   1      39.154  29.635  27.155  1.00  0.00    -0.203 F 
ATOM     65  C   UNL A   1      37.526  29.591  28.853  1.00  0.00     0.198 A 
ATOM     66  C   UNL A   1      38.112  28.857  31.062  1.00  0.00     0.198 A 
ATOM     67  F   UNL A   1      40.323  28.216  31.542  1.00  0.00    -0.203 F 
ATOM     68  F   UNL A   1      36.618  30.071  27.992  1.00  0.00    -0.200 F 
ATOM     69  C   UNL A   1      37.164  29.328  30.166  1.00  0.00     0.200 A 
ATOM     70  F   UNL A   1      37.761  28.590  32.327  1.00  0.00    -0.200 F 
ATOM     71  F   UNL A   1      35.903  29.533  30.569  1.00  0.00    -0.200 F 
ENDBRANCH  47  61
BRANCH  48  72
ATOM     72  C   UNL A   1      49.008  26.797  26.049  1.00  0.00     0.064 A 
ATOM     73  C   UNL A   1      49.328  27.008  24.700  1.00  0.00     0.173 A 
ATOM     74  C   UNL A   1      50.011  26.292  26.887  1.00  0.00     0.173 A 
ATOM     75  F   UNL A   1      48.394  27.469  23.856  1.00  0.00    -0.203 F 
ATOM     76  C   UNL A   1      50.594  26.704  24.205  1.00  0.00     0.198 A 
ATOM     77  C   UNL A   1      51.286  26.015  26.397  1.00  0.00     0.198 A 
ATOM     78  F   UNL A   1      49.757  26.079  28.187  1.00  0.00    -0.203 F 
ATOM     79  F   UNL A   1      50.859  26.871  22.902  1.00  0.00    -0.200 F 
ATOM     80  C   UNL A   1      51.573  26.212  25.055  1.00  0.00     0.200 A 
ATOM     81  F   UNL A   1      52.234  25.553  27.224  1.00  0.00    -0.200 F 
ATOM     82  F   UNL A   1      52.792  25.921  24.578  1.00  0.00    -0.200 F 
ENDBRANCH  48  72
BRANCH  60  83
ATOM     83  C   UNL A   1      46.018  32.518  28.661  1.00  0.00     0.064 A 
ATOM     84  C   UNL A   1      45.934  33.547  27.713  1.00  0.00     0.173 A 
ATOM     85  C   UNL A   1      46.575  32.818  29.914  1.00  0.00     0.173 A 
ATOM     86  F   UNL A   1      45.424  33.305  26.496  1.00  0.00    -0.203 F 
ATOM     87  C   UNL A   1      46.412  34.824  28.001  1.00  0.00     0.198 A 
ATOM     88  C   UNL A   1      47.026  34.101  30.207  1.00  0.00     0.198 A 
ATOM     89  F   UNL A   1      46.672  31.868  30.855  1.00  0.00    -0.203 F 
ATOM     90  F   UNL A   1      46.363  35.782  27.065  1.00  0.00    -0.200 F 
ATOM     91  C   UNL A   1      46.950  35.101  29.248  1.00  0.00     0.200 A 
ATOM     92  F   UNL A   1      47.536  34.371  31.416  1.00  0.00    -0.200 F 
ATOM     93  F   UNL A   1      47.403  36.331  29.525  1.00  0.00    -0.200 F 
ENDBRANCH  60  83
ENDBRANCH  34  35
ENDBRANCH  26  29
ENDBRANCH  24  25
ENDBRANCH  23  24
ENDBRANCH   1  23
TORSDOF 14
ENDMDL
MODEL 3
REMARK VINA RESULT:     -11.7      1.917      3.354
REMARK SMILES Cc1ccsc1CNS(=O)(=O)c1ccc(C(=O)NCCCNC(=O)c2ccc(-c3c4nc(c(-c5c(F)c(F)c(F)c(F)c5F)c5ccc([nH]5)c(-c5c(F)c(F)c(F)c(F)c5F)c5nc(c(-c6c(F)c(F)c(F)c(F)c6F)c6ccc3[nH]6)C=C5)C=C4)cc2)s1
REMARK SMILES IDX 19 1 18 2 16 3 17 4 15 6 12 7 13 8 88 9 14 10 9 11 10 12
REMARK SMILES IDX 11 13 8 14 7 16 6 17 1 18 2 19 3 20 4 21 5 22 20 23 21 24
REMARK SMILES IDX 22 25 23 26 24 28 25 29 26 30 87 31 27 32 86 33 28 34 29 35
REMARK SMILES IDX 30 36 80 37 31 38 85 39 79 40 81 41 32 42 84 43 78 44 77 45
REMARK SMILES IDX 33 47 65 48 45 49 64 50 46 51 49 52 63 53 82 54 47 55 48 56
REMARK SMILES IDX 62 58 83 59 50 60 34 61 35 62 43 63 36 64 37 65 41 66 44 67
REMARK SMILES IDX 38 68 39 69 42 70 40 71 66 72 67 73 75 74 68 75 69 76 73 77
REMARK SMILES IDX 76 78 70 79 71 80 74 81 72 82 51 83 52 84 60 85 53 86 54 87
REMARK SMILES IDX 58 88 61 89 55 90 56 91 59 92 57 93
REMARK H PARENT 18 5 8 15 22 27 81 46 49 57
REMARK Flexibility Score: inf
ROOT
ATOM      1  C   UNL A   1      31.444  30.377  26.260  1.00  0.00     0.118 C 
ENDROOT
BRANCH   1   2
ATOM      2  N   UNL A   1      31.532  30.114  24.839  1.00  0.00    -0.351 N 
ATOM      3  C   UNL A   1      31.799  28.968  24.133  1.00  0.00     0.261 C 
ATOM      4  O   UNL A   1      31.756  29.094  22.906  1.00  0.00    -0.268 OA
ATOM      5  H   UNL A   1      31.370  30.904  24.274  1.00  0.00     0.163 HD
BRANCH   3   6
ATOM      6  C   UNL A   1      32.065  27.699  24.800  1.00  0.00     0.093 A 
ATOM      7  C   UNL A   1      31.626  25.500  25.881  1.00  0.00     0.135 A 
ATOM      8  C   UNL A   1      32.937  25.903  26.024  1.00  0.00     0.034 A 
ATOM      9  S   UNL A   1      30.761  26.579  24.894  1.00  0.00    -0.117 S 
ATOM     10  C   UNL A   1      33.197  27.151  25.378  1.00  0.00     0.027 A 
BRANCH   7  11
ATOM     11  S   UNL A   1      30.765  24.089  26.530  1.00  0.00     0.250 S 
ATOM     12  O   UNL A   1      29.440  24.585  26.840  1.00  0.00    -0.206 OA
ATOM     13  O   UNL A   1      31.633  23.585  27.570  1.00  0.00    -0.206 OA
BRANCH  11  14
ATOM     14  N   UNL A   1      30.606  22.860  25.400  1.00  0.00    -0.205 NA
ATOM     15  H   UNL A   1      30.840  21.983  25.865  1.00  0.00     0.141 HD
BRANCH  14  16
ATOM     16  C   UNL A   1      31.434  22.956  24.190  1.00  0.00     0.145 C 
BRANCH  16  17
ATOM     17  C   UNL A   1      32.743  22.246  24.424  1.00  0.00     0.022 A 
ATOM     18  C   UNL A   1      34.405  23.891  23.335  1.00  0.00     0.045 C 
ATOM     19  C   UNL A   1      34.026  22.638  24.058  1.00  0.00    -0.036 A 
ATOM     20  C   UNL A   1      35.001  21.673  24.483  1.00  0.00     0.015 A 
ATOM     21  C   UNL A   1      34.446  20.613  25.159  1.00  0.00     0.065 A 
ATOM     22  S   UNL A   1      32.757  20.771  25.311  1.00  0.00    -0.147 S 
ENDBRANCH  16  17
ENDBRANCH  14  16
ENDBRANCH  11  14
ENDBRANCH   7  11
ENDBRANCH   3   6
ENDBRANCH   1   2
BRANCH   1  23
ATOM     23  C   UNL A   1      31.321  31.874  26.536  1.00  0.00     0.042 C 
BRANCH  23  24
ATOM     24  C   UNL A   1      32.642  32.518  26.955  1.00  0.00     0.118 C 
BRANCH  24  25
ATOM     25  N   UNL A   1      32.454  33.880  27.436  1.00  0.00    -0.352 N 
ATOM     26  C   UNL A   1      33.054  34.542  28.476  1.00  0.00     0.251 C 
ATOM     27  H   UNL A   1      31.790  34.408  26.935  1.00  0.00     0.163 HD
ATOM     28  O   UNL A   1      32.588  35.611  28.860  1.00  0.00    -0.269 OA
BRANCH  26  29
ATOM     29  C   UNL A   1      34.250  33.984  29.144  1.00  0.00     0.039 A 
ATOM     30  C   UNL A   1      34.078  32.968  30.089  1.00  0.00     0.014 A 
ATOM     31  C   UNL A   1      35.526  34.499  28.899  1.00  0.00     0.014 A 
ATOM     32  C   UNL A   1      35.187  32.436  30.752  1.00  0.00     0.010 A 
ATOM     33  C   UNL A   1      36.639  33.925  29.513  1.00  0.00     0.010 A 
ATOM     34  C   UNL A   1      36.479  32.893  30.450  1.00  0.00    -0.014 A 
BRANCH  34  35
ATOM     35  C   UNL A   1      37.674  32.316  31.115  1.00  0.00     0.031 A 
ATOM     36  C   UNL A   1      38.461  31.226  30.443  1.00  0.00     0.074 A 
ATOM     37  C   UNL A   1      38.014  32.731  32.350  1.00  0.00     0.049 A 
ATOM     38  N   UNL A   1      39.475  30.533  30.896  1.00  0.00    -0.248 NA
ATOM     39  C   UNL A   1      38.035  30.845  29.086  1.00  0.00     0.031 C 
ATOM     40  C   UNL A   1      37.308  33.754  33.122  1.00  0.00     0.029 A 
ATOM     41  N   UNL A   1      39.031  32.331  33.182  1.00  0.00    -0.354 N 
ATOM     42  C   UNL A   1      39.794  29.627  29.894  1.00  0.00     0.074 A 
ATOM     43  C   UNL A   1      38.840  29.826  28.824  1.00  0.00     0.031 C 
ATOM     44  C   UNL A   1      37.920  33.912  34.306  1.00  0.00     0.029 A 
ATOM     45  C   UNL A   1      39.039  32.977  34.393  1.00  0.00     0.049 A 
ATOM     46  H   UNL A   1      39.692  31.645  32.932  1.00  0.00     0.167 HD
ATOM     47  C   UNL A   1      40.803  28.724  29.862  1.00  0.00     0.037 A 
ATOM     48  C   UNL A   1      39.849  32.824  35.457  1.00  0.00     0.037 A 
ATOM     49  C   UNL A   1      41.770  28.550  30.913  1.00  0.00     0.049 A 
ATOM     50  C   UNL A   1      40.965  31.817  35.392  1.00  0.00     0.074 A 
ATOM     51  C   UNL A   1      42.862  27.700  30.952  1.00  0.00     0.029 A 
ATOM     52  N   UNL A   1      41.762  29.245  32.114  1.00  0.00    -0.354 N 
ATOM     53  N   UNL A   1      41.289  31.003  34.416  1.00  0.00    -0.248 NA
ATOM     54  C   UNL A   1      41.831  31.712  36.574  1.00  0.00     0.031 C 
ATOM     55  C   UNL A   1      43.493  27.854  32.191  1.00  0.00     0.029 A 
ATOM     56  C   UNL A   1      42.821  28.832  32.906  1.00  0.00     0.049 A 
ATOM     57  H   UNL A   1      41.101  29.930  32.366  1.00  0.00     0.167 HD
ATOM     58  C   UNL A   1      42.411  30.313  34.854  1.00  0.00     0.074 A 
ATOM     59  C   UNL A   1      42.719  30.812  36.177  1.00  0.00     0.031 C 
ATOM     60  C   UNL A   1      43.121  29.351  34.216  1.00  0.00     0.037 A 
BRANCH  47  61
ATOM     61  C   UNL A   1      40.921  27.856  28.643  1.00  0.00     0.064 A 
ATOM     62  C   UNL A   1      40.211  26.652  28.527  1.00  0.00     0.173 A 
ATOM     63  C   UNL A   1      41.717  28.254  27.558  1.00  0.00     0.173 A 
ATOM     64  F   UNL A   1      39.445  26.220  29.541  1.00  0.00    -0.203 F 
ATOM     65  C   UNL A   1      40.312  25.866  27.382  1.00  0.00     0.198 A 
ATOM     66  C   UNL A   1      41.794  27.481  26.403  1.00  0.00     0.198 A 
ATOM     67  F   UNL A   1      42.411  29.400  27.613  1.00  0.00    -0.203 F 
ATOM     68  F   UNL A   1      39.658  24.698  27.313  1.00  0.00    -0.200 F 
ATOM     69  C   UNL A   1      41.098  26.285  26.319  1.00  0.00     0.200 A 
ATOM     70  F   UNL A   1      42.543  27.892  25.371  1.00  0.00    -0.200 F 
ATOM     71  F   UNL A   1      41.187  25.532  25.213  1.00  0.00    -0.200 F 
ENDBRANCH  47  61
BRANCH  48  72
ATOM     72  C   UNL A   1      39.651  33.661  36.669  1.00  0.00     0.064 A 
ATOM     73  C   UNL A   1      38.876  33.198  37.742  1.00  0.00     0.173 A 
ATOM     74  C   UNL A   1      40.221  34.936  36.777  1.00  0.00     0.173 A 
ATOM     75  F   UNL A   1      38.293  31.993  37.675  1.00  0.00    -0.203 F 
ATOM     76  C   UNL A   1      38.661  33.990  38.867  1.00  0.00     0.198 A 
ATOM     77  C   UNL A   1      40.028  35.716  37.915  1.00  0.00     0.198 A 
ATOM     78  F   UNL A   1      40.977  35.422  35.780  1.00  0.00    -0.203 F 
ATOM     79  F   UNL A   1      37.878  33.542  39.858  1.00  0.00    -0.200 F 
ATOM     80  C   UNL A   1      39.241  35.247  38.955  1.00  0.00     0.200 A 
ATOM     81  F   UNL A   1      40.602  36.925  38.003  1.00  0.00    -0.200 F 
ATOM     82  F   UNL A   1      39.035  36.007  40.039  1.00  0.00    -0.200 F 
ENDBRANCH  48  72
BRANCH  60  83
ATOM     83  C   UNL A   1      44.325  28.803  34.923  1.00  0.00     0.064 A 
ATOM     84  C   UNL A   1      44.242  27.669  35.745  1.00  0.00     0.173 A 
ATOM     85  C   UNL A   1      45.584  29.398  34.746  1.00  0.00     0.173 A 
ATOM     86  F   UNL A   1      43.058  27.075  35.958  1.00  0.00    -0.203 F 
ATOM     87  C   UNL A   1      45.373  27.165  36.382  1.00  0.00     0.198 A 
ATOM     88  C   UNL A   1      46.716  28.874  35.363  1.00  0.00     0.198 A 
ATOM     89  F   UNL A   1      45.715  30.481  33.966  1.00  0.00    -0.203 F 
ATOM     90  F   UNL A   1      45.264  26.107  37.198  1.00  0.00    -0.200 F 
ATOM     91  C   UNL A   1      46.608  27.762  36.185  1.00  0.00     0.200 A 
ATOM     92  F   UNL A   1      47.911  29.446  35.163  1.00  0.00    -0.200 F 
ATOM     93  F   UNL A   1      47.696  27.271  36.794  1.00  0.00    -0.200 F 
ENDBRANCH  60  83
ENDBRANCH  34  35
ENDBRANCH  26  29
ENDBRANCH  24  25
ENDBRANCH  23  24
ENDBRANCH   1  23
TORSDOF 14
ENDMDL
