MODEL 1
REMARK VINA RESULT:     -13.4      0.000      0.000
REMARK SMILES COc1ccccc1-c1nnc(S[C@@H](C)C(=O)NCCCNC(=O)c2ccc(-c3c4nc(c(-c5c(F)c(F)c(F)c(F)c5F)c5ccc([nH]5)c(-c5c(F)c(F)c(F)c(F)c5F)c5nc(c(-c6c(F)c(F)c(F)c(F)c6F)c6ccc3[nH]6)C=C5)C=C4)cc2)n1-c1ccccc1
REMARK SMILES IDX 19 1 18 2 16 3 17 4 14 6 15 7 13 8 12 9 9 10 10 11 88 12
REMARK SMILES IDX 11 13 8 14 3 15 4 16 5 17 7 18 6 19 2 20 1 21 89 22 90 23
REMARK SMILES IDX 94 24 91 25 93 26 92 27 20 28 21 29 22 30 23 31 24 33 25 34
REMARK SMILES IDX 26 35 87 36 27 37 86 38 28 39 29 40 30 41 80 42 31 43 85 44
REMARK SMILES IDX 79 45 81 46 32 47 84 48 78 49 77 50 33 52 65 53 45 54 64 55
REMARK SMILES IDX 46 56 49 57 63 58 82 59 47 60 48 61 62 63 83 64 50 65 34 66
REMARK SMILES IDX 35 67 43 68 36 69 37 70 41 71 44 72 38 73 39 74 42 75 40 76
REMARK SMILES IDX 66 77 67 78 75 79 68 80 69 81 73 82 76 83 70 84 71 85 74 86
REMARK SMILES IDX 72 87 51 88 52 89 60 90 53 91 54 92 58 93 61 94 55 95 56 96
REMARK SMILES IDX 59 97 57 98
REMARK H PARENT 18 5 22 32 81 51 49 62
REMARK Flexibility Score: inf
ROOT
ATOM      1  C   UNL A   1      32.713  29.950  25.838  1.00  0.00     0.117 C 
ENDROOT
BRANCH   1   2
ATOM      2  N   UNL A   1      31.999  29.752  24.605  1.00  0.00    -0.355 N 
ATOM      3  C   UNL A   1      31.912  28.493  24.056  1.00  0.00     0.233 C 
ATOM      4  O   UNL A   1      30.780  27.995  24.011  1.00  0.00    -0.274 OA
ATOM      5  H   UNL A   1      31.573  30.517  24.155  1.00  0.00     0.163 HD
BRANCH   3   6
ATOM      6  C   UNL A   1      33.081  27.850  23.302  1.00  0.00     0.141 C 
ATOM      7  C   UNL A   1      34.118  28.812  22.727  1.00  0.00     0.030 C 
BRANCH   6   8
ATOM      8  S   UNL A   1      32.936  26.370  22.324  1.00  0.00    -0.073 SA
BRANCH   8   9
ATOM      9  C   UNL A   1      32.455  24.900  23.095  1.00  0.00     0.196 A 
ATOM     10  C   UNL A   1      32.185  22.801  23.703  1.00  0.00     0.173 A 
ATOM     11  N   UNL A   1      31.031  23.266  23.269  1.00  0.00    -0.129 NA
ATOM     12  N   UNL A   1      33.140  23.834  23.685  1.00  0.00    -0.270 N 
ATOM     13  N   UNL A   1      31.188  24.570  22.947  1.00  0.00    -0.122 NA
BRANCH  10  14
ATOM     14  C   UNL A   1      32.349  21.418  24.151  1.00  0.00     0.062 A 
ATOM     15  C   UNL A   1      32.650  21.075  25.471  1.00  0.00     0.129 A 
ATOM     16  C   UNL A   1      33.107  19.793  25.775  1.00  0.00     0.047 A 
ATOM     17  C   UNL A   1      33.100  18.802  24.798  1.00  0.00     0.004 A 
ATOM     18  C   UNL A   1      32.229  20.386  23.206  1.00  0.00     0.016 A 
ATOM     19  C   UNL A   1      32.592  19.080  23.532  1.00  0.00     0.001 A 
BRANCH  15  20
ATOM     20  O   UNL A   1      32.535  21.948  26.523  1.00  0.00    -0.496 OA
ATOM     21  C   UNL A   1      33.597  21.780  27.470  1.00  0.00     0.278 C 
ENDBRANCH  15  20
ENDBRANCH  10  14
BRANCH  12  22
ATOM     22  C   UNL A   1      34.521  23.745  24.037  1.00  0.00     0.050 A 
ATOM     23  C   UNL A   1      35.402  23.069  23.200  1.00  0.00     0.027 A 
ATOM     24  C   UNL A   1      35.010  24.321  25.223  1.00  0.00     0.027 A 
ATOM     25  C   UNL A   1      36.725  22.858  23.604  1.00  0.00     0.002 A 
ATOM     26  C   UNL A   1      36.309  24.047  25.656  1.00  0.00     0.002 A 
ATOM     27  C   UNL A   1      37.162  23.299  24.853  1.00  0.00     0.000 A 
ENDBRANCH  12  22
ENDBRANCH   8   9
ENDBRANCH   6   8
ENDBRANCH   3   6
ENDBRANCH   1   2
BRANCH   1  28
ATOM     28  C   UNL A   1      32.092  30.826  26.913  1.00  0.00     0.042 C 
BRANCH  28  29
ATOM     29  C   UNL A   1      33.115  31.842  27.416  1.00  0.00     0.118 C 
BRANCH  29  30
ATOM     30  N   UNL A   1      32.688  33.254  27.547  1.00  0.00    -0.352 N 
ATOM     31  C   UNL A   1      33.116  34.231  28.460  1.00  0.00     0.251 C 
ATOM     32  H   UNL A   1      32.006  33.550  26.902  1.00  0.00     0.163 HD
ATOM     33  O   UNL A   1      32.744  35.386  28.477  1.00  0.00    -0.269 OA
BRANCH  31  34
ATOM     34  C   UNL A   1      34.241  33.887  29.308  1.00  0.00     0.039 A 
ATOM     35  C   UNL A   1      34.217  33.048  30.431  1.00  0.00     0.014 A 
ATOM     36  C   UNL A   1      35.398  34.241  28.671  1.00  0.00     0.014 A 
ATOM     37  C   UNL A   1      35.438  32.531  30.853  1.00  0.00     0.010 A 
ATOM     38  C   UNL A   1      36.318  33.271  28.749  1.00  0.00     0.010 A 
ATOM     39  C   UNL A   1      36.508  32.683  29.973  1.00  0.00    -0.014 A 
BRANCH  39  40
ATOM     40  C   UNL A   1      37.849  32.169  30.061  1.00  0.00     0.031 A 
ATOM     41  C   UNL A   1      37.986  30.829  29.466  1.00  0.00     0.074 A 
ATOM     42  C   UNL A   1      38.885  33.025  30.257  1.00  0.00     0.049 A 
ATOM     43  N   UNL A   1      37.958  29.712  30.107  1.00  0.00    -0.248 NA
ATOM     44  C   UNL A   1      37.883  30.675  28.004  1.00  0.00     0.031 C 
ATOM     45  C   UNL A   1      38.884  34.494  30.434  1.00  0.00     0.029 A 
ATOM     46  N   UNL A   1      40.208  32.748  30.245  1.00  0.00    -0.354 N 
ATOM     47  C   UNL A   1      38.179  28.743  29.144  1.00  0.00     0.074 A 
ATOM     48  C   UNL A   1      37.799  29.346  27.896  1.00  0.00     0.031 C 
ATOM     49  C   UNL A   1      40.139  34.982  30.313  1.00  0.00     0.029 A 
ATOM     50  C   UNL A   1      41.048  33.859  30.257  1.00  0.00     0.049 A 
ATOM     51  H   UNL A   1      40.553  31.826  30.228  1.00  0.00     0.167 HD
ATOM     52  C   UNL A   1      39.006  27.695  29.422  1.00  0.00     0.037 A 
ATOM     53  C   UNL A   1      42.404  33.820  30.252  1.00  0.00     0.037 A 
ATOM     54  C   UNL A   1      39.307  27.666  30.844  1.00  0.00     0.049 A 
ATOM     55  C   UNL A   1      42.780  32.449  30.706  1.00  0.00     0.074 A 
ATOM     56  C   UNL A   1      38.538  27.617  31.993  1.00  0.00     0.029 A 
ATOM     57  N   UNL A   1      40.528  28.164  31.243  1.00  0.00    -0.354 N 
ATOM     58  N   UNL A   1      42.539  32.001  31.910  1.00  0.00    -0.248 NA
ATOM     59  C   UNL A   1      42.922  31.427  29.679  1.00  0.00     0.031 C 
ATOM     60  C   UNL A   1      39.158  28.538  32.894  1.00  0.00     0.029 A 
ATOM     61  C   UNL A   1      40.329  29.013  32.303  1.00  0.00     0.049 A 
ATOM     62  H   UNL A   1      41.397  27.947  30.835  1.00  0.00     0.167 HD
ATOM     63  C   UNL A   1      42.074  30.706  31.725  1.00  0.00     0.074 A 
ATOM     64  C   UNL A   1      42.401  30.385  30.334  1.00  0.00     0.031 C 
ATOM     65  C   UNL A   1      41.185  30.145  32.601  1.00  0.00     0.037 A 
BRANCH  52  66
ATOM     66  C   UNL A   1      39.876  26.980  28.413  1.00  0.00     0.064 A 
ATOM     67  C   UNL A   1      40.755  27.755  27.631  1.00  0.00     0.173 A 
ATOM     68  C   UNL A   1      39.705  25.645  27.983  1.00  0.00     0.173 A 
ATOM     69  F   UNL A   1      40.998  29.036  27.946  1.00  0.00    -0.203 F 
ATOM     70  C   UNL A   1      41.332  27.265  26.458  1.00  0.00     0.198 A 
ATOM     71  C   UNL A   1      40.324  25.143  26.839  1.00  0.00     0.198 A 
ATOM     72  F   UNL A   1      38.861  24.793  28.572  1.00  0.00    -0.203 F 
ATOM     73  F   UNL A   1      42.050  28.085  25.680  1.00  0.00    -0.200 F 
ATOM     74  C   UNL A   1      41.107  25.962  26.057  1.00  0.00     0.200 A 
ATOM     75  F   UNL A   1      40.080  23.880  26.461  1.00  0.00    -0.200 F 
ATOM     76  F   UNL A   1      41.602  25.509  24.898  1.00  0.00    -0.200 F 
ENDBRANCH  52  66
BRANCH  53  77
ATOM     77  C   UNL A   1      43.360  34.737  29.590  1.00  0.00     0.064 A 
ATOM     78  C   UNL A   1      43.447  34.783  28.189  1.00  0.00     0.173 A 
ATOM     79  C   UNL A   1      43.973  35.794  30.290  1.00  0.00     0.173 A 
ATOM     80  F   UNL A   1      42.866  33.828  27.448  1.00  0.00    -0.203 F 
ATOM     81  C   UNL A   1      44.057  35.852  27.525  1.00  0.00     0.198 A 
ATOM     82  C   UNL A   1      44.586  36.859  29.627  1.00  0.00     0.198 A 
ATOM     83  F   UNL A   1      43.902  35.866  31.627  1.00  0.00    -0.203 F 
ATOM     84  F   UNL A   1      44.047  35.899  26.185  1.00  0.00    -0.200 F 
ATOM     85  C   UNL A   1      44.609  36.899  28.243  1.00  0.00     0.200 A 
ATOM     86  F   UNL A   1      45.088  37.883  30.332  1.00  0.00    -0.200 F 
ATOM     87  F   UNL A   1      45.121  37.962  27.608  1.00  0.00    -0.200 F 
ENDBRANCH  53  77
BRANCH  65  88
ATOM     88  C   UNL A   1      40.934  30.867  33.904  1.00  0.00     0.064 A 
ATOM     89  C   UNL A   1      39.852  31.735  34.147  1.00  0.00     0.173 A 
ATOM     90  C   UNL A   1      41.757  30.569  34.996  1.00  0.00     0.173 A 
ATOM     91  F   UNL A   1      38.957  32.005  33.193  1.00  0.00    -0.203 F 
ATOM     92  C   UNL A   1      39.636  32.307  35.400  1.00  0.00     0.198 A 
ATOM     93  C   UNL A   1      41.523  31.114  36.257  1.00  0.00     0.198 A 
ATOM     94  F   UNL A   1      42.774  29.705  34.850  1.00  0.00    -0.203 F 
ATOM     95  F   UNL A   1      38.601  33.139  35.592  1.00  0.00    -0.200 F 
ATOM     96  C   UNL A   1      40.471  31.992  36.457  1.00  0.00     0.200 A 
ATOM     97  F   UNL A   1      42.308  30.768  37.286  1.00  0.00    -0.200 F 
ATOM     98  F   UNL A   1      40.250  32.517  37.671  1.00  0.00    -0.200 F 
ENDBRANCH  65  88
ENDBRANCH  39  40
ENDBRANCH  31  34
ENDBRANCH  29  30
ENDBRANCH  28  29
ENDBRANCH   1  28
TORSDOF 15
ENDMDL
MODEL 2
REMARK VINA RESULT:     -13.2      2.971      7.502
REMARK SMILES COc1ccccc1-c1nnc(S[C@@H](C)C(=O)NCCCNC(=O)c2ccc(-c3c4nc(c(-c5c(F)c(F)c(F)c(F)c5F)c5ccc([nH]5)c(-c5c(F)c(F)c(F)c(F)c5F)c5nc(c(-c6c(F)c(F)c(F)c(F)c6F)c6ccc3[nH]6)C=C5)C=C4)cc2)n1-c1ccccc1
REMARK SMILES IDX 19 1 18 2 16 3 17 4 14 6 15 7 13 8 12 9 9 10 10 11 88 12
REMARK SMILES IDX 11 13 8 14 3 15 4 16 5 17 7 18 6 19 2 20 1 21 89 22 90 23
REMARK SMILES IDX 94 24 91 25 93 26 92 27 20 28 21 29 22 30 23 31 24 33 25 34
REMARK SMILES IDX 26 35 87 36 27 37 86 38 28 39 29 40 30 41 80 42 31 43 85 44
REMARK SMILES IDX 79 45 81 46 32 47 84 48 78 49 77 50 33 52 65 53 45 54 64 55
REMARK SMILES IDX 46 56 49 57 63 58 82 59 47 60 48 61 62 63 83 64 50 65 34 66
REMARK SMILES IDX 35 67 43 68 36 69 37 70 41 71 44 72 38 73 39 74 42 75 40 76
REMARK SMILES IDX 66 77 67 78 75 79 68 80 69 81 73 82 76 83 70 84 71 85 74 86
REMARK SMILES IDX 72 87 51 88 52 89 60 90 53 91 54 92 58 93 61 94 55 95 56 96
REMARK SMILES IDX 59 97 57 98
REMARK H PARENT 18 5 22 32 81 51 49 62
REMARK Flexibility Score: inf
ROOT
ATOM      1  C   UNL A   1      36.371  21.610  25.095  1.00  0.00     0.117 C 
ENDROOT
BRANCH   1   2
ATOM      2  N   UNL A   1      35.308  20.822  25.659  1.00  0.00    -0.355 N 
ATOM      3  C   UNL A   1      34.010  21.275  25.597  1.00  0.00     0.233 C 
ATOM      4  O   UNL A   1      33.232  20.607  24.905  1.00  0.00    -0.274 OA
ATOM      5  H   UNL A   1      35.510  19.959  26.087  1.00  0.00     0.163 HD
BRANCH   3   6
ATOM      6  C   UNL A   1      33.483  22.370  26.531  1.00  0.00     0.141 C 
ATOM      7  C   UNL A   1      33.988  22.322  27.972  1.00  0.00     0.030 C 
BRANCH   6   8
ATOM      8  S   UNL A   1      31.847  23.062  26.426  1.00  0.00    -0.073 SA
BRANCH   8   9
ATOM      9  C   UNL A   1      31.477  24.145  25.132  1.00  0.00     0.196 A 
ATOM     10  C   UNL A   1      30.673  25.756  23.864  1.00  0.00     0.173 A 
ATOM     11  N   UNL A   1      30.308  24.597  23.355  1.00  0.00    -0.129 NA
ATOM     12  N   UNL A   1      31.498  25.535  24.983  1.00  0.00    -0.270 N 
ATOM     13  N   UNL A   1      30.848  23.610  24.106  1.00  0.00    -0.122 NA
BRANCH  10  14
ATOM     14  C   UNL A   1      30.268  27.031  23.271  1.00  0.00     0.062 A 
ATOM     15  C   UNL A   1      31.166  27.905  22.654  1.00  0.00     0.129 A 
ATOM     16  C   UNL A   1      30.796  29.224  22.398  1.00  0.00     0.047 A 
ATOM     17  C   UNL A   1      29.478  29.628  22.594  1.00  0.00     0.004 A 
ATOM     18  C   UNL A   1      28.917  27.410  23.350  1.00  0.00     0.016 A 
ATOM     19  C   UNL A   1      28.522  28.701  23.002  1.00  0.00     0.001 A 
BRANCH  15  20
ATOM     20  O   UNL A   1      32.436  27.543  22.283  1.00  0.00    -0.496 OA
ATOM     21  C   UNL A   1      33.381  28.589  22.539  1.00  0.00     0.278 C 
ENDBRANCH  15  20
ENDBRANCH  10  14
BRANCH  12  22
ATOM     22  C   UNL A   1      32.074  26.517  25.844  1.00  0.00     0.050 A 
ATOM     23  C   UNL A   1      31.277  27.158  26.786  1.00  0.00     0.027 A 
ATOM     24  C   UNL A   1      33.435  26.859  25.753  1.00  0.00     0.027 A 
ATOM     25  C   UNL A   1      31.798  28.218  27.537  1.00  0.00     0.002 A 
ATOM     26  C   UNL A   1      33.932  27.962  26.450  1.00  0.00     0.002 A 
ATOM     27  C   UNL A   1      33.107  28.653  27.330  1.00  0.00     0.000 A 
ENDBRANCH  12  22
ENDBRANCH   8   9
ENDBRANCH   6   8
ENDBRANCH   3   6
ENDBRANCH   1   2
BRANCH   1  28
ATOM     28  C   UNL A   1      37.805  21.139  25.266  1.00  0.00     0.042 C 
BRANCH  28  29
ATOM     29  C   UNL A   1      38.638  22.231  25.936  1.00  0.00     0.118 C 
BRANCH  29  30
ATOM     30  N   UNL A   1      39.675  21.818  26.909  1.00  0.00    -0.352 N 
ATOM     31  C   UNL A   1      40.598  22.607  27.614  1.00  0.00     0.251 C 
ATOM     32  H   UNL A   1      39.725  20.851  27.087  1.00  0.00     0.163 HD
ATOM     33  O   UNL A   1      41.395  22.194  28.430  1.00  0.00    -0.269 OA
BRANCH  31  34
ATOM     34  C   UNL A   1      40.440  24.046  27.513  1.00  0.00     0.039 A 
ATOM     35  C   UNL A   1      39.232  24.753  27.448  1.00  0.00     0.014 A 
ATOM     36  C   UNL A   1      41.634  24.642  27.811  1.00  0.00     0.014 A 
ATOM     37  C   UNL A   1      39.282  26.109  27.760  1.00  0.00     0.010 A 
ATOM     38  C   UNL A   1      41.470  25.680  28.641  1.00  0.00     0.010 A 
ATOM     39  C   UNL A   1      40.459  26.560  28.352  1.00  0.00    -0.014 A 
BRANCH  39  40
ATOM     40  C   UNL A   1      40.779  27.857  28.889  1.00  0.00     0.031 A 
ATOM     41  C   UNL A   1      41.922  28.488  28.211  1.00  0.00     0.074 A 
ATOM     42  C   UNL A   1      39.844  28.537  29.602  1.00  0.00     0.049 A 
ATOM     43  N   UNL A   1      43.143  28.475  28.620  1.00  0.00    -0.248 NA
ATOM     44  C   UNL A   1      41.767  28.958  26.823  1.00  0.00     0.031 C 
ATOM     45  C   UNL A   1      38.465  28.151  29.974  1.00  0.00     0.029 A 
ATOM     46  N   UNL A   1      39.916  29.802  30.075  1.00  0.00    -0.354 N 
ATOM     47  C   UNL A   1      43.837  29.236  27.695  1.00  0.00     0.074 A 
ATOM     48  C   UNL A   1      43.039  29.211  26.499  1.00  0.00     0.031 C 
ATOM     49  C   UNL A   1      37.784  29.226  30.432  1.00  0.00     0.029 A 
ATOM     50  C   UNL A   1      38.723  30.316  30.581  1.00  0.00     0.049 A 
ATOM     51  H   UNL A   1      40.751  30.322  30.064  1.00  0.00     0.167 HD
ATOM     52  C   UNL A   1      44.788  30.114  28.123  1.00  0.00     0.037 A 
ATOM     53  C   UNL A   1      38.562  31.555  31.108  1.00  0.00     0.037 A 
ATOM     54  C   UNL A   1      45.082  29.879  29.527  1.00  0.00     0.049 A 
ATOM     55  C   UNL A   1      39.929  32.030  31.471  1.00  0.00     0.074 A 
ATOM     56  C   UNL A   1      45.491  28.777  30.257  1.00  0.00     0.029 A 
ATOM     57  N   UNL A   1      44.510  30.733  30.445  1.00  0.00    -0.354 N 
ATOM     58  N   UNL A   1      40.658  31.475  32.402  1.00  0.00    -0.248 NA
ATOM     59  C   UNL A   1      40.671  32.755  30.448  1.00  0.00     0.031 C 
ATOM     60  C   UNL A   1      44.708  28.812  31.453  1.00  0.00     0.029 A 
ATOM     61  C   UNL A   1      43.950  29.983  31.450  1.00  0.00     0.049 A 
ATOM     62  H   UNL A   1      44.504  31.715  30.389  1.00  0.00     0.167 HD
ATOM     63  C   UNL A   1      41.936  31.403  31.863  1.00  0.00     0.074 A 
ATOM     64  C   UNL A   1      41.896  32.273  30.685  1.00  0.00     0.031 C 
ATOM     65  C   UNL A   1      42.798  30.404  32.223  1.00  0.00     0.037 A 
BRANCH  52  66
ATOM     66  C   UNL A   1      45.132  31.423  27.450  1.00  0.00     0.064 A 
ATOM     67  C   UNL A   1      46.427  31.571  26.914  1.00  0.00     0.173 A 
ATOM     68  C   UNL A   1      44.378  32.614  27.540  1.00  0.00     0.173 A 
ATOM     69  F   UNL A   1      47.233  30.508  26.777  1.00  0.00    -0.203 F 
ATOM     70  C   UNL A   1      46.959  32.822  26.595  1.00  0.00     0.198 A 
ATOM     71  C   UNL A   1      44.894  33.856  27.171  1.00  0.00     0.198 A 
ATOM     72  F   UNL A   1      43.157  32.664  28.081  1.00  0.00    -0.203 F 
ATOM     73  F   UNL A   1      48.240  32.921  26.218  1.00  0.00    -0.200 F 
ATOM     74  C   UNL A   1      46.195  33.965  26.733  1.00  0.00     0.200 A 
ATOM     75  F   UNL A   1      44.140  34.953  27.327  1.00  0.00    -0.200 F 
ATOM     76  F   UNL A   1      46.723  35.172  26.493  1.00  0.00    -0.200 F 
ENDBRANCH  52  66
BRANCH  53  77
ATOM     77  C   UNL A   1      37.393  32.460  31.020  1.00  0.00     0.064 A 
ATOM     78  C   UNL A   1      37.111  33.141  29.824  1.00  0.00     0.173 A 
ATOM     79  C   UNL A   1      36.368  32.437  31.984  1.00  0.00     0.173 A 
ATOM     80  F   UNL A   1      38.026  33.187  28.844  1.00  0.00    -0.203 F 
ATOM     81  C   UNL A   1      35.857  33.712  29.582  1.00  0.00     0.198 A 
ATOM     82  C   UNL A   1      35.118  33.011  31.743  1.00  0.00     0.198 A 
ATOM     83  F   UNL A   1      36.523  31.770  33.137  1.00  0.00    -0.203 F 
ATOM     84  F   UNL A   1      35.600  34.281  28.395  1.00  0.00    -0.200 F 
ATOM     85  C   UNL A   1      34.855  33.630  30.534  1.00  0.00     0.200 A 
ATOM     86  F   UNL A   1      34.144  32.896  32.659  1.00  0.00    -0.200 F 
ATOM     87  F   UNL A   1      33.630  34.105  30.271  1.00  0.00    -0.200 F 
ENDBRANCH  53  77
BRANCH  65  88
ATOM     88  C   UNL A   1      42.420  29.547  33.410  1.00  0.00     0.064 A 
ATOM     89  C   UNL A   1      41.785  28.293  33.326  1.00  0.00     0.173 A 
ATOM     90  C   UNL A   1      42.836  29.958  34.681  1.00  0.00     0.173 A 
ATOM     91  F   UNL A   1      41.438  27.773  32.146  1.00  0.00    -0.203 F 
ATOM     92  C   UNL A   1      41.537  27.519  34.459  1.00  0.00     0.198 A 
ATOM     93  C   UNL A   1      42.618  29.169  35.810  1.00  0.00     0.198 A 
ATOM     94  F   UNL A   1      43.498  31.116  34.827  1.00  0.00    -0.203 F 
ATOM     95  F   UNL A   1      40.917  26.334  34.343  1.00  0.00    -0.200 F 
ATOM     96  C   UNL A   1      41.958  27.956  35.701  1.00  0.00     0.200 A 
ATOM     97  F   UNL A   1      43.070  29.578  37.003  1.00  0.00    -0.200 F 
ATOM     98  F   UNL A   1      41.749  27.202  36.789  1.00  0.00    -0.200 F 
ENDBRANCH  65  88
ENDBRANCH  39  40
ENDBRANCH  31  34
ENDBRANCH  29  30
ENDBRANCH  28  29
ENDBRANCH   1  28
TORSDOF 15
ENDMDL
MODEL 3
REMARK VINA RESULT:     -13.0      4.195      9.531
REMARK SMILES COc1ccccc1-c1nnc(S[C@@H](C)C(=O)NCCCNC(=O)c2ccc(-c3c4nc(c(-c5c(F)c(F)c(F)c(F)c5F)c5ccc([nH]5)c(-c5c(F)c(F)c(F)c(F)c5F)c5nc(c(-c6c(F)c(F)c(F)c(F)c6F)c6ccc3[nH]6)C=C5)C=C4)cc2)n1-c1ccccc1
REMARK SMILES IDX 19 1 18 2 16 3 17 4 14 6 15 7 13 8 12 9 9 10 10 11 88 12
REMARK SMILES IDX 11 13 8 14 3 15 4 16 5 17 7 18 6 19 2 20 1 21 89 22 90 23
REMARK SMILES IDX 94 24 91 25 93 26 92 27 20 28 21 29 22 30 23 31 24 33 25 34
REMARK SMILES IDX 26 35 87 36 27 37 86 38 28 39 29 40 30 41 80 42 31 43 85 44
REMARK SMILES IDX 79 45 81 46 32 47 84 48 78 49 77 50 33 52 65 53 45 54 64 55
REMARK SMILES IDX 46 56 49 57 63 58 82 59 47 60 48 61 62 63 83 64 50 65 34 66
REMARK SMILES IDX 35 67 43 68 36 69 37 70 41 71 44 72 38 73 39 74 42 75 40 76
REMARK SMILES IDX 66 77 67 78 75 79 68 80 69 81 73 82 76 83 70 84 71 85 74 86
REMARK SMILES IDX 72 87 51 88 52 89 60 90 53 91 54 92 58 93 61 94 55 95 56 96
REMARK SMILES IDX 59 97 57 98
REMARK H PARENT 18 5 22 32 81 51 49 62
REMARK Flexibility Score: inf
ROOT
ATOM      1  C   UNL A   1      36.736  22.203  25.311  1.00  0.00     0.117 C 
ENDROOT
BRANCH   1   2
ATOM      2  N   UNL A   1      35.842  21.766  26.350  1.00  0.00    -0.355 N 
ATOM      3  C   UNL A   1      34.484  21.929  26.201  1.00  0.00     0.233 C 
ATOM      4  O   UNL A   1      33.817  20.890  26.118  1.00  0.00    -0.274 OA
ATOM      5  H   UNL A   1      36.203  21.351  27.167  1.00  0.00     0.163 HD
BRANCH   3   6
ATOM      6  C   UNL A   1      33.799  23.286  26.397  1.00  0.00     0.141 C 
ATOM      7  C   UNL A   1      32.373  23.244  26.944  1.00  0.00     0.030 C 
BRANCH   6   8
ATOM      8  S   UNL A   1      34.061  24.692  25.339  1.00  0.00    -0.073 SA
BRANCH   8   9
ATOM      9  C   UNL A   1      32.737  25.303  24.413  1.00  0.00     0.196 A 
ATOM     10  C   UNL A   1      30.784  26.045  23.718  1.00  0.00     0.173 A 
ATOM     11  N   UNL A   1      31.056  24.921  23.087  1.00  0.00    -0.129 NA
ATOM     12  N   UNL A   1      31.869  26.391  24.544  1.00  0.00    -0.270 N 
ATOM     13  N   UNL A   1      32.279  24.496  23.477  1.00  0.00    -0.122 NA
BRANCH  10  14
ATOM     14  C   UNL A   1      29.535  26.777  23.505  1.00  0.00     0.062 A 
ATOM     15  C   UNL A   1      29.462  27.963  22.771  1.00  0.00     0.129 A 
ATOM     16  C   UNL A   1      28.334  28.777  22.866  1.00  0.00     0.047 A 
ATOM     17  C   UNL A   1      27.208  28.330  23.552  1.00  0.00     0.004 A 
ATOM     18  C   UNL A   1      28.357  26.281  24.089  1.00  0.00     0.016 A 
ATOM     19  C   UNL A   1      27.195  27.051  24.102  1.00  0.00     0.001 A 
BRANCH  15  20
ATOM     20  O   UNL A   1      30.465  28.402  21.945  1.00  0.00    -0.496 OA
ATOM     21  C   UNL A   1      30.593  29.829  21.979  1.00  0.00     0.278 C 
ENDBRANCH  15  20
ENDBRANCH  10  14
BRANCH  12  22
ATOM     22  C   UNL A   1      31.968  27.510  25.425  1.00  0.00     0.050 A 
ATOM     23  C   UNL A   1      31.529  27.391  26.740  1.00  0.00     0.027 A 
ATOM     24  C   UNL A   1      32.493  28.739  24.988  1.00  0.00     0.027 A 
ATOM     25  C   UNL A   1      31.492  28.518  27.568  1.00  0.00     0.002 A 
ATOM     26  C   UNL A   1      32.388  29.876  25.792  1.00  0.00     0.002 A 
ATOM     27  C   UNL A   1      31.871  29.768  27.078  1.00  0.00     0.000 A 
ENDBRANCH  12  22
ENDBRANCH   8   9
ENDBRANCH   6   8
ENDBRANCH   3   6
ENDBRANCH   1   2
BRANCH   1  28
ATOM     28  C   UNL A   1      37.768  21.227  24.771  1.00  0.00     0.042 C 
BRANCH  28  29
ATOM     29  C   UNL A   1      38.977  21.175  25.702  1.00  0.00     0.118 C 
BRANCH  29  30
ATOM     30  N   UNL A   1      39.745  19.911  25.777  1.00  0.00    -0.352 N 
ATOM     31  C   UNL A   1      41.121  19.718  25.983  1.00  0.00     0.251 C 
ATOM     32  H   UNL A   1      39.216  19.089  25.666  1.00  0.00     0.163 HD
ATOM     33  O   UNL A   1      41.672  18.641  26.071  1.00  0.00    -0.269 OA
BRANCH  31  34
ATOM     34  C   UNL A   1      41.903  20.891  26.325  1.00  0.00     0.039 A 
ATOM     35  C   UNL A   1      42.385  21.863  25.438  1.00  0.00     0.014 A 
ATOM     36  C   UNL A   1      41.834  21.087  27.676  1.00  0.00     0.014 A 
ATOM     37  C   UNL A   1      42.749  23.089  25.989  1.00  0.00     0.010 A 
ATOM     38  C   UNL A   1      41.610  22.374  27.974  1.00  0.00     0.010 A 
ATOM     39  C   UNL A   1      42.355  23.311  27.307  1.00  0.00    -0.014 A 
BRANCH  39  40
ATOM     40  C   UNL A   1      42.475  24.498  28.113  1.00  0.00     0.031 A 
ATOM     41  C   UNL A   1      41.305  25.384  27.999  1.00  0.00     0.074 A 
ATOM     42  C   UNL A   1      43.348  24.518  29.152  1.00  0.00     0.049 A 
ATOM     43  N   UNL A   1      41.211  26.415  27.232  1.00  0.00    -0.248 NA
ATOM     44  C   UNL A   1      40.020  24.960  28.582  1.00  0.00     0.031 C 
ATOM     45  C   UNL A   1      44.285  23.476  29.628  1.00  0.00     0.029 A 
ATOM     46  N   UNL A   1      43.511  25.484  30.084  1.00  0.00    -0.354 N 
ATOM     47  C   UNL A   1      39.965  26.951  27.508  1.00  0.00     0.074 A 
ATOM     48  C   UNL A   1      39.193  25.871  28.059  1.00  0.00     0.031 C 
ATOM     49  C   UNL A   1      44.757  23.794  30.855  1.00  0.00     0.029 A 
ATOM     50  C   UNL A   1      44.327  25.141  31.160  1.00  0.00     0.049 A 
ATOM     51  H   UNL A   1      43.083  26.367  30.008  1.00  0.00     0.167 HD
ATOM     52  C   UNL A   1      39.824  28.303  27.613  1.00  0.00     0.037 A 
ATOM     53  C   UNL A   1      44.631  25.949  32.205  1.00  0.00     0.037 A 
ATOM     54  C   UNL A   1      41.026  28.965  27.135  1.00  0.00     0.049 A 
ATOM     55  C   UNL A   1      44.348  27.341  31.748  1.00  0.00     0.074 A 
ATOM     56  C   UNL A   1      41.737  28.936  25.948  1.00  0.00     0.029 A 
ATOM     57  N   UNL A   1      41.914  29.427  28.081  1.00  0.00    -0.354 N 
ATOM     58  N   UNL A   1      45.016  27.933  30.794  1.00  0.00    -0.248 NA
ATOM     59  C   UNL A   1      43.003  27.850  31.974  1.00  0.00     0.031 C 
ATOM     60  C   UNL A   1      43.112  28.900  26.340  1.00  0.00     0.029 A 
ATOM     61  C   UNL A   1      43.179  29.025  27.728  1.00  0.00     0.049 A 
ATOM     62  H   UNL A   1      41.680  29.957  28.878  1.00  0.00     0.167 HD
ATOM     63  C   UNL A   1      44.054  28.573  30.025  1.00  0.00     0.074 A 
ATOM     64  C   UNL A   1      42.840  28.546  30.843  1.00  0.00     0.031 C 
ATOM     65  C   UNL A   1      44.239  28.769  28.684  1.00  0.00     0.037 A 
BRANCH  52  66
ATOM     66  C   UNL A   1      38.836  29.008  28.515  1.00  0.00     0.064 A 
ATOM     67  C   UNL A   1      38.860  28.700  29.890  1.00  0.00     0.173 A 
ATOM     68  C   UNL A   1      37.712  29.745  28.083  1.00  0.00     0.173 A 
ATOM     69  F   UNL A   1      39.881  28.007  30.416  1.00  0.00    -0.203 F 
ATOM     70  C   UNL A   1      37.796  29.012  30.738  1.00  0.00     0.198 A 
ATOM     71  C   UNL A   1      36.674  30.100  28.944  1.00  0.00     0.198 A 
ATOM     72  F   UNL A   1      37.500  30.067  26.804  1.00  0.00    -0.203 F 
ATOM     73  F   UNL A   1      37.808  28.577  32.005  1.00  0.00    -0.200 F 
ATOM     74  C   UNL A   1      36.698  29.703  30.262  1.00  0.00     0.200 A 
ATOM     75  F   UNL A   1      35.613  30.759  28.457  1.00  0.00    -0.200 F 
ATOM     76  F   UNL A   1      35.647  29.944  31.055  1.00  0.00    -0.200 F 
ENDBRANCH  52  66
BRANCH  53  77
ATOM     77  C   UNL A   1      44.828  25.597  33.630  1.00  0.00     0.064 A 
ATOM     78  C   UNL A   1      43.721  25.353  34.461  1.00  0.00     0.173 A 
ATOM     79  C   UNL A   1      46.082  25.190  34.124  1.00  0.00     0.173 A 
ATOM     80  F   UNL A   1      42.488  25.687  34.053  1.00  0.00    -0.203 F 
ATOM     81  C   UNL A   1      43.853  24.687  35.684  1.00  0.00     0.198 A 
ATOM     82  C   UNL A   1      46.214  24.529  35.347  1.00  0.00     0.198 A 
ATOM     83  F   UNL A   1      47.191  25.334  33.384  1.00  0.00    -0.203 F 
ATOM     84  F   UNL A   1      42.762  24.400  36.409  1.00  0.00    -0.200 F 
ATOM     85  C   UNL A   1      45.096  24.259  36.117  1.00  0.00     0.200 A 
ATOM     86  F   UNL A   1      47.418  24.089  35.741  1.00  0.00    -0.200 F 
ATOM     87  F   UNL A   1      45.213  23.550  37.249  1.00  0.00    -0.200 F 
ENDBRANCH  53  77
BRANCH  65  88
ATOM     88  C   UNL A   1      45.618  28.511  28.121  1.00  0.00     0.064 A 
ATOM     89  C   UNL A   1      46.025  27.310  27.510  1.00  0.00     0.173 A 
ATOM     90  C   UNL A   1      46.528  29.574  28.088  1.00  0.00     0.173 A 
ATOM     91  F   UNL A   1      45.192  26.271  27.408  1.00  0.00    -0.203 F 
ATOM     92  C   UNL A   1      47.290  27.168  26.941  1.00  0.00     0.198 A 
ATOM     93  C   UNL A   1      47.780  29.443  27.490  1.00  0.00     0.198 A 
ATOM     94  F   UNL A   1      46.184  30.765  28.601  1.00  0.00    -0.203 F 
ATOM     95  F   UNL A   1      47.649  26.004  26.377  1.00  0.00    -0.200 F 
ATOM     96  C   UNL A   1      48.166  28.238  26.927  1.00  0.00     0.200 A 
ATOM     97  F   UNL A   1      48.605  30.497  27.439  1.00  0.00    -0.200 F 
ATOM     98  F   UNL A   1      49.372  28.115  26.355  1.00  0.00    -0.200 F 
ENDBRANCH  65  88
ENDBRANCH  39  40
ENDBRANCH  31  34
ENDBRANCH  29  30
ENDBRANCH  28  29
ENDBRANCH   1  28
TORSDOF 15
ENDMDL
