MODEL 1
REMARK VINA RESULT:     -12.7      0.000      0.000
REMARK SMILES CC[C@](C)(NC(=O)N[C@@H]1C=CS(=O)(=O)C1)C(=O)NCCCNC(=O)c1ccc(-c2c3nc(c(-c4c(F)c(F)c(F)c(F)c4F)c4ccc([nH]4)c(-c4c(F)c(F)c(F)c(F)c4F)c4nc(c(-c5c(F)c(F)c(F)c(F)c5F)c5ccc2[nH]5)C=C4)C=C3)cc1
REMARK SMILES IDX 20 1 19 2 18 3 16 4 17 5 3 7 4 8 2 9 1 10 5 11 6 12 7 14
REMARK SMILES IDX 8 15 9 17 10 18 15 19 11 20 12 21 13 22 14 23 21 24 22 25
REMARK SMILES IDX 23 26 24 28 25 29 26 30 87 31 27 32 86 33 28 34 29 35 30 36
REMARK SMILES IDX 80 37 31 38 85 39 79 40 81 41 32 42 84 43 78 44 77 45 33 47
REMARK SMILES IDX 65 48 45 49 64 50 46 51 49 52 63 53 82 54 47 55 48 56 62 58
REMARK SMILES IDX 83 59 50 60 34 61 35 62 43 63 36 64 37 65 41 66 44 67 38 68
REMARK SMILES IDX 39 69 42 70 40 71 66 72 67 73 75 74 68 75 69 76 73 77 76 78
REMARK SMILES IDX 70 79 71 80 74 81 72 82 51 83 52 84 60 85 53 86 54 87 58 88
REMARK SMILES IDX 61 89 55 90 56 91 59 92 57 93
REMARK H PARENT 18 6 5 13 8 16 22 27 81 46 49 57
REMARK Flexibility Score: inf
ROOT
ATOM      1  C   UNL A   1      31.703  31.682  26.838  1.00  0.00     0.042 C 
ENDROOT
BRANCH   1   2
ATOM      2  C   UNL A   1      32.076  30.265  26.417  1.00  0.00     0.117 C 
BRANCH   2   3
ATOM      3  N   UNL A   1      32.858  30.117  25.201  1.00  0.00    -0.354 N 
ATOM      4  C   UNL A   1      33.011  29.060  24.343  1.00  0.00     0.245 C 
ATOM      5  O   UNL A   1      33.441  29.338  23.217  1.00  0.00    -0.272 OA
ATOM      6  H   UNL A   1      33.370  30.919  24.949  1.00  0.00     0.163 HD
BRANCH   4   7
ATOM      7  C   UNL A   1      32.597  27.600  24.704  1.00  0.00     0.117 C 
ATOM      8  C   UNL A   1      31.267  27.474  25.482  1.00  0.00     0.045 C 
BRANCH   7   9
ATOM      9  C   UNL A   1      33.711  27.021  25.635  1.00  0.00     0.035 C 
ATOM     10  C   UNL A   1      34.095  25.570  25.336  1.00  0.00     0.007 C 
ENDBRANCH   7   9
BRANCH   7  11
ATOM     11  N   UNL A   1      32.488  26.801  23.469  1.00  0.00    -0.324 N 
ATOM     12  C   UNL A   1      31.541  26.642  22.536  1.00  0.00     0.316 C 
ATOM     13  H   UNL A   1      33.294  26.264  23.290  1.00  0.00     0.166 HD
ATOM     14  O   UNL A   1      31.701  25.723  21.728  1.00  0.00    -0.249 OA
ATOM     15  N   UNL A   1      30.454  27.408  22.379  1.00  0.00    -0.331 N 
ATOM     16  H   UNL A   1      29.853  27.048  21.687  1.00  0.00     0.166 HD
BRANCH  15  17
ATOM     17  C   UNL A   1      29.929  28.635  22.963  1.00  0.00     0.123 C 
ATOM     18  C   UNL A   1      28.483  28.432  23.298  1.00  0.00     0.011 C 
ATOM     19  C   UNL A   1      30.054  29.837  22.032  1.00  0.00     0.170 C 
ATOM     20  C   UNL A   1      27.629  29.356  22.848  1.00  0.00     0.104 C 
ATOM     21  S   UNL A   1      28.424  30.528  21.863  1.00  0.00     0.173 S 
ATOM     22  O   UNL A   1      28.392  31.820  22.511  1.00  0.00    -0.224 OA
ATOM     23  O   UNL A   1      28.005  30.355  20.485  1.00  0.00    -0.224 OA
ENDBRANCH  15  17
ENDBRANCH   7  11
ENDBRANCH   4   7
ENDBRANCH   2   3
ENDBRANCH   1   2
BRANCH   1  24
ATOM     24  C   UNL A   1      32.815  32.647  27.222  1.00  0.00     0.118 C 
BRANCH  24  25
ATOM     25  N   UNL A   1      32.390  33.978  27.601  1.00  0.00    -0.352 N 
ATOM     26  C   UNL A   1      32.974  34.833  28.506  1.00  0.00     0.251 C 
ATOM     27  H   UNL A   1      31.578  34.313  27.155  1.00  0.00     0.163 HD
ATOM     28  O   UNL A   1      32.482  35.936  28.722  1.00  0.00    -0.269 OA
BRANCH  26  29
ATOM     29  C   UNL A   1      34.165  34.394  29.261  1.00  0.00     0.039 A 
ATOM     30  C   UNL A   1      33.971  33.764  30.493  1.00  0.00     0.014 A 
ATOM     31  C   UNL A   1      35.454  34.558  28.744  1.00  0.00     0.014 A 
ATOM     32  C   UNL A   1      35.066  33.234  31.177  1.00  0.00     0.010 A 
ATOM     33  C   UNL A   1      36.540  33.981  29.405  1.00  0.00     0.010 A 
ATOM     34  C   UNL A   1      36.354  33.304  30.621  1.00  0.00    -0.014 A 
BRANCH  34  35
ATOM     35  C   UNL A   1      37.504  32.642  31.290  1.00  0.00     0.031 A 
ATOM     36  C   UNL A   1      38.219  31.498  30.627  1.00  0.00     0.074 A 
ATOM     37  C   UNL A   1      37.879  33.043  32.520  1.00  0.00     0.049 A 
ATOM     38  N   UNL A   1      39.215  30.774  31.074  1.00  0.00    -0.248 NA
ATOM     39  C   UNL A   1      37.740  31.105  29.294  1.00  0.00     0.031 C 
ATOM     40  C   UNL A   1      37.247  34.118  33.285  1.00  0.00     0.029 A 
ATOM     41  N   UNL A   1      38.875  32.588  33.349  1.00  0.00    -0.354 N 
ATOM     42  C   UNL A   1      39.478  29.840  30.081  1.00  0.00     0.074 A 
ATOM     43  C   UNL A   1      38.507  30.056  29.031  1.00  0.00     0.031 C 
ATOM     44  C   UNL A   1      37.877  34.252  34.462  1.00  0.00     0.029 A 
ATOM     45  C   UNL A   1      38.933  33.247  34.554  1.00  0.00     0.049 A 
ATOM     46  H   UNL A   1      39.491  31.860  33.104  1.00  0.00     0.167 HD
ATOM     47  C   UNL A   1      40.453  28.899  30.042  1.00  0.00     0.037 A 
ATOM     48  C   UNL A   1      39.734  33.053  35.620  1.00  0.00     0.037 A 
ATOM     49  C   UNL A   1      41.422  28.689  31.087  1.00  0.00     0.049 A 
ATOM     50  C   UNL A   1      40.783  31.974  35.566  1.00  0.00     0.074 A 
ATOM     51  C   UNL A   1      42.482  27.798  31.114  1.00  0.00     0.029 A 
ATOM     52  N   UNL A   1      41.442  29.366  32.297  1.00  0.00    -0.354 N 
ATOM     53  N   UNL A   1      41.071  31.147  34.591  1.00  0.00    -0.248 NA
ATOM     54  C   UNL A   1      41.618  31.802  36.763  1.00  0.00     0.031 C 
ATOM     55  C   UNL A   1      43.106  27.896  32.363  1.00  0.00     0.029 A 
ATOM     56  C   UNL A   1      42.474  28.888  33.092  1.00  0.00     0.049 A 
ATOM     57  H   UNL A   1      40.815  30.081  32.555  1.00  0.00     0.167 HD
ATOM     58  C   UNL A   1      42.132  30.376  35.045  1.00  0.00     0.074 A 
ATOM     59  C   UNL A   1      42.453  30.848  36.376  1.00  0.00     0.031 C 
ATOM     60  C   UNL A   1      42.782  29.365  34.417  1.00  0.00     0.037 A 
BRANCH  47  61
ATOM     61  C   UNL A   1      40.520  28.018  28.828  1.00  0.00     0.064 A 
ATOM     62  C   UNL A   1      39.817  26.805  28.757  1.00  0.00     0.173 A 
ATOM     63  C   UNL A   1      41.261  28.411  27.702  1.00  0.00     0.173 A 
ATOM     64  F   UNL A   1      39.099  26.379  29.808  1.00  0.00    -0.203 F 
ATOM     65  C   UNL A   1      39.877  26.006  27.619  1.00  0.00     0.198 A 
ATOM     66  C   UNL A   1      41.292  27.625  26.553  1.00  0.00     0.198 A 
ATOM     67  F   UNL A   1      41.944  29.565  27.711  1.00  0.00    -0.203 F 
ATOM     68  F   UNL A   1      39.235  24.830  27.593  1.00  0.00    -0.200 F 
ATOM     69  C   UNL A   1      40.608  26.420  26.515  1.00  0.00     0.200 A 
ATOM     70  F   UNL A   1      41.985  28.035  25.482  1.00  0.00    -0.200 F 
ATOM     71  F   UNL A   1      40.655  25.655  25.416  1.00  0.00    -0.200 F 
ENDBRANCH  47  61
BRANCH  48  72
ATOM     72  C   UNL A   1      39.582  33.903  36.831  1.00  0.00     0.064 A 
ATOM     73  C   UNL A   1      38.798  33.482  37.914  1.00  0.00     0.173 A 
ATOM     74  C   UNL A   1      40.205  35.156  36.925  1.00  0.00     0.173 A 
ATOM     75  F   UNL A   1      38.163  32.302  37.862  1.00  0.00    -0.203 F 
ATOM     76  C   UNL A   1      38.623  34.292  39.035  1.00  0.00     0.198 A 
ATOM     77  C   UNL A   1      40.056  35.951  38.061  1.00  0.00     0.198 A 
ATOM     78  F   UNL A   1      40.967  35.606  35.919  1.00  0.00    -0.203 F 
ATOM     79  F   UNL A   1      37.826  33.887  40.033  1.00  0.00    -0.200 F 
ATOM     80  C   UNL A   1      39.257  35.523  39.110  1.00  0.00     0.200 A 
ATOM     81  F   UNL A   1      40.682  37.134  38.135  1.00  0.00    -0.200 F 
ATOM     82  F   UNL A   1      39.092  36.299  40.189  1.00  0.00    -0.200 F 
ENDBRANCH  48  72
BRANCH  60  83
ATOM     83  C   UNL A   1      43.920  28.714  35.151  1.00  0.00     0.064 A 
ATOM     84  C   UNL A   1      45.232  29.203  35.059  1.00  0.00     0.173 A 
ATOM     85  C   UNL A   1      43.690  27.611  35.988  1.00  0.00     0.173 A 
ATOM     86  F   UNL A   1      45.510  30.244  34.260  1.00  0.00    -0.203 F 
ATOM     87  C   UNL A   1      46.274  28.594  35.753  1.00  0.00     0.198 A 
ATOM     88  C   UNL A   1      44.728  27.026  36.707  1.00  0.00     0.198 A 
ATOM     89  F   UNL A   1      42.453  27.108  36.118  1.00  0.00    -0.203 F 
ATOM     90  F   UNL A   1      47.528  29.045  35.607  1.00  0.00    -0.200 F 
ATOM     91  C   UNL A   1      46.021  27.512  36.583  1.00  0.00     0.200 A 
ATOM     92  F   UNL A   1      44.478  25.991  37.519  1.00  0.00    -0.200 F 
ATOM     93  F   UNL A   1      47.024  26.933  37.257  1.00  0.00    -0.200 F 
ENDBRANCH  60  83
ENDBRANCH  34  35
ENDBRANCH  26  29
ENDBRANCH  24  25
ENDBRANCH   1  24
TORSDOF 13
ENDMDL
MODEL 2
REMARK VINA RESULT:     -12.5      0.607      7.584
REMARK SMILES CC[C@](C)(NC(=O)N[C@@H]1C=CS(=O)(=O)C1)C(=O)NCCCNC(=O)c1ccc(-c2c3nc(c(-c4c(F)c(F)c(F)c(F)c4F)c4ccc([nH]4)c(-c4c(F)c(F)c(F)c(F)c4F)c4nc(c(-c5c(F)c(F)c(F)c(F)c5F)c5ccc2[nH]5)C=C4)C=C3)cc1
REMARK SMILES IDX 20 1 19 2 18 3 16 4 17 5 3 7 4 8 2 9 1 10 5 11 6 12 7 14
REMARK SMILES IDX 8 15 9 17 10 18 15 19 11 20 12 21 13 22 14 23 21 24 22 25
REMARK SMILES IDX 23 26 24 28 25 29 26 30 87 31 27 32 86 33 28 34 29 35 30 36
REMARK SMILES IDX 80 37 31 38 85 39 79 40 81 41 32 42 84 43 78 44 77 45 33 47
REMARK SMILES IDX 65 48 45 49 64 50 46 51 49 52 63 53 82 54 47 55 48 56 62 58
REMARK SMILES IDX 83 59 50 60 34 61 35 62 43 63 36 64 37 65 41 66 44 67 38 68
REMARK SMILES IDX 39 69 42 70 40 71 66 72 67 73 75 74 68 75 69 76 73 77 76 78
REMARK SMILES IDX 70 79 71 80 74 81 72 82 51 83 52 84 60 85 53 86 54 87 58 88
REMARK SMILES IDX 61 89 55 90 56 91 59 92 57 93
REMARK H PARENT 18 6 5 13 8 16 22 27 81 46 49 57
REMARK Flexibility Score: inf
ROOT
ATOM      1  C   UNL A   1      31.634  31.562  26.900  1.00  0.00     0.042 C 
ENDROOT
BRANCH   1   2
ATOM      2  C   UNL A   1      31.924  30.160  26.376  1.00  0.00     0.117 C 
BRANCH   2   3
ATOM      3  N   UNL A   1      32.804  30.049  25.225  1.00  0.00    -0.354 N 
ATOM      4  C   UNL A   1      33.035  29.017  24.354  1.00  0.00     0.245 C 
ATOM      5  O   UNL A   1      33.553  29.327  23.275  1.00  0.00    -0.272 OA
ATOM      6  H   UNL A   1      33.329  30.861  25.037  1.00  0.00     0.163 HD
BRANCH   4   7
ATOM      7  C   UNL A   1      32.603  27.545  24.641  1.00  0.00     0.117 C 
ATOM      8  C   UNL A   1      31.253  27.394  25.378  1.00  0.00     0.045 C 
BRANCH   7   9
ATOM      9  C   UNL A   1      33.690  26.919  25.574  1.00  0.00     0.035 C 
ATOM     10  C   UNL A   1      34.173  25.533  25.142  1.00  0.00     0.007 C 
ENDBRANCH   7   9
BRANCH   7  11
ATOM     11  N   UNL A   1      32.522  26.801  23.370  1.00  0.00    -0.324 N 
ATOM     12  C   UNL A   1      31.598  26.689  22.408  1.00  0.00     0.316 C 
ATOM     13  H   UNL A   1      33.330  26.267  23.189  1.00  0.00     0.166 HD
ATOM     14  O   UNL A   1      31.774  25.805  21.565  1.00  0.00    -0.249 OA
ATOM     15  N   UNL A   1      30.520  27.467  22.256  1.00  0.00    -0.331 N 
ATOM     16  H   UNL A   1      29.935  27.141  21.535  1.00  0.00     0.166 HD
BRANCH  15  17
ATOM     17  C   UNL A   1      29.986  28.671  22.880  1.00  0.00     0.123 C 
ATOM     18  C   UNL A   1      28.543  28.446  23.212  1.00  0.00     0.011 C 
ATOM     19  C   UNL A   1      30.099  29.903  21.986  1.00  0.00     0.170 C 
ATOM     20  C   UNL A   1      27.680  29.376  22.792  1.00  0.00     0.104 C 
ATOM     21  S   UNL A   1      28.462  30.585  21.842  1.00  0.00     0.173 S 
ATOM     22  O   UNL A   1      28.422  31.856  22.531  1.00  0.00    -0.224 OA
ATOM     23  O   UNL A   1      28.041  30.451  20.461  1.00  0.00    -0.224 OA
ENDBRANCH  15  17
ENDBRANCH   7  11
ENDBRANCH   4   7
ENDBRANCH   2   3
ENDBRANCH   1   2
BRANCH   1  24
ATOM     24  C   UNL A   1      32.801  32.509  27.133  1.00  0.00     0.118 C 
BRANCH  24  25
ATOM     25  N   UNL A   1      32.450  33.848  27.560  1.00  0.00    -0.352 N 
ATOM     26  C   UNL A   1      33.079  34.637  28.493  1.00  0.00     0.251 C 
ATOM     27  H   UNL A   1      31.658  34.242  27.128  1.00  0.00     0.163 HD
ATOM     28  O   UNL A   1      32.649  35.757  28.749  1.00  0.00    -0.269 OA
BRANCH  26  29
ATOM     29  C   UNL A   1      34.245  34.107  29.230  1.00  0.00     0.039 A 
ATOM     30  C   UNL A   1      34.009  33.278  30.330  1.00  0.00     0.014 A 
ATOM     31  C   UNL A   1      35.552  34.384  28.819  1.00  0.00     0.014 A 
ATOM     32  C   UNL A   1      35.085  32.668  30.977  1.00  0.00     0.010 A 
ATOM     33  C   UNL A   1      36.621  33.732  29.435  1.00  0.00     0.010 A 
ATOM     34  C   UNL A   1      36.396  32.858  30.512  1.00  0.00    -0.014 A 
BRANCH  34  35
ATOM     35  C   UNL A   1      37.532  32.122  31.125  1.00  0.00     0.031 A 
ATOM     36  C   UNL A   1      38.025  32.483  32.498  1.00  0.00     0.074 A 
ATOM     37  C   UNL A   1      38.151  31.152  30.423  1.00  0.00     0.049 A 
ATOM     38  N   UNL A   1      39.026  31.978  33.176  1.00  0.00    -0.248 NA
ATOM     39  C   UNL A   1      37.311  33.563  33.192  1.00  0.00     0.031 C 
ATOM     40  C   UNL A   1      37.792  30.730  29.069  1.00  0.00     0.029 A 
ATOM     41  N   UNL A   1      39.220  30.352  30.746  1.00  0.00    -0.354 N 
ATOM     42  C   UNL A   1      39.063  32.681  34.373  1.00  0.00     0.074 A 
ATOM     43  C   UNL A   1      38.017  33.680  34.307  1.00  0.00     0.031 C 
ATOM     44  C   UNL A   1      38.612  29.740  28.683  1.00  0.00     0.029 A 
ATOM     45  C   UNL A   1      39.581  29.484  29.745  1.00  0.00     0.049 A 
ATOM     46  H   UNL A   1      39.683  30.396  31.614  1.00  0.00     0.167 HD
ATOM     47  C   UNL A   1      39.883  32.499  35.436  1.00  0.00     0.037 A 
ATOM     48  C   UNL A   1      40.590  28.593  29.680  1.00  0.00     0.037 A 
ATOM     49  C   UNL A   1      40.920  31.501  35.501  1.00  0.00     0.049 A 
ATOM     50  C   UNL A   1      41.513  28.438  30.860  1.00  0.00     0.074 A 
ATOM     51  C   UNL A   1      41.765  31.202  36.556  1.00  0.00     0.029 A 
ATOM     52  N   UNL A   1      41.265  30.648  34.463  1.00  0.00    -0.354 N 
ATOM     53  N   UNL A   1      41.490  29.057  32.015  1.00  0.00    -0.248 NA
ATOM     54  C   UNL A   1      42.601  27.459  30.727  1.00  0.00     0.031 C 
ATOM     55  C   UNL A   1      42.659  30.211  36.137  1.00  0.00     0.029 A 
ATOM     56  C   UNL A   1      42.333  29.848  34.841  1.00  0.00     0.049 A 
ATOM     57  H   UNL A   1      40.817  30.616  33.586  1.00  0.00     0.167 HD
ATOM     58  C   UNL A   1      42.541  28.528  32.753  1.00  0.00     0.074 A 
ATOM     59  C   UNL A   1      43.168  27.521  31.923  1.00  0.00     0.031 C 
ATOM     60  C   UNL A   1      42.951  28.849  34.005  1.00  0.00     0.037 A 
BRANCH  47  61
ATOM     61  C   UNL A   1      39.697  33.402  36.621  1.00  0.00     0.064 A 
ATOM     62  C   UNL A   1      40.352  34.639  36.715  1.00  0.00     0.173 A 
ATOM     63  C   UNL A   1      38.816  33.048  37.656  1.00  0.00     0.173 A 
ATOM     64  F   UNL A   1      41.210  35.024  35.757  1.00  0.00    -0.203 F 
ATOM     65  C   UNL A   1      40.158  35.474  37.813  1.00  0.00     0.198 A 
ATOM     66  C   UNL A   1      38.599  33.900  38.736  1.00  0.00     0.198 A 
ATOM     67  F   UNL A   1      38.156  31.882  37.613  1.00  0.00    -0.203 F 
ATOM     68  F   UNL A   1      40.831  36.629  37.904  1.00  0.00    -0.200 F 
ATOM     69  C   UNL A   1      39.276  35.107  38.819  1.00  0.00     0.200 A 
ATOM     70  F   UNL A   1      37.734  33.550  39.699  1.00  0.00    -0.200 F 
ATOM     71  F   UNL A   1      39.081  35.915  39.869  1.00  0.00    -0.200 F 
ENDBRANCH  47  61
BRANCH  48  72
ATOM     72  C   UNL A   1      40.782  27.771  28.456  1.00  0.00     0.064 A 
ATOM     73  C   UNL A   1      41.566  28.234  27.391  1.00  0.00     0.173 A 
ATOM     74  C   UNL A   1      40.174  26.514  28.319  1.00  0.00     0.173 A 
ATOM     75  F   UNL A   1      42.148  29.440  27.464  1.00  0.00    -0.203 F 
ATOM     76  C   UNL A   1      41.717  27.483  26.227  1.00  0.00     0.198 A 
ATOM     77  C   UNL A   1      40.353  25.749  27.168  1.00  0.00     0.198 A 
ATOM     78  F   UNL A   1      39.416  26.022  29.309  1.00  0.00    -0.203 F 
ATOM     79  F   UNL A   1      42.430  27.973  25.204  1.00  0.00    -0.200 F 
ATOM     80  C   UNL A   1      41.116  26.238  26.119  1.00  0.00     0.200 A 
ATOM     81  F   UNL A   1      39.781  24.540  27.074  1.00  0.00    -0.200 F 
ATOM     82  F   UNL A   1      41.264  25.514  25.001  1.00  0.00    -0.200 F 
ENDBRANCH  48  72
BRANCH  60  83
ATOM     83  C   UNL A   1      44.121  28.090  34.564  1.00  0.00     0.064 A 
ATOM     84  C   UNL A   1      43.954  26.869  35.235  1.00  0.00     0.173 A 
ATOM     85  C   UNL A   1      45.429  28.570  34.394  1.00  0.00     0.173 A 
ATOM     86  F   UNL A   1      42.724  26.374  35.439  1.00  0.00    -0.203 F 
ATOM     87  C   UNL A   1      45.050  26.172  35.739  1.00  0.00     0.198 A 
ATOM     88  C   UNL A   1      46.524  27.855  34.870  1.00  0.00     0.198 A 
ATOM     89  F   UNL A   1      45.646  29.729  33.754  1.00  0.00    -0.203 F 
ATOM     90  F   UNL A   1      44.861  25.036  36.423  1.00  0.00    -0.200 F 
ATOM     91  C   UNL A   1      46.334  26.661  35.549  1.00  0.00     0.200 A 
ATOM     92  F   UNL A   1      47.764  28.321  34.672  1.00  0.00    -0.200 F 
ATOM     93  F   UNL A   1      47.387  25.985  36.028  1.00  0.00    -0.200 F 
ENDBRANCH  60  83
ENDBRANCH  34  35
ENDBRANCH  26  29
ENDBRANCH  24  25
ENDBRANCH   1  24
TORSDOF 13
ENDMDL
MODEL 3
REMARK VINA RESULT:     -12.5      0.519      7.407
REMARK SMILES CC[C@](C)(NC(=O)N[C@@H]1C=CS(=O)(=O)C1)C(=O)NCCCNC(=O)c1ccc(-c2c3nc(c(-c4c(F)c(F)c(F)c(F)c4F)c4ccc([nH]4)c(-c4c(F)c(F)c(F)c(F)c4F)c4nc(c(-c5c(F)c(F)c(F)c(F)c5F)c5ccc2[nH]5)C=C4)C=C3)cc1
REMARK SMILES IDX 20 1 19 2 18 3 16 4 17 5 3 7 4 8 2 9 1 10 5 11 6 12 7 14
REMARK SMILES IDX 8 15 9 17 10 18 15 19 11 20 12 21 13 22 14 23 21 24 22 25
REMARK SMILES IDX 23 26 24 28 25 29 26 30 87 31 27 32 86 33 28 34 29 35 30 36
REMARK SMILES IDX 80 37 31 38 85 39 79 40 81 41 32 42 84 43 78 44 77 45 33 47
REMARK SMILES IDX 65 48 45 49 64 50 46 51 49 52 63 53 82 54 47 55 48 56 62 58
REMARK SMILES IDX 83 59 50 60 34 61 35 62 43 63 36 64 37 65 41 66 44 67 38 68
REMARK SMILES IDX 39 69 42 70 40 71 66 72 67 73 75 74 68 75 69 76 73 77 76 78
REMARK SMILES IDX 70 79 71 80 74 81 72 82 51 83 52 84 60 85 53 86 54 87 58 88
REMARK SMILES IDX 61 89 55 90 56 91 59 92 57 93
REMARK H PARENT 18 6 5 13 8 16 22 27 81 46 49 57
REMARK Flexibility Score: inf
ROOT
ATOM      1  C   UNL A   1      31.560  31.705  26.671  1.00  0.00     0.042 C 
ENDROOT
BRANCH   1   2
ATOM      2  C   UNL A   1      31.869  30.283  26.220  1.00  0.00     0.117 C 
BRANCH   2   3
ATOM      3  N   UNL A   1      32.755  30.124  25.079  1.00  0.00    -0.354 N 
ATOM      4  C   UNL A   1      33.016  29.047  24.274  1.00  0.00     0.245 C 
ATOM      5  O   UNL A   1      33.529  29.304  23.179  1.00  0.00    -0.272 OA
ATOM      6  H   UNL A   1      33.258  30.936  24.843  1.00  0.00     0.163 HD
BRANCH   4   7
ATOM      7  C   UNL A   1      32.623  27.584  24.651  1.00  0.00     0.117 C 
ATOM      8  C   UNL A   1      31.313  27.450  25.461  1.00  0.00     0.045 C 
BRANCH   7   9
ATOM      9  C   UNL A   1      33.764  27.019  25.557  1.00  0.00     0.035 C 
ATOM     10  C   UNL A   1      34.043  25.526  25.366  1.00  0.00     0.007 C 
ENDBRANCH   7   9
BRANCH   7  11
ATOM     11  N   UNL A   1      32.492  26.780  23.421  1.00  0.00    -0.324 N 
ATOM     12  C   UNL A   1      31.534  26.630  22.498  1.00  0.00     0.316 C 
ATOM     13  H   UNL A   1      33.287  26.229  23.240  1.00  0.00     0.166 HD
ATOM     14  O   UNL A   1      31.673  25.704  21.694  1.00  0.00    -0.249 OA
ATOM     15  N   UNL A   1      30.458  27.411  22.344  1.00  0.00    -0.331 N 
ATOM     16  H   UNL A   1      29.846  27.057  21.660  1.00  0.00     0.166 HD
BRANCH  15  17
ATOM     17  C   UNL A   1      29.957  28.650  22.926  1.00  0.00     0.123 C 
ATOM     18  C   UNL A   1      28.516  28.465  23.291  1.00  0.00     0.011 C 
ATOM     19  C   UNL A   1      30.075  29.841  21.978  1.00  0.00     0.170 C 
ATOM     20  C   UNL A   1      27.662  29.393  22.848  1.00  0.00     0.104 C 
ATOM     21  S   UNL A   1      28.448  30.546  21.834  1.00  0.00     0.173 S 
ATOM     22  O   UNL A   1      28.442  31.845  22.468  1.00  0.00    -0.224 OA
ATOM     23  O   UNL A   1      28.000  30.361  20.467  1.00  0.00    -0.224 OA
ENDBRANCH  15  17
ENDBRANCH   7  11
ENDBRANCH   4   7
ENDBRANCH   2   3
ENDBRANCH   1   2
BRANCH   1  24
ATOM     24  C   UNL A   1      32.707  32.587  27.141  1.00  0.00     0.118 C 
BRANCH  24  25
ATOM     25  N   UNL A   1      32.342  33.924  27.562  1.00  0.00    -0.352 N 
ATOM     26  C   UNL A   1      32.974  34.732  28.478  1.00  0.00     0.251 C 
ATOM     27  H   UNL A   1      31.537  34.302  27.139  1.00  0.00     0.163 HD
ATOM     28  O   UNL A   1      32.531  35.847  28.731  1.00  0.00    -0.269 OA
BRANCH  26  29
ATOM     29  C   UNL A   1      34.160  34.226  29.200  1.00  0.00     0.039 A 
ATOM     30  C   UNL A   1      33.955  33.464  30.353  1.00  0.00     0.014 A 
ATOM     31  C   UNL A   1      35.454  34.460  28.726  1.00  0.00     0.014 A 
ATOM     32  C   UNL A   1      35.046  32.874  30.994  1.00  0.00     0.010 A 
ATOM     33  C   UNL A   1      36.537  33.827  29.338  1.00  0.00     0.010 A 
ATOM     34  C   UNL A   1      36.342  33.019  30.470  1.00  0.00    -0.014 A 
BRANCH  34  35
ATOM     35  C   UNL A   1      37.490  32.300  31.082  1.00  0.00     0.031 A 
ATOM     36  C   UNL A   1      37.994  32.685  32.444  1.00  0.00     0.074 A 
ATOM     37  C   UNL A   1      38.111  31.327  30.387  1.00  0.00     0.049 A 
ATOM     38  N   UNL A   1      39.006  32.199  33.120  1.00  0.00    -0.248 NA
ATOM     39  C   UNL A   1      37.277  33.769  33.131  1.00  0.00     0.031 C 
ATOM     40  C   UNL A   1      37.741  30.882  29.043  1.00  0.00     0.029 A 
ATOM     41  N   UNL A   1      39.190  30.541  30.711  1.00  0.00    -0.354 N 
ATOM     42  C   UNL A   1      39.049  32.919  34.306  1.00  0.00     0.074 A 
ATOM     43  C   UNL A   1      37.994  33.907  34.237  1.00  0.00     0.031 C 
ATOM     44  C   UNL A   1      38.566  29.895  28.663  1.00  0.00     0.029 A 
ATOM     45  C   UNL A   1      39.548  29.662  29.718  1.00  0.00     0.049 A 
ATOM     46  H   UNL A   1      39.661  30.600  31.573  1.00  0.00     0.167 HD
ATOM     47  C   UNL A   1      39.881  32.758  35.363  1.00  0.00     0.037 A 
ATOM     48  C   UNL A   1      40.564  28.778  29.655  1.00  0.00     0.037 A 
ATOM     49  C   UNL A   1      40.928  31.770  35.431  1.00  0.00     0.049 A 
ATOM     50  C   UNL A   1      41.500  28.648  30.828  1.00  0.00     0.074 A 
ATOM     51  C   UNL A   1      41.786  31.494  36.482  1.00  0.00     0.029 A 
ATOM     52  N   UNL A   1      41.269  30.906  34.401  1.00  0.00    -0.354 N 
ATOM     53  N   UNL A   1      41.484  29.283  31.974  1.00  0.00    -0.248 NA
ATOM     54  C   UNL A   1      42.595  27.677  30.697  1.00  0.00     0.031 C 
ATOM     55  C   UNL A   1      42.684  30.504  36.067  1.00  0.00     0.029 A 
ATOM     56  C   UNL A   1      42.348  30.120  34.780  1.00  0.00     0.049 A 
ATOM     57  H   UNL A   1      40.813  30.858  33.530  1.00  0.00     0.167 HD
ATOM     58  C   UNL A   1      42.546  28.773  32.708  1.00  0.00     0.074 A 
ATOM     59  C   UNL A   1      43.174  27.760  31.886  1.00  0.00     0.031 C 
ATOM     60  C   UNL A   1      42.967  29.116  33.951  1.00  0.00     0.037 A 
BRANCH  47  61
ATOM     61  C   UNL A   1      39.699  33.677  36.537  1.00  0.00     0.064 A 
ATOM     62  C   UNL A   1      38.893  33.326  37.630  1.00  0.00     0.173 A 
ATOM     63  C   UNL A   1      40.376  34.906  36.592  1.00  0.00     0.173 A 
ATOM     64  F   UNL A   1      38.218  32.165  37.627  1.00  0.00    -0.203 F 
ATOM     65  C   UNL A   1      38.746  34.182  38.719  1.00  0.00     0.198 A 
ATOM     66  C   UNL A   1      40.253  35.744  37.696  1.00  0.00     0.198 A 
ATOM     67  F   UNL A   1      41.168  35.288  35.579  1.00  0.00    -0.203 F 
ATOM     68  F   UNL A   1      37.932  33.846  39.729  1.00  0.00    -0.200 F 
ATOM     69  C   UNL A   1      39.432  35.387  38.755  1.00  0.00     0.200 A 
ATOM     70  F   UNL A   1      40.929  36.901  37.736  1.00  0.00    -0.200 F 
ATOM     71  F   UNL A   1      39.298  36.205  39.807  1.00  0.00    -0.200 F 
ENDBRANCH  47  61
BRANCH  48  72
ATOM     72  C   UNL A   1      40.751  27.941  28.440  1.00  0.00     0.064 A 
ATOM     73  C   UNL A   1      40.164  26.672  28.341  1.00  0.00     0.173 A 
ATOM     74  C   UNL A   1      41.529  28.385  27.361  1.00  0.00     0.173 A 
ATOM     75  F   UNL A   1      39.430  26.193  29.357  1.00  0.00    -0.203 F 
ATOM     76  C   UNL A   1      40.367  25.869  27.220  1.00  0.00     0.198 A 
ATOM     77  C   UNL A   1      41.704  27.595  26.226  1.00  0.00     0.198 A 
ATOM     78  F   UNL A   1      42.111  29.592  27.403  1.00  0.00    -0.203 F 
ATOM     79  F   UNL A   1      39.837  24.640  27.175  1.00  0.00    -0.200 F 
ATOM     80  C   UNL A   1      41.132  26.335  26.161  1.00  0.00     0.200 A 
ATOM     81  F   UNL A   1      42.433  28.054  25.199  1.00  0.00    -0.200 F 
ATOM     82  F   UNL A   1      41.324  25.564  25.082  1.00  0.00    -0.200 F 
ENDBRANCH  48  72
BRANCH  60  83
ATOM     83  C   UNL A   1      44.149  28.374  34.509  1.00  0.00     0.064 A 
ATOM     84  C   UNL A   1      44.000  27.161  35.197  1.00  0.00     0.173 A 
ATOM     85  C   UNL A   1      45.450  28.864  34.321  1.00  0.00     0.173 A 
ATOM     86  F   UNL A   1      42.776  26.657  35.419  1.00  0.00    -0.203 F 
ATOM     87  C   UNL A   1      45.106  26.481  35.699  1.00  0.00     0.198 A 
ATOM     88  C   UNL A   1      46.556  28.166  34.795  1.00  0.00     0.198 A 
ATOM     89  F   UNL A   1      45.651  30.017  33.664  1.00  0.00    -0.203 F 
ATOM     90  F   UNL A   1      44.935  25.351  36.400  1.00  0.00    -0.200 F 
ATOM     91  C   UNL A   1      46.384  26.979  35.491  1.00  0.00     0.200 A 
ATOM     92  F   UNL A   1      47.790  28.640  34.579  1.00  0.00    -0.200 F 
ATOM     93  F   UNL A   1      47.447  26.319  35.968  1.00  0.00    -0.200 F 
ENDBRANCH  60  83
ENDBRANCH  34  35
ENDBRANCH  26  29
ENDBRANCH  24  25
ENDBRANCH   1  24
TORSDOF 13
ENDMDL
