MODEL 1
REMARK VINA RESULT:     -13.3      0.000      0.000
REMARK SMILES COc1ccc(-c2nc3ccc(C)cc3[nH]2)c(C(=O)NCCCNC(=O)c2ccc(-c3c4nc(c(-c5c(F)c(F)c(F)c(F)c5F)c5ccc([nH]5)c(-c5c(F)c(F)c(F)c(F)c5F)c5nc(c(-c6c(F)c(F)c(F)c(F)c6F)c6ccc3[nH]6)C=C5)C=C4)cc2)c1OC
REMARK SMILES IDX 22 1 21 2 20 3 18 4 19 5 17 7 3 8 4 9 90 10 5 11 6 12 2 13
REMARK SMILES IDX 1 14 91 15 92 16 7 17 8 18 16 19 9 20 15 21 10 23 14 24
REMARK SMILES IDX 11 25 12 26 13 27 23 28 24 29 25 30 26 32 27 33 28 34 89 35
REMARK SMILES IDX 29 36 88 37 30 38 31 39 32 40 82 41 33 42 87 43 81 44 83 45
REMARK SMILES IDX 34 46 86 47 80 48 79 49 35 51 67 52 47 53 66 54 48 55 51 56
REMARK SMILES IDX 65 57 84 58 49 59 50 60 64 62 85 63 52 64 36 65 37 66 45 67
REMARK SMILES IDX 38 68 39 69 43 70 46 71 40 72 41 73 44 74 42 75 68 76 69 77
REMARK SMILES IDX 77 78 70 79 71 80 75 81 78 82 72 83 73 84 76 85 74 86 53 87
REMARK SMILES IDX 54 88 62 89 55 90 56 91 60 92 63 93 57 94 58 95 61 96 59 97
REMARK H PARENT 20 6 16 22 24 31 83 50 51 61
REMARK Flexibility Score: inf
ROOT
ATOM      1  C   UNL A   1      36.509  21.513  25.722  1.00  0.00     0.042 C 
ENDROOT
BRANCH   1   2
ATOM      2  C   UNL A   1      35.866  22.836  26.062  1.00  0.00     0.118 C 
BRANCH   2   3
ATOM      3  N   UNL A   1      34.853  22.885  27.086  1.00  0.00    -0.352 N 
ATOM      4  C   UNL A   1      33.501  22.654  26.868  1.00  0.00     0.255 C 
ATOM      5  O   UNL A   1      32.822  22.148  27.759  1.00  0.00    -0.269 OA
ATOM      6  H   UNL A   1      35.141  23.096  28.004  1.00  0.00     0.163 HD
BRANCH   4   7
ATOM      7  C   UNL A   1      32.849  23.091  25.597  1.00  0.00     0.096 A 
ATOM      8  C   UNL A   1      31.682  24.745  24.253  1.00  0.00     0.161 A 
ATOM      9  C   UNL A   1      31.436  23.760  23.289  1.00  0.00     0.051 A 
ATOM     10  C   UNL A   1      32.454  24.443  25.385  1.00  0.00     0.174 A 
ATOM     11  C   UNL A   1      31.928  22.462  23.442  1.00  0.00     0.017 A 
ATOM     12  C   UNL A   1      32.606  22.095  24.612  1.00  0.00     0.034 A 
BRANCH   8  13
ATOM     13  O   UNL A   1      30.943  25.888  24.098  1.00  0.00    -0.493 OA
ATOM     14  C   UNL A   1      29.830  26.024  24.970  1.00  0.00     0.278 C 
ENDBRANCH   8  13
BRANCH  10  15
ATOM     15  O   UNL A   1      32.944  25.373  26.270  1.00  0.00    -0.492 OA
ATOM     16  C   UNL A   1      33.903  26.326  25.819  1.00  0.00     0.278 C 
ENDBRANCH  10  15
BRANCH  12  17
ATOM     17  C   UNL A   1      32.990  20.688  24.806  1.00  0.00     0.139 A 
ATOM     18  N   UNL A   1      34.082  20.113  24.339  1.00  0.00    -0.228 NA
ATOM     19  N   UNL A   1      32.218  19.758  25.473  1.00  0.00    -0.338 N 
ATOM     20  C   UNL A   1      33.932  18.768  24.572  1.00  0.00     0.089 A 
ATOM     21  C   UNL A   1      32.781  18.515  25.306  1.00  0.00     0.066 A 
ATOM     22  H   UNL A   1      31.400  19.953  25.986  1.00  0.00     0.168 HD
ATOM     23  C   UNL A   1      34.735  17.695  24.164  1.00  0.00     0.031 A 
ATOM     24  C   UNL A   1      32.383  17.225  25.685  1.00  0.00     0.031 A 
ATOM     25  C   UNL A   1      34.344  16.392  24.501  1.00  0.00     0.006 A 
ATOM     26  C   UNL A   1      33.186  16.151  25.255  1.00  0.00    -0.049 A 
ATOM     27  C   UNL A   1      32.822  14.732  25.596  1.00  0.00     0.044 C 
ENDBRANCH  12  17
ENDBRANCH   4   7
ENDBRANCH   2   3
ENDBRANCH   1   2
BRANCH   1  28
ATOM     28  C   UNL A   1      37.923  21.594  25.184  1.00  0.00     0.118 C 
BRANCH  28  29
ATOM     29  N   UNL A   1      38.875  20.698  25.833  1.00  0.00    -0.352 N 
ATOM     30  C   UNL A   1      39.976  20.926  26.630  1.00  0.00     0.251 C 
ATOM     31  H   UNL A   1      38.697  19.744  25.668  1.00  0.00     0.163 HD
ATOM     32  O   UNL A   1      40.658  19.977  26.991  1.00  0.00    -0.269 OA
BRANCH  30  33
ATOM     33  C   UNL A   1      40.383  22.300  27.020  1.00  0.00     0.039 A 
ATOM     34  C   UNL A   1      41.377  22.457  27.993  1.00  0.00     0.014 A 
ATOM     35  C   UNL A   1      39.805  23.434  26.457  1.00  0.00     0.014 A 
ATOM     36  C   UNL A   1      41.843  23.735  28.318  1.00  0.00     0.010 A 
ATOM     37  C   UNL A   1      40.373  24.686  26.662  1.00  0.00     0.010 A 
ATOM     38  C   UNL A   1      41.385  24.860  27.612  1.00  0.00    -0.014 A 
BRANCH  38  39
ATOM     39  C   UNL A   1      41.938  26.215  27.871  1.00  0.00     0.031 A 
ATOM     40  C   UNL A   1      43.302  26.597  27.353  1.00  0.00     0.074 A 
ATOM     41  C   UNL A   1      41.233  27.089  28.616  1.00  0.00     0.049 A 
ATOM     42  N   UNL A   1      43.951  27.728  27.482  1.00  0.00    -0.248 NA
ATOM     43  C   UNL A   1      44.056  25.564  26.624  1.00  0.00     0.031 C 
ATOM     44  C   UNL A   1      39.939  26.813  29.247  1.00  0.00     0.029 A 
ATOM     45  N   UNL A   1      41.498  28.389  28.968  1.00  0.00    -0.354 N 
ATOM     46  C   UNL A   1      45.181  27.532  26.868  1.00  0.00     0.074 A 
ATOM     47  C   UNL A   1      45.225  26.154  26.436  1.00  0.00     0.031 C 
ATOM     48  C   UNL A   1      39.500  27.924  29.859  1.00  0.00     0.029 A 
ATOM     49  C   UNL A   1      40.497  28.978  29.702  1.00  0.00     0.049 A 
ATOM     50  H   UNL A   1      42.328  28.856  28.717  1.00  0.00     0.167 HD
ATOM     51  C   UNL A   1      46.172  28.428  26.645  1.00  0.00     0.037 A 
ATOM     52  C   UNL A   1      40.392  30.230  30.188  1.00  0.00     0.037 A 
ATOM     53  C   UNL A   1      46.114  29.808  27.050  1.00  0.00     0.049 A 
ATOM     54  C   UNL A   1      41.498  31.211  29.911  1.00  0.00     0.074 A 
ATOM     55  C   UNL A   1      47.031  30.816  26.819  1.00  0.00     0.029 A 
ATOM     56  N   UNL A   1      45.073  30.371  27.776  1.00  0.00    -0.354 N 
ATOM     57  N   UNL A   1      42.616  31.037  29.249  1.00  0.00    -0.248 NA
ATOM     58  C   UNL A   1      41.319  32.570  30.440  1.00  0.00     0.031 C 
ATOM     59  C   UNL A   1      46.574  31.976  27.452  1.00  0.00     0.029 A 
ATOM     60  C   UNL A   1      45.339  31.708  28.022  1.00  0.00     0.049 A 
ATOM     61  H   UNL A   1      44.266  29.893  28.071  1.00  0.00     0.167 HD
ATOM     62  C   UNL A   1      43.261  32.266  29.258  1.00  0.00     0.074 A 
ATOM     63  C   UNL A   1      42.393  33.184  29.968  1.00  0.00     0.031 C 
ATOM     64  C   UNL A   1      44.465  32.606  28.733  1.00  0.00     0.037 A 
BRANCH  51  65
ATOM     65  C   UNL A   1      47.399  27.946  25.921  1.00  0.00     0.064 A 
ATOM     66  C   UNL A   1      48.562  27.569  26.610  1.00  0.00     0.173 A 
ATOM     67  C   UNL A   1      47.401  27.828  24.523  1.00  0.00     0.173 A 
ATOM     68  F   UNL A   1      48.621  27.673  27.947  1.00  0.00    -0.203 F 
ATOM     69  C   UNL A   1      49.693  27.126  25.926  1.00  0.00     0.198 A 
ATOM     70  C   UNL A   1      48.520  27.350  23.845  1.00  0.00     0.198 A 
ATOM     71  F   UNL A   1      46.316  28.168  23.813  1.00  0.00    -0.203 F 
ATOM     72  F   UNL A   1      50.809  26.828  26.603  1.00  0.00    -0.200 F 
ATOM     73  C   UNL A   1      49.667  27.008  24.544  1.00  0.00     0.200 A 
ATOM     74  F   UNL A   1      48.489  27.223  22.510  1.00  0.00    -0.200 F 
ATOM     75  F   UNL A   1      50.751  26.572  23.888  1.00  0.00    -0.200 F 
ENDBRANCH  51  65
BRANCH  52  76
ATOM     76  C   UNL A   1      39.178  30.636  30.947  1.00  0.00     0.064 A 
ATOM     77  C   UNL A   1      39.109  30.476  32.339  1.00  0.00     0.173 A 
ATOM     78  C   UNL A   1      38.059  31.181  30.300  1.00  0.00     0.173 A 
ATOM     79  F   UNL A   1      40.146  29.942  33.003  1.00  0.00    -0.203 F 
ATOM     80  C   UNL A   1      37.961  30.818  33.049  1.00  0.00     0.198 A 
ATOM     81  C   UNL A   1      36.924  31.555  31.016  1.00  0.00     0.198 A 
ATOM     82  F   UNL A   1      38.074  31.364  28.971  1.00  0.00    -0.203 F 
ATOM     83  F   UNL A   1      37.904  30.601  34.370  1.00  0.00    -0.200 F 
ATOM     84  C   UNL A   1      36.872  31.363  32.388  1.00  0.00     0.200 A 
ATOM     85  F   UNL A   1      35.880  32.098  30.376  1.00  0.00    -0.200 F 
ATOM     86  F   UNL A   1      35.767  31.696  33.072  1.00  0.00    -0.200 F 
ENDBRANCH  52  76
BRANCH  64  87
ATOM     87  C   UNL A   1      44.894  34.039  28.882  1.00  0.00     0.064 A 
ATOM     88  C   UNL A   1      44.548  35.015  27.935  1.00  0.00     0.173 A 
ATOM     89  C   UNL A   1      45.652  34.441  29.991  1.00  0.00     0.173 A 
ATOM     90  F   UNL A   1      43.834  34.680  26.849  1.00  0.00    -0.203 F 
ATOM     91  C   UNL A   1      44.987  36.329  28.069  1.00  0.00     0.198 A 
ATOM     92  C   UNL A   1      46.056  35.765  30.143  1.00  0.00     0.198 A 
ATOM     93  F   UNL A   1      46.000  33.550  30.932  1.00  0.00    -0.203 F 
ATOM     94  F   UNL A   1      44.704  37.228  27.116  1.00  0.00    -0.200 F 
ATOM     95  C   UNL A   1      45.735  36.704  29.176  1.00  0.00     0.200 A 
ATOM     96  F   UNL A   1      46.763  36.128  31.222  1.00  0.00    -0.200 F 
ATOM     97  F   UNL A   1      46.157  37.969  29.303  1.00  0.00    -0.200 F 
ENDBRANCH  64  87
ENDBRANCH  38  39
ENDBRANCH  30  33
ENDBRANCH  28  29
ENDBRANCH   1  28
TORSDOF 13
ENDMDL
MODEL 2
REMARK VINA RESULT:     -13.3      4.688     10.389
REMARK SMILES COc1ccc(-c2nc3ccc(C)cc3[nH]2)c(C(=O)NCCCNC(=O)c2ccc(-c3c4nc(c(-c5c(F)c(F)c(F)c(F)c5F)c5ccc([nH]5)c(-c5c(F)c(F)c(F)c(F)c5F)c5nc(c(-c6c(F)c(F)c(F)c(F)c6F)c6ccc3[nH]6)C=C5)C=C4)cc2)c1OC
REMARK SMILES IDX 22 1 21 2 20 3 18 4 19 5 17 7 3 8 4 9 90 10 5 11 6 12 2 13
REMARK SMILES IDX 1 14 91 15 92 16 7 17 8 18 16 19 9 20 15 21 10 23 14 24
REMARK SMILES IDX 11 25 12 26 13 27 23 28 24 29 25 30 26 32 27 33 28 34 89 35
REMARK SMILES IDX 29 36 88 37 30 38 31 39 32 40 82 41 33 42 87 43 81 44 83 45
REMARK SMILES IDX 34 46 86 47 80 48 79 49 35 51 67 52 47 53 66 54 48 55 51 56
REMARK SMILES IDX 65 57 84 58 49 59 50 60 64 62 85 63 52 64 36 65 37 66 45 67
REMARK SMILES IDX 38 68 39 69 43 70 46 71 40 72 41 73 44 74 42 75 68 76 69 77
REMARK SMILES IDX 77 78 70 79 71 80 75 81 78 82 72 83 73 84 76 85 74 86 53 87
REMARK SMILES IDX 54 88 62 89 55 90 56 91 60 92 63 93 57 94 58 95 61 96 59 97
REMARK H PARENT 20 6 16 22 24 31 83 50 51 61
REMARK Flexibility Score: inf
ROOT
ATOM      1  C   UNL A   1      32.332  29.191  25.401  1.00  0.00     0.042 C 
ENDROOT
BRANCH   1   2
ATOM      2  C   UNL A   1      33.211  27.978  25.216  1.00  0.00     0.118 C 
BRANCH   2   3
ATOM      3  N   UNL A   1      33.905  27.795  23.967  1.00  0.00    -0.352 N 
ATOM      4  C   UNL A   1      33.437  27.023  22.911  1.00  0.00     0.255 C 
ATOM      5  O   UNL A   1      33.714  27.343  21.757  1.00  0.00    -0.269 OA
ATOM      6  H   UNL A   1      34.772  28.249  23.854  1.00  0.00     0.163 HD
BRANCH   4   7
ATOM      7  C   UNL A   1      32.673  25.764  23.168  1.00  0.00     0.096 A 
ATOM      8  C   UNL A   1      32.544  23.346  23.366  1.00  0.00     0.161 A 
ATOM      9  C   UNL A   1      31.149  23.443  23.416  1.00  0.00     0.051 A 
ATOM     10  C   UNL A   1      33.329  24.509  23.315  1.00  0.00     0.174 A 
ATOM     11  C   UNL A   1      30.511  24.687  23.392  1.00  0.00     0.017 A 
ATOM     12  C   UNL A   1      31.257  25.861  23.228  1.00  0.00     0.034 A 
BRANCH   8  13
ATOM     13  O   UNL A   1      33.018  22.079  23.150  1.00  0.00    -0.493 OA
ATOM     14  C   UNL A   1      33.029  21.224  24.284  1.00  0.00     0.278 C 
ENDBRANCH   8  13
BRANCH  10  15
ATOM     15  O   UNL A   1      34.692  24.542  23.490  1.00  0.00    -0.492 OA
ATOM     16  C   UNL A   1      35.232  24.341  24.792  1.00  0.00     0.278 C 
ENDBRANCH  10  15
BRANCH  12  17
ATOM     17  C   UNL A   1      30.548  27.142  23.067  1.00  0.00     0.139 A 
ATOM     18  N   UNL A   1      29.484  27.527  23.746  1.00  0.00    -0.228 NA
ATOM     19  N   UNL A   1      30.885  28.103  22.135  1.00  0.00    -0.338 N 
ATOM     20  C   UNL A   1      29.039  28.673  23.134  1.00  0.00     0.089 A 
ATOM     21  C   UNL A   1      29.913  29.075  22.132  1.00  0.00     0.066 A 
ATOM     22  H   UNL A   1      31.689  28.094  21.566  1.00  0.00     0.168 HD
ATOM     23  C   UNL A   1      27.877  29.419  23.369  1.00  0.00     0.031 A 
ATOM     24  C   UNL A   1      29.703  30.216  21.345  1.00  0.00     0.031 A 
ATOM     25  C   UNL A   1      27.625  30.546  22.576  1.00  0.00     0.006 A 
ATOM     26  C   UNL A   1      28.523  30.949  21.576  1.00  0.00    -0.049 A 
ATOM     27  C   UNL A   1      28.205  32.173  20.763  1.00  0.00     0.044 C 
ENDBRANCH  12  17
ENDBRANCH   4   7
ENDBRANCH   2   3
ENDBRANCH   1   2
BRANCH   1  28
ATOM     28  C   UNL A   1      32.260  29.735  26.813  1.00  0.00     0.118 C 
BRANCH  28  29
ATOM     29  N   UNL A   1      32.330  31.190  26.911  1.00  0.00    -0.352 N 
ATOM     30  C   UNL A   1      33.291  32.046  27.402  1.00  0.00     0.251 C 
ATOM     31  H   UNL A   1      31.533  31.649  26.559  1.00  0.00     0.163 HD
ATOM     32  O   UNL A   1      33.062  33.248  27.430  1.00  0.00    -0.269 OA
BRANCH  30  33
ATOM     33  C   UNL A   1      34.580  31.542  27.942  1.00  0.00     0.039 A 
ATOM     34  C   UNL A   1      35.614  32.455  28.180  1.00  0.00     0.014 A 
ATOM     35  C   UNL A   1      34.795  30.195  28.213  1.00  0.00     0.014 A 
ATOM     36  C   UNL A   1      36.806  32.025  28.769  1.00  0.00     0.010 A 
ATOM     37  C   UNL A   1      35.911  29.794  28.939  1.00  0.00     0.010 A 
ATOM     38  C   UNL A   1      36.943  30.698  29.209  1.00  0.00    -0.014 A 
BRANCH  38  39
ATOM     39  C   UNL A   1      38.163  30.242  29.927  1.00  0.00     0.031 A 
ATOM     40  C   UNL A   1      38.428  30.688  31.343  1.00  0.00     0.074 A 
ATOM     41  C   UNL A   1      39.058  29.464  29.289  1.00  0.00     0.049 A 
ATOM     42  N   UNL A   1      39.436  30.399  32.128  1.00  0.00    -0.248 NA
ATOM     43  C   UNL A   1      37.454  31.611  31.949  1.00  0.00     0.031 C 
ATOM     44  C   UNL A   1      38.961  29.032  27.892  1.00  0.00     0.029 A 
ATOM     45  N   UNL A   1      40.226  28.891  29.728  1.00  0.00    -0.354 N 
ATOM     46  C   UNL A   1      39.221  31.111  33.301  1.00  0.00     0.074 A 
ATOM     47  C   UNL A   1      38.033  31.909  33.101  1.00  0.00     0.031 C 
ATOM     48  C   UNL A   1      39.992  28.221  27.607  1.00  0.00     0.029 A 
ATOM     49  C   UNL A   1      40.846  28.108  28.784  1.00  0.00     0.049 A 
ATOM     50  H   UNL A   1      40.585  29.028  30.635  1.00  0.00     0.167 HD
ATOM     51  C   UNL A   1      39.924  31.076  34.458  1.00  0.00     0.037 A 
ATOM     52  C   UNL A   1      41.972  27.374  28.863  1.00  0.00     0.037 A 
ATOM     53  C   UNL A   1      41.090  30.258  34.665  1.00  0.00     0.049 A 
ATOM     54  C   UNL A   1      42.726  27.337  30.165  1.00  0.00     0.074 A 
ATOM     55  C   UNL A   1      41.840  30.097  35.816  1.00  0.00     0.029 A 
ATOM     56  N   UNL A   1      41.676  29.462  33.690  1.00  0.00    -0.354 N 
ATOM     57  N   UNL A   1      42.459  27.945  31.296  1.00  0.00    -0.248 NA
ATOM     58  C   UNL A   1      43.932  26.500  30.203  1.00  0.00     0.031 C 
ATOM     59  C   UNL A   1      42.912  29.248  35.523  1.00  0.00     0.029 A 
ATOM     60  C   UNL A   1      42.793  28.828  34.208  1.00  0.00     0.049 A 
ATOM     61  H   UNL A   1      41.347  29.363  32.768  1.00  0.00     0.167 HD
ATOM     62  C   UNL A   1      43.445  27.544  32.187  1.00  0.00     0.074 A 
ATOM     63  C   UNL A   1      44.299  26.618  31.470  1.00  0.00     0.031 C 
ATOM     64  C   UNL A   1      43.633  27.911  33.479  1.00  0.00     0.037 A 
BRANCH  51  65
ATOM     65  C   UNL A   1      39.444  31.938  35.593  1.00  0.00     0.064 A 
ATOM     66  C   UNL A   1      38.512  31.468  36.532  1.00  0.00     0.173 A 
ATOM     67  C   UNL A   1      39.944  33.237  35.763  1.00  0.00     0.173 A 
ATOM     68  F   UNL A   1      37.990  30.238  36.411  1.00  0.00    -0.203 F 
ATOM     69  C   UNL A   1      38.073  32.278  37.578  1.00  0.00     0.198 A 
ATOM     70  C   UNL A   1      39.531  34.031  36.831  1.00  0.00     0.198 A 
ATOM     71  F   UNL A   1      40.840  33.737  34.900  1.00  0.00    -0.203 F 
ATOM     72  F   UNL A   1      37.141  31.827  38.427  1.00  0.00    -0.200 F 
ATOM     73  C   UNL A   1      38.591  33.556  37.732  1.00  0.00     0.200 A 
ATOM     74  F   UNL A   1      40.042  35.261  36.986  1.00  0.00    -0.200 F 
ATOM     75  F   UNL A   1      38.176  34.330  38.743  1.00  0.00    -0.200 F 
ENDBRANCH  51  65
BRANCH  52  76
ATOM     76  C   UNL A   1      42.432  26.583  27.689  1.00  0.00     0.064 A 
ATOM     77  C   UNL A   1      41.929  25.297  27.443  1.00  0.00     0.173 A 
ATOM     78  C   UNL A   1      43.390  27.087  26.797  1.00  0.00     0.173 A 
ATOM     79  F   UNL A   1      41.024  24.761  28.276  1.00  0.00    -0.203 F 
ATOM     80  C   UNL A   1      42.385  24.537  26.368  1.00  0.00     0.198 A 
ATOM     81  C   UNL A   1      43.820  26.340  25.702  1.00  0.00     0.198 A 
ATOM     82  F   UNL A   1      43.899  28.315  26.981  1.00  0.00    -0.203 F 
ATOM     83  F   UNL A   1      41.927  23.290  26.190  1.00  0.00    -0.200 F 
ATOM     84  C   UNL A   1      43.326  25.061  25.496  1.00  0.00     0.200 A 
ATOM     85  F   UNL A   1      44.716  26.857  24.852  1.00  0.00    -0.200 F 
ATOM     86  F   UNL A   1      43.762  24.331  24.459  1.00  0.00    -0.200 F 
ENDBRANCH  52  76
BRANCH  64  87
ATOM     87  C   UNL A   1      44.789  27.284  34.205  1.00  0.00     0.064 A 
ATOM     88  C   UNL A   1      44.659  26.064  34.885  1.00  0.00     0.173 A 
ATOM     89  C   UNL A   1      46.046  27.907  34.211  1.00  0.00     0.173 A 
ATOM     90  F   UNL A   1      43.476  25.433  34.921  1.00  0.00    -0.203 F 
ATOM     91  C   UNL A   1      45.731  25.517  35.585  1.00  0.00     0.198 A 
ATOM     92  C   UNL A   1      47.127  27.337  34.879  1.00  0.00     0.198 A 
ATOM     93  F   UNL A   1      46.229  29.069  33.566  1.00  0.00    -0.203 F 
ATOM     94  F   UNL A   1      45.563  24.387  36.287  1.00  0.00    -0.200 F 
ATOM     95  C   UNL A   1      46.965  26.150  35.576  1.00  0.00     0.200 A 
ATOM     96  F   UNL A   1      48.322  27.942  34.854  1.00  0.00    -0.200 F 
ATOM     97  F   UNL A   1      47.995  25.623  36.250  1.00  0.00    -0.200 F 
ENDBRANCH  64  87
ENDBRANCH  38  39
ENDBRANCH  30  33
ENDBRANCH  28  29
ENDBRANCH   1  28
TORSDOF 13
ENDMDL
MODEL 3
REMARK VINA RESULT:     -13.1      4.911     10.361
REMARK SMILES COc1ccc(-c2nc3ccc(C)cc3[nH]2)c(C(=O)NCCCNC(=O)c2ccc(-c3c4nc(c(-c5c(F)c(F)c(F)c(F)c5F)c5ccc([nH]5)c(-c5c(F)c(F)c(F)c(F)c5F)c5nc(c(-c6c(F)c(F)c(F)c(F)c6F)c6ccc3[nH]6)C=C5)C=C4)cc2)c1OC
REMARK SMILES IDX 22 1 21 2 20 3 18 4 19 5 17 7 3 8 4 9 90 10 5 11 6 12 2 13
REMARK SMILES IDX 1 14 91 15 92 16 7 17 8 18 16 19 9 20 15 21 10 23 14 24
REMARK SMILES IDX 11 25 12 26 13 27 23 28 24 29 25 30 26 32 27 33 28 34 89 35
REMARK SMILES IDX 29 36 88 37 30 38 31 39 32 40 82 41 33 42 87 43 81 44 83 45
REMARK SMILES IDX 34 46 86 47 80 48 79 49 35 51 67 52 47 53 66 54 48 55 51 56
REMARK SMILES IDX 65 57 84 58 49 59 50 60 64 62 85 63 52 64 36 65 37 66 45 67
REMARK SMILES IDX 38 68 39 69 43 70 46 71 40 72 41 73 44 74 42 75 68 76 69 77
REMARK SMILES IDX 77 78 70 79 71 80 75 81 78 82 72 83 73 84 76 85 74 86 53 87
REMARK SMILES IDX 54 88 62 89 55 90 56 91 60 92 63 93 57 94 58 95 61 96 59 97
REMARK H PARENT 20 6 16 22 24 31 83 50 51 61
REMARK Flexibility Score: inf
ROOT
ATOM      1  C   UNL A   1      33.591  28.744  23.351  1.00  0.00     0.042 C 
ENDROOT
BRANCH   1   2
ATOM      2  C   UNL A   1      34.045  27.415  22.797  1.00  0.00     0.118 C 
BRANCH   2   3
ATOM      3  N   UNL A   1      33.244  26.757  21.797  1.00  0.00    -0.352 N 
ATOM      4  C   UNL A   1      31.917  26.384  21.971  1.00  0.00     0.255 C 
ATOM      5  O   UNL A   1      31.156  26.386  21.006  1.00  0.00    -0.269 OA
ATOM      6  H   UNL A   1      33.666  26.558  20.930  1.00  0.00     0.163 HD
BRANCH   4   7
ATOM      7  C   UNL A   1      31.429  25.904  23.299  1.00  0.00     0.096 A 
ATOM      8  C   UNL A   1      31.104  24.150  24.949  1.00  0.00     0.161 A 
ATOM      9  C   UNL A   1      30.284  25.016  25.681  1.00  0.00     0.051 A 
ATOM     10  C   UNL A   1      31.746  24.604  23.786  1.00  0.00     0.174 A 
ATOM     11  C   UNL A   1      30.070  26.332  25.263  1.00  0.00     0.017 A 
ATOM     12  C   UNL A   1      30.603  26.785  24.049  1.00  0.00     0.034 A 
BRANCH   8  13
ATOM     13  O   UNL A   1      31.029  22.837  25.333  1.00  0.00    -0.493 OA
ATOM     14  C   UNL A   1      30.271  22.581  26.508  1.00  0.00     0.278 C 
ENDBRANCH   8  13
BRANCH  10  15
ATOM     15  O   UNL A   1      32.738  23.923  23.123  1.00  0.00    -0.492 OA
ATOM     16  C   UNL A   1      34.008  23.757  23.748  1.00  0.00     0.278 C 
ENDBRANCH  10  15
BRANCH  12  17
ATOM     17  C   UNL A   1      30.247  28.129  23.568  1.00  0.00     0.139 A 
ATOM     18  N   UNL A   1      30.317  29.246  24.268  1.00  0.00    -0.228 NA
ATOM     19  N   UNL A   1      29.738  28.394  22.312  1.00  0.00    -0.338 N 
ATOM     20  C   UNL A   1      29.698  30.208  23.510  1.00  0.00     0.089 A 
ATOM     21  C   UNL A   1      29.344  29.710  22.263  1.00  0.00     0.066 A 
ATOM     22  H   UNL A   1      29.670  27.747  21.572  1.00  0.00     0.168 HD
ATOM     23  C   UNL A   1      29.382  31.534  23.832  1.00  0.00     0.031 A 
ATOM     24  C   UNL A   1      28.697  30.480  21.285  1.00  0.00     0.031 A 
ATOM     25  C   UNL A   1      28.706  32.318  22.887  1.00  0.00     0.006 A 
ATOM     26  C   UNL A   1      28.367  31.805  21.626  1.00  0.00    -0.049 A 
ATOM     27  C   UNL A   1      27.651  32.696  20.648  1.00  0.00     0.044 C 
ENDBRANCH  12  17
ENDBRANCH   4   7
ENDBRANCH   2   3
ENDBRANCH   1   2
BRANCH   1  28
ATOM     28  C   UNL A   1      33.812  28.940  24.837  1.00  0.00     0.118 C 
BRANCH  28  29
ATOM     29  N   UNL A   1      33.088  30.067  25.418  1.00  0.00    -0.352 N 
ATOM     30  C   UNL A   1      33.298  30.827  26.548  1.00  0.00     0.251 C 
ATOM     31  H   UNL A   1      32.294  30.337  24.901  1.00  0.00     0.163 HD
ATOM     32  O   UNL A   1      32.480  31.686  26.850  1.00  0.00    -0.269 OA
BRANCH  30  33
ATOM     33  C   UNL A   1      34.466  30.595  27.436  1.00  0.00     0.039 A 
ATOM     34  C   UNL A   1      34.571  29.370  28.105  1.00  0.00     0.014 A 
ATOM     35  C   UNL A   1      35.453  31.556  27.629  1.00  0.00     0.014 A 
ATOM     36  C   UNL A   1      35.701  29.089  28.878  1.00  0.00     0.010 A 
ATOM     37  C   UNL A   1      36.644  31.221  28.265  1.00  0.00     0.010 A 
ATOM     38  C   UNL A   1      36.778  29.992  28.918  1.00  0.00    -0.014 A 
BRANCH  38  39
ATOM     39  C   UNL A   1      38.031  29.671  29.651  1.00  0.00     0.031 A 
ATOM     40  C   UNL A   1      38.281  30.245  31.023  1.00  0.00     0.074 A 
ATOM     41  C   UNL A   1      38.967  28.902  29.063  1.00  0.00     0.049 A 
ATOM     42  N   UNL A   1      39.314  30.083  31.813  1.00  0.00    -0.248 NA
ATOM     43  C   UNL A   1      37.258  31.151  31.569  1.00  0.00     0.031 C 
ATOM     44  C   UNL A   1      38.883  28.355  27.706  1.00  0.00     0.029 A 
ATOM     45  N   UNL A   1      40.173  28.440  29.528  1.00  0.00    -0.354 N 
ATOM     46  C   UNL A   1      39.067  30.872  32.929  1.00  0.00     0.074 A 
ATOM     47  C   UNL A   1      37.829  31.576  32.684  1.00  0.00     0.031 C 
ATOM     48  C   UNL A   1      39.960  27.588  27.470  1.00  0.00     0.029 A 
ATOM     49  C   UNL A   1      40.831  27.623  28.639  1.00  0.00     0.049 A 
ATOM     50  H   UNL A   1      40.532  28.671  30.415  1.00  0.00     0.167 HD
ATOM     51  C   UNL A   1      39.783  30.974  34.074  1.00  0.00     0.037 A 
ATOM     52  C   UNL A   1      42.003  26.970  28.759  1.00  0.00     0.037 A 
ATOM     53  C   UNL A   1      41.000  30.249  34.327  1.00  0.00     0.049 A 
ATOM     54  C   UNL A   1      42.770  27.084  30.048  1.00  0.00     0.074 A 
ATOM     55  C   UNL A   1      41.771  30.228  35.475  1.00  0.00     0.029 A 
ATOM     56  N   UNL A   1      41.625  29.416  33.409  1.00  0.00    -0.354 N 
ATOM     57  N   UNL A   1      42.478  27.763  31.131  1.00  0.00    -0.248 NA
ATOM     58  C   UNL A   1      44.027  26.329  30.134  1.00  0.00     0.031 C 
ATOM     59  C   UNL A   1      42.891  29.426  35.235  1.00  0.00     0.029 A 
ATOM     60  C   UNL A   1      42.786  28.895  33.958  1.00  0.00     0.049 A 
ATOM     61  H   UNL A   1      41.293  29.223  32.503  1.00  0.00     0.167 HD
ATOM     62  C   UNL A   1      43.496  27.497  32.036  1.00  0.00     0.074 A 
ATOM     63  C   UNL A   1      44.400  26.571  31.382  1.00  0.00     0.031 C 
ATOM     64  C   UNL A   1      43.674  27.978  33.292  1.00  0.00     0.037 A 
BRANCH  51  65
ATOM     65  C   UNL A   1      39.261  31.892  35.144  1.00  0.00     0.064 A 
ATOM     66  C   UNL A   1      39.512  33.274  35.118  1.00  0.00     0.173 A 
ATOM     67  C   UNL A   1      38.472  31.392  36.191  1.00  0.00     0.173 A 
ATOM     68  F   UNL A   1      40.271  33.805  34.146  1.00  0.00    -0.203 F 
ATOM     69  C   UNL A   1      39.024  34.113  36.117  1.00  0.00     0.198 A 
ATOM     70  C   UNL A   1      37.956  32.240  37.168  1.00  0.00     0.198 A 
ATOM     71  F   UNL A   1      38.195  30.083  36.264  1.00  0.00    -0.203 F 
ATOM     72  F   UNL A   1      39.326  35.418  36.100  1.00  0.00    -0.200 F 
ATOM     73  C   UNL A   1      38.238  33.597  37.136  1.00  0.00     0.200 A 
ATOM     74  F   UNL A   1      37.184  31.742  38.146  1.00  0.00    -0.200 F 
ATOM     75  F   UNL A   1      37.761  34.407  38.091  1.00  0.00    -0.200 F 
ENDBRANCH  51  65
BRANCH  52  76
ATOM     76  C   UNL A   1      42.499  26.118  27.645  1.00  0.00     0.064 A 
ATOM     77  C   UNL A   1      43.430  26.610  26.718  1.00  0.00     0.173 A 
ATOM     78  C   UNL A   1      42.047  24.801  27.473  1.00  0.00     0.173 A 
ATOM     79  F   UNL A   1      43.881  27.869  26.827  1.00  0.00    -0.203 F 
ATOM     80  C   UNL A   1      43.869  25.830  25.650  1.00  0.00     0.198 A 
ATOM     81  C   UNL A   1      42.512  24.010  26.424  1.00  0.00     0.198 A 
ATOM     82  F   UNL A   1      41.162  24.278  28.335  1.00  0.00    -0.203 F 
ATOM     83  F   UNL A   1      44.716  26.346  24.750  1.00  0.00    -0.200 F 
ATOM     84  C   UNL A   1      43.413  24.529  25.508  1.00  0.00     0.200 A 
ATOM     85  F   UNL A   1      42.082  22.747  26.300  1.00  0.00    -0.200 F 
ATOM     86  F   UNL A   1      43.837  23.776  24.482  1.00  0.00    -0.200 F 
ENDBRANCH  52  76
BRANCH  64  87
ATOM     87  C   UNL A   1      44.875  27.483  34.047  1.00  0.00     0.064 A 
ATOM     88  C   UNL A   1      46.085  28.194  34.057  1.00  0.00     0.173 A 
ATOM     89  C   UNL A   1      44.811  26.288  34.779  1.00  0.00     0.173 A 
ATOM     90  F   UNL A   1      46.204  29.336  33.363  1.00  0.00    -0.203 F 
ATOM     91  C   UNL A   1      47.199  27.701  34.730  1.00  0.00     0.198 A 
ATOM     92  C   UNL A   1      45.916  25.818  35.484  1.00  0.00     0.198 A 
ATOM     93  F   UNL A   1      43.675  25.575  34.813  1.00  0.00    -0.203 F 
ATOM     94  F   UNL A   1      48.364  28.361  34.666  1.00  0.00    -0.200 F 
ATOM     95  C   UNL A   1      47.112  26.517  35.448  1.00  0.00     0.200 A 
ATOM     96  F   UNL A   1      45.823  24.683  36.191  1.00  0.00    -0.200 F 
ATOM     97  F   UNL A   1      48.185  26.044  36.095  1.00  0.00    -0.200 F 
ENDBRANCH  64  87
ENDBRANCH  38  39
ENDBRANCH  30  33
ENDBRANCH  28  29
ENDBRANCH   1  28
TORSDOF 13
ENDMDL
