MODEL 1
REMARK VINA RESULT:     -10.3      0.000      0.000
REMARK SMILES CCC[C@@H](C[NH2+]C(C)C)C(=O)NCCCNC(=O)c1ccc(-c2c3nc(c(-c4c(F)c(F)c(F)c(F)c4F)c4ccc([nH]4)c(-c4c(F)c(F)c(F)c(F)c4F)c4nc(c(-c5c(F)c(F)c(F)c(F)c5F)c5ccc2[nH]5)C=C4)C=C3)cc1
REMARK SMILES IDX 13 1 12 2 10 3 11 4 4 6 3 7 2 8 1 9 5 10 6 11 7 14 8 15 9 16
REMARK SMILES IDX 14 17 15 18 16 19 17 20 18 22 19 23 20 24 81 25 21 26 80 27
REMARK SMILES IDX 22 28 23 29 24 30 74 31 25 32 79 33 73 34 75 35 26 36 78 37
REMARK SMILES IDX 72 38 71 39 27 41 59 42 39 43 58 44 40 45 43 46 57 47 76 48
REMARK SMILES IDX 41 49 42 50 56 52 77 53 44 54 28 55 29 56 37 57 30 58 31 59
REMARK SMILES IDX 35 60 38 61 32 62 33 63 36 64 34 65 60 66 61 67 69 68 62 69
REMARK SMILES IDX 63 70 67 71 70 72 64 73 65 74 68 75 66 76 45 77 46 78 54 79
REMARK SMILES IDX 47 80 48 81 52 82 55 83 49 84 50 85 53 86 51 87
REMARK H PARENT 12 5 6 12 6 13 16 21 75 40 43 51
REMARK Flexibility Score: inf
ROOT
ATOM      1  C   UNL A   1      36.864  20.891  24.783  1.00  0.00     0.117 C 
ENDROOT
BRANCH   1   2
ATOM      2  N   UNL A   1      35.983  21.104  25.915  1.00  0.00    -0.356 N 
ATOM      3  C   UNL A   1      34.635  21.276  25.950  1.00  0.00     0.228 C 
ATOM      4  O   UNL A   1      34.103  21.314  27.065  1.00  0.00    -0.275 OA
ATOM      5  H   UNL A   1      36.430  21.127  26.792  1.00  0.00     0.163 HD
BRANCH   3   6
ATOM      6  C   UNL A   1      33.787  21.443  24.686  1.00  0.00     0.133 C 
BRANCH   6   7
ATOM      7  C   UNL A   1      32.867  20.226  24.463  1.00  0.00     0.019 C 
BRANCH   7   8
ATOM      8  C   UNL A   1      33.521  18.853  24.626  1.00  0.00    -0.002 C 
ATOM      9  C   UNL A   1      32.520  17.723  24.780  1.00  0.00     0.004 C 
ENDBRANCH   7   8
ENDBRANCH   6   7
BRANCH   6  10
ATOM     10  C   UNL A   1      33.182  22.863  24.562  1.00  0.00     0.274 C 
BRANCH  10  11
ATOM     11  N   UNL A   1      34.048  23.931  25.046  1.00  0.00    -0.344 N 
ATOM     12  H   UNL A   1      34.263  24.542  24.258  1.00  0.00     0.346 HD
ATOM     13  H   UNL A   1      34.865  23.467  25.445  1.00  0.00     0.346 HD
BRANCH  11  14
ATOM     14  C   UNL A   1      33.500  24.757  26.116  1.00  0.00     0.176 C 
ATOM     15  C   UNL A   1      33.617  26.234  25.754  1.00  0.00     0.075 C 
ATOM     16  C   UNL A   1      32.028  24.365  26.276  1.00  0.00     0.075 C 
ENDBRANCH  11  14
ENDBRANCH  10  11
ENDBRANCH   6  10
ENDBRANCH   3   6
ENDBRANCH   1   2
BRANCH   1  17
ATOM     17  C   UNL A   1      37.874  19.787  25.005  1.00  0.00     0.042 C 
BRANCH  17  18
ATOM     18  C   UNL A   1      39.106  20.250  25.752  1.00  0.00     0.118 C 
BRANCH  18  19
ATOM     19  N   UNL A   1      40.090  19.188  25.928  1.00  0.00    -0.352 N 
ATOM     20  C   UNL A   1      41.449  19.247  26.122  1.00  0.00     0.251 C 
ATOM     21  H   UNL A   1      39.718  18.277  25.904  1.00  0.00     0.163 HD
ATOM     22  O   UNL A   1      42.124  18.228  26.045  1.00  0.00    -0.269 OA
BRANCH  20  23
ATOM     23  C   UNL A   1      42.102  20.546  26.392  1.00  0.00     0.039 A 
ATOM     24  C   UNL A   1      42.540  21.324  25.319  1.00  0.00     0.014 A 
ATOM     25  C   UNL A   1      42.274  21.002  27.699  1.00  0.00     0.014 A 
ATOM     26  C   UNL A   1      43.070  22.593  25.558  1.00  0.00     0.010 A 
ATOM     27  C   UNL A   1      42.670  22.311  27.927  1.00  0.00     0.010 A 
ATOM     28  C   UNL A   1      43.090  23.117  26.862  1.00  0.00    -0.014 A 
BRANCH  28  29
ATOM     29  C   UNL A   1      43.553  24.500  27.133  1.00  0.00     0.031 A 
ATOM     30  C   UNL A   1      42.590  25.533  27.648  1.00  0.00     0.074 A 
ATOM     31  C   UNL A   1      44.821  24.844  26.838  1.00  0.00     0.049 A 
ATOM     32  N   UNL A   1      42.789  26.804  27.892  1.00  0.00    -0.248 NA
ATOM     33  C   UNL A   1      41.205  25.091  27.879  1.00  0.00     0.031 C 
ATOM     34  C   UNL A   1      45.826  23.952  26.258  1.00  0.00     0.029 A 
ATOM     35  N   UNL A   1      45.479  26.041  26.973  1.00  0.00    -0.354 N 
ATOM     36  C   UNL A   1      41.556  27.310  28.282  1.00  0.00     0.074 A 
ATOM     37  C   UNL A   1      40.601  26.231  28.171  1.00  0.00     0.031 C 
ATOM     38  C   UNL A   1      46.979  24.621  26.118  1.00  0.00     0.029 A 
ATOM     39  C   UNL A   1      46.785  25.999  26.556  1.00  0.00     0.049 A 
ATOM     40  H   UNL A   1      45.053  26.851  27.335  1.00  0.00     0.167 HD
ATOM     41  C   UNL A   1      41.254  28.554  28.722  1.00  0.00     0.037 A 
ATOM     42  C   UNL A   1      47.722  26.965  26.525  1.00  0.00     0.037 A 
ATOM     43  C   UNL A   1      42.218  29.615  28.851  1.00  0.00     0.049 A 
ATOM     44  C   UNL A   1      47.372  28.336  27.035  1.00  0.00     0.074 A 
ATOM     45  C   UNL A   1      42.041  30.886  29.367  1.00  0.00     0.029 A 
ATOM     46  N   UNL A   1      43.543  29.530  28.444  1.00  0.00    -0.354 N 
ATOM     47  N   UNL A   1      46.228  28.779  27.496  1.00  0.00    -0.248 NA
ATOM     48  C   UNL A   1      48.446  29.337  27.027  1.00  0.00     0.031 C 
ATOM     49  C   UNL A   1      43.240  31.591  29.212  1.00  0.00     0.029 A 
ATOM     50  C   UNL A   1      44.185  30.739  28.663  1.00  0.00     0.049 A 
ATOM     51  H   UNL A   1      43.965  28.728  28.058  1.00  0.00     0.167 HD
ATOM     52  C   UNL A   1      46.446  30.104  27.851  1.00  0.00     0.074 A 
ATOM     53  C   UNL A   1      47.840  30.384  27.570  1.00  0.00     0.031 C 
ATOM     54  C   UNL A   1      45.571  31.005  28.362  1.00  0.00     0.037 A 
BRANCH  41  55
ATOM     55  C   UNL A   1      39.819  28.831  29.081  1.00  0.00     0.064 A 
ATOM     56  C   UNL A   1      38.897  29.318  28.141  1.00  0.00     0.173 A 
ATOM     57  C   UNL A   1      39.361  28.610  30.389  1.00  0.00     0.173 A 
ATOM     58  F   UNL A   1      39.283  29.558  26.879  1.00  0.00    -0.203 F 
ATOM     59  C   UNL A   1      37.589  29.622  28.508  1.00  0.00     0.198 A 
ATOM     60  C   UNL A   1      38.041  28.877  30.743  1.00  0.00     0.198 A 
ATOM     61  F   UNL A   1      40.195  28.138  31.329  1.00  0.00    -0.203 F 
ATOM     62  F   UNL A   1      36.751  30.160  27.610  1.00  0.00    -0.200 F 
ATOM     63  C   UNL A   1      37.160  29.397  29.807  1.00  0.00     0.200 A 
ATOM     64  F   UNL A   1      37.624  28.643  31.995  1.00  0.00    -0.200 F 
ATOM     65  F   UNL A   1      35.902  29.692  30.160  1.00  0.00    -0.200 F 
ENDBRANCH  41  55
BRANCH  42  66
ATOM     66  C   UNL A   1      49.082  26.648  26.018  1.00  0.00     0.064 A 
ATOM     67  C   UNL A   1      49.455  26.961  24.704  1.00  0.00     0.173 A 
ATOM     68  C   UNL A   1      50.049  26.067  26.851  1.00  0.00     0.173 A 
ATOM     69  F   UNL A   1      48.560  27.502  23.865  1.00  0.00    -0.203 F 
ATOM     70  C   UNL A   1      50.743  26.698  24.240  1.00  0.00     0.198 A 
ATOM     71  C   UNL A   1      51.345  25.832  26.394  1.00  0.00     0.198 A 
ATOM     72  F   UNL A   1      49.746  25.757  28.119  1.00  0.00    -0.203 F 
ATOM     73  F   UNL A   1      51.064  26.980  22.969  1.00  0.00    -0.200 F 
ATOM     74  C   UNL A   1      51.688  26.144  25.087  1.00  0.00     0.200 A 
ATOM     75  F   UNL A   1      52.261  25.314  27.223  1.00  0.00    -0.200 F 
ATOM     76  F   UNL A   1      52.932  25.908  24.646  1.00  0.00    -0.200 F 
ENDBRANCH  42  66
BRANCH  54  77
ATOM     77  C   UNL A   1      46.100  32.378  28.665  1.00  0.00     0.064 A 
ATOM     78  C   UNL A   1      46.043  33.416  27.722  1.00  0.00     0.173 A 
ATOM     79  C   UNL A   1      46.640  32.670  29.927  1.00  0.00     0.173 A 
ATOM     80  F   UNL A   1      45.548  33.187  26.495  1.00  0.00    -0.203 F 
ATOM     81  C   UNL A   1      46.535  34.683  28.021  1.00  0.00     0.198 A 
ATOM     82  C   UNL A   1      47.098  33.948  30.235  1.00  0.00     0.198 A 
ATOM     83  F   UNL A   1      46.712  31.717  30.869  1.00  0.00    -0.203 F 
ATOM     84  F   UNL A   1      46.522  35.643  27.086  1.00  0.00    -0.200 F 
ATOM     85  C   UNL A   1      47.055  34.950  29.279  1.00  0.00     0.200 A 
ATOM     86  F   UNL A   1      47.583  34.207  31.457  1.00  0.00    -0.200 F 
ATOM     87  F   UNL A   1      47.521  36.173  29.567  1.00  0.00    -0.200 F 
ENDBRANCH  54  77
ENDBRANCH  28  29
ENDBRANCH  20  23
ENDBRANCH  18  19
ENDBRANCH  17  18
ENDBRANCH   1  17
TORSDOF 15
ENDMDL
MODEL 2
REMARK VINA RESULT:     -10.3      0.909      2.722
REMARK SMILES CCC[C@@H](C[NH2+]C(C)C)C(=O)NCCCNC(=O)c1ccc(-c2c3nc(c(-c4c(F)c(F)c(F)c(F)c4F)c4ccc([nH]4)c(-c4c(F)c(F)c(F)c(F)c4F)c4nc(c(-c5c(F)c(F)c(F)c(F)c5F)c5ccc2[nH]5)C=C4)C=C3)cc1
REMARK SMILES IDX 13 1 12 2 10 3 11 4 4 6 3 7 2 8 1 9 5 10 6 11 7 14 8 15 9 16
REMARK SMILES IDX 14 17 15 18 16 19 17 20 18 22 19 23 20 24 81 25 21 26 80 27
REMARK SMILES IDX 22 28 23 29 24 30 74 31 25 32 79 33 73 34 75 35 26 36 78 37
REMARK SMILES IDX 72 38 71 39 27 41 59 42 39 43 58 44 40 45 43 46 57 47 76 48
REMARK SMILES IDX 41 49 42 50 56 52 77 53 44 54 28 55 29 56 37 57 30 58 31 59
REMARK SMILES IDX 35 60 38 61 32 62 33 63 36 64 34 65 60 66 61 67 69 68 62 69
REMARK SMILES IDX 63 70 67 71 70 72 64 73 65 74 68 75 66 76 45 77 46 78 54 79
REMARK SMILES IDX 47 80 48 81 52 82 55 83 49 84 50 85 53 86 51 87
REMARK H PARENT 12 5 6 12 6 13 16 21 75 40 43 51
REMARK Flexibility Score: inf
ROOT
ATOM      1  C   UNL A   1      36.932  20.774  24.993  1.00  0.00     0.117 C 
ENDROOT
BRANCH   1   2
ATOM      2  N   UNL A   1      37.081  21.723  23.907  1.00  0.00    -0.356 N 
ATOM      3  C   UNL A   1      36.303  22.784  23.565  1.00  0.00     0.228 C 
ATOM      4  O   UNL A   1      36.720  23.518  22.663  1.00  0.00    -0.275 OA
ATOM      5  H   UNL A   1      37.866  21.578  23.331  1.00  0.00     0.163 HD
BRANCH   3   6
ATOM      6  C   UNL A   1      34.953  23.071  24.229  1.00  0.00     0.133 C 
BRANCH   6   7
ATOM      7  C   UNL A   1      35.054  24.249  25.219  1.00  0.00     0.019 C 
BRANCH   7   8
ATOM      8  C   UNL A   1      33.759  25.023  25.471  1.00  0.00    -0.002 C 
ATOM      9  C   UNL A   1      33.959  26.525  25.543  1.00  0.00     0.004 C 
ENDBRANCH   7   8
ENDBRANCH   6   7
BRANCH   6  10
ATOM     10  C   UNL A   1      33.780  23.050  23.219  1.00  0.00     0.274 C 
BRANCH  10  11
ATOM     11  N   UNL A   1      32.824  21.969  23.428  1.00  0.00    -0.344 N 
ATOM     12  H   UNL A   1      33.080  21.200  22.809  1.00  0.00     0.346 HD
ATOM     13  H   UNL A   1      31.905  22.370  23.233  1.00  0.00     0.346 HD
BRANCH  11  14
ATOM     14  C   UNL A   1      32.747  21.444  24.787  1.00  0.00     0.176 C 
ATOM     15  C   UNL A   1      31.528  22.016  25.504  1.00  0.00     0.075 C 
ATOM     16  C   UNL A   1      32.631  19.921  24.674  1.00  0.00     0.075 C 
ENDBRANCH  11  14
ENDBRANCH  10  11
ENDBRANCH   6  10
ENDBRANCH   3   6
ENDBRANCH   1   2
BRANCH   1  17
ATOM     17  C   UNL A   1      38.035  19.740  25.045  1.00  0.00     0.042 C 
BRANCH  17  18
ATOM     18  C   UNL A   1      39.266  20.219  25.782  1.00  0.00     0.118 C 
BRANCH  18  19
ATOM     19  N   UNL A   1      40.265  19.169  25.952  1.00  0.00    -0.352 N 
ATOM     20  C   UNL A   1      41.623  19.247  26.152  1.00  0.00     0.251 C 
ATOM     21  H   UNL A   1      39.907  18.253  25.918  1.00  0.00     0.163 HD
ATOM     22  O   UNL A   1      42.313  18.239  26.068  1.00  0.00    -0.269 OA
BRANCH  20  23
ATOM     23  C   UNL A   1      42.255  20.553  26.437  1.00  0.00     0.039 A 
ATOM     24  C   UNL A   1      42.792  21.294  25.382  1.00  0.00     0.014 A 
ATOM     25  C   UNL A   1      42.312  21.051  27.738  1.00  0.00     0.014 A 
ATOM     26  C   UNL A   1      43.304  22.569  25.627  1.00  0.00     0.010 A 
ATOM     27  C   UNL A   1      42.693  22.366  27.958  1.00  0.00     0.010 A 
ATOM     28  C   UNL A   1      43.210  23.136  26.909  1.00  0.00    -0.014 A 
BRANCH  28  29
ATOM     29  C   UNL A   1      43.654  24.525  27.176  1.00  0.00     0.031 A 
ATOM     30  C   UNL A   1      42.673  25.552  27.668  1.00  0.00     0.074 A 
ATOM     31  C   UNL A   1      44.922  24.882  26.895  1.00  0.00     0.049 A 
ATOM     32  N   UNL A   1      42.855  26.827  27.905  1.00  0.00    -0.248 NA
ATOM     33  C   UNL A   1      41.290  25.096  27.884  1.00  0.00     0.031 C 
ATOM     34  C   UNL A   1      45.945  23.996  26.336  1.00  0.00     0.029 A 
ATOM     35  N   UNL A   1      45.565  26.087  27.030  1.00  0.00    -0.354 N 
ATOM     36  C   UNL A   1      41.611  27.322  28.275  1.00  0.00     0.074 A 
ATOM     37  C   UNL A   1      40.669  26.232  28.159  1.00  0.00     0.031 C 
ATOM     38  C   UNL A   1      47.093  24.677  26.206  1.00  0.00     0.029 A 
ATOM     39  C   UNL A   1      46.877  26.056  26.631  1.00  0.00     0.049 A 
ATOM     40  H   UNL A   1      45.125  26.895  27.379  1.00  0.00     0.167 HD
ATOM     41  C   UNL A   1      41.288  28.567  28.700  1.00  0.00     0.037 A 
ATOM     42  C   UNL A   1      47.803  27.033  26.605  1.00  0.00     0.037 A 
ATOM     43  C   UNL A   1      42.240  29.639  28.833  1.00  0.00     0.049 A 
ATOM     44  C   UNL A   1      47.432  28.403  27.098  1.00  0.00     0.074 A 
ATOM     45  C   UNL A   1      42.041  30.912  29.337  1.00  0.00     0.029 A 
ATOM     46  N   UNL A   1      43.571  29.566  28.446  1.00  0.00    -0.354 N 
ATOM     47  N   UNL A   1      46.277  28.838  27.540  1.00  0.00    -0.248 NA
ATOM     48  C   UNL A   1      48.495  29.416  27.097  1.00  0.00     0.031 C 
ATOM     49  C   UNL A   1      43.234  31.629  29.192  1.00  0.00     0.029 A 
ATOM     50  C   UNL A   1      44.196  30.783  28.663  1.00  0.00     0.049 A 
ATOM     51  H   UNL A   1      44.007  28.766  28.072  1.00  0.00     0.167 HD
ATOM     52  C   UNL A   1      46.475  30.167  27.887  1.00  0.00     0.074 A 
ATOM     53  C   UNL A   1      47.869  30.460  27.623  1.00  0.00     0.031 C 
ATOM     54  C   UNL A   1      45.583  31.063  28.380  1.00  0.00     0.037 A 
BRANCH  41  55
ATOM     55  C   UNL A   1      39.847  28.830  29.038  1.00  0.00     0.064 A 
ATOM     56  C   UNL A   1      39.336  28.627  30.330  1.00  0.00     0.173 A 
ATOM     57  C   UNL A   1      38.959  29.287  28.052  1.00  0.00     0.173 A 
ATOM     58  F   UNL A   1      40.137  28.180  31.310  1.00  0.00    -0.203 F 
ATOM     59  C   UNL A   1      37.985  28.820  30.608  1.00  0.00     0.198 A 
ATOM     60  C   UNL A   1      37.617  29.518  28.344  1.00  0.00     0.198 A 
ATOM     61  F   UNL A   1      39.391  29.506  26.800  1.00  0.00    -0.203 F 
ATOM     62  F   UNL A   1      37.509  28.543  31.831  1.00  0.00    -0.200 F 
ATOM     63  C   UNL A   1      37.128  29.270  29.617  1.00  0.00     0.200 A 
ATOM     64  F   UNL A   1      36.794  29.970  27.388  1.00  0.00    -0.200 F 
ATOM     65  F   UNL A   1      35.828  29.455  29.885  1.00  0.00    -0.200 F 
ENDBRANCH  41  55
BRANCH  42  66
ATOM     66  C   UNL A   1      49.174  26.726  26.119  1.00  0.00     0.064 A 
ATOM     67  C   UNL A   1      50.124  26.133  26.961  1.00  0.00     0.173 A 
ATOM     68  C   UNL A   1      49.546  26.980  24.790  1.00  0.00     0.173 A 
ATOM     69  F   UNL A   1      49.820  25.886  28.244  1.00  0.00    -0.203 F 
ATOM     70  C   UNL A   1      51.397  25.811  26.495  1.00  0.00     0.198 A 
ATOM     71  C   UNL A   1      50.810  26.630  24.318  1.00  0.00     0.198 A 
ATOM     72  F   UNL A   1      48.671  27.538  23.942  1.00  0.00    -0.203 F 
ATOM     73  F   UNL A   1      52.296  25.271  27.330  1.00  0.00    -0.200 F 
ATOM     74  C   UNL A   1      51.736  26.050  25.172  1.00  0.00     0.200 A 
ATOM     75  F   UNL A   1      51.126  26.846  23.034  1.00  0.00    -0.200 F 
ATOM     76  F   UNL A   1      52.954  25.724  24.719  1.00  0.00    -0.200 F 
ENDBRANCH  42  66
BRANCH  54  77
ATOM     77  C   UNL A   1      46.092  32.444  28.679  1.00  0.00     0.064 A 
ATOM     78  C   UNL A   1      46.644  32.773  29.926  1.00  0.00     0.173 A 
ATOM     79  C   UNL A   1      46.060  33.443  27.694  1.00  0.00     0.173 A 
ATOM     80  F   UNL A   1      46.688  31.859  30.908  1.00  0.00    -0.203 F 
ATOM     81  C   UNL A   1      47.115  34.058  30.185  1.00  0.00     0.198 A 
ATOM     82  C   UNL A   1      46.564  34.716  27.943  1.00  0.00     0.198 A 
ATOM     83  F   UNL A   1      45.549  33.181  26.481  1.00  0.00    -0.203 F 
ATOM     84  F   UNL A   1      47.586  34.364  31.401  1.00  0.00    -0.200 F 
ATOM     85  C   UNL A   1      47.082  35.025  29.191  1.00  0.00     0.200 A 
ATOM     86  F   UNL A   1      46.547  35.643  26.977  1.00  0.00    -0.200 F 
ATOM     87  F   UNL A   1      47.542  36.258  29.440  1.00  0.00    -0.200 F 
ENDBRANCH  54  77
ENDBRANCH  28  29
ENDBRANCH  20  23
ENDBRANCH  18  19
ENDBRANCH  17  18
ENDBRANCH   1  17
TORSDOF 15
ENDMDL
MODEL 3
REMARK VINA RESULT:     -10.3      0.573      1.809
REMARK SMILES CCC[C@@H](C[NH2+]C(C)C)C(=O)NCCCNC(=O)c1ccc(-c2c3nc(c(-c4c(F)c(F)c(F)c(F)c4F)c4ccc([nH]4)c(-c4c(F)c(F)c(F)c(F)c4F)c4nc(c(-c5c(F)c(F)c(F)c(F)c5F)c5ccc2[nH]5)C=C4)C=C3)cc1
REMARK SMILES IDX 13 1 12 2 10 3 11 4 4 6 3 7 2 8 1 9 5 10 6 11 7 14 8 15 9 16
REMARK SMILES IDX 14 17 15 18 16 19 17 20 18 22 19 23 20 24 81 25 21 26 80 27
REMARK SMILES IDX 22 28 23 29 24 30 74 31 25 32 79 33 73 34 75 35 26 36 78 37
REMARK SMILES IDX 72 38 71 39 27 41 59 42 39 43 58 44 40 45 43 46 57 47 76 48
REMARK SMILES IDX 41 49 42 50 56 52 77 53 44 54 28 55 29 56 37 57 30 58 31 59
REMARK SMILES IDX 35 60 38 61 32 62 33 63 36 64 34 65 60 66 61 67 69 68 62 69
REMARK SMILES IDX 63 70 67 71 70 72 64 73 65 74 68 75 66 76 45 77 46 78 54 79
REMARK SMILES IDX 47 80 48 81 52 82 55 83 49 84 50 85 53 86 51 87
REMARK H PARENT 12 5 6 12 6 13 16 21 75 40 43 51
REMARK Flexibility Score: inf
ROOT
ATOM      1  C   UNL A   1      37.064  21.159  24.823  1.00  0.00     0.117 C 
ENDROOT
BRANCH   1   2
ATOM      2  N   UNL A   1      36.060  21.260  25.865  1.00  0.00    -0.356 N 
ATOM      3  C   UNL A   1      34.731  20.977  25.823  1.00  0.00     0.228 C 
ATOM      4  O   UNL A   1      34.114  21.028  26.893  1.00  0.00    -0.275 OA
ATOM      5  H   UNL A   1      36.392  21.581  26.734  1.00  0.00     0.163 HD
BRANCH   3   6
ATOM      6  C   UNL A   1      33.997  20.631  24.525  1.00  0.00     0.133 C 
BRANCH   6   7
ATOM      7  C   UNL A   1      33.435  19.196  24.563  1.00  0.00     0.019 C 
BRANCH   7   8
ATOM      8  C   UNL A   1      34.438  18.078  24.275  1.00  0.00    -0.002 C 
ATOM      9  C   UNL A   1      33.842  16.920  23.496  1.00  0.00     0.004 C 
ENDBRANCH   7   8
ENDBRANCH   6   7
BRANCH   6  10
ATOM     10  C   UNL A   1      33.072  21.777  24.046  1.00  0.00     0.274 C 
BRANCH  10  11
ATOM     11  N   UNL A   1      33.765  22.872  23.377  1.00  0.00    -0.344 N 
ATOM     12  H   UNL A   1      33.457  22.892  22.405  1.00  0.00     0.346 HD
ATOM     13  H   UNL A   1      34.761  22.680  23.491  1.00  0.00     0.346 HD
BRANCH  11  14
ATOM     14  C   UNL A   1      33.550  24.199  23.943  1.00  0.00     0.176 C 
ATOM     15  C   UNL A   1      34.607  24.498  25.001  1.00  0.00     0.075 C 
ATOM     16  C   UNL A   1      33.655  25.201  22.789  1.00  0.00     0.075 C 
ENDBRANCH  11  14
ENDBRANCH  10  11
ENDBRANCH   6  10
ENDBRANCH   3   6
ENDBRANCH   1   2
BRANCH   1  17
ATOM     17  C   UNL A   1      38.002  19.985  25.002  1.00  0.00     0.042 C 
BRANCH  17  18
ATOM     18  C   UNL A   1      39.098  20.248  26.011  1.00  0.00     0.118 C 
BRANCH  18  19
ATOM     19  N   UNL A   1      40.117  19.204  26.020  1.00  0.00    -0.352 N 
ATOM     20  C   UNL A   1      41.487  19.290  26.074  1.00  0.00     0.251 C 
ATOM     21  H   UNL A   1      39.764  18.286  25.980  1.00  0.00     0.163 HD
ATOM     22  O   UNL A   1      42.172  18.295  25.866  1.00  0.00    -0.269 OA
BRANCH  20  23
ATOM     23  C   UNL A   1      42.138  20.588  26.353  1.00  0.00     0.039 A 
ATOM     24  C   UNL A   1      42.524  21.399  25.284  1.00  0.00     0.014 A 
ATOM     25  C   UNL A   1      42.358  21.011  27.663  1.00  0.00     0.014 A 
ATOM     26  C   UNL A   1      43.051  22.667  25.536  1.00  0.00     0.010 A 
ATOM     27  C   UNL A   1      42.750  22.318  27.910  1.00  0.00     0.010 A 
ATOM     28  C   UNL A   1      43.118  23.157  26.851  1.00  0.00    -0.014 A 
BRANCH  28  29
ATOM     29  C   UNL A   1      43.577  24.536  27.141  1.00  0.00     0.031 A 
ATOM     30  C   UNL A   1      42.610  25.564  27.660  1.00  0.00     0.074 A 
ATOM     31  C   UNL A   1      44.847  24.885  26.858  1.00  0.00     0.049 A 
ATOM     32  N   UNL A   1      42.807  26.832  27.919  1.00  0.00    -0.248 NA
ATOM     33  C   UNL A   1      41.224  25.117  27.876  1.00  0.00     0.031 C 
ATOM     34  C   UNL A   1      45.857  24.000  26.276  1.00  0.00     0.029 A 
ATOM     35  N   UNL A   1      45.503  26.081  27.011  1.00  0.00    -0.354 N 
ATOM     36  C   UNL A   1      41.570  27.332  28.306  1.00  0.00     0.074 A 
ATOM     37  C   UNL A   1      40.617  26.254  28.176  1.00  0.00     0.031 C 
ATOM     38  C   UNL A   1      47.011  24.672  26.151  1.00  0.00     0.029 A 
ATOM     39  C   UNL A   1      46.813  26.044  26.603  1.00  0.00     0.049 A 
ATOM     40  H   UNL A   1      45.074  26.887  27.379  1.00  0.00     0.167 HD
ATOM     41  C   UNL A   1      41.263  28.572  28.757  1.00  0.00     0.037 A 
ATOM     42  C   UNL A   1      47.748  27.012  26.589  1.00  0.00     0.037 A 
ATOM     43  C   UNL A   1      42.226  29.632  28.904  1.00  0.00     0.049 A 
ATOM     44  C   UNL A   1      47.394  28.377  27.111  1.00  0.00     0.074 A 
ATOM     45  C   UNL A   1      42.044  30.897  29.433  1.00  0.00     0.029 A 
ATOM     46  N   UNL A   1      43.554  29.552  28.506  1.00  0.00    -0.354 N 
ATOM     47  N   UNL A   1      46.246  28.814  27.569  1.00  0.00    -0.248 NA
ATOM     48  C   UNL A   1      48.467  29.379  27.121  1.00  0.00     0.031 C 
ATOM     49  C   UNL A   1      43.243  31.604  29.294  1.00  0.00     0.029 A 
ATOM     50  C   UNL A   1      44.193  30.759  28.742  1.00  0.00     0.049 A 
ATOM     51  H   UNL A   1      43.979  28.755  28.114  1.00  0.00     0.167 HD
ATOM     52  C   UNL A   1      46.460  30.135  27.940  1.00  0.00     0.074 A 
ATOM     53  C   UNL A   1      47.856  30.419  27.671  1.00  0.00     0.031 C 
ATOM     54  C   UNL A   1      45.580  31.030  28.455  1.00  0.00     0.037 A 
BRANCH  41  55
ATOM     55  C   UNL A   1      39.827  28.843  29.109  1.00  0.00     0.064 A 
ATOM     56  C   UNL A   1      38.910  29.336  28.167  1.00  0.00     0.173 A 
ATOM     57  C   UNL A   1      39.360  28.610  30.412  1.00  0.00     0.173 A 
ATOM     58  F   UNL A   1      39.303  29.587  26.909  1.00  0.00    -0.203 F 
ATOM     59  C   UNL A   1      37.598  29.636  28.528  1.00  0.00     0.198 A 
ATOM     60  C   UNL A   1      38.037  28.872  30.759  1.00  0.00     0.198 A 
ATOM     61  F   UNL A   1      40.188  28.132  31.353  1.00  0.00    -0.203 F 
ATOM     62  F   UNL A   1      36.766  30.180  27.629  1.00  0.00    -0.200 F 
ATOM     63  C   UNL A   1      37.162  29.399  29.822  1.00  0.00     0.200 A 
ATOM     64  F   UNL A   1      37.612  28.627  32.006  1.00  0.00    -0.200 F 
ATOM     65  F   UNL A   1      35.900  29.689  30.169  1.00  0.00    -0.200 F 
ENDBRANCH  41  55
BRANCH  42  66
ATOM     66  C   UNL A   1      49.113  26.701  26.088  1.00  0.00     0.064 A 
ATOM     67  C   UNL A   1      50.065  26.091  26.915  1.00  0.00     0.173 A 
ATOM     68  C   UNL A   1      49.476  26.967  24.760  1.00  0.00     0.173 A 
ATOM     69  F   UNL A   1      49.770  25.832  28.198  1.00  0.00    -0.203 F 
ATOM     70  C   UNL A   1      51.332  25.765  26.435  1.00  0.00     0.198 A 
ATOM     71  C   UNL A   1      50.733  26.614  24.273  1.00  0.00     0.198 A 
ATOM     72  F   UNL A   1      48.598  27.542  23.926  1.00  0.00    -0.203 F 
ATOM     73  F   UNL A   1      52.234  25.209  27.256  1.00  0.00    -0.200 F 
ATOM     74  C   UNL A   1      51.661  26.017  25.113  1.00  0.00     0.200 A 
ATOM     75  F   UNL A   1      51.040  26.842  22.989  1.00  0.00    -0.200 F 
ATOM     76  F   UNL A   1      52.873  25.687  24.646  1.00  0.00    -0.200 F 
ENDBRANCH  42  66
BRANCH  54  77
ATOM     77  C   UNL A   1      46.106  32.400  28.776  1.00  0.00     0.064 A 
ATOM     78  C   UNL A   1      46.668  32.701  30.027  1.00  0.00     0.173 A 
ATOM     79  C   UNL A   1      46.079  33.417  27.809  1.00  0.00     0.173 A 
ATOM     80  F   UNL A   1      46.707  31.768  30.991  1.00  0.00    -0.203 F 
ATOM     81  C   UNL A   1      47.153  33.975  30.306  1.00  0.00     0.198 A 
ATOM     82  C   UNL A   1      46.598  34.680  28.080  1.00  0.00     0.198 A 
ATOM     83  F   UNL A   1      45.560  33.183  26.595  1.00  0.00    -0.203 F 
ATOM     84  F   UNL A   1      47.634  34.254  31.525  1.00  0.00    -0.200 F 
ATOM     85  C   UNL A   1      47.126  34.961  29.330  1.00  0.00     0.200 A 
ATOM     86  F   UNL A   1      46.586  35.625  27.130  1.00  0.00    -0.200 F 
ATOM     87  F   UNL A   1      47.600  36.185  29.599  1.00  0.00    -0.200 F 
ENDBRANCH  54  77
ENDBRANCH  28  29
ENDBRANCH  20  23
ENDBRANCH  18  19
ENDBRANCH  17  18
ENDBRANCH   1  17
TORSDOF 15
ENDMDL
