MODEL 1
REMARK VINA RESULT:     -10.5      0.000      0.000
REMARK SMILES C[N@@H+](CC(=O)NCCCNC(=O)c1ccc(-c2c3nc(c(-c4c(F)c(F)c(F)c(F)c4F)c4ccc([nH]4)c(-c4c(F)c(F)c(F)c(F)c4F)c4nc(c(-c5c(F)c(F)c(F)c(F)c5F)c5ccc2[nH]5)C=C4)C=C3)cc1)Cc1nccs1
REMARK SMILES IDX 7 1 6 2 4 3 5 4 3 6 2 7 1 8 76 10 77 11 78 12 81 13 79 14
REMARK SMILES IDX 80 15 8 16 9 17 10 18 11 19 12 21 13 22 14 23 75 24 15 25
REMARK SMILES IDX 74 26 16 27 17 28 18 29 68 30 19 31 73 32 67 33 69 34 20 35
REMARK SMILES IDX 72 36 66 37 65 38 21 40 53 41 33 42 52 43 34 44 37 45 51 46
REMARK SMILES IDX 70 47 35 48 36 49 50 51 71 52 38 53 22 54 23 55 31 56 24 57
REMARK SMILES IDX 25 58 29 59 32 60 26 61 27 62 30 63 28 64 54 65 55 66 63 67
REMARK SMILES IDX 56 68 57 69 61 70 64 71 58 72 59 73 62 74 60 75 39 76 40 77
REMARK SMILES IDX 48 78 41 79 42 80 46 81 49 82 43 83 44 84 47 85 45 86
REMARK H PARENT 6 5 2 9 10 20 69 39 37 50
REMARK Flexibility Score: inf
ROOT
ATOM      1  C   UNL A   1      31.298  30.920  25.851  1.00  0.00     0.118 C 
ENDROOT
BRANCH   1   2
ATOM      2  N   UNL A   1      31.962  29.935  26.681  1.00  0.00    -0.351 N 
ATOM      3  C   UNL A   1      32.551  28.750  26.358  1.00  0.00     0.275 C 
ATOM      4  O   UNL A   1      33.287  28.246  27.212  1.00  0.00    -0.269 OA
ATOM      5  H   UNL A   1      31.992  30.161  27.639  1.00  0.00     0.163 HD
BRANCH   3   6
ATOM      6  C   UNL A   1      32.386  28.109  24.983  1.00  0.00     0.363 C 
BRANCH   6   7
ATOM      7  N   UNL A   1      31.094  27.482  24.695  1.00  0.00    -0.324 N 
ATOM      8  C   UNL A   1      30.648  26.414  25.554  1.00  0.00     0.333 C 
ATOM      9  H   UNL A   1      30.526  28.249  25.056  1.00  0.00     0.348 HD
BRANCH   7  10
ATOM     10  C   UNL A   1      30.599  27.475  23.315  1.00  0.00     0.331 C 
BRANCH  10  11
ATOM     11  C   UNL A   1      29.420  28.360  22.988  1.00  0.00     0.147 A 
ATOM     12  N   UNL A   1      28.172  28.044  23.276  1.00  0.00    -0.244 NA
ATOM     13  S   UNL A   1      29.603  29.839  22.124  1.00  0.00    -0.122 S 
ATOM     14  C   UNL A   1      27.324  29.068  22.914  1.00  0.00     0.123 A 
ATOM     15  C   UNL A   1      27.922  30.133  22.282  1.00  0.00     0.087 A 
ENDBRANCH  10  11
ENDBRANCH   7  10
ENDBRANCH   6   7
ENDBRANCH   3   6
ENDBRANCH   1   2
BRANCH   1  16
ATOM     16  C   UNL A   1      31.184  32.291  26.510  1.00  0.00     0.042 C 
BRANCH  16  17
ATOM     17  C   UNL A   1      32.467  32.826  27.135  1.00  0.00     0.118 C 
BRANCH  17  18
ATOM     18  N   UNL A   1      32.337  34.196  27.600  1.00  0.00    -0.352 N 
ATOM     19  C   UNL A   1      32.994  34.853  28.614  1.00  0.00     0.251 C 
ATOM     20  H   UNL A   1      31.676  34.739  27.114  1.00  0.00     0.163 HD
ATOM     21  O   UNL A   1      32.603  35.962  28.965  1.00  0.00    -0.269 OA
BRANCH  19  22
ATOM     22  C   UNL A   1      34.154  34.239  29.306  1.00  0.00     0.039 A 
ATOM     23  C   UNL A   1      35.441  34.528  28.837  1.00  0.00     0.014 A 
ATOM     24  C   UNL A   1      33.994  33.335  30.360  1.00  0.00     0.014 A 
ATOM     25  C   UNL A   1      36.560  33.957  29.451  1.00  0.00     0.010 A 
ATOM     26  C   UNL A   1      35.112  32.817  31.017  1.00  0.00     0.010 A 
ATOM     27  C   UNL A   1      36.407  33.113  30.563  1.00  0.00    -0.014 A 
BRANCH  27  28
ATOM     28  C   UNL A   1      37.585  32.503  31.237  1.00  0.00     0.031 A 
ATOM     29  C   UNL A   1      38.347  31.393  30.562  1.00  0.00     0.074 A 
ATOM     30  C   UNL A   1      37.950  32.912  32.467  1.00  0.00     0.049 A 
ATOM     31  N   UNL A   1      39.342  30.673  31.018  1.00  0.00    -0.248 NA
ATOM     32  C   UNL A   1      37.921  31.033  29.200  1.00  0.00     0.031 C 
ATOM     33  C   UNL A   1      37.290  33.965  33.240  1.00  0.00     0.029 A 
ATOM     34  N   UNL A   1      38.964  32.485  33.288  1.00  0.00    -0.354 N 
ATOM     35  C   UNL A   1      39.650  29.771  30.008  1.00  0.00     0.074 A 
ATOM     36  C   UNL A   1      38.709  30.002  28.933  1.00  0.00     0.031 C 
ATOM     37  C   UNL A   1      37.926  34.114  34.413  1.00  0.00     0.029 A 
ATOM     38  C   UNL A   1      39.017  33.144  34.491  1.00  0.00     0.049 A 
ATOM     39  H   UNL A   1      39.596  31.772  33.036  1.00  0.00     0.167 HD
ATOM     40  C   UNL A   1      40.641  28.848  29.968  1.00  0.00     0.037 A 
ATOM     41  C   UNL A   1      39.843  32.980  35.542  1.00  0.00     0.037 A 
ATOM     42  C   UNL A   1      41.598  28.633  31.021  1.00  0.00     0.049 A 
ATOM     43  C   UNL A   1      40.924  31.935  35.479  1.00  0.00     0.074 A 
ATOM     44  C   UNL A   1      42.650  27.734  31.063  1.00  0.00     0.029 A 
ATOM     45  N   UNL A   1      41.624  29.333  32.217  1.00  0.00    -0.354 N 
ATOM     46  N   UNL A   1      41.220  31.108  34.507  1.00  0.00    -0.248 NA
ATOM     47  C   UNL A   1      41.789  31.804  36.661  1.00  0.00     0.031 C 
ATOM     48  C   UNL A   1      43.299  27.873  32.294  1.00  0.00     0.029 A 
ATOM     49  C   UNL A   1      42.672  28.883  33.005  1.00  0.00     0.049 A 
ATOM     50  H   UNL A   1      40.993  30.045  32.469  1.00  0.00     0.167 HD
ATOM     51  C   UNL A   1      42.321  30.385  34.945  1.00  0.00     0.074 A 
ATOM     52  C   UNL A   1      42.648  30.875  36.266  1.00  0.00     0.031 C 
ATOM     53  C   UNL A   1      43.000  29.400  34.306  1.00  0.00     0.037 A 
BRANCH  40  54
ATOM     54  C   UNL A   1      40.752  28.005  28.732  1.00  0.00     0.064 A 
ATOM     55  C   UNL A   1      40.051  26.797  28.609  1.00  0.00     0.173 A 
ATOM     56  C   UNL A   1      41.529  28.430  27.643  1.00  0.00     0.173 A 
ATOM     57  F   UNL A   1      39.306  26.342  29.627  1.00  0.00    -0.203 F 
ATOM     58  C   UNL A   1      40.141  26.032  27.449  1.00  0.00     0.198 A 
ATOM     59  C   UNL A   1      41.595  27.676  26.475  1.00  0.00     0.198 A 
ATOM     60  F   UNL A   1      42.213  29.582  27.709  1.00  0.00    -0.203 F 
ATOM     61  F   UNL A   1      39.494  24.861  27.369  1.00  0.00    -0.200 F 
ATOM     62  C   UNL A   1      40.906  26.475  26.381  1.00  0.00     0.200 A 
ATOM     63  F   UNL A   1      42.327  28.110  25.440  1.00  0.00    -0.200 F 
ATOM     64  F   UNL A   1      40.986  25.742  25.262  1.00  0.00    -0.200 F 
ENDBRANCH  40  54
BRANCH  41  65
ATOM     65  C   UNL A   1      39.701  33.840  36.745  1.00  0.00     0.064 A 
ATOM     66  C   UNL A   1      38.904  33.435  37.826  1.00  0.00     0.173 A 
ATOM     67  C   UNL A   1      40.330  35.090  36.830  1.00  0.00     0.173 A 
ATOM     68  F   UNL A   1      38.263  32.258  37.779  1.00  0.00    -0.203 F 
ATOM     69  C   UNL A   1      38.723  34.257  38.935  1.00  0.00     0.198 A 
ATOM     70  C   UNL A   1      40.170  35.901  37.952  1.00  0.00     0.198 A 
ATOM     71  F   UNL A   1      41.103  35.523  35.823  1.00  0.00    -0.203 F 
ATOM     72  F   UNL A   1      37.917  33.867  39.932  1.00  0.00    -0.200 F 
ATOM     73  C   UNL A   1      39.360  35.488  38.999  1.00  0.00     0.200 A 
ATOM     74  F   UNL A   1      40.793  37.085  38.014  1.00  0.00    -0.200 F 
ATOM     75  F   UNL A   1      39.183  36.281  40.065  1.00  0.00    -0.200 F 
ENDBRANCH  41  65
BRANCH  53  76
ATOM     76  C   UNL A   1      44.195  28.823  35.006  1.00  0.00     0.064 A 
ATOM     77  C   UNL A   1      44.087  27.702  35.841  1.00  0.00     0.173 A 
ATOM     78  C   UNL A   1      45.468  29.376  34.805  1.00  0.00     0.173 A 
ATOM     79  F   UNL A   1      42.888  27.149  36.075  1.00  0.00    -0.203 F 
ATOM     80  C   UNL A   1      45.210  27.167  36.466  1.00  0.00     0.198 A 
ATOM     81  C   UNL A   1      46.592  28.825  35.412  1.00  0.00     0.198 A 
ATOM     82  F   UNL A   1      45.622  30.447  34.010  1.00  0.00    -0.203 F 
ATOM     83  F   UNL A   1      45.080  26.119  37.290  1.00  0.00    -0.200 F 
ATOM     84  C   UNL A   1      46.462  27.724  36.245  1.00  0.00     0.200 A 
ATOM     85  F   UNL A   1      47.801  29.359  35.192  1.00  0.00    -0.200 F 
ATOM     86  F   UNL A   1      47.542  27.205  36.845  1.00  0.00    -0.200 F 
ENDBRANCH  53  76
ENDBRANCH  27  28
ENDBRANCH  19  22
ENDBRANCH  17  18
ENDBRANCH  16  17
ENDBRANCH   1  16
TORSDOF 13
ENDMDL
MODEL 2
REMARK VINA RESULT:     -10.4      6.412     10.318
REMARK SMILES C[N@@H+](CC(=O)NCCCNC(=O)c1ccc(-c2c3nc(c(-c4c(F)c(F)c(F)c(F)c4F)c4ccc([nH]4)c(-c4c(F)c(F)c(F)c(F)c4F)c4nc(c(-c5c(F)c(F)c(F)c(F)c5F)c5ccc2[nH]5)C=C4)C=C3)cc1)Cc1nccs1
REMARK SMILES IDX 7 1 6 2 4 3 5 4 3 6 2 7 1 8 76 10 77 11 78 12 81 13 79 14
REMARK SMILES IDX 80 15 8 16 9 17 10 18 11 19 12 21 13 22 14 23 75 24 15 25
REMARK SMILES IDX 74 26 16 27 17 28 18 29 68 30 19 31 73 32 67 33 69 34 20 35
REMARK SMILES IDX 72 36 66 37 65 38 21 40 53 41 33 42 52 43 34 44 37 45 51 46
REMARK SMILES IDX 70 47 35 48 36 49 50 51 71 52 38 53 22 54 23 55 31 56 24 57
REMARK SMILES IDX 25 58 29 59 32 60 26 61 27 62 30 63 28 64 54 65 55 66 63 67
REMARK SMILES IDX 56 68 57 69 61 70 64 71 58 72 59 73 62 74 60 75 39 76 40 77
REMARK SMILES IDX 48 78 41 79 42 80 46 81 49 82 43 83 44 84 47 85 45 86
REMARK H PARENT 6 5 2 9 10 20 69 39 37 50
REMARK Flexibility Score: inf
ROOT
ATOM      1  C   UNL A   1      36.753  19.903  25.002  1.00  0.00     0.118 C 
ENDROOT
BRANCH   1   2
ATOM      2  N   UNL A   1      36.502  21.287  25.350  1.00  0.00    -0.351 N 
ATOM      3  C   UNL A   1      35.386  21.892  25.846  1.00  0.00     0.275 C 
ATOM      4  O   UNL A   1      35.532  23.023  26.318  1.00  0.00    -0.269 OA
ATOM      5  H   UNL A   1      37.266  21.891  25.205  1.00  0.00     0.163 HD
BRANCH   3   6
ATOM      6  C   UNL A   1      34.033  21.185  25.897  1.00  0.00     0.363 C 
BRANCH   6   7
ATOM      7  N   UNL A   1      33.381  20.910  24.615  1.00  0.00    -0.324 N 
ATOM      8  C   UNL A   1      33.346  21.960  23.628  1.00  0.00     0.333 C 
ATOM      9  H   UNL A   1      34.135  20.336  24.237  1.00  0.00     0.348 HD
BRANCH   7  10
ATOM     10  C   UNL A   1      32.305  19.916  24.564  1.00  0.00     0.331 C 
BRANCH  10  11
ATOM     11  C   UNL A   1      32.691  18.459  24.668  1.00  0.00     0.147 A 
ATOM     12  N   UNL A   1      32.504  17.733  25.753  1.00  0.00    -0.244 NA
ATOM     13  S   UNL A   1      33.494  17.635  23.386  1.00  0.00    -0.122 S 
ATOM     14  C   UNL A   1      32.895  16.432  25.532  1.00  0.00     0.123 A 
ATOM     15  C   UNL A   1      33.449  16.184  24.297  1.00  0.00     0.087 A 
ENDBRANCH  10  11
ENDBRANCH   7  10
ENDBRANCH   6   7
ENDBRANCH   3   6
ENDBRANCH   1   2
BRANCH   1  16
ATOM     16  C   UNL A   1      38.235  19.579  24.839  1.00  0.00     0.042 C 
BRANCH  16  17
ATOM     17  C   UNL A   1      39.113  19.906  26.041  1.00  0.00     0.118 C 
BRANCH  17  18
ATOM     18  N   UNL A   1      40.338  19.124  26.072  1.00  0.00    -0.352 N 
ATOM     19  C   UNL A   1      41.647  19.534  26.162  1.00  0.00     0.251 C 
ATOM     20  H   UNL A   1      40.210  18.150  26.019  1.00  0.00     0.163 HD
ATOM     21  O   UNL A   1      42.546  18.717  25.987  1.00  0.00    -0.269 OA
BRANCH  19  22
ATOM     22  C   UNL A   1      41.995  20.947  26.448  1.00  0.00     0.039 A 
ATOM     23  C   UNL A   1      42.128  21.833  25.372  1.00  0.00     0.014 A 
ATOM     24  C   UNL A   1      42.260  21.397  27.745  1.00  0.00     0.014 A 
ATOM     25  C   UNL A   1      42.472  23.170  25.598  1.00  0.00     0.010 A 
ATOM     26  C   UNL A   1      42.537  22.746  27.978  1.00  0.00     0.010 A 
ATOM     27  C   UNL A   1      42.657  23.645  26.906  1.00  0.00    -0.014 A 
BRANCH  27  28
ATOM     28  C   UNL A   1      43.014  25.065  27.169  1.00  0.00     0.031 A 
ATOM     29  C   UNL A   1      44.379  25.580  26.796  1.00  0.00     0.074 A 
ATOM     30  C   UNL A   1      42.133  25.884  27.775  1.00  0.00     0.049 A 
ATOM     31  N   UNL A   1      44.912  26.755  27.022  1.00  0.00    -0.248 NA
ATOM     32  C   UNL A   1      45.269  24.642  26.094  1.00  0.00     0.031 C 
ATOM     33  C   UNL A   1      40.785  25.511  28.203  1.00  0.00     0.029 A 
ATOM     34  N   UNL A   1      42.245  27.202  28.144  1.00  0.00    -0.354 N 
ATOM     35  C   UNL A   1      46.200  26.692  26.502  1.00  0.00     0.074 A 
ATOM     36  C   UNL A   1      46.383  25.351  25.991  1.00  0.00     0.031 C 
ATOM     37  C   UNL A   1      40.188  26.578  28.759  1.00  0.00     0.029 A 
ATOM     38  C   UNL A   1      41.123  27.701  28.760  1.00  0.00     0.049 A 
ATOM     39  H   UNL A   1      43.054  27.740  27.982  1.00  0.00     0.167 HD
ATOM     40  C   UNL A   1      47.135  27.668  26.435  1.00  0.00     0.037 A 
ATOM     41  C   UNL A   1      40.879  28.922  29.274  1.00  0.00     0.037 A 
ATOM     42  C   UNL A   1      46.949  29.012  26.915  1.00  0.00     0.049 A 
ATOM     43  C   UNL A   1      41.944  29.983  29.203  1.00  0.00     0.074 A 
ATOM     44  C   UNL A   1      47.834  30.076  26.873  1.00  0.00     0.029 A 
ATOM     45  N   UNL A   1      45.792  29.479  27.518  1.00  0.00    -0.354 N 
ATOM     46  N   UNL A   1      43.145  29.917  28.684  1.00  0.00    -0.248 NA
ATOM     47  C   UNL A   1      41.614  31.292  29.786  1.00  0.00     0.031 C 
ATOM     48  C   UNL A   1      47.221  31.182  27.473  1.00  0.00     0.029 A 
ATOM     49  C   UNL A   1      45.942  30.815  27.857  1.00  0.00     0.049 A 
ATOM     50  H   UNL A   1      44.983  28.942  27.681  1.00  0.00     0.167 HD
ATOM     51  C   UNL A   1      43.700  31.178  28.849  1.00  0.00     0.074 A 
ATOM     52  C   UNL A   1      42.704  31.995  29.507  1.00  0.00     0.031 C 
ATOM     53  C   UNL A   1      44.930  31.620  28.487  1.00  0.00     0.037 A 
BRANCH  40  54
ATOM     54  C   UNL A   1      48.451  27.323  25.802  1.00  0.00     0.064 A 
ATOM     55  C   UNL A   1      48.651  27.449  24.419  1.00  0.00     0.173 A 
ATOM     56  C   UNL A   1      49.537  26.908  26.589  1.00  0.00     0.173 A 
ATOM     57  F   UNL A   1      47.640  27.831  23.624  1.00  0.00    -0.203 F 
ATOM     58  C   UNL A   1      49.882  27.150  23.843  1.00  0.00     0.198 A 
ATOM     59  C   UNL A   1      50.774  26.635  26.013  1.00  0.00     0.198 A 
ATOM     60  F   UNL A   1      49.399  26.778  27.917  1.00  0.00    -0.203 F 
ATOM     61  F   UNL A   1      50.039  27.239  22.516  1.00  0.00    -0.200 F 
ATOM     62  C   UNL A   1      50.945  26.751  24.641  1.00  0.00     0.200 A 
ATOM     63  F   UNL A   1      51.802  26.259  26.785  1.00  0.00    -0.200 F 
ATOM     64  F   UNL A   1      52.132  26.471  24.086  1.00  0.00    -0.200 F 
ENDBRANCH  40  54
BRANCH  41  65
ATOM     65  C   UNL A   1      39.559  29.223  29.888  1.00  0.00     0.064 A 
ATOM     66  C   UNL A   1      38.491  29.680  29.102  1.00  0.00     0.173 A 
ATOM     67  C   UNL A   1      39.346  29.090  31.266  1.00  0.00     0.173 A 
ATOM     68  F   UNL A   1      38.656  29.846  27.782  1.00  0.00    -0.203 F 
ATOM     69  C   UNL A   1      37.267  30.014  29.676  1.00  0.00     0.198 A 
ATOM     70  C   UNL A   1      38.113  29.399  31.837  1.00  0.00     0.198 A 
ATOM     71  F   UNL A   1      40.337  28.657  32.061  1.00  0.00    -0.203 F 
ATOM     72  F   UNL A   1      36.279  30.495  28.910  1.00  0.00    -0.200 F 
ATOM     73  C   UNL A   1      37.078  29.870  31.043  1.00  0.00     0.200 A 
ATOM     74  F   UNL A   1      37.931  29.250  33.155  1.00  0.00    -0.200 F 
ATOM     75  F   UNL A   1      35.901  30.194  31.595  1.00  0.00    -0.200 F 
ENDBRANCH  41  65
BRANCH  53  76
ATOM     76  C   UNL A   1      45.247  33.063  28.747  1.00  0.00     0.064 A 
ATOM     77  C   UNL A   1      45.870  33.476  29.933  1.00  0.00     0.173 A 
ATOM     78  C   UNL A   1      44.960  34.036  27.779  1.00  0.00     0.173 A 
ATOM     79  F   UNL A   1      46.149  32.583  30.894  1.00  0.00    -0.203 F 
ATOM     80  C   UNL A   1      46.175  34.817  30.149  1.00  0.00     0.198 A 
ATOM     81  C   UNL A   1      45.288  35.372  27.988  1.00  0.00     0.198 A 
ATOM     82  F   UNL A   1      44.368  33.688  26.626  1.00  0.00    -0.203 F 
ATOM     83  F   UNL A   1      46.736  35.196  31.306  1.00  0.00    -0.200 F 
ATOM     84  C   UNL A   1      45.891  35.762  29.174  1.00  0.00     0.200 A 
ATOM     85  F   UNL A   1      45.020  36.283  27.042  1.00  0.00    -0.200 F 
ATOM     86  F   UNL A   1      46.191  37.051  29.382  1.00  0.00    -0.200 F 
ENDBRANCH  53  76
ENDBRANCH  27  28
ENDBRANCH  19  22
ENDBRANCH  17  18
ENDBRANCH  16  17
ENDBRANCH   1  16
TORSDOF 13
ENDMDL
MODEL 3
REMARK VINA RESULT:     -10.4      0.956      7.718
REMARK SMILES C[N@@H+](CC(=O)NCCCNC(=O)c1ccc(-c2c3nc(c(-c4c(F)c(F)c(F)c(F)c4F)c4ccc([nH]4)c(-c4c(F)c(F)c(F)c(F)c4F)c4nc(c(-c5c(F)c(F)c(F)c(F)c5F)c5ccc2[nH]5)C=C4)C=C3)cc1)Cc1nccs1
REMARK SMILES IDX 7 1 6 2 4 3 5 4 3 6 2 7 1 8 76 10 77 11 78 12 81 13 79 14
REMARK SMILES IDX 80 15 8 16 9 17 10 18 11 19 12 21 13 22 14 23 75 24 15 25
REMARK SMILES IDX 74 26 16 27 17 28 18 29 68 30 19 31 73 32 67 33 69 34 20 35
REMARK SMILES IDX 72 36 66 37 65 38 21 40 53 41 33 42 52 43 34 44 37 45 51 46
REMARK SMILES IDX 70 47 35 48 36 49 50 51 71 52 38 53 22 54 23 55 31 56 24 57
REMARK SMILES IDX 25 58 29 59 32 60 26 61 27 62 30 63 28 64 54 65 55 66 63 67
REMARK SMILES IDX 56 68 57 69 61 70 64 71 58 72 59 73 62 74 60 75 39 76 40 77
REMARK SMILES IDX 48 78 41 79 42 80 46 81 49 82 43 83 44 84 47 85 45 86
REMARK H PARENT 6 5 2 9 10 20 69 39 37 50
REMARK Flexibility Score: inf
ROOT
ATOM      1  C   UNL A   1      31.121  30.883  25.413  1.00  0.00     0.118 C 
ENDROOT
BRANCH   1   2
ATOM      2  N   UNL A   1      32.348  30.117  25.334  1.00  0.00    -0.351 N 
ATOM      3  C   UNL A   1      32.555  28.777  25.199  1.00  0.00     0.275 C 
ATOM      4  O   UNL A   1      33.691  28.421  24.873  1.00  0.00    -0.269 OA
ATOM      5  H   UNL A   1      33.171  30.655  25.386  1.00  0.00     0.163 HD
BRANCH   3   6
ATOM      6  C   UNL A   1      31.426  27.761  25.356  1.00  0.00     0.363 C 
BRANCH   6   7
ATOM      7  N   UNL A   1      31.015  27.036  24.152  1.00  0.00    -0.324 N 
ATOM      8  C   UNL A   1      31.395  25.651  24.027  1.00  0.00     0.333 C 
ATOM      9  H   UNL A   1      30.038  26.927  24.426  1.00  0.00     0.348 HD
BRANCH   7  10
ATOM     10  C   UNL A   1      30.809  27.783  22.908  1.00  0.00     0.331 C 
BRANCH  10  11
ATOM     11  C   UNL A   1      29.530  28.572  22.766  1.00  0.00     0.147 A 
ATOM     12  N   UNL A   1      28.352  28.127  23.162  1.00  0.00    -0.244 NA
ATOM     13  S   UNL A   1      29.488  30.108  21.988  1.00  0.00    -0.122 S 
ATOM     14  C   UNL A   1      27.385  29.087  22.961  1.00  0.00     0.123 A 
ATOM     15  C   UNL A   1      27.816  30.237  22.342  1.00  0.00     0.087 A 
ENDBRANCH  10  11
ENDBRANCH   7  10
ENDBRANCH   6   7
ENDBRANCH   3   6
ENDBRANCH   1   2
BRANCH   1  16
ATOM     16  C   UNL A   1      31.131  31.931  26.522  1.00  0.00     0.042 C 
BRANCH  16  17
ATOM     17  C   UNL A   1      32.507  32.459  26.911  1.00  0.00     0.118 C 
BRANCH  17  18
ATOM     18  N   UNL A   1      32.463  33.819  27.422  1.00  0.00    -0.352 N 
ATOM     19  C   UNL A   1      33.210  34.418  28.408  1.00  0.00     0.251 C 
ATOM     20  H   UNL A   1      31.794  34.401  26.996  1.00  0.00     0.163 HD
ATOM     21  O   UNL A   1      32.888  35.531  28.815  1.00  0.00    -0.269 OA
BRANCH  19  22
ATOM     22  C   UNL A   1      34.387  33.740  29.004  1.00  0.00     0.039 A 
ATOM     23  C   UNL A   1      34.168  32.674  29.886  1.00  0.00     0.014 A 
ATOM     24  C   UNL A   1      35.693  34.176  28.765  1.00  0.00     0.014 A 
ATOM     25  C   UNL A   1      35.251  32.020  30.482  1.00  0.00     0.010 A 
ATOM     26  C   UNL A   1      36.777  33.481  29.307  1.00  0.00     0.010 A 
ATOM     27  C   UNL A   1      36.567  32.402  30.180  1.00  0.00    -0.014 A 
BRANCH  27  28
ATOM     28  C   UNL A   1      37.733  31.712  30.797  1.00  0.00     0.031 A 
ATOM     29  C   UNL A   1      38.158  32.060  32.198  1.00  0.00     0.074 A 
ATOM     30  C   UNL A   1      38.434  30.804  30.091  1.00  0.00     0.049 A 
ATOM     31  N   UNL A   1      39.195  31.639  32.879  1.00  0.00    -0.248 NA
ATOM     32  C   UNL A   1      37.316  33.024  32.924  1.00  0.00     0.031 C 
ATOM     33  C   UNL A   1      38.140  30.387  28.720  1.00  0.00     0.029 A 
ATOM     34  N   UNL A   1      39.545  30.073  30.429  1.00  0.00    -0.354 N 
ATOM     35  C   UNL A   1      39.137  32.294  34.103  1.00  0.00     0.074 A 
ATOM     36  C   UNL A   1      37.989  33.175  34.055  1.00  0.00     0.031 C 
ATOM     37  C   UNL A   1      39.036  29.461  28.341  1.00  0.00     0.029 A 
ATOM     38  C   UNL A   1      39.989  29.245  29.427  1.00  0.00     0.049 A 
ATOM     39  H   UNL A   1      39.984  30.135  31.309  1.00  0.00     0.167 HD
ATOM     40  C   UNL A   1      39.950  32.159  35.177  1.00  0.00     0.037 A 
ATOM     41  C   UNL A   1      41.048  28.414  29.385  1.00  0.00     0.037 A 
ATOM     42  C   UNL A   1      41.076  31.264  35.241  1.00  0.00     0.049 A 
ATOM     43  C   UNL A   1      41.947  28.297  30.587  1.00  0.00     0.074 A 
ATOM     44  C   UNL A   1      41.947  31.045  36.294  1.00  0.00     0.029 A 
ATOM     45  N   UNL A   1      41.480  30.433  34.208  1.00  0.00    -0.354 N 
ATOM     46  N   UNL A   1      41.862  28.902  31.746  1.00  0.00    -0.248 NA
ATOM     47  C   UNL A   1      43.087  27.375  30.474  1.00  0.00     0.031 C 
ATOM     48  C   UNL A   1      42.894  30.097  35.891  1.00  0.00     0.029 A 
ATOM     49  C   UNL A   1      42.591  29.702  34.599  1.00  0.00     0.049 A 
ATOM     50  H   UNL A   1      41.043  30.370  33.329  1.00  0.00     0.167 HD
ATOM     51  C   UNL A   1      42.914  28.412  32.508  1.00  0.00     0.074 A 
ATOM     52  C   UNL A   1      43.619  27.453  31.686  1.00  0.00     0.031 C 
ATOM     53  C   UNL A   1      43.264  28.732  33.777  1.00  0.00     0.037 A 
BRANCH  40  54
ATOM     54  C   UNL A   1      39.643  32.991  36.386  1.00  0.00     0.064 A 
ATOM     55  C   UNL A   1      40.249  34.241  36.584  1.00  0.00     0.173 A 
ATOM     56  C   UNL A   1      38.700  32.561  37.332  1.00  0.00     0.173 A 
ATOM     57  F   UNL A   1      41.166  34.691  35.715  1.00  0.00    -0.203 F 
ATOM     58  C   UNL A   1      39.941  35.018  37.697  1.00  0.00     0.198 A 
ATOM     59  C   UNL A   1      38.375  33.352  38.430  1.00  0.00     0.198 A 
ATOM     60  F   UNL A   1      38.087  31.376  37.185  1.00  0.00    -0.203 F 
ATOM     61  F   UNL A   1      40.563  36.190  37.887  1.00  0.00    -0.200 F 
ATOM     62  C   UNL A   1      38.999  34.577  38.615  1.00  0.00     0.200 A 
ATOM     63  F   UNL A   1      37.458  32.930  39.311  1.00  0.00    -0.200 F 
ATOM     64  F   UNL A   1      38.697  35.330  39.681  1.00  0.00    -0.200 F 
ENDBRANCH  40  54
BRANCH  41  65
ATOM     65  C   UNL A   1      41.313  27.603  28.168  1.00  0.00     0.064 A 
ATOM     66  C   UNL A   1      40.761  26.322  28.026  1.00  0.00     0.173 A 
ATOM     67  C   UNL A   1      42.140  28.076  27.140  1.00  0.00     0.173 A 
ATOM     68  F   UNL A   1      39.983  25.819  28.995  1.00  0.00    -0.203 F 
ATOM     69  C   UNL A   1      41.047  25.535  26.914  1.00  0.00     0.198 A 
ATOM     70  C   UNL A   1      42.404  27.298  26.015  1.00  0.00     0.198 A 
ATOM     71  F   UNL A   1      42.693  29.295  27.228  1.00  0.00    -0.203 F 
ATOM     72  F   UNL A   1      40.546  24.295  26.826  1.00  0.00    -0.200 F 
ATOM     73  C   UNL A   1      41.865  26.025  25.906  1.00  0.00     0.200 A 
ATOM     74  F   UNL A   1      43.188  27.778  25.040  1.00  0.00    -0.200 F 
ATOM     75  F   UNL A   1      42.142  25.266  24.837  1.00  0.00    -0.200 F 
ENDBRANCH  41  65
BRANCH  53  76
ATOM     76  C   UNL A   1      44.431  28.001  34.374  1.00  0.00     0.064 A 
ATOM     77  C   UNL A   1      44.267  26.783  35.049  1.00  0.00     0.173 A 
ATOM     78  C   UNL A   1      45.731  28.508  34.233  1.00  0.00     0.173 A 
ATOM     79  F   UNL A   1      43.042  26.267  35.222  1.00  0.00    -0.203 F 
ATOM     80  C   UNL A   1      45.364  26.108  35.580  1.00  0.00     0.198 A 
ATOM     81  C   UNL A   1      46.827  27.819  34.743  1.00  0.00     0.198 A 
ATOM     82  F   UNL A   1      45.937  29.668  33.591  1.00  0.00    -0.203 F 
ATOM     83  F   UNL A   1      45.182  24.965  36.254  1.00  0.00    -0.200 F 
ATOM     84  C   UNL A   1      46.642  26.623  35.419  1.00  0.00     0.200 A 
ATOM     85  F   UNL A   1      48.062  28.313  34.581  1.00  0.00    -0.200 F 
ATOM     86  F   UNL A   1      47.696  25.969  35.926  1.00  0.00    -0.200 F 
ENDBRANCH  53  76
ENDBRANCH  27  28
ENDBRANCH  19  22
ENDBRANCH  17  18
ENDBRANCH  16  17
ENDBRANCH   1  16
TORSDOF 13
ENDMDL
