MODEL 1
REMARK VINA RESULT:     -11.7      0.000      0.000
REMARK SMILES CN(CC(N)=O)c1ccccc1/C=C/C(=O)NCCCNC(=O)c1ccc(-c2c3nc(c(-c4c(F)c(F)c(F)c(F)c4F)c4ccc([nH]4)c(-c4c(F)c(F)c(F)c(F)c4F)c4nc(c(-c5c(F)c(F)c(F)c(F)c5F)c5ccc2[nH]5)C=C4)C=C3)cc1
REMARK SMILES IDX 18 1 17 2 15 3 16 4 14 6 13 7 12 8 7 9 8 10 9 11 11 12 10 13
REMARK SMILES IDX 2 14 1 15 3 16 4 17 5 18 6 19 19 22 20 23 21 24 22 25 23 27
REMARK SMILES IDX 24 28 25 29 86 30 26 31 85 32 27 33 28 34 29 35 79 36 30 37
REMARK SMILES IDX 84 38 78 39 80 40 31 41 83 42 77 43 76 44 32 46 64 47 44 48
REMARK SMILES IDX 63 49 45 50 48 51 62 52 81 53 46 54 47 55 61 57 82 58 49 59
REMARK SMILES IDX 33 60 34 61 42 62 35 63 36 64 40 65 43 66 37 67 38 68 41 69
REMARK SMILES IDX 39 70 65 71 66 72 74 73 67 74 68 75 72 76 75 77 69 78 70 79
REMARK SMILES IDX 73 80 71 81 50 82 51 83 59 84 52 85 53 86 57 87 60 88 54 89
REMARK SMILES IDX 55 90 58 91 56 92
REMARK H PARENT 17 5 5 20 5 21 21 26 80 45 48 56
REMARK Flexibility Score: inf
ROOT
ATOM      1  C   UNL A   1      37.401  21.238  24.569  1.00  0.00     0.118 C 
ENDROOT
BRANCH   1   2
ATOM      2  N   UNL A   1      38.092  22.393  25.103  1.00  0.00    -0.352 N 
ATOM      3  C   UNL A   1      37.592  23.472  25.757  1.00  0.00     0.244 C 
ATOM      4  O   UNL A   1      38.360  24.316  26.212  1.00  0.00    -0.270 OA
ATOM      5  H   UNL A   1      39.068  22.395  24.972  1.00  0.00     0.163 HD
BRANCH   3   6
ATOM      6  C   UNL A   1      36.142  23.586  26.027  1.00  0.00     0.072 C 
ATOM      7  C   UNL A   1      35.215  24.063  25.179  1.00  0.00     0.016 C 
BRANCH   7   8
ATOM      8  C   UNL A   1      33.784  24.201  25.545  1.00  0.00    -0.002 A 
ATOM      9  C   UNL A   1      32.849  23.147  25.374  1.00  0.00     0.044 A 
ATOM     10  C   UNL A   1      31.519  23.386  25.772  1.00  0.00     0.026 A 
ATOM     11  C   UNL A   1      31.095  24.626  26.252  1.00  0.00     0.002 A 
ATOM     12  C   UNL A   1      33.331  25.457  26.001  1.00  0.00     0.010 A 
ATOM     13  C   UNL A   1      32.000  25.669  26.351  1.00  0.00     0.001 A 
BRANCH   9  14
ATOM     14  N   UNL A   1      33.189  21.906  24.848  1.00  0.00    -0.365 N 
ATOM     15  C   UNL A   1      33.436  21.779  23.423  1.00  0.00     0.144 C 
BRANCH  14  16
ATOM     16  C   UNL A   1      33.617  20.809  25.728  1.00  0.00     0.215 C 
BRANCH  16  17
ATOM     17  C   UNL A   1      32.794  19.524  25.559  1.00  0.00     0.236 C 
ATOM     18  N   UNL A   1      32.887  18.622  26.586  1.00  0.00    -0.368 N 
ATOM     19  O   UNL A   1      32.090  19.276  24.584  1.00  0.00    -0.273 OA
ATOM     20  H   UNL A   1      33.451  18.822  27.367  1.00  0.00     0.159 HD
ATOM     21  H   UNL A   1      32.389  17.774  26.542  1.00  0.00     0.159 HD
ENDBRANCH  16  17
ENDBRANCH  14  16
ENDBRANCH   9  14
ENDBRANCH   7   8
ENDBRANCH   3   6
ENDBRANCH   1   2
BRANCH   1  22
ATOM     22  C   UNL A   1      38.157  19.955  24.896  1.00  0.00     0.042 C 
BRANCH  22  23
ATOM     23  C   UNL A   1      39.115  20.119  26.067  1.00  0.00     0.118 C 
BRANCH  23  24
ATOM     24  N   UNL A   1      40.206  19.153  26.006  1.00  0.00    -0.352 N 
ATOM     25  C   UNL A   1      41.564  19.355  26.008  1.00  0.00     0.251 C 
ATOM     26  H   UNL A   1      39.927  18.211  25.953  1.00  0.00     0.163 HD
ATOM     27  O   UNL A   1      42.317  18.434  25.713  1.00  0.00    -0.269 OA
BRANCH  25  28
ATOM     28  C   UNL A   1      42.120  20.679  26.358  1.00  0.00     0.039 A 
ATOM     29  C   UNL A   1      42.398  21.589  25.333  1.00  0.00     0.014 A 
ATOM     30  C   UNL A   1      42.399  21.012  27.684  1.00  0.00     0.014 A 
ATOM     31  C   UNL A   1      42.901  22.854  25.647  1.00  0.00     0.010 A 
ATOM     32  C   UNL A   1      42.816  22.299  28.003  1.00  0.00     0.010 A 
ATOM     33  C   UNL A   1      43.084  23.229  26.987  1.00  0.00    -0.014 A 
BRANCH  33  34
ATOM     34  C   UNL A   1      43.576  24.576  27.364  1.00  0.00     0.031 A 
ATOM     35  C   UNL A   1      42.614  25.590  27.919  1.00  0.00     0.074 A 
ATOM     36  C   UNL A   1      44.858  24.913  27.125  1.00  0.00     0.049 A 
ATOM     37  N   UNL A   1      42.802  26.860  28.173  1.00  0.00    -0.248 NA
ATOM     38  C   UNL A   1      41.248  25.119  28.196  1.00  0.00     0.031 C 
ATOM     39  C   UNL A   1      45.876  24.025  26.563  1.00  0.00     0.029 A 
ATOM     40  N   UNL A   1      45.518  26.103  27.306  1.00  0.00    -0.354 N 
ATOM     41  C   UNL A   1      41.576  27.340  28.616  1.00  0.00     0.074 A 
ATOM     42  C   UNL A   1      40.638  26.241  28.546  1.00  0.00     0.031 C 
ATOM     43  C   UNL A   1      47.035  24.695  26.457  1.00  0.00     0.029 A 
ATOM     44  C   UNL A   1      46.829  26.072  26.895  1.00  0.00     0.049 A 
ATOM     45  H   UNL A   1      45.093  26.902  27.693  1.00  0.00     0.167 HD
ATOM     46  C   UNL A   1      41.267  28.581  29.060  1.00  0.00     0.037 A 
ATOM     47  C   UNL A   1      47.753  27.051  26.859  1.00  0.00     0.037 A 
ATOM     48  C   UNL A   1      42.212  29.662  29.150  1.00  0.00     0.049 A 
ATOM     49  C   UNL A   1      47.376  28.428  27.338  1.00  0.00     0.074 A 
ATOM     50  C   UNL A   1      42.014  30.945  29.628  1.00  0.00     0.029 A 
ATOM     51  N   UNL A   1      43.539  29.584  28.748  1.00  0.00    -0.354 N 
ATOM     52  N   UNL A   1      46.228  28.859  27.802  1.00  0.00    -0.248 NA
ATOM     53  C   UNL A   1      48.427  29.454  27.294  1.00  0.00     0.031 C 
ATOM     54  C   UNL A   1      43.206  31.658  29.469  1.00  0.00     0.029 A 
ATOM     55  C   UNL A   1      44.165  30.803  28.953  1.00  0.00     0.049 A 
ATOM     56  H   UNL A   1      43.970  28.782  28.374  1.00  0.00     0.167 HD
ATOM     57  C   UNL A   1      46.430  30.190  28.144  1.00  0.00     0.074 A 
ATOM     58  C   UNL A   1      47.812  30.495  27.838  1.00  0.00     0.031 C 
ATOM     59  C   UNL A   1      45.550  31.079  28.666  1.00  0.00     0.037 A 
BRANCH  46  60
ATOM     60  C   UNL A   1      39.849  28.837  29.487  1.00  0.00     0.064 A 
ATOM     61  C   UNL A   1      38.888  29.334  28.593  1.00  0.00     0.173 A 
ATOM     62  C   UNL A   1      39.435  28.543  30.795  1.00  0.00     0.173 A 
ATOM     63  F   UNL A   1      39.233  29.642  27.333  1.00  0.00    -0.203 F 
ATOM     64  C   UNL A   1      37.575  29.555  29.001  1.00  0.00     0.198 A 
ATOM     65  C   UNL A   1      38.114  28.732  31.189  1.00  0.00     0.198 A 
ATOM     66  F   UNL A   1      40.311  28.060  31.690  1.00  0.00    -0.203 F 
ATOM     67  F   UNL A   1      36.689  30.079  28.142  1.00  0.00    -0.200 F 
ATOM     68  C   UNL A   1      37.187  29.246  30.295  1.00  0.00     0.200 A 
ATOM     69  F   UNL A   1      37.736  28.419  32.437  1.00  0.00    -0.200 F 
ATOM     70  F   UNL A   1      35.920  29.448  30.682  1.00  0.00    -0.200 F 
ENDBRANCH  46  60
BRANCH  47  71
ATOM     71  C   UNL A   1      49.126  26.764  26.366  1.00  0.00     0.064 A 
ATOM     72  C   UNL A   1      49.472  26.995  25.027  1.00  0.00     0.173 A 
ATOM     73  C   UNL A   1      50.116  26.242  27.212  1.00  0.00     0.173 A 
ATOM     74  F   UNL A   1      48.556  27.476  24.173  1.00  0.00    -0.203 F 
ATOM     75  C   UNL A   1      50.743  26.686  24.547  1.00  0.00     0.198 A 
ATOM     76  C   UNL A   1      51.396  25.966  26.739  1.00  0.00     0.198 A 
ATOM     77  F   UNL A   1      49.841  26.010  28.505  1.00  0.00    -0.203 F 
ATOM     78  F   UNL A   1      51.028  26.866  23.249  1.00  0.00    -0.200 F 
ATOM     79  C   UNL A   1      51.706  26.177  25.404  1.00  0.00     0.200 A 
ATOM     80  F   UNL A   1      52.329  25.490  27.575  1.00  0.00    -0.200 F 
ATOM     81  F   UNL A   1      52.929  25.882  24.942  1.00  0.00    -0.200 F 
ENDBRANCH  47  71
BRANCH  59  82
ATOM     82  C   UNL A   1      46.067  32.447  29.007  1.00  0.00     0.064 A 
ATOM     83  C   UNL A   1      46.650  32.731  30.251  1.00  0.00     0.173 A 
ATOM     84  C   UNL A   1      46.029  33.472  28.048  1.00  0.00     0.173 A 
ATOM     85  F   UNL A   1      46.697  31.790  31.205  1.00  0.00    -0.203 F 
ATOM     86  C   UNL A   1      47.153  34.000  30.529  1.00  0.00     0.198 A 
ATOM     87  C   UNL A   1      46.563  34.727  28.319  1.00  0.00     0.198 A 
ATOM     88  F   UNL A   1      45.489  33.248  26.841  1.00  0.00    -0.203 F 
ATOM     89  F   UNL A   1      47.664  34.263  31.740  1.00  0.00    -0.200 F 
ATOM     90  C   UNL A   1      47.118  34.992  29.561  1.00  0.00     0.200 A 
ATOM     91  F   UNL A   1      46.544  35.679  27.377  1.00  0.00    -0.200 F 
ATOM     92  F   UNL A   1      47.618  36.207  29.828  1.00  0.00    -0.200 F 
ENDBRANCH  59  82
ENDBRANCH  33  34
ENDBRANCH  25  28
ENDBRANCH  23  24
ENDBRANCH  22  23
ENDBRANCH   1  22
TORSDOF 14
ENDMDL
MODEL 2
REMARK VINA RESULT:     -11.7      0.524      1.713
REMARK SMILES CN(CC(N)=O)c1ccccc1/C=C/C(=O)NCCCNC(=O)c1ccc(-c2c3nc(c(-c4c(F)c(F)c(F)c(F)c4F)c4ccc([nH]4)c(-c4c(F)c(F)c(F)c(F)c4F)c4nc(c(-c5c(F)c(F)c(F)c(F)c5F)c5ccc2[nH]5)C=C4)C=C3)cc1
REMARK SMILES IDX 18 1 17 2 15 3 16 4 14 6 13 7 12 8 7 9 8 10 9 11 11 12 10 13
REMARK SMILES IDX 2 14 1 15 3 16 4 17 5 18 6 19 19 22 20 23 21 24 22 25 23 27
REMARK SMILES IDX 24 28 25 29 86 30 26 31 85 32 27 33 28 34 29 35 79 36 30 37
REMARK SMILES IDX 84 38 78 39 80 40 31 41 83 42 77 43 76 44 32 46 64 47 44 48
REMARK SMILES IDX 63 49 45 50 48 51 62 52 81 53 46 54 47 55 61 57 82 58 49 59
REMARK SMILES IDX 33 60 34 61 42 62 35 63 36 64 40 65 43 66 37 67 38 68 41 69
REMARK SMILES IDX 39 70 65 71 66 72 74 73 67 74 68 75 72 76 75 77 69 78 70 79
REMARK SMILES IDX 73 80 71 81 50 82 51 83 59 84 52 85 53 86 57 87 60 88 54 89
REMARK SMILES IDX 55 90 58 91 56 92
REMARK H PARENT 17 5 5 20 5 21 21 26 80 45 48 56
REMARK Flexibility Score: inf
ROOT
ATOM      1  C   UNL A   1      37.211  20.670  24.707  1.00  0.00     0.118 C 
ENDROOT
BRANCH   1   2
ATOM      2  N   UNL A   1      37.799  21.967  24.968  1.00  0.00    -0.352 N 
ATOM      3  C   UNL A   1      37.231  23.084  25.489  1.00  0.00     0.244 C 
ATOM      4  O   UNL A   1      37.927  24.071  25.714  1.00  0.00    -0.270 OA
ATOM      5  H   UNL A   1      38.752  22.051  24.732  1.00  0.00     0.163 HD
BRANCH   3   6
ATOM      6  C   UNL A   1      35.809  23.089  25.895  1.00  0.00     0.072 C 
ATOM      7  C   UNL A   1      34.757  22.843  25.095  1.00  0.00     0.016 C 
BRANCH   7   8
ATOM      8  C   UNL A   1      33.353  22.923  25.564  1.00  0.00    -0.002 A 
ATOM      9  C   UNL A   1      32.345  22.033  25.109  1.00  0.00     0.044 A 
ATOM     10  C   UNL A   1      31.049  22.193  25.636  1.00  0.00     0.026 A 
ATOM     11  C   UNL A   1      30.724  23.224  26.519  1.00  0.00     0.002 A 
ATOM     12  C   UNL A   1      32.999  23.979  26.431  1.00  0.00     0.010 A 
ATOM     13  C   UNL A   1      31.697  24.129  26.904  1.00  0.00     0.001 A 
BRANCH   9  14
ATOM     14  N   UNL A   1      32.585  21.021  24.187  1.00  0.00    -0.365 N 
ATOM     15  C   UNL A   1      32.276  21.244  22.786  1.00  0.00     0.144 C 
BRANCH  14  16
ATOM     16  C   UNL A   1      33.432  19.871  24.536  1.00  0.00     0.215 C 
BRANCH  16  17
ATOM     17  C   UNL A   1      32.701  18.786  25.338  1.00  0.00     0.236 C 
ATOM     18  N   UNL A   1      32.916  18.801  26.691  1.00  0.00    -0.368 N 
ATOM     19  O   UNL A   1      31.966  17.935  24.842  1.00  0.00    -0.273 OA
ATOM     20  H   UNL A   1      33.505  19.483  27.087  1.00  0.00     0.159 HD
ATOM     21  H   UNL A   1      32.482  18.131  27.266  1.00  0.00     0.159 HD
ENDBRANCH  16  17
ENDBRANCH  14  16
ENDBRANCH   9  14
ENDBRANCH   7   8
ENDBRANCH   3   6
ENDBRANCH   1   2
BRANCH   1  22
ATOM     22  C   UNL A   1      38.213  19.555  24.985  1.00  0.00     0.042 C 
BRANCH  22  23
ATOM     23  C   UNL A   1      39.307  19.974  25.956  1.00  0.00     0.118 C 
BRANCH  23  24
ATOM     24  N   UNL A   1      40.404  19.014  25.974  1.00  0.00    -0.352 N 
ATOM     25  C   UNL A   1      41.759  19.225  26.043  1.00  0.00     0.251 C 
ATOM     26  H   UNL A   1      40.133  18.070  25.930  1.00  0.00     0.163 HD
ATOM     27  O   UNL A   1      42.532  18.303  25.809  1.00  0.00    -0.269 OA
BRANCH  25  28
ATOM     28  C   UNL A   1      42.289  20.561  26.389  1.00  0.00     0.039 A 
ATOM     29  C   UNL A   1      42.697  21.417  25.361  1.00  0.00     0.014 A 
ATOM     30  C   UNL A   1      42.416  20.958  27.722  1.00  0.00     0.014 A 
ATOM     31  C   UNL A   1      43.177  22.691  25.670  1.00  0.00     0.010 A 
ATOM     32  C   UNL A   1      42.812  22.255  28.023  1.00  0.00     0.010 A 
ATOM     33  C   UNL A   1      43.208  23.131  27.002  1.00  0.00    -0.014 A 
BRANCH  33  34
ATOM     34  C   UNL A   1      43.672  24.492  27.367  1.00  0.00     0.031 A 
ATOM     35  C   UNL A   1      42.684  25.499  27.887  1.00  0.00     0.074 A 
ATOM     36  C   UNL A   1      44.954  24.845  27.147  1.00  0.00     0.049 A 
ATOM     37  N   UNL A   1      42.847  26.775  28.125  1.00  0.00    -0.248 NA
ATOM     38  C   UNL A   1      41.320  25.010  28.145  1.00  0.00     0.031 C 
ATOM     39  C   UNL A   1      45.995  23.965  26.619  1.00  0.00     0.029 A 
ATOM     40  N   UNL A   1      45.591  26.048  27.323  1.00  0.00    -0.354 N 
ATOM     41  C   UNL A   1      41.605  27.242  28.537  1.00  0.00     0.074 A 
ATOM     42  C   UNL A   1      40.686  26.128  28.466  1.00  0.00     0.031 C 
ATOM     43  C   UNL A   1      47.145  24.652  26.525  1.00  0.00     0.029 A 
ATOM     44  C   UNL A   1      46.910  26.032  26.937  1.00  0.00     0.049 A 
ATOM     45  H   UNL A   1      45.146  26.846  27.689  1.00  0.00     0.167 HD
ATOM     46  C   UNL A   1      41.268  28.485  28.956  1.00  0.00     0.037 A 
ATOM     47  C   UNL A   1      47.819  27.025  26.904  1.00  0.00     0.037 A 
ATOM     48  C   UNL A   1      42.195  29.582  29.047  1.00  0.00     0.049 A 
ATOM     49  C   UNL A   1      47.412  28.403  27.354  1.00  0.00     0.074 A 
ATOM     50  C   UNL A   1      41.968  30.868  29.501  1.00  0.00     0.029 A 
ATOM     51  N   UNL A   1      43.530  29.519  28.672  1.00  0.00    -0.354 N 
ATOM     52  N   UNL A   1      46.248  28.823  27.789  1.00  0.00    -0.248 NA
ATOM     53  C   UNL A   1      48.447  29.445  27.314  1.00  0.00     0.031 C 
ATOM     54  C   UNL A   1      43.151  31.598  29.355  1.00  0.00     0.029 A 
ATOM     55  C   UNL A   1      44.134  30.750  28.870  1.00  0.00     0.049 A 
ATOM     56  H   UNL A   1      43.981  28.719  28.319  1.00  0.00     0.167 HD
ATOM     57  C   UNL A   1      46.422  30.161  28.114  1.00  0.00     0.074 A 
ATOM     58  C   UNL A   1      47.805  30.484  27.830  1.00  0.00     0.031 C 
ATOM     59  C   UNL A   1      45.519  31.044  28.606  1.00  0.00     0.037 A 
BRANCH  46  60
ATOM     60  C   UNL A   1      39.839  28.725  29.352  1.00  0.00     0.064 A 
ATOM     61  C   UNL A   1      39.389  28.502  30.662  1.00  0.00     0.173 A 
ATOM     62  C   UNL A   1      38.917  29.225  28.419  1.00  0.00     0.173 A 
ATOM     63  F   UNL A   1      40.227  28.014  31.590  1.00  0.00    -0.203 F 
ATOM     64  C   UNL A   1      38.063  28.740  31.016  1.00  0.00     0.198 A 
ATOM     65  C   UNL A   1      37.601  29.495  28.786  1.00  0.00     0.198 A 
ATOM     66  F   UNL A   1      39.294  29.463  27.154  1.00  0.00    -0.203 F 
ATOM     67  F   UNL A   1      37.645  28.469  32.261  1.00  0.00    -0.200 F 
ATOM     68  C   UNL A   1      37.173  29.244  30.080  1.00  0.00     0.200 A 
ATOM     69  F   UNL A   1      36.745  29.997  27.884  1.00  0.00    -0.200 F 
ATOM     70  F   UNL A   1      35.901  29.484  30.426  1.00  0.00    -0.200 F 
ENDBRANCH  46  60
BRANCH  47  71
ATOM     71  C   UNL A   1      49.206  26.753  26.441  1.00  0.00     0.064 A 
ATOM     72  C   UNL A   1      50.186  26.299  27.335  1.00  0.00     0.173 A 
ATOM     73  C   UNL A   1      49.586  26.952  25.106  1.00  0.00     0.173 A 
ATOM     74  F   UNL A   1      49.877  26.111  28.627  1.00  0.00    -0.203 F 
ATOM     75  C   UNL A   1      51.498  26.085  26.920  1.00  0.00     0.198 A 
ATOM     76  C   UNL A   1      50.891  26.705  24.684  1.00  0.00     0.198 A 
ATOM     77  F   UNL A   1      48.686  27.377  24.206  1.00  0.00    -0.203 F 
ATOM     78  F   UNL A   1      52.426  25.705  27.808  1.00  0.00    -0.200 F 
ATOM     79  C   UNL A   1      51.849  26.283  25.593  1.00  0.00     0.200 A 
ATOM     80  F   UNL A   1      51.221  26.881  23.397  1.00  0.00    -0.200 F 
ATOM     81  F   UNL A   1      53.111  26.075  25.193  1.00  0.00    -0.200 F 
ENDBRANCH  47  71
BRANCH  59  82
ATOM     82  C   UNL A   1      46.008  32.425  28.936  1.00  0.00     0.064 A 
ATOM     83  C   UNL A   1      46.560  32.739  30.186  1.00  0.00     0.173 A 
ATOM     84  C   UNL A   1      45.975  33.434  27.960  1.00  0.00     0.173 A 
ATOM     85  F   UNL A   1      46.601  31.813  31.156  1.00  0.00    -0.203 F 
ATOM     86  C   UNL A   1      47.038  34.019  30.455  1.00  0.00     0.198 A 
ATOM     87  C   UNL A   1      46.484  34.702  28.221  1.00  0.00     0.198 A 
ATOM     88  F   UNL A   1      45.464  33.183  26.745  1.00  0.00    -0.203 F 
ATOM     89  F   UNL A   1      47.518  34.309  31.671  1.00  0.00    -0.200 F 
ATOM     90  C   UNL A   1      47.009  34.995  29.470  1.00  0.00     0.200 A 
ATOM     91  F   UNL A   1      46.470  35.639  27.263  1.00  0.00    -0.200 F 
ATOM     92  F   UNL A   1      47.484  36.222  29.728  1.00  0.00    -0.200 F 
ENDBRANCH  59  82
ENDBRANCH  33  34
ENDBRANCH  25  28
ENDBRANCH  23  24
ENDBRANCH  22  23
ENDBRANCH   1  22
TORSDOF 14
ENDMDL
MODEL 3
REMARK VINA RESULT:     -11.6      5.878     11.082
REMARK SMILES CN(CC(N)=O)c1ccccc1/C=C/C(=O)NCCCNC(=O)c1ccc(-c2c3nc(c(-c4c(F)c(F)c(F)c(F)c4F)c4ccc([nH]4)c(-c4c(F)c(F)c(F)c(F)c4F)c4nc(c(-c5c(F)c(F)c(F)c(F)c5F)c5ccc2[nH]5)C=C4)C=C3)cc1
REMARK SMILES IDX 18 1 17 2 15 3 16 4 14 6 13 7 12 8 7 9 8 10 9 11 11 12 10 13
REMARK SMILES IDX 2 14 1 15 3 16 4 17 5 18 6 19 19 22 20 23 21 24 22 25 23 27
REMARK SMILES IDX 24 28 25 29 86 30 26 31 85 32 27 33 28 34 29 35 79 36 30 37
REMARK SMILES IDX 84 38 78 39 80 40 31 41 83 42 77 43 76 44 32 46 64 47 44 48
REMARK SMILES IDX 63 49 45 50 48 51 62 52 81 53 46 54 47 55 61 57 82 58 49 59
REMARK SMILES IDX 33 60 34 61 42 62 35 63 36 64 40 65 43 66 37 67 38 68 41 69
REMARK SMILES IDX 39 70 65 71 66 72 74 73 67 74 68 75 72 76 75 77 69 78 70 79
REMARK SMILES IDX 73 80 71 81 50 82 51 83 59 84 52 85 53 86 57 87 60 88 54 89
REMARK SMILES IDX 55 90 58 91 56 92
REMARK H PARENT 17 5 5 20 5 21 21 26 80 45 48 56
REMARK Flexibility Score: inf
ROOT
ATOM      1  C   UNL A   1      31.979  30.502  26.924  1.00  0.00     0.118 C 
ENDROOT
BRANCH   1   2
ATOM      2  N   UNL A   1      33.183  30.304  27.703  1.00  0.00    -0.352 N 
ATOM      3  C   UNL A   1      34.200  29.424  27.513  1.00  0.00     0.244 C 
ATOM      4  O   UNL A   1      35.187  29.470  28.243  1.00  0.00    -0.270 OA
ATOM      5  H   UNL A   1      33.279  30.894  28.485  1.00  0.00     0.163 HD
BRANCH   3   6
ATOM      6  C   UNL A   1      34.185  28.488  26.368  1.00  0.00     0.072 C 
ATOM      7  C   UNL A   1      33.555  27.302  26.324  1.00  0.00     0.016 C 
BRANCH   7   8
ATOM      8  C   UNL A   1      33.633  26.390  25.158  1.00  0.00    -0.002 A 
ATOM      9  C   UNL A   1      33.438  26.837  23.825  1.00  0.00     0.044 A 
ATOM     10  C   UNL A   1      33.553  25.884  22.795  1.00  0.00     0.026 A 
ATOM     11  C   UNL A   1      33.780  24.532  23.051  1.00  0.00     0.002 A 
ATOM     12  C   UNL A   1      33.829  25.013  25.400  1.00  0.00     0.010 A 
ATOM     13  C   UNL A   1      33.901  24.092  24.358  1.00  0.00     0.001 A 
BRANCH   9  14
ATOM     14  N   UNL A   1      33.151  28.158  23.502  1.00  0.00    -0.365 N 
ATOM     15  C   UNL A   1      34.091  28.914  22.693  1.00  0.00     0.144 C 
BRANCH  14  16
ATOM     16  C   UNL A   1      31.795  28.698  23.676  1.00  0.00     0.215 C 
BRANCH  16  17
ATOM     17  C   UNL A   1      30.945  28.660  22.400  1.00  0.00     0.236 C 
ATOM     18  N   UNL A   1      30.795  29.857  21.750  1.00  0.00    -0.368 N 
ATOM     19  O   UNL A   1      30.410  27.648  21.954  1.00  0.00    -0.273 OA
ATOM     20  H   UNL A   1      31.224  30.667  22.108  1.00  0.00     0.159 HD
ATOM     21  H   UNL A   1      30.258  29.907  20.927  1.00  0.00     0.159 HD
ENDBRANCH  16  17
ENDBRANCH  14  16
ENDBRANCH   9  14
ENDBRANCH   7   8
ENDBRANCH   3   6
ENDBRANCH   1   2
BRANCH   1  22
ATOM     22  C   UNL A   1      31.608  31.979  26.866  1.00  0.00     0.042 C 
BRANCH  22  23
ATOM     23  C   UNL A   1      32.824  32.894  26.903  1.00  0.00     0.118 C 
BRANCH  23  24
ATOM     24  N   UNL A   1      32.541  34.133  27.619  1.00  0.00    -0.352 N 
ATOM     25  C   UNL A   1      33.080  34.621  28.783  1.00  0.00     0.251 C 
ATOM     26  H   UNL A   1      31.859  34.707  27.204  1.00  0.00     0.163 HD
ATOM     27  O   UNL A   1      32.546  35.567  29.351  1.00  0.00    -0.269 OA
BRANCH  25  28
ATOM     28  C   UNL A   1      34.295  34.006  29.358  1.00  0.00     0.039 A 
ATOM     29  C   UNL A   1      35.548  34.491  28.971  1.00  0.00     0.014 A 
ATOM     30  C   UNL A   1      34.204  32.934  30.248  1.00  0.00     0.014 A 
ATOM     31  C   UNL A   1      36.706  33.937  29.522  1.00  0.00     0.010 A 
ATOM     32  C   UNL A   1      35.350  32.443  30.861  1.00  0.00     0.010 A 
ATOM     33  C   UNL A   1      36.613  32.931  30.495  1.00  0.00    -0.014 A 
BRANCH  33  34
ATOM     34  C   UNL A   1      37.817  32.346  31.135  1.00  0.00     0.031 A 
ATOM     35  C   UNL A   1      38.580  31.260  30.429  1.00  0.00     0.074 A 
ATOM     36  C   UNL A   1      38.168  32.727  32.379  1.00  0.00     0.049 A 
ATOM     37  N   UNL A   1      39.564  30.516  30.868  1.00  0.00    -0.248 NA
ATOM     38  C   UNL A   1      38.158  30.945  29.055  1.00  0.00     0.031 C 
ATOM     39  C   UNL A   1      37.488  33.749  33.174  1.00  0.00     0.029 A 
ATOM     40  N   UNL A   1      39.174  32.282  33.199  1.00  0.00    -0.354 N 
ATOM     41  C   UNL A   1      39.860  29.637  29.835  1.00  0.00     0.074 A 
ATOM     42  C   UNL A   1      38.920  29.900  28.768  1.00  0.00     0.031 C 
ATOM     43  C   UNL A   1      38.102  33.863  34.362  1.00  0.00     0.029 A 
ATOM     44  C   UNL A   1      39.186  32.888  34.432  1.00  0.00     0.049 A 
ATOM     45  H   UNL A   1      39.824  31.594  32.931  1.00  0.00     0.167 HD
ATOM     46  C   UNL A   1      40.843  28.707  29.775  1.00  0.00     0.037 A 
ATOM     47  C   UNL A   1      39.972  32.667  35.503  1.00  0.00     0.037 A 
ATOM     48  C   UNL A   1      41.790  28.468  30.831  1.00  0.00     0.049 A 
ATOM     49  C   UNL A   1      41.042  31.611  35.418  1.00  0.00     0.074 A 
ATOM     50  C   UNL A   1      42.852  27.582  30.855  1.00  0.00     0.029 A 
ATOM     51  N   UNL A   1      41.786  29.122  32.056  1.00  0.00    -0.354 N 
ATOM     52  N   UNL A   1      41.347  30.819  34.419  1.00  0.00    -0.248 NA
ATOM     53  C   UNL A   1      41.882  31.423  36.608  1.00  0.00     0.031 C 
ATOM     54  C   UNL A   1      43.460  27.663  32.111  1.00  0.00     0.029 A 
ATOM     55  C   UNL A   1      42.818  28.645  32.848  1.00  0.00     0.049 A 
ATOM     56  H   UNL A   1      41.146  29.820  32.322  1.00  0.00     0.167 HD
ATOM     57  C   UNL A   1      42.437  30.071  34.843  1.00  0.00     0.074 A 
ATOM     58  C   UNL A   1      42.744  30.507  36.189  1.00  0.00     0.031 C 
ATOM     59  C   UNL A   1      43.124  29.111  34.177  1.00  0.00     0.037 A 
BRANCH  46  60
ATOM     60  C   UNL A   1      40.946  27.879  28.525  1.00  0.00     0.064 A 
ATOM     61  C   UNL A   1      40.256  26.665  28.385  1.00  0.00     0.173 A 
ATOM     62  C   UNL A   1      41.711  28.326  27.436  1.00  0.00     0.173 A 
ATOM     63  F   UNL A   1      39.520  26.187  29.400  1.00  0.00    -0.203 F 
ATOM     64  C   UNL A   1      40.353  25.916  27.216  1.00  0.00     0.198 A 
ATOM     65  C   UNL A   1      41.777  27.591  26.256  1.00  0.00     0.198 A 
ATOM     66  F   UNL A   1      42.386  29.483  27.513  1.00  0.00    -0.203 F 
ATOM     67  F   UNL A   1      39.726  24.734  27.127  1.00  0.00    -0.200 F 
ATOM     68  C   UNL A   1      41.105  26.383  26.150  1.00  0.00     0.200 A 
ATOM     69  F   UNL A   1      42.492  28.052  25.220  1.00  0.00    -0.200 F 
ATOM     70  F   UNL A   1      41.187  25.665  25.021  1.00  0.00    -0.200 F 
ENDBRANCH  46  60
BRANCH  47  71
ATOM     71  C   UNL A   1      39.788  33.467  36.743  1.00  0.00     0.064 A 
ATOM     72  C   UNL A   1      38.892  33.055  37.739  1.00  0.00     0.173 A 
ATOM     73  C   UNL A   1      40.489  34.665  36.954  1.00  0.00     0.173 A 
ATOM     74  F   UNL A   1      38.184  31.927  37.576  1.00  0.00    -0.203 F 
ATOM     75  C   UNL A   1      38.681  33.823  38.882  1.00  0.00     0.198 A 
ATOM     76  C   UNL A   1      40.302  35.415  38.112  1.00  0.00     0.198 A 
ATOM     77  F   UNL A   1      41.365  35.101  36.036  1.00  0.00    -0.203 F 
ATOM     78  F   UNL A   1      37.777  33.432  39.791  1.00  0.00    -0.200 F 
ATOM     79  C   UNL A   1      39.390  34.999  39.071  1.00  0.00     0.200 A 
ATOM     80  F   UNL A   1      41.002  36.542  38.299  1.00  0.00    -0.200 F 
ATOM     81  F   UNL A   1      39.188  35.737  40.171  1.00  0.00    -0.200 F 
ENDBRANCH  47  71
BRANCH  59  82
ATOM     82  C   UNL A   1      44.319  28.512  34.861  1.00  0.00     0.064 A 
ATOM     83  C   UNL A   1      45.591  29.096  34.780  1.00  0.00     0.173 A 
ATOM     84  C   UNL A   1      44.171  27.366  35.659  1.00  0.00     0.173 A 
ATOM     85  F   UNL A   1      45.787  30.184  34.019  1.00  0.00    -0.203 F 
ATOM     86  C   UNL A   1      46.676  28.540  35.452  1.00  0.00     0.198 A 
ATOM     87  C   UNL A   1      45.250  26.834  36.356  1.00  0.00     0.198 A 
ATOM     88  F   UNL A   1      42.973  26.774  35.775  1.00  0.00    -0.203 F 
ATOM     89  F   UNL A   1      47.892  29.087  35.324  1.00  0.00    -0.200 F 
ATOM     90  C   UNL A   1      46.503  27.417  36.247  1.00  0.00     0.200 A 
ATOM     91  F   UNL A   1      45.077  25.758  37.136  1.00  0.00    -0.200 F 
ATOM     92  F   UNL A   1      47.547  26.893  36.905  1.00  0.00    -0.200 F 
ENDBRANCH  59  82
ENDBRANCH  33  34
ENDBRANCH  25  28
ENDBRANCH  23  24
ENDBRANCH  22  23
ENDBRANCH   1  22
TORSDOF 14
ENDMDL
