MODEL 1
REMARK VINA RESULT:     -13.6      0.000      0.000
REMARK SMILES CN1C(=O)[C@@H]2CC=CC[C@]2(C(=O)NCCCNC(=O)c2ccc(-c3c4nc(c(-c5c(F)c(F)c(F)c(F)c5F)c5ccc([nH]5)c(-c5c(F)c(F)c(F)c(F)c5F)c5nc(c(-c6c(F)c(F)c(F)c(F)c6F)c6ccc3[nH]6)C=C5)C=C4)cc2)[C@H]1c1ccccc1
REMARK SMILES IDX 15 1 14 2 13 3 11 4 12 5 10 7 1 8 2 9 3 10 83 11 4 12 5 13
REMARK SMILES IDX 6 14 9 15 7 16 8 17 84 18 85 19 89 20 86 21 88 22 87 23
REMARK SMILES IDX 16 24 17 25 18 26 19 28 20 29 21 30 82 31 22 32 81 33 23 34
REMARK SMILES IDX 24 35 25 36 75 37 26 38 80 39 74 40 76 41 27 42 79 43 73 44
REMARK SMILES IDX 72 45 28 47 60 48 40 49 59 50 41 51 44 52 58 53 77 54 42 55
REMARK SMILES IDX 43 56 57 58 78 59 45 60 29 61 30 62 38 63 31 64 32 65 36 66
REMARK SMILES IDX 39 67 33 68 34 69 37 70 35 71 61 72 62 73 70 74 63 75 64 76
REMARK SMILES IDX 68 77 71 78 65 79 66 80 69 81 67 82 46 83 47 84 55 85 48 86
REMARK SMILES IDX 49 87 53 88 56 89 50 90 51 91 54 92 52 93
REMARK H PARENT 13 6 17 27 76 46 44 57
REMARK Flexibility Score: inf
ROOT
ATOM      1  C   UNL A   1      33.235  28.910  24.977  1.00  0.00     0.042 C 
ENDROOT
BRANCH   1   2
ATOM      2  C   UNL A   1      33.838  27.524  24.937  1.00  0.00     0.117 C 
BRANCH   2   3
ATOM      3  N   UNL A   1      33.937  26.785  23.688  1.00  0.00    -0.355 N 
ATOM      4  C   UNL A   1      33.018  25.898  23.136  1.00  0.00     0.229 C 
ATOM      5  O   UNL A   1      32.967  25.822  21.906  1.00  0.00    -0.274 OA
ATOM      6  H   UNL A   1      34.760  26.930  23.168  1.00  0.00     0.163 HD
BRANCH   4   7
ATOM      7  C   UNL A   1      32.204  24.930  24.035  1.00  0.00     0.089 C 
ATOM      8  C   UNL A   1      32.682  21.691  25.911  1.00  0.00     0.147 C 
ATOM      9  N   UNL A   1      32.472  23.067  25.513  1.00  0.00    -0.337 N 
ATOM     10  C   UNL A   1      31.883  24.038  26.287  1.00  0.00     0.227 C 
ATOM     11  C   UNL A   1      32.988  23.588  24.285  1.00  0.00     0.131 C 
ATOM     12  O   UNL A   1      31.437  23.864  27.405  1.00  0.00    -0.275 OA
ATOM     13  C   UNL A   1      31.959  25.365  25.525  1.00  0.00     0.101 C 
ATOM     14  C   UNL A   1      30.758  26.236  25.891  1.00  0.00     0.041 C 
ATOM     15  C   UNL A   1      30.858  24.783  23.250  1.00  0.00     0.047 C 
ATOM     16  C   UNL A   1      29.654  26.254  24.897  1.00  0.00    -0.030 C 
ATOM     17  C   UNL A   1      29.696  25.607  23.730  1.00  0.00    -0.030 C 
BRANCH  11  18
ATOM     18  C   UNL A   1      34.532  23.652  24.317  1.00  0.00    -0.024 A 
ATOM     19  C   UNL A   1      35.341  23.124  23.299  1.00  0.00     0.006 A 
ATOM     20  C   UNL A   1      35.176  24.082  25.498  1.00  0.00     0.006 A 
ATOM     21  C   UNL A   1      36.692  22.848  23.524  1.00  0.00     0.000 A 
ATOM     22  C   UNL A   1      36.524  23.789  25.728  1.00  0.00     0.000 A 
ATOM     23  C   UNL A   1      37.272  23.140  24.752  1.00  0.00     0.000 A 
ENDBRANCH  11  18
ENDBRANCH   4   7
ENDBRANCH   2   3
ENDBRANCH   1   2
BRANCH   1  24
ATOM     24  C   UNL A   1      32.636  29.307  26.314  1.00  0.00     0.118 C 
BRANCH  24  25
ATOM     25  N   UNL A   1      32.471  30.754  26.492  1.00  0.00    -0.352 N 
ATOM     26  C   UNL A   1      33.196  31.699  27.177  1.00  0.00     0.251 C 
ATOM     27  H   UNL A   1      31.683  31.120  26.030  1.00  0.00     0.163 HD
ATOM     28  O   UNL A   1      32.737  32.830  27.312  1.00  0.00    -0.269 OA
BRANCH  26  29
ATOM     29  C   UNL A   1      34.510  31.367  27.762  1.00  0.00     0.039 A 
ATOM     30  C   UNL A   1      35.482  32.363  27.910  1.00  0.00     0.014 A 
ATOM     31  C   UNL A   1      34.789  30.067  28.168  1.00  0.00     0.014 A 
ATOM     32  C   UNL A   1      36.683  32.066  28.557  1.00  0.00     0.010 A 
ATOM     33  C   UNL A   1      35.902  29.813  28.947  1.00  0.00     0.010 A 
ATOM     34  C   UNL A   1      36.875  30.802  29.135  1.00  0.00    -0.014 A 
BRANCH  34  35
ATOM     35  C   UNL A   1      38.087  30.452  29.915  1.00  0.00     0.031 A 
ATOM     36  C   UNL A   1      39.080  29.477  29.337  1.00  0.00     0.074 A 
ATOM     37  C   UNL A   1      38.226  30.907  31.175  1.00  0.00     0.049 A 
ATOM     38  N   UNL A   1      40.105  28.900  29.909  1.00  0.00    -0.248 NA
ATOM     39  C   UNL A   1      38.858  29.051  27.944  1.00  0.00     0.031 C 
ATOM     40  C   UNL A   1      37.293  31.799  31.864  1.00  0.00     0.029 A 
ATOM     41  N   UNL A   1      39.200  30.662  32.109  1.00  0.00    -0.354 N 
ATOM     42  C   UNL A   1      40.618  28.023  28.961  1.00  0.00     0.074 A 
ATOM     43  C   UNL A   1      39.750  28.084  27.808  1.00  0.00     0.031 C 
ATOM     44  C   UNL A   1      37.754  32.053  33.099  1.00  0.00     0.029 A 
ATOM     45  C   UNL A   1      38.985  31.299  33.308  1.00  0.00     0.049 A 
ATOM     46  H   UNL A   1      39.980  30.086  31.938  1.00  0.00     0.167 HD
ATOM     47  C   UNL A   1      41.734  27.262  29.034  1.00  0.00     0.037 A 
ATOM     48  C   UNL A   1      39.699  31.266  34.449  1.00  0.00     0.037 A 
ATOM     49  C   UNL A   1      42.617  27.251  30.167  1.00  0.00     0.049 A 
ATOM     50  C   UNL A   1      40.947  30.425  34.497  1.00  0.00     0.074 A 
ATOM     51  C   UNL A   1      43.819  26.583  30.318  1.00  0.00     0.029 A 
ATOM     52  N   UNL A   1      42.393  27.949  31.345  1.00  0.00    -0.354 N 
ATOM     53  N   UNL A   1      41.466  29.660  33.568  1.00  0.00    -0.248 NA
ATOM     54  C   UNL A   1      41.711  30.447  35.751  1.00  0.00     0.031 C 
ATOM     55  C   UNL A   1      44.294  26.833  31.609  1.00  0.00     0.029 A 
ATOM     56  C   UNL A   1      43.423  27.708  32.238  1.00  0.00     0.049 A 
ATOM     57  H   UNL A   1      41.617  28.529  31.520  1.00  0.00     0.167 HD
ATOM     58  C   UNL A   1      42.633  29.137  34.110  1.00  0.00     0.074 A 
ATOM     59  C   UNL A   1      42.752  29.687  35.445  1.00  0.00     0.031 C 
ATOM     60  C   UNL A   1      43.526  28.281  33.556  1.00  0.00     0.037 A 
BRANCH  47  61
ATOM     61  C   UNL A   1      42.070  26.395  27.853  1.00  0.00     0.064 A 
ATOM     62  C   UNL A   1      43.030  26.778  26.903  1.00  0.00     0.173 A 
ATOM     63  C   UNL A   1      41.445  25.149  27.685  1.00  0.00     0.173 A 
ATOM     64  F   UNL A   1      43.647  27.965  27.006  1.00  0.00    -0.203 F 
ATOM     65  C   UNL A   1      43.328  25.962  25.814  1.00  0.00     0.198 A 
ATOM     66  C   UNL A   1      41.773  24.321  26.615  1.00  0.00     0.198 A 
ATOM     67  F   UNL A   1      40.521  24.731  28.562  1.00  0.00    -0.203 F 
ATOM     68  F   UNL A   1      44.205  26.378  24.889  1.00  0.00    -0.200 F 
ATOM     69  C   UNL A   1      42.706  24.731  25.675  1.00  0.00     0.200 A 
ATOM     70  F   UNL A   1      41.182  23.124  26.491  1.00  0.00    -0.200 F 
ATOM     71  F   UNL A   1      43.002  23.943  24.633  1.00  0.00    -0.200 F 
ENDBRANCH  47  61
BRANCH  48  72
ATOM     72  C   UNL A   1      39.268  32.067  35.626  1.00  0.00     0.064 A 
ATOM     73  C   UNL A   1      39.710  33.386  35.799  1.00  0.00     0.173 A 
ATOM     74  C   UNL A   1      38.416  31.535  36.605  1.00  0.00     0.173 A 
ATOM     75  F   UNL A   1      40.538  33.938  34.898  1.00  0.00    -0.203 F 
ATOM     76  C   UNL A   1      39.344  34.131  36.919  1.00  0.00     0.198 A 
ATOM     77  C   UNL A   1      38.024  32.291  37.708  1.00  0.00     0.198 A 
ATOM     78  F   UNL A   1      37.953  30.282  36.485  1.00  0.00    -0.203 F 
ATOM     79  F   UNL A   1      39.829  35.369  37.085  1.00  0.00    -0.200 F 
ATOM     80  C   UNL A   1      38.498  33.584  37.871  1.00  0.00     0.200 A 
ATOM     81  F   UNL A   1      37.188  31.765  38.615  1.00  0.00    -0.200 F 
ATOM     82  F   UNL A   1      38.144  34.299  38.947  1.00  0.00    -0.200 F 
ENDBRANCH  48  72
BRANCH  60  83
ATOM     83  C   UNL A   1      44.733  27.921  34.372  1.00  0.00     0.064 A 
ATOM     84  C   UNL A   1      45.894  28.706  34.359  1.00  0.00     0.173 A 
ATOM     85  C   UNL A   1      44.702  26.803  35.220  1.00  0.00     0.173 A 
ATOM     86  F   UNL A   1      45.977  29.777  33.554  1.00  0.00    -0.203 F 
ATOM     87  C   UNL A   1      46.991  28.370  35.146  1.00  0.00     0.198 A 
ATOM     88  C   UNL A   1      45.787  26.492  36.034  1.00  0.00     0.198 A 
ATOM     89  F   UNL A   1      43.610  26.025  35.277  1.00  0.00    -0.203 F 
ATOM     90  F   UNL A   1      48.109  29.106  35.081  1.00  0.00    -0.200 F 
ATOM     91  C   UNL A   1      46.934  27.271  35.990  1.00  0.00     0.200 A 
ATOM     92  F   UNL A   1      45.722  25.441  36.862  1.00  0.00    -0.200 F 
ATOM     93  F   UNL A   1      47.986  26.958  36.758  1.00  0.00    -0.200 F 
ENDBRANCH  60  83
ENDBRANCH  34  35
ENDBRANCH  26  29
ENDBRANCH  24  25
ENDBRANCH   1  24
TORSDOF 11
ENDMDL
MODEL 2
REMARK VINA RESULT:     -13.6      2.884      7.822
REMARK SMILES CN1C(=O)[C@@H]2CC=CC[C@]2(C(=O)NCCCNC(=O)c2ccc(-c3c4nc(c(-c5c(F)c(F)c(F)c(F)c5F)c5ccc([nH]5)c(-c5c(F)c(F)c(F)c(F)c5F)c5nc(c(-c6c(F)c(F)c(F)c(F)c6F)c6ccc3[nH]6)C=C5)C=C4)cc2)[C@H]1c1ccccc1
REMARK SMILES IDX 15 1 14 2 13 3 11 4 12 5 10 7 1 8 2 9 3 10 83 11 4 12 5 13
REMARK SMILES IDX 6 14 9 15 7 16 8 17 84 18 85 19 89 20 86 21 88 22 87 23
REMARK SMILES IDX 16 24 17 25 18 26 19 28 20 29 21 30 82 31 22 32 81 33 23 34
REMARK SMILES IDX 24 35 25 36 75 37 26 38 80 39 74 40 76 41 27 42 79 43 73 44
REMARK SMILES IDX 72 45 28 47 60 48 40 49 59 50 41 51 44 52 58 53 77 54 42 55
REMARK SMILES IDX 43 56 57 58 78 59 45 60 29 61 30 62 38 63 31 64 32 65 36 66
REMARK SMILES IDX 39 67 33 68 34 69 37 70 35 71 61 72 62 73 70 74 63 75 64 76
REMARK SMILES IDX 68 77 71 78 65 79 66 80 69 81 67 82 46 83 47 84 55 85 48 86
REMARK SMILES IDX 49 87 53 88 56 89 50 90 51 91 54 92 52 93
REMARK H PARENT 13 6 17 27 76 46 44 57
REMARK Flexibility Score: inf
ROOT
ATOM      1  C   UNL A   1      34.254  28.216  26.011  1.00  0.00     0.042 C 
ENDROOT
BRANCH   1   2
ATOM      2  C   UNL A   1      33.352  27.862  24.850  1.00  0.00     0.117 C 
BRANCH   2   3
ATOM      3  N   UNL A   1      33.819  27.006  23.771  1.00  0.00    -0.355 N 
ATOM      4  C   UNL A   1      33.169  25.921  23.189  1.00  0.00     0.229 C 
ATOM      5  O   UNL A   1      33.396  25.692  21.999  1.00  0.00    -0.274 OA
ATOM      6  H   UNL A   1      34.707  27.220  23.406  1.00  0.00     0.163 HD
BRANCH   4   7
ATOM      7  C   UNL A   1      32.318  24.948  24.047  1.00  0.00     0.089 C 
ATOM      8  C   UNL A   1      32.703  21.676  25.885  1.00  0.00     0.147 C 
ATOM      9  N   UNL A   1      32.519  23.059  25.502  1.00  0.00    -0.337 N 
ATOM     10  C   UNL A   1      31.916  24.025  26.273  1.00  0.00     0.227 C 
ATOM     11  C   UNL A   1      33.079  23.594  24.300  1.00  0.00     0.131 C 
ATOM     12  O   UNL A   1      31.433  23.838  27.374  1.00  0.00    -0.275 OA
ATOM     13  C   UNL A   1      32.029  25.362  25.535  1.00  0.00     0.101 C 
ATOM     14  C   UNL A   1      30.826  26.241  25.877  1.00  0.00     0.041 C 
ATOM     15  C   UNL A   1      30.995  24.828  23.217  1.00  0.00     0.047 C 
ATOM     16  C   UNL A   1      29.754  26.285  24.849  1.00  0.00    -0.030 C 
ATOM     17  C   UNL A   1      29.828  25.656  23.673  1.00  0.00    -0.030 C 
BRANCH  11  18
ATOM     18  C   UNL A   1      34.623  23.641  24.382  1.00  0.00    -0.024 A 
ATOM     19  C   UNL A   1      35.458  23.028  23.436  1.00  0.00     0.006 A 
ATOM     20  C   UNL A   1      35.231  24.152  25.549  1.00  0.00     0.006 A 
ATOM     21  C   UNL A   1      36.796  22.753  23.728  1.00  0.00     0.000 A 
ATOM     22  C   UNL A   1      36.566  23.860  25.848  1.00  0.00     0.000 A 
ATOM     23  C   UNL A   1      37.338  23.129  24.951  1.00  0.00     0.000 A 
ENDBRANCH  11  18
ENDBRANCH   4   7
ENDBRANCH   2   3
ENDBRANCH   1   2
BRANCH   1  24
ATOM     24  C   UNL A   1      33.529  28.578  27.294  1.00  0.00     0.118 C 
BRANCH  24  25
ATOM     25  N   UNL A   1      33.647  29.990  27.673  1.00  0.00    -0.352 N 
ATOM     26  C   UNL A   1      34.650  30.716  28.269  1.00  0.00     0.251 C 
ATOM     27  H   UNL A   1      32.849  30.524  27.458  1.00  0.00     0.163 HD
ATOM     28  O   UNL A   1      34.424  31.865  28.640  1.00  0.00    -0.269 OA
BRANCH  26  29
ATOM     29  C   UNL A   1      35.987  30.128  28.482  1.00  0.00     0.039 A 
ATOM     30  C   UNL A   1      36.957  30.214  27.478  1.00  0.00     0.014 A 
ATOM     31  C   UNL A   1      36.287  29.485  29.678  1.00  0.00     0.014 A 
ATOM     32  C   UNL A   1      38.250  29.747  27.724  1.00  0.00     0.010 A 
ATOM     33  C   UNL A   1      37.599  29.172  29.979  1.00  0.00     0.010 A 
ATOM     34  C   UNL A   1      38.594  29.277  29.001  1.00  0.00    -0.014 A 
BRANCH  34  35
ATOM     35  C   UNL A   1      39.971  28.853  29.356  1.00  0.00     0.031 A 
ATOM     36  C   UNL A   1      40.849  29.787  30.148  1.00  0.00     0.074 A 
ATOM     37  C   UNL A   1      40.464  27.700  28.865  1.00  0.00     0.049 A 
ATOM     38  N   UNL A   1      42.127  29.699  30.413  1.00  0.00    -0.248 NA
ATOM     39  C   UNL A   1      40.218  31.015  30.663  1.00  0.00     0.031 C 
ATOM     40  C   UNL A   1      39.729  26.750  28.029  1.00  0.00     0.029 A 
ATOM     41  N   UNL A   1      41.712  27.141  28.982  1.00  0.00    -0.354 N 
ATOM     42  C   UNL A   1      42.451  30.870  31.087  1.00  0.00     0.074 A 
ATOM     43  C   UNL A   1      41.260  31.687  31.123  1.00  0.00     0.031 C 
ATOM     44  C   UNL A   1      40.527  25.710  27.734  1.00  0.00     0.029 A 
ATOM     45  C   UNL A   1      41.845  25.947  28.314  1.00  0.00     0.049 A 
ATOM     46  H   UNL A   1      42.442  27.555  29.495  1.00  0.00     0.167 HD
ATOM     47  C   UNL A   1      43.628  31.217  31.658  1.00  0.00     0.037 A 
ATOM     48  C   UNL A   1      42.916  25.143  28.178  1.00  0.00     0.037 A 
ATOM     49  C   UNL A   1      44.790  30.371  31.661  1.00  0.00     0.049 A 
ATOM     50  C   UNL A   1      44.208  25.543  28.838  1.00  0.00     0.074 A 
ATOM     51  C   UNL A   1      46.009  30.583  32.278  1.00  0.00     0.029 A 
ATOM     52  N   UNL A   1      44.871  29.145  31.017  1.00  0.00    -0.354 N 
ATOM     53  N   UNL A   1      44.483  26.616  29.539  1.00  0.00    -0.248 NA
ATOM     54  C   UNL A   1      45.340  24.618  28.691  1.00  0.00     0.031 C 
ATOM     55  C   UNL A   1      46.847  29.510  31.960  1.00  0.00     0.029 A 
ATOM     56  C   UNL A   1      46.130  28.599  31.201  1.00  0.00     0.049 A 
ATOM     57  H   UNL A   1      44.142  28.726  30.504  1.00  0.00     0.167 HD
ATOM     58  C   UNL A   1      45.803  26.480  29.946  1.00  0.00     0.074 A 
ATOM     59  C   UNL A   1      46.269  25.212  29.424  1.00  0.00     0.031 C 
ATOM     60  C   UNL A   1      46.563  27.326  30.684  1.00  0.00     0.037 A 
BRANCH  47  61
ATOM     61  C   UNL A   1      43.711  32.555  32.337  1.00  0.00     0.064 A 
ATOM     62  C   UNL A   1      44.111  33.710  31.648  1.00  0.00     0.173 A 
ATOM     63  C   UNL A   1      43.354  32.690  33.688  1.00  0.00     0.173 A 
ATOM     64  F   UNL A   1      44.477  33.637  30.359  1.00  0.00    -0.203 F 
ATOM     65  C   UNL A   1      44.182  34.943  32.293  1.00  0.00     0.198 A 
ATOM     66  C   UNL A   1      43.391  33.930  34.318  1.00  0.00     0.198 A 
ATOM     67  F   UNL A   1      42.963  31.620  34.395  1.00  0.00    -0.203 F 
ATOM     68  F   UNL A   1      44.624  36.020  31.628  1.00  0.00    -0.200 F 
ATOM     69  C   UNL A   1      43.814  35.054  33.625  1.00  0.00     0.200 A 
ATOM     70  F   UNL A   1      43.021  34.038  35.602  1.00  0.00    -0.200 F 
ATOM     71  F   UNL A   1      43.872  36.242  34.241  1.00  0.00    -0.200 F 
ENDBRANCH  47  61
BRANCH  48  72
ATOM     72  C   UNL A   1      42.807  23.874  27.409  1.00  0.00     0.064 A 
ATOM     73  C   UNL A   1      42.373  22.693  28.028  1.00  0.00     0.173 A 
ATOM     74  C   UNL A   1      43.141  23.809  26.049  1.00  0.00     0.173 A 
ATOM     75  F   UNL A   1      42.056  22.699  29.332  1.00  0.00    -0.203 F 
ATOM     76  C   UNL A   1      42.307  21.491  27.326  1.00  0.00     0.198 A 
ATOM     77  C   UNL A   1      43.043  22.613  25.338  1.00  0.00     0.198 A 
ATOM     78  F   UNL A   1      43.551  24.910  25.402  1.00  0.00    -0.203 F 
ATOM     79  F   UNL A   1      41.943  20.368  27.959  1.00  0.00    -0.200 F 
ATOM     80  C   UNL A   1      42.638  21.453  25.980  1.00  0.00     0.200 A 
ATOM     81  F   UNL A   1      43.344  22.586  24.033  1.00  0.00    -0.200 F 
ATOM     82  F   UNL A   1      42.573  20.298  25.305  1.00  0.00    -0.200 F 
ENDBRANCH  48  72
BRANCH  60  83
ATOM     83  C   UNL A   1      47.962  26.889  31.011  1.00  0.00     0.064 A 
ATOM     84  C   UNL A   1      48.238  26.055  32.103  1.00  0.00     0.173 A 
ATOM     85  C   UNL A   1      49.030  27.269  30.184  1.00  0.00     0.173 A 
ATOM     86  F   UNL A   1      47.252  25.676  32.931  1.00  0.00    -0.203 F 
ATOM     87  C   UNL A   1      49.538  25.637  32.370  1.00  0.00     0.198 A 
ATOM     88  C   UNL A   1      50.322  26.819  30.433  1.00  0.00     0.198 A 
ATOM     89  F   UNL A   1      48.816  28.059  29.120  1.00  0.00    -0.203 F 
ATOM     90  F   UNL A   1      49.787  24.881  33.448  1.00  0.00    -0.200 F 
ATOM     91  C   UNL A   1      50.578  26.010  31.531  1.00  0.00     0.200 A 
ATOM     92  F   UNL A   1      51.322  27.165  29.609  1.00  0.00    -0.200 F 
ATOM     93  F   UNL A   1      51.826  25.595  31.782  1.00  0.00    -0.200 F 
ENDBRANCH  60  83
ENDBRANCH  34  35
ENDBRANCH  26  29
ENDBRANCH  24  25
ENDBRANCH   1  24
TORSDOF 11
ENDMDL
MODEL 3
REMARK VINA RESULT:     -13.6      0.424      7.336
REMARK SMILES CN1C(=O)[C@@H]2CC=CC[C@]2(C(=O)NCCCNC(=O)c2ccc(-c3c4nc(c(-c5c(F)c(F)c(F)c(F)c5F)c5ccc([nH]5)c(-c5c(F)c(F)c(F)c(F)c5F)c5nc(c(-c6c(F)c(F)c(F)c(F)c6F)c6ccc3[nH]6)C=C5)C=C4)cc2)[C@H]1c1ccccc1
REMARK SMILES IDX 15 1 14 2 13 3 11 4 12 5 10 7 1 8 2 9 3 10 83 11 4 12 5 13
REMARK SMILES IDX 6 14 9 15 7 16 8 17 84 18 85 19 89 20 86 21 88 22 87 23
REMARK SMILES IDX 16 24 17 25 18 26 19 28 20 29 21 30 82 31 22 32 81 33 23 34
REMARK SMILES IDX 24 35 25 36 75 37 26 38 80 39 74 40 76 41 27 42 79 43 73 44
REMARK SMILES IDX 72 45 28 47 60 48 40 49 59 50 41 51 44 52 58 53 77 54 42 55
REMARK SMILES IDX 43 56 57 58 78 59 45 60 29 61 30 62 38 63 31 64 32 65 36 66
REMARK SMILES IDX 39 67 33 68 34 69 37 70 35 71 61 72 62 73 70 74 63 75 64 76
REMARK SMILES IDX 68 77 71 78 65 79 66 80 69 81 67 82 46 83 47 84 55 85 48 86
REMARK SMILES IDX 49 87 53 88 56 89 50 90 51 91 54 92 52 93
REMARK H PARENT 13 6 17 27 76 46 44 57
REMARK Flexibility Score: inf
ROOT
ATOM      1  C   UNL A   1      33.072  29.057  25.019  1.00  0.00     0.042 C 
ENDROOT
BRANCH   1   2
ATOM      2  C   UNL A   1      33.652  27.660  25.031  1.00  0.00     0.117 C 
BRANCH   2   3
ATOM      3  N   UNL A   1      33.886  26.935  23.792  1.00  0.00    -0.355 N 
ATOM      4  C   UNL A   1      33.046  26.026  23.155  1.00  0.00     0.229 C 
ATOM      5  O   UNL A   1      33.108  25.958  21.925  1.00  0.00    -0.274 OA
ATOM      6  H   UNL A   1      34.747  27.108  23.348  1.00  0.00     0.163 HD
BRANCH   4   7
ATOM      7  C   UNL A   1      32.185  25.027  23.971  1.00  0.00     0.089 C 
ATOM      8  C   UNL A   1      32.539  21.687  25.689  1.00  0.00     0.147 C 
ATOM      9  N   UNL A   1      32.367  23.085  25.357  1.00  0.00    -0.337 N 
ATOM     10  C   UNL A   1      31.766  24.025  26.161  1.00  0.00     0.227 C 
ATOM     11  C   UNL A   1      32.936  23.660  24.178  1.00  0.00     0.131 C 
ATOM     12  O   UNL A   1      31.278  23.801  27.251  1.00  0.00    -0.275 OA
ATOM     13  C   UNL A   1      31.892  25.388  25.473  1.00  0.00     0.101 C 
ATOM     14  C   UNL A   1      30.694  26.262  25.842  1.00  0.00     0.041 C 
ATOM     15  C   UNL A   1      30.865  24.947  23.133  1.00  0.00     0.047 C 
ATOM     16  C   UNL A   1      29.627  26.352  24.812  1.00  0.00    -0.030 C 
ATOM     17  C   UNL A   1      29.701  25.766  23.614  1.00  0.00    -0.030 C 
BRANCH  11  18
ATOM     18  C   UNL A   1      34.479  23.693  24.268  1.00  0.00    -0.024 A 
ATOM     19  C   UNL A   1      35.315  23.215  23.247  1.00  0.00     0.006 A 
ATOM     20  C   UNL A   1      35.086  24.037  25.495  1.00  0.00     0.006 A 
ATOM     21  C   UNL A   1      36.653  22.900  23.501  1.00  0.00     0.000 A 
ATOM     22  C   UNL A   1      36.420  23.705  25.753  1.00  0.00     0.000 A 
ATOM     23  C   UNL A   1      37.193  23.104  24.765  1.00  0.00     0.000 A 
ENDBRANCH  11  18
ENDBRANCH   4   7
ENDBRANCH   2   3
ENDBRANCH   1   2
BRANCH   1  24
ATOM     24  C   UNL A   1      32.455  29.501  26.332  1.00  0.00     0.118 C 
BRANCH  24  25
ATOM     25  N   UNL A   1      32.472  30.953  26.543  1.00  0.00    -0.352 N 
ATOM     26  C   UNL A   1      33.307  31.784  27.251  1.00  0.00     0.251 C 
ATOM     27  H   UNL A   1      31.740  31.427  26.086  1.00  0.00     0.163 HD
ATOM     28  O   UNL A   1      32.994  32.961  27.411  1.00  0.00    -0.269 OA
BRANCH  26  29
ATOM     29  C   UNL A   1      34.564  31.276  27.834  1.00  0.00     0.039 A 
ATOM     30  C   UNL A   1      35.643  32.144  28.035  1.00  0.00     0.014 A 
ATOM     31  C   UNL A   1      34.684  29.935  28.184  1.00  0.00     0.014 A 
ATOM     32  C   UNL A   1      36.792  31.681  28.680  1.00  0.00     0.010 A 
ATOM     33  C   UNL A   1      35.748  29.520  28.962  1.00  0.00     0.010 A 
ATOM     34  C   UNL A   1      36.827  30.379  29.202  1.00  0.00    -0.014 A 
BRANCH  34  35
ATOM     35  C   UNL A   1      37.978  29.856  29.978  1.00  0.00     0.031 A 
ATOM     36  C   UNL A   1      38.198  30.341  31.388  1.00  0.00     0.074 A 
ATOM     37  C   UNL A   1      38.880  29.055  29.379  1.00  0.00     0.049 A 
ATOM     38  N   UNL A   1      39.225  30.157  32.177  1.00  0.00    -0.248 NA
ATOM     39  C   UNL A   1      37.148  31.197  31.967  1.00  0.00     0.031 C 
ATOM     40  C   UNL A   1      38.807  28.577  27.998  1.00  0.00     0.029 A 
ATOM     41  N   UNL A   1      40.050  28.517  29.854  1.00  0.00    -0.354 N 
ATOM     42  C   UNL A   1      38.956  30.900  33.320  1.00  0.00     0.074 A 
ATOM     43  C   UNL A   1      37.713  31.599  33.093  1.00  0.00     0.031 C 
ATOM     44  C   UNL A   1      39.867  27.792  27.745  1.00  0.00     0.029 A 
ATOM     45  C   UNL A   1      40.721  27.755  28.927  1.00  0.00     0.049 A 
ATOM     46  H   UNL A   1      40.377  28.662  30.770  1.00  0.00     0.167 HD
ATOM     47  C   UNL A   1      39.666  30.964  34.470  1.00  0.00     0.037 A 
ATOM     48  C   UNL A   1      41.899  27.111  29.022  1.00  0.00     0.037 A 
ATOM     49  C   UNL A   1      40.874  30.221  34.702  1.00  0.00     0.049 A 
ATOM     50  C   UNL A   1      42.660  27.185  30.319  1.00  0.00     0.074 A 
ATOM     51  C   UNL A   1      41.632  30.145  35.856  1.00  0.00     0.029 A 
ATOM     52  N   UNL A   1      41.497  29.419  33.756  1.00  0.00    -0.354 N 
ATOM     53  N   UNL A   1      42.359  27.828  31.421  1.00  0.00    -0.248 NA
ATOM     54  C   UNL A   1      43.923  26.438  30.387  1.00  0.00     0.031 C 
ATOM     55  C   UNL A   1      42.744  29.340  35.591  1.00  0.00     0.029 A 
ATOM     56  C   UNL A   1      42.646  28.863  34.294  1.00  0.00     0.049 A 
ATOM     57  H   UNL A   1      41.172  29.269  32.839  1.00  0.00     0.167 HD
ATOM     58  C   UNL A   1      43.373  27.537  32.324  1.00  0.00     0.074 A 
ATOM     59  C   UNL A   1      44.291  26.646  31.643  1.00  0.00     0.031 C 
ATOM     60  C   UNL A   1      43.534  27.967  33.599  1.00  0.00     0.037 A 
BRANCH  47  61
ATOM     61  C   UNL A   1      39.147  31.851  35.566  1.00  0.00     0.064 A 
ATOM     62  C   UNL A   1      38.313  31.361  36.583  1.00  0.00     0.173 A 
ATOM     63  C   UNL A   1      39.514  33.205  35.619  1.00  0.00     0.173 A 
ATOM     64  F   UNL A   1      37.919  30.078  36.574  1.00  0.00    -0.203 F 
ATOM     65  C   UNL A   1      37.840  32.197  37.591  1.00  0.00     0.198 A 
ATOM     66  C   UNL A   1      39.069  34.029  36.648  1.00  0.00     0.198 A 
ATOM     67  F   UNL A   1      40.310  33.728  34.675  1.00  0.00    -0.203 F 
ATOM     68  F   UNL A   1      36.997  31.718  38.516  1.00  0.00    -0.200 F 
ATOM     69  C   UNL A   1      38.225  33.528  37.628  1.00  0.00     0.200 A 
ATOM     70  F   UNL A   1      39.454  35.313  36.691  1.00  0.00    -0.200 F 
ATOM     71  F   UNL A   1      37.778  34.330  38.605  1.00  0.00    -0.200 F 
ENDBRANCH  47  61
BRANCH  48  72
ATOM     72  C   UNL A   1      42.419  26.326  27.871  1.00  0.00     0.064 A 
ATOM     73  C   UNL A   1      43.341  26.887  26.975  1.00  0.00     0.173 A 
ATOM     74  C   UNL A   1      42.004  25.008  27.634  1.00  0.00     0.173 A 
ATOM     75  F   UNL A   1      43.758  28.150  27.149  1.00  0.00    -0.203 F 
ATOM     76  C   UNL A   1      43.802  26.174  25.871  1.00  0.00     0.198 A 
ATOM     77  C   UNL A   1      42.492  24.282  26.547  1.00  0.00     0.198 A 
ATOM     78  F   UNL A   1      41.133  24.416  28.465  1.00  0.00    -0.203 F 
ATOM     79  F   UNL A   1      44.638  26.757  25.001  1.00  0.00    -0.200 F 
ATOM     80  C   UNL A   1      43.380  24.870  25.660  1.00  0.00     0.200 A 
ATOM     81  F   UNL A   1      42.097  23.015  26.360  1.00  0.00    -0.200 F 
ATOM     82  F   UNL A   1      43.825  24.183  24.600  1.00  0.00    -0.200 F 
ENDBRANCH  48  72
BRANCH  60  83
ATOM     83  C   UNL A   1      44.718  27.444  34.359  1.00  0.00     0.064 A 
ATOM     84  C   UNL A   1      45.935  28.139  34.399  1.00  0.00     0.173 A 
ATOM     85  C   UNL A   1      44.611  26.258  35.102  1.00  0.00     0.173 A 
ATOM     86  F   UNL A   1      46.091  29.270  33.694  1.00  0.00    -0.203 F 
ATOM     87  C   UNL A   1      47.011  27.651  35.134  1.00  0.00     0.198 A 
ATOM     88  C   UNL A   1      45.677  25.794  35.866  1.00  0.00     0.198 A 
ATOM     89  F   UNL A   1      43.465  25.561  35.105  1.00  0.00    -0.203 F 
ATOM     90  F   UNL A   1      48.181  28.305  35.118  1.00  0.00    -0.200 F 
ATOM     91  C   UNL A   1      46.879  26.486  35.875  1.00  0.00     0.200 A 
ATOM     92  F   UNL A   1      45.541  24.678  36.595  1.00  0.00    -0.200 F 
ATOM     93  F   UNL A   1      47.912  26.026  36.593  1.00  0.00    -0.200 F 
ENDBRANCH  60  83
ENDBRANCH  34  35
ENDBRANCH  26  29
ENDBRANCH  24  25
ENDBRANCH   1  24
TORSDOF 11
ENDMDL
