MODEL 1
REMARK VINA RESULT:     -11.4      0.000      0.000
REMARK SMILES CC[NH2+][C@]1(C(=O)NCCCNC(=O)c2ccc(-c3c4nc(c(-c5c(F)c(F)c(F)c(F)c5F)c5ccc([nH]5)c(-c5c(F)c(F)c(F)c(F)c5F)c5nc(c(-c6c(F)c(F)c(F)c(F)c6F)c6ccc3[nH]6)C=C5)C=C4)cc2)CCC[C@H]1CCOC1CCC1
REMARK SMILES IDX 8 1 7 2 5 3 6 4 4 6 77 7 80 8 78 9 79 10 3 11 2 14 1 15
REMARK SMILES IDX 81 16 82 17 83 18 84 19 85 20 87 21 86 22 9 23 10 24 11 25
REMARK SMILES IDX 12 26 13 28 14 29 15 30 76 31 16 32 75 33 17 34 18 35 19 36
REMARK SMILES IDX 69 37 20 38 74 39 68 40 70 41 21 42 73 43 67 44 66 45 22 47
REMARK SMILES IDX 54 48 34 49 53 50 35 51 38 52 52 53 71 54 36 55 37 56 51 58
REMARK SMILES IDX 72 59 39 60 23 61 24 62 32 63 25 64 26 65 30 66 33 67 27 68
REMARK SMILES IDX 28 69 31 70 29 71 55 72 56 73 64 74 57 75 58 76 62 77 65 78
REMARK SMILES IDX 59 79 60 80 63 81 61 82 40 83 41 84 49 85 42 86 43 87 47 88
REMARK SMILES IDX 50 89 44 90 45 91 48 92 46 93
REMARK H PARENT 7 5 3 12 3 13 11 27 70 46 38 57
REMARK Flexibility Score: inf
ROOT
ATOM      1  C   UNL A   1      31.424  30.836  26.124  1.00  0.00     0.118 C 
ENDROOT
BRANCH   1   2
ATOM      2  N   UNL A   1      31.706  29.857  27.155  1.00  0.00    -0.351 N 
ATOM      3  C   UNL A   1      32.064  28.554  26.992  1.00  0.00     0.281 C 
ATOM      4  O   UNL A   1      31.394  27.760  27.658  1.00  0.00    -0.268 OA
ATOM      5  H   UNL A   1      31.630  30.172  28.084  1.00  0.00     0.163 HD
BRANCH   3   6
ATOM      6  C   UNL A   1      33.118  28.082  25.934  1.00  0.00     0.178 C 
ATOM      7  C   UNL A   1      33.383  26.565  25.988  1.00  0.00     0.079 C 
ATOM      8  C   UNL A   1      32.655  28.241  24.432  1.00  0.00     0.063 C 
ATOM      9  C   UNL A   1      33.956  26.151  24.647  1.00  0.00     0.008 C 
ATOM     10  C   UNL A   1      33.535  27.222  23.663  1.00  0.00     0.011 C 
BRANCH   6  11
ATOM     11  N   UNL A   1      34.270  29.009  26.051  1.00  0.00    -0.334 N 
ATOM     12  H   UNL A   1      34.940  28.737  25.332  1.00  0.00     0.347 HD
ATOM     13  H   UNL A   1      33.836  29.929  25.968  1.00  0.00     0.347 HD
BRANCH  11  14
ATOM     14  C   UNL A   1      35.005  29.105  27.290  1.00  0.00     0.257 C 
ATOM     15  C   UNL A   1      35.121  30.573  27.686  1.00  0.00     0.071 C 
ENDBRANCH  11  14
ENDBRANCH   6  11
BRANCH   8  16
ATOM     16  C   UNL A   1      31.164  28.027  24.068  1.00  0.00     0.039 C 
BRANCH  16  17
ATOM     17  C   UNL A   1      30.770  27.809  22.592  1.00  0.00     0.161 C 
BRANCH  17  18
ATOM     18  O   UNL A   1      29.722  28.652  22.113  1.00  0.00    -0.378 OA
BRANCH  18  19
ATOM     19  C   UNL A   1      28.915  29.361  23.075  1.00  0.00     0.118 C 
ATOM     20  C   UNL A   1      29.140  30.896  23.073  1.00  0.00     0.032 C 
ATOM     21  C   UNL A   1      27.437  29.678  22.756  1.00  0.00     0.032 C 
ATOM     22  C   UNL A   1      27.666  31.025  23.490  1.00  0.00     0.005 C 
ENDBRANCH  18  19
ENDBRANCH  17  18
ENDBRANCH  16  17
ENDBRANCH   8  16
ENDBRANCH   3   6
ENDBRANCH   1   2
BRANCH   1  23
ATOM     23  C   UNL A   1      31.340  32.248  26.699  1.00  0.00     0.042 C 
BRANCH  23  24
ATOM     24  C   UNL A   1      32.687  32.842  27.099  1.00  0.00     0.118 C 
BRANCH  24  25
ATOM     25  N   UNL A   1      32.559  34.165  27.690  1.00  0.00    -0.352 N 
ATOM     26  C   UNL A   1      33.158  34.721  28.790  1.00  0.00     0.251 C 
ATOM     27  H   UNL A   1      31.935  34.764  27.219  1.00  0.00     0.163 HD
ATOM     28  O   UNL A   1      32.721  35.775  29.242  1.00  0.00    -0.269 OA
BRANCH  26  29
ATOM     29  C   UNL A   1      34.318  34.072  29.438  1.00  0.00     0.039 A 
ATOM     30  C   UNL A   1      35.605  34.417  29.011  1.00  0.00     0.014 A 
ATOM     31  C   UNL A   1      34.152  33.075  30.401  1.00  0.00     0.014 A 
ATOM     32  C   UNL A   1      36.718  33.787  29.571  1.00  0.00     0.010 A 
ATOM     33  C   UNL A   1      35.262  32.517  31.028  1.00  0.00     0.010 A 
ATOM     34  C   UNL A   1      36.556  32.843  30.598  1.00  0.00    -0.014 A 
BRANCH  34  35
ATOM     35  C   UNL A   1      37.721  32.134  31.182  1.00  0.00     0.031 A 
ATOM     36  C   UNL A   1      38.190  32.483  32.571  1.00  0.00     0.074 A 
ATOM     37  C   UNL A   1      38.386  31.215  30.455  1.00  0.00     0.049 A 
ATOM     38  N   UNL A   1      39.220  32.029  33.239  1.00  0.00    -0.248 NA
ATOM     39  C   UNL A   1      37.414  33.506  33.292  1.00  0.00     0.031 C 
ATOM     40  C   UNL A   1      38.060  30.826  29.083  1.00  0.00     0.029 A 
ATOM     41  N   UNL A   1      39.478  30.447  30.769  1.00  0.00    -0.354 N 
ATOM     42  C   UNL A   1      39.228  32.727  34.440  1.00  0.00     0.074 A 
ATOM     43  C   UNL A   1      38.138  33.676  34.387  1.00  0.00     0.031 C 
ATOM     44  C   UNL A   1      38.916  29.872  28.682  1.00  0.00     0.029 A 
ATOM     45  C   UNL A   1      39.867  29.605  29.757  1.00  0.00     0.049 A 
ATOM     46  H   UNL A   1      39.939  30.495  31.638  1.00  0.00     0.167 HD
ATOM     47  C   UNL A   1      40.049  32.570  35.506  1.00  0.00     0.037 A 
ATOM     48  C   UNL A   1      40.878  28.716  29.706  1.00  0.00     0.037 A 
ATOM     49  C   UNL A   1      41.106  31.596  35.571  1.00  0.00     0.049 A 
ATOM     50  C   UNL A   1      41.757  28.539  30.915  1.00  0.00     0.074 A 
ATOM     51  C   UNL A   1      41.964  31.320  36.621  1.00  0.00     0.029 A 
ATOM     52  N   UNL A   1      41.440  30.728  34.542  1.00  0.00    -0.354 N 
ATOM     53  N   UNL A   1      41.718  29.162  32.067  1.00  0.00    -0.248 NA
ATOM     54  C   UNL A   1      42.812  27.519  30.820  1.00  0.00     0.031 C 
ATOM     55  C   UNL A   1      42.840  30.307  36.214  1.00  0.00     0.029 A 
ATOM     56  C   UNL A   1      42.495  29.920  34.929  1.00  0.00     0.049 A 
ATOM     57  H   UNL A   1      40.993  30.693  33.665  1.00  0.00     0.167 HD
ATOM     58  C   UNL A   1      42.713  28.588  32.847  1.00  0.00     0.074 A 
ATOM     59  C   UNL A   1      43.333  27.558  32.037  1.00  0.00     0.031 C 
ATOM     60  C   UNL A   1      43.081  28.884  34.117  1.00  0.00     0.037 A 
BRANCH  47  61
ATOM     61  C   UNL A   1      39.829  33.468  36.689  1.00  0.00     0.064 A 
ATOM     62  C   UNL A   1      38.964  33.109  37.735  1.00  0.00     0.173 A 
ATOM     63  C   UNL A   1      40.504  34.694  36.791  1.00  0.00     0.173 A 
ATOM     64  F   UNL A   1      38.284  31.954  37.680  1.00  0.00    -0.203 F 
ATOM     65  C   UNL A   1      38.758  33.956  38.820  1.00  0.00     0.198 A 
ATOM     66  C   UNL A   1      40.320  35.525  37.893  1.00  0.00     0.198 A 
ATOM     67  F   UNL A   1      41.346  35.086  35.823  1.00  0.00    -0.203 F 
ATOM     68  F   UNL A   1      37.885  33.616  39.777  1.00  0.00    -0.200 F 
ATOM     69  C   UNL A   1      39.441  35.161  38.902  1.00  0.00     0.200 A 
ATOM     70  F   UNL A   1      40.990  36.683  37.978  1.00  0.00    -0.200 F 
ATOM     71  F   UNL A   1      39.246  35.973  39.949  1.00  0.00    -0.200 F 
ENDBRANCH  47  61
BRANCH  48  72
ATOM     72  C   UNL A   1      41.081  27.892  28.488  1.00  0.00     0.064 A 
ATOM     73  C   UNL A   1      41.924  28.331  27.457  1.00  0.00     0.173 A 
ATOM     74  C   UNL A   1      40.440  26.656  28.324  1.00  0.00     0.173 A 
ATOM     75  F   UNL A   1      42.545  29.515  27.560  1.00  0.00    -0.203 F 
ATOM     76  C   UNL A   1      42.099  27.578  26.298  1.00  0.00     0.198 A 
ATOM     77  C   UNL A   1      40.638  25.890  27.177  1.00  0.00     0.198 A 
ATOM     78  F   UNL A   1      39.631  26.186  29.284  1.00  0.00    -0.203 F 
ATOM     79  F   UNL A   1      42.873  28.045  25.309  1.00  0.00    -0.200 F 
ATOM     80  C   UNL A   1      41.459  26.356  26.161  1.00  0.00     0.200 A 
ATOM     81  F   UNL A   1      40.030  24.702  27.054  1.00  0.00    -0.200 F 
ATOM     82  F   UNL A   1      41.629  25.629  25.047  1.00  0.00    -0.200 F 
ENDBRANCH  48  72
BRANCH  60  83
ATOM     83  C   UNL A   1      44.165  28.047  34.732  1.00  0.00     0.064 A 
ATOM     84  C   UNL A   1      45.511  28.432  34.689  1.00  0.00     0.173 A 
ATOM     85  C   UNL A   1      43.840  26.858  35.402  1.00  0.00     0.173 A 
ATOM     86  F   UNL A   1      45.873  29.554  34.048  1.00  0.00    -0.203 F 
ATOM     87  C   UNL A   1      46.500  27.640  35.267  1.00  0.00     0.198 A 
ATOM     88  C   UNL A   1      44.827  26.085  36.006  1.00  0.00     0.198 A 
ATOM     89  F   UNL A   1      42.564  26.450  35.478  1.00  0.00    -0.203 F 
ATOM     90  F   UNL A   1      47.787  28.001  35.170  1.00  0.00    -0.200 F 
ATOM     91  C   UNL A   1      46.156  26.471  35.931  1.00  0.00     0.200 A 
ATOM     92  F   UNL A   1      44.492  24.963  36.658  1.00  0.00    -0.200 F 
ATOM     93  F   UNL A   1      47.108  25.713  36.491  1.00  0.00    -0.200 F 
ENDBRANCH  60  83
ENDBRANCH  34  35
ENDBRANCH  26  29
ENDBRANCH  24  25
ENDBRANCH  23  24
ENDBRANCH   1  23
TORSDOF 16
ENDMDL
MODEL 2
REMARK VINA RESULT:     -11.2      5.994     11.357
REMARK SMILES CC[NH2+][C@]1(C(=O)NCCCNC(=O)c2ccc(-c3c4nc(c(-c5c(F)c(F)c(F)c(F)c5F)c5ccc([nH]5)c(-c5c(F)c(F)c(F)c(F)c5F)c5nc(c(-c6c(F)c(F)c(F)c(F)c6F)c6ccc3[nH]6)C=C5)C=C4)cc2)CCC[C@H]1CCOC1CCC1
REMARK SMILES IDX 8 1 7 2 5 3 6 4 4 6 77 7 80 8 78 9 79 10 3 11 2 14 1 15
REMARK SMILES IDX 81 16 82 17 83 18 84 19 85 20 87 21 86 22 9 23 10 24 11 25
REMARK SMILES IDX 12 26 13 28 14 29 15 30 76 31 16 32 75 33 17 34 18 35 19 36
REMARK SMILES IDX 69 37 20 38 74 39 68 40 70 41 21 42 73 43 67 44 66 45 22 47
REMARK SMILES IDX 54 48 34 49 53 50 35 51 38 52 52 53 71 54 36 55 37 56 51 58
REMARK SMILES IDX 72 59 39 60 23 61 24 62 32 63 25 64 26 65 30 66 33 67 27 68
REMARK SMILES IDX 28 69 31 70 29 71 55 72 56 73 64 74 57 75 58 76 62 77 65 78
REMARK SMILES IDX 59 79 60 80 63 81 61 82 40 83 41 84 49 85 42 86 43 87 47 88
REMARK SMILES IDX 50 89 44 90 45 91 48 92 46 93
REMARK H PARENT 7 5 3 12 3 13 11 27 70 46 38 57
REMARK Flexibility Score: inf
ROOT
ATOM      1  C   UNL A   1      36.862  20.219  24.834  1.00  0.00     0.118 C 
ENDROOT
BRANCH   1   2
ATOM      2  N   UNL A   1      37.140  21.430  24.087  1.00  0.00    -0.351 N 
ATOM      3  C   UNL A   1      36.370  22.548  23.994  1.00  0.00     0.281 C 
ATOM      4  O   UNL A   1      36.177  22.932  22.837  1.00  0.00    -0.268 OA
ATOM      5  H   UNL A   1      37.989  21.445  23.588  1.00  0.00     0.163 HD
BRANCH   3   6
ATOM      6  C   UNL A   1      35.654  23.199  25.225  1.00  0.00     0.178 C 
ATOM      7  C   UNL A   1      34.971  24.537  24.882  1.00  0.00     0.079 C 
ATOM      8  C   UNL A   1      34.421  22.378  25.776  1.00  0.00     0.063 C 
ATOM      9  C   UNL A   1      33.905  24.790  25.930  1.00  0.00     0.008 C 
ATOM     10  C   UNL A   1      33.576  23.438  26.528  1.00  0.00     0.011 C 
BRANCH   6  11
ATOM     11  N   UNL A   1      36.630  23.165  26.341  1.00  0.00    -0.334 N 
ATOM     12  H   UNL A   1      36.096  23.282  27.202  1.00  0.00     0.347 HD
ATOM     13  H   UNL A   1      37.112  22.276  26.201  1.00  0.00     0.347 HD
BRANCH  11  14
ATOM     14  C   UNL A   1      37.714  24.119  26.390  1.00  0.00     0.257 C 
ATOM     15  C   UNL A   1      39.037  23.363  26.459  1.00  0.00     0.071 C 
ENDBRANCH  11  14
ENDBRANCH   6  11
BRANCH   8  16
ATOM     16  C   UNL A   1      33.522  21.598  24.783  1.00  0.00     0.039 C 
BRANCH  16  17
ATOM     17  C   UNL A   1      32.474  20.607  25.332  1.00  0.00     0.161 C 
BRANCH  17  18
ATOM     18  O   UNL A   1      32.129  19.538  24.450  1.00  0.00    -0.378 OA
BRANCH  18  19
ATOM     19  C   UNL A   1      33.191  18.760  23.864  1.00  0.00     0.118 C 
ATOM     20  C   UNL A   1      33.633  17.548  24.726  1.00  0.00     0.032 C 
ATOM     21  C   UNL A   1      32.871  17.729  22.759  1.00  0.00     0.032 C 
ATOM     22  C   UNL A   1      33.965  16.839  23.403  1.00  0.00     0.005 C 
ENDBRANCH  18  19
ENDBRANCH  17  18
ENDBRANCH  16  17
ENDBRANCH   8  16
ENDBRANCH   3   6
ENDBRANCH   1   2
BRANCH   1  23
ATOM     23  C   UNL A   1      38.109  19.351  24.982  1.00  0.00     0.042 C 
BRANCH  23  24
ATOM     24  C   UNL A   1      39.210  19.977  25.832  1.00  0.00     0.118 C 
BRANCH  24  25
ATOM     25  N   UNL A   1      40.380  19.119  25.949  1.00  0.00    -0.352 N 
ATOM     26  C   UNL A   1      41.711  19.424  26.064  1.00  0.00     0.251 C 
ATOM     27  H   UNL A   1      40.181  18.154  25.943  1.00  0.00     0.163 HD
ATOM     28  O   UNL A   1      42.545  18.536  25.909  1.00  0.00    -0.269 OA
BRANCH  26  29
ATOM     29  C   UNL A   1      42.156  20.800  26.372  1.00  0.00     0.039 A 
ATOM     30  C   UNL A   1      42.370  21.153  27.709  1.00  0.00     0.014 A 
ATOM     31  C   UNL A   1      42.288  21.765  25.371  1.00  0.00     0.014 A 
ATOM     32  C   UNL A   1      42.745  22.459  28.034  1.00  0.00     0.010 A 
ATOM     33  C   UNL A   1      42.755  23.038  25.685  1.00  0.00     0.010 A 
ATOM     34  C   UNL A   1      42.957  23.408  27.021  1.00  0.00    -0.014 A 
BRANCH  34  35
ATOM     35  C   UNL A   1      43.320  24.810  27.345  1.00  0.00     0.031 A 
ATOM     36  C   UNL A   1      44.721  25.299  27.086  1.00  0.00     0.074 A 
ATOM     37  C   UNL A   1      42.412  25.627  27.913  1.00  0.00     0.049 A 
ATOM     38  N   UNL A   1      45.258  26.463  27.354  1.00  0.00    -0.248 NA
ATOM     39  C   UNL A   1      45.653  24.338  26.474  1.00  0.00     0.031 C 
ATOM     40  C   UNL A   1      41.040  25.257  28.259  1.00  0.00     0.029 A 
ATOM     41  N   UNL A   1      42.512  26.938  28.305  1.00  0.00    -0.354 N 
ATOM     42  C   UNL A   1      46.588  26.362  26.967  1.00  0.00     0.074 A 
ATOM     43  C   UNL A   1      46.794  25.008  26.503  1.00  0.00     0.031 C 
ATOM     44  C   UNL A   1      40.416  26.324  28.785  1.00  0.00     0.029 A 
ATOM     45  C   UNL A   1      41.353  27.442  28.841  1.00  0.00     0.049 A 
ATOM     46  H   UNL A   1      43.337  27.468  28.209  1.00  0.00     0.167 HD
ATOM     47  C   UNL A   1      47.546  27.320  26.969  1.00  0.00     0.037 A 
ATOM     48  C   UNL A   1      41.080  28.670  29.322  1.00  0.00     0.037 A 
ATOM     49  C   UNL A   1      47.326  28.677  27.391  1.00  0.00     0.049 A 
ATOM     50  C   UNL A   1      42.152  29.726  29.284  1.00  0.00     0.074 A 
ATOM     51  C   UNL A   1      48.213  29.740  27.387  1.00  0.00     0.029 A 
ATOM     52  N   UNL A   1      46.124  29.162  27.886  1.00  0.00    -0.354 N 
ATOM     53  N   UNL A   1      43.389  29.635  28.861  1.00  0.00    -0.248 NA
ATOM     54  C   UNL A   1      41.781  31.060  29.775  1.00  0.00     0.031 C 
ATOM     55  C   UNL A   1      47.556  30.858  27.911  1.00  0.00     0.029 A 
ATOM     56  C   UNL A   1      46.247  30.505  28.196  1.00  0.00     0.049 A 
ATOM     57  H   UNL A   1      45.304  28.628  28.001  1.00  0.00     0.167 HD
ATOM     58  C   UNL A   1      43.934  30.905  28.999  1.00  0.00     0.074 A 
ATOM     59  C   UNL A   1      42.886  31.751  29.536  1.00  0.00     0.031 C 
ATOM     60  C   UNL A   1      45.186  31.335  28.707  1.00  0.00     0.037 A 
BRANCH  47  61
ATOM     61  C   UNL A   1      48.915  26.932  26.489  1.00  0.00     0.064 A 
ATOM     62  C   UNL A   1      49.287  27.061  25.141  1.00  0.00     0.173 A 
ATOM     63  C   UNL A   1      49.876  26.445  27.389  1.00  0.00     0.173 A 
ATOM     64  F   UNL A   1      48.402  27.508  24.238  1.00  0.00    -0.203 F 
ATOM     65  C   UNL A   1      50.555  26.685  24.707  1.00  0.00     0.198 A 
ATOM     66  C   UNL A   1      51.154  26.100  26.956  1.00  0.00     0.198 A 
ATOM     67  F   UNL A   1      49.576  26.307  28.689  1.00  0.00    -0.203 F 
ATOM     68  F   UNL A   1      50.866  26.764  23.406  1.00  0.00    -0.200 F 
ATOM     69  C   UNL A   1      51.490  26.212  25.616  1.00  0.00     0.200 A 
ATOM     70  F   UNL A   1      52.061  25.656  27.837  1.00  0.00    -0.200 F 
ATOM     71  F   UNL A   1      52.712  25.855  25.197  1.00  0.00    -0.200 F 
ENDBRANCH  47  61
BRANCH  48  72
ATOM     72  C   UNL A   1      39.721  28.981  29.834  1.00  0.00     0.064 A 
ATOM     73  C   UNL A   1      38.727  29.475  28.976  1.00  0.00     0.173 A 
ATOM     74  C   UNL A   1      39.385  28.797  31.182  1.00  0.00     0.173 A 
ATOM     75  F   UNL A   1      39.005  29.686  27.681  1.00  0.00    -0.203 F 
ATOM     76  C   UNL A   1      37.458  29.797  29.453  1.00  0.00     0.198 A 
ATOM     77  C   UNL A   1      38.108  29.092  31.653  1.00  0.00     0.198 A 
ATOM     78  F   UNL A   1      40.296  28.318  32.042  1.00  0.00    -0.203 F 
ATOM     79  F   UNL A   1      36.544  30.313  28.621  1.00  0.00    -0.200 F 
ATOM     80  C   UNL A   1      37.148  29.601  30.790  1.00  0.00     0.200 A 
ATOM     81  F   UNL A   1      37.806  28.887  32.942  1.00  0.00    -0.200 F 
ATOM     82  F   UNL A   1      35.926  29.908  31.248  1.00  0.00    -0.200 F 
ENDBRANCH  48  72
BRANCH  60  83
ATOM     83  C   UNL A   1      45.476  32.794  28.905  1.00  0.00     0.064 A 
ATOM     84  C   UNL A   1      46.015  33.284  30.102  1.00  0.00     0.173 A 
ATOM     85  C   UNL A   1      45.239  33.706  27.867  1.00  0.00     0.173 A 
ATOM     86  F   UNL A   1      46.246  32.453  31.130  1.00  0.00    -0.203 F 
ATOM     87  C   UNL A   1      46.278  34.641  30.264  1.00  0.00     0.198 A 
ATOM     88  C   UNL A   1      45.532  35.057  28.020  1.00  0.00     0.198 A 
ATOM     89  F   UNL A   1      44.732  33.285  26.698  1.00  0.00    -0.203 F 
ATOM     90  F   UNL A   1      46.745  35.097  31.435  1.00  0.00    -0.200 F 
ATOM     91  C   UNL A   1      46.043  35.526  29.221  1.00  0.00     0.200 A 
ATOM     92  F   UNL A   1      45.316  35.908  27.007  1.00  0.00    -0.200 F 
ATOM     93  F   UNL A   1      46.301  36.831  29.377  1.00  0.00    -0.200 F 
ENDBRANCH  60  83
ENDBRANCH  34  35
ENDBRANCH  26  29
ENDBRANCH  24  25
ENDBRANCH  23  24
ENDBRANCH   1  23
TORSDOF 16
ENDMDL
MODEL 3
REMARK VINA RESULT:     -11.2      0.533      7.435
REMARK SMILES CC[NH2+][C@]1(C(=O)NCCCNC(=O)c2ccc(-c3c4nc(c(-c5c(F)c(F)c(F)c(F)c5F)c5ccc([nH]5)c(-c5c(F)c(F)c(F)c(F)c5F)c5nc(c(-c6c(F)c(F)c(F)c(F)c6F)c6ccc3[nH]6)C=C5)C=C4)cc2)CCC[C@H]1CCOC1CCC1
REMARK SMILES IDX 8 1 7 2 5 3 6 4 4 6 77 7 80 8 78 9 79 10 3 11 2 14 1 15
REMARK SMILES IDX 81 16 82 17 83 18 84 19 85 20 87 21 86 22 9 23 10 24 11 25
REMARK SMILES IDX 12 26 13 28 14 29 15 30 76 31 16 32 75 33 17 34 18 35 19 36
REMARK SMILES IDX 69 37 20 38 74 39 68 40 70 41 21 42 73 43 67 44 66 45 22 47
REMARK SMILES IDX 54 48 34 49 53 50 35 51 38 52 52 53 71 54 36 55 37 56 51 58
REMARK SMILES IDX 72 59 39 60 23 61 24 62 32 63 25 64 26 65 30 66 33 67 27 68
REMARK SMILES IDX 28 69 31 70 29 71 55 72 56 73 64 74 57 75 58 76 62 77 65 78
REMARK SMILES IDX 59 79 60 80 63 81 61 82 40 83 41 84 49 85 42 86 43 87 47 88
REMARK SMILES IDX 50 89 44 90 45 91 48 92 46 93
REMARK H PARENT 7 5 3 12 3 13 11 27 70 46 38 57
REMARK Flexibility Score: inf
ROOT
ATOM      1  C   UNL A   1      31.431  30.935  26.160  1.00  0.00     0.118 C 
ENDROOT
BRANCH   1   2
ATOM      2  N   UNL A   1      31.694  29.928  27.168  1.00  0.00    -0.351 N 
ATOM      3  C   UNL A   1      32.052  28.629  26.976  1.00  0.00     0.281 C 
ATOM      4  O   UNL A   1      31.369  27.819  27.609  1.00  0.00    -0.268 OA
ATOM      5  H   UNL A   1      31.604  30.218  28.104  1.00  0.00     0.163 HD
BRANCH   3   6
ATOM      6  C   UNL A   1      33.121  28.182  25.922  1.00  0.00     0.178 C 
ATOM      7  C   UNL A   1      33.431  26.674  25.985  1.00  0.00     0.079 C 
ATOM      8  C   UNL A   1      32.657  28.319  24.418  1.00  0.00     0.063 C 
ATOM      9  C   UNL A   1      34.018  26.270  24.648  1.00  0.00     0.008 C 
ATOM     10  C   UNL A   1      33.568  27.322  23.657  1.00  0.00     0.011 C 
BRANCH   6  11
ATOM     11  N   UNL A   1      34.245  29.144  26.036  1.00  0.00    -0.334 N 
ATOM     12  H   UNL A   1      34.895  28.926  25.281  1.00  0.00     0.347 HD
ATOM     13  H   UNL A   1      33.778  30.050  26.011  1.00  0.00     0.347 HD
BRANCH  11  14
ATOM     14  C   UNL A   1      35.025  29.211  27.250  1.00  0.00     0.257 C 
ATOM     15  C   UNL A   1      35.134  30.668  27.689  1.00  0.00     0.071 C 
ENDBRANCH  11  14
ENDBRANCH   6  11
BRANCH   8  16
ATOM     16  C   UNL A   1      31.174  28.059  24.053  1.00  0.00     0.039 C 
BRANCH  16  17
ATOM     17  C   UNL A   1      30.774  27.921  22.569  1.00  0.00     0.161 C 
BRANCH  17  18
ATOM     18  O   UNL A   1      29.559  28.576  22.204  1.00  0.00    -0.378 OA
BRANCH  18  19
ATOM     19  C   UNL A   1      28.941  29.462  23.159  1.00  0.00     0.118 C 
ATOM     20  C   UNL A   1      29.129  30.967  22.833  1.00  0.00     0.032 C 
ATOM     21  C   UNL A   1      27.423  29.738  23.084  1.00  0.00     0.032 C 
ATOM     22  C   UNL A   1      27.762  31.192  23.500  1.00  0.00     0.005 C 
ENDBRANCH  18  19
ENDBRANCH  17  18
ENDBRANCH  16  17
ENDBRANCH   8  16
ENDBRANCH   3   6
ENDBRANCH   1   2
BRANCH   1  23
ATOM     23  C   UNL A   1      31.320  32.329  26.774  1.00  0.00     0.042 C 
BRANCH  23  24
ATOM     24  C   UNL A   1      32.657  33.037  26.964  1.00  0.00     0.118 C 
BRANCH  24  25
ATOM     25  N   UNL A   1      32.516  34.326  27.625  1.00  0.00    -0.352 N 
ATOM     26  C   UNL A   1      33.103  34.825  28.758  1.00  0.00     0.251 C 
ATOM     27  H   UNL A   1      31.890  34.945  27.183  1.00  0.00     0.163 HD
ATOM     28  O   UNL A   1      32.655  35.850  29.264  1.00  0.00    -0.269 OA
BRANCH  26  29
ATOM     29  C   UNL A   1      34.264  34.150  29.378  1.00  0.00     0.039 A 
ATOM     30  C   UNL A   1      34.030  33.154  30.332  1.00  0.00     0.014 A 
ATOM     31  C   UNL A   1      35.574  34.539  29.090  1.00  0.00     0.014 A 
ATOM     32  C   UNL A   1      35.106  32.531  30.969  1.00  0.00     0.010 A 
ATOM     33  C   UNL A   1      36.646  33.853  29.652  1.00  0.00     0.010 A 
ATOM     34  C   UNL A   1      36.424  32.865  30.621  1.00  0.00    -0.014 A 
BRANCH  34  35
ATOM     35  C   UNL A   1      37.582  32.243  31.310  1.00  0.00     0.031 A 
ATOM     36  C   UNL A   1      38.366  31.156  30.622  1.00  0.00     0.074 A 
ATOM     37  C   UNL A   1      37.901  32.616  32.564  1.00  0.00     0.049 A 
ATOM     38  N   UNL A   1      39.368  30.443  31.071  1.00  0.00    -0.248 NA
ATOM     39  C   UNL A   1      37.944  30.800  29.257  1.00  0.00     0.031 C 
ATOM     40  C   UNL A   1      37.188  33.621  33.354  1.00  0.00     0.029 A 
ATOM     41  N   UNL A   1      38.904  32.188  33.396  1.00  0.00    -0.354 N 
ATOM     42  C   UNL A   1      39.676  29.543  30.058  1.00  0.00     0.074 A 
ATOM     43  C   UNL A   1      38.718  29.758  28.995  1.00  0.00     0.031 C 
ATOM     44  C   UNL A   1      37.794  33.753  34.545  1.00  0.00     0.029 A 
ATOM     45  C   UNL A   1      38.916  32.822  34.614  1.00  0.00     0.049 A 
ATOM     46  H   UNL A   1      39.554  31.493  33.144  1.00  0.00     0.167 HD
ATOM     47  C   UNL A   1      40.684  28.641  30.002  1.00  0.00     0.037 A 
ATOM     48  C   UNL A   1      39.743  32.668  35.666  1.00  0.00     0.037 A 
ATOM     49  C   UNL A   1      41.660  28.460  31.044  1.00  0.00     0.049 A 
ATOM     50  C   UNL A   1      40.874  31.680  35.568  1.00  0.00     0.074 A 
ATOM     51  C   UNL A   1      42.751  27.609  31.069  1.00  0.00     0.029 A 
ATOM     52  N   UNL A   1      41.666  29.154  32.245  1.00  0.00    -0.354 N 
ATOM     53  N   UNL A   1      41.191  30.877  34.581  1.00  0.00    -0.248 NA
ATOM     54  C   UNL A   1      41.775  31.591  36.726  1.00  0.00     0.031 C 
ATOM     55  C   UNL A   1      43.397  27.764  32.300  1.00  0.00     0.029 A 
ATOM     56  C   UNL A   1      42.738  28.746  33.020  1.00  0.00     0.049 A 
ATOM     57  H   UNL A   1      41.005  29.835  32.507  1.00  0.00     0.167 HD
ATOM     58  C   UNL A   1      42.345  30.216  34.981  1.00  0.00     0.074 A 
ATOM     59  C   UNL A   1      42.678  30.721  36.298  1.00  0.00     0.031 C 
ATOM     60  C   UNL A   1      43.065  29.278  34.319  1.00  0.00     0.037 A 
BRANCH  47  61
ATOM     61  C   UNL A   1      40.784  27.789  28.770  1.00  0.00     0.064 A 
ATOM     62  C   UNL A   1      40.050  26.600  28.635  1.00  0.00     0.173 A 
ATOM     63  C   UNL A   1      41.607  28.174  27.700  1.00  0.00     0.173 A 
ATOM     64  F   UNL A   1      39.259  26.179  29.634  1.00  0.00    -0.203 F 
ATOM     65  C   UNL A   1      40.162  25.812  27.493  1.00  0.00     0.198 A 
ATOM     66  C   UNL A   1      41.692  27.399  26.546  1.00  0.00     0.198 A 
ATOM     67  F   UNL A   1      42.327  29.304  27.773  1.00  0.00    -0.203 F 
ATOM     68  F   UNL A   1      39.495  24.653  27.413  1.00  0.00    -0.200 F 
ATOM     69  C   UNL A   1      40.977  26.216  26.446  1.00  0.00     0.200 A 
ATOM     70  F   UNL A   1      42.470  27.797  25.529  1.00  0.00    -0.200 F 
ATOM     71  F   UNL A   1      41.080  25.459  25.346  1.00  0.00    -0.200 F 
ENDBRANCH  47  61
BRANCH  48  72
ATOM     72  C   UNL A   1      39.562  33.502  36.881  1.00  0.00     0.064 A 
ATOM     73  C   UNL A   1      40.241  34.721  37.021  1.00  0.00     0.173 A 
ATOM     74  C   UNL A   1      38.716  33.103  37.924  1.00  0.00     0.173 A 
ATOM     75  F   UNL A   1      41.077  35.137  36.058  1.00  0.00    -0.203 F 
ATOM     76  C   UNL A   1      40.100  35.497  38.171  1.00  0.00     0.198 A 
ATOM     77  C   UNL A   1      38.553  33.893  39.061  1.00  0.00     0.198 A 
ATOM     78  F   UNL A   1      38.037  31.951  37.836  1.00  0.00    -0.203 F 
ATOM     79  F   UNL A   1      40.798  36.633  38.298  1.00  0.00    -0.200 F 
ATOM     80  C   UNL A   1      39.253  35.085  39.187  1.00  0.00     0.200 A 
ATOM     81  F   UNL A   1      37.722  33.499  40.035  1.00  0.00    -0.200 F 
ATOM     82  F   UNL A   1      39.114  35.832  40.291  1.00  0.00    -0.200 F 
ENDBRANCH  48  72
BRANCH  60  83
ATOM     83  C   UNL A   1      44.316  28.778  34.981  1.00  0.00     0.064 A 
ATOM     84  C   UNL A   1      44.313  27.648  35.810  1.00  0.00     0.173 A 
ATOM     85  C   UNL A   1      45.540  29.425  34.753  1.00  0.00     0.173 A 
ATOM     86  F   UNL A   1      43.164  27.004  36.070  1.00  0.00    -0.203 F 
ATOM     87  C   UNL A   1      45.485  27.201  36.413  1.00  0.00     0.198 A 
ATOM     88  C   UNL A   1      46.715  28.957  35.332  1.00  0.00     0.198 A 
ATOM     89  F   UNL A   1      45.596  30.506  33.960  1.00  0.00    -0.203 F 
ATOM     90  F   UNL A   1      45.451  26.150  37.243  1.00  0.00    -0.200 F 
ATOM     91  C   UNL A   1      46.686  27.852  36.167  1.00  0.00     0.200 A 
ATOM     92  F   UNL A   1      47.876  29.579  35.083  1.00  0.00    -0.200 F 
ATOM     93  F   UNL A   1      47.814  27.417  36.745  1.00  0.00    -0.200 F 
ENDBRANCH  60  83
ENDBRANCH  34  35
ENDBRANCH  26  29
ENDBRANCH  24  25
ENDBRANCH  23  24
ENDBRANCH   1  23
TORSDOF 16
ENDMDL
