MODEL 1
REMARK VINA RESULT:     -11.4      0.000      0.000
REMARK SMILES C[C@@H](CC(=O)NCCCNC(=O)c1ccc(-c2c3nc(c(-c4c(F)c(F)c(F)c(F)c4F)c4ccc([nH]4)c(-c4c(F)c(F)c(F)c(F)c4F)c4nc(c(-c5c(F)c(F)c(F)c(F)c5F)c5ccc2[nH]5)C=C4)C=C3)cc1)NC(=O)CCCN1C(=O)CN(C)C1=O
REMARK SMILES IDX 4 1 5 2 6 3 3 5 2 6 1 7 76 8 77 9 78 11 79 12 80 13 81 14
REMARK SMILES IDX 82 15 83 16 88 17 84 18 85 19 86 20 89 21 87 22 7 23 8 24
REMARK SMILES IDX 9 25 10 26 11 27 12 29 13 30 14 31 75 32 15 33 74 34 16 35
REMARK SMILES IDX 17 36 18 37 68 38 19 39 73 40 67 41 69 42 20 43 72 44 66 45
REMARK SMILES IDX 65 46 21 48 53 49 33 50 52 51 34 52 37 53 51 54 70 55 35 56
REMARK SMILES IDX 36 57 50 59 71 60 38 61 22 62 23 63 31 64 24 65 25 66 29 67
REMARK SMILES IDX 32 68 26 69 27 70 30 71 28 72 54 73 55 74 63 75 56 76 57 77
REMARK SMILES IDX 61 78 64 79 58 80 59 81 62 82 60 83 39 84 40 85 48 86 41 87
REMARK SMILES IDX 42 88 46 89 49 90 43 91 44 92 47 93 45 94
REMARK H PARENT 6 4 76 10 10 28 69 47 37 58
REMARK Flexibility Score: inf
ROOT
ATOM      1  C   UNL A   1      33.034  29.103  24.652  1.00  0.00     0.222 C 
ATOM      2  O   UNL A   1      33.484  29.080  23.506  1.00  0.00    -0.275 OA
ATOM      3  N   UNL A   1      32.124  30.068  24.967  1.00  0.00    -0.356 N 
ATOM      4  H   UNL A   1      31.851  30.625  24.204  1.00  0.00     0.163 HD
ENDROOT
BRANCH   1   5
ATOM      5  C   UNL A   1      33.461  28.077  25.669  1.00  0.00     0.124 C 
BRANCH   5   6
ATOM      6  C   UNL A   1      33.139  26.622  25.328  1.00  0.00     0.088 C 
ATOM      7  C   UNL A   1      34.191  25.606  25.731  1.00  0.00     0.031 C 
BRANCH   6   8
ATOM      8  N   UNL A   1      32.770  26.360  23.952  1.00  0.00    -0.353 N 
ATOM      9  C   UNL A   1      31.787  25.484  23.567  1.00  0.00     0.220 C 
ATOM     10  H   UNL A   1      33.257  26.843  23.245  1.00  0.00     0.163 HD
ATOM     11  O   UNL A   1      31.848  24.963  22.455  1.00  0.00    -0.275 OA
BRANCH   9  12
ATOM     12  C   UNL A   1      30.601  25.237  24.498  1.00  0.00     0.102 C 
BRANCH  12  13
ATOM     13  C   UNL A   1      29.597  26.386  24.701  1.00  0.00     0.032 C 
BRANCH  13  14
ATOM     14  C   UNL A   1      28.600  26.731  23.565  1.00  0.00     0.131 C 
BRANCH  14  15
ATOM     15  N   UNL A   1      28.686  28.079  23.037  1.00  0.00    -0.263 N 
ATOM     16  C   UNL A   1      29.772  28.607  22.394  1.00  0.00     0.250 C 
ATOM     17  C   UNL A   1      27.696  29.021  23.157  1.00  0.00     0.326 C 
ATOM     18  O   UNL A   1      30.783  28.005  22.062  1.00  0.00    -0.272 OA
ATOM     19  C   UNL A   1      29.554  30.101  22.224  1.00  0.00     0.221 C 
ATOM     20  N   UNL A   1      28.214  30.236  22.742  1.00  0.00    -0.318 N 
ATOM     21  O   UNL A   1      26.586  28.852  23.621  1.00  0.00    -0.248 OA
ATOM     22  C   UNL A   1      27.598  31.519  22.975  1.00  0.00     0.149 C 
ENDBRANCH  14  15
ENDBRANCH  13  14
ENDBRANCH  12  13
ENDBRANCH   9  12
ENDBRANCH   6   8
ENDBRANCH   5   6
ENDBRANCH   1   5
BRANCH   3  23
ATOM     23  C   UNL A   1      31.481  30.425  26.227  1.00  0.00     0.117 C 
BRANCH  23  24
ATOM     24  C   UNL A   1      31.453  31.936  26.476  1.00  0.00     0.042 C 
BRANCH  24  25
ATOM     25  C   UNL A   1      32.677  32.500  27.181  1.00  0.00     0.118 C 
BRANCH  25  26
ATOM     26  N   UNL A   1      32.518  33.900  27.514  1.00  0.00    -0.352 N 
ATOM     27  C   UNL A   1      33.118  34.611  28.525  1.00  0.00     0.251 C 
ATOM     28  H   UNL A   1      31.900  34.409  26.941  1.00  0.00     0.163 HD
ATOM     29  O   UNL A   1      32.703  35.730  28.810  1.00  0.00    -0.269 OA
BRANCH  27  30
ATOM     30  C   UNL A   1      34.253  34.031  29.286  1.00  0.00     0.039 A 
ATOM     31  C   UNL A   1      35.555  34.331  28.878  1.00  0.00     0.014 A 
ATOM     32  C   UNL A   1      34.047  33.160  30.362  1.00  0.00     0.014 A 
ATOM     33  C   UNL A   1      36.646  33.780  29.557  1.00  0.00     0.010 A 
ATOM     34  C   UNL A   1      35.134  32.671  31.086  1.00  0.00     0.010 A 
ATOM     35  C   UNL A   1      36.446  32.955  30.675  1.00  0.00    -0.014 A 
BRANCH  35  36
ATOM     36  C   UNL A   1      37.595  32.340  31.391  1.00  0.00     0.031 A 
ATOM     37  C   UNL A   1      38.348  31.197  30.763  1.00  0.00     0.074 A 
ATOM     38  C   UNL A   1      37.939  32.778  32.617  1.00  0.00     0.049 A 
ATOM     39  N   UNL A   1      39.344  30.495  31.244  1.00  0.00    -0.248 NA
ATOM     40  C   UNL A   1      37.904  30.766  29.428  1.00  0.00     0.031 C 
ATOM     41  C   UNL A   1      37.263  33.845  33.354  1.00  0.00     0.029 A 
ATOM     42  N   UNL A   1      38.939  32.368  33.465  1.00  0.00    -0.354 N 
ATOM     43  C   UNL A   1      39.628  29.533  30.283  1.00  0.00     0.074 A 
ATOM     44  C   UNL A   1      38.670  29.708  29.214  1.00  0.00     0.031 C 
ATOM     45  C   UNL A   1      37.878  34.021  34.535  1.00  0.00     0.029 A 
ATOM     46  C   UNL A   1      38.971  33.059  34.652  1.00  0.00     0.049 A 
ATOM     47  H   UNL A   1      39.573  31.650  33.242  1.00  0.00     0.167 HD
ATOM     48  C   UNL A   1      40.612  28.603  30.281  1.00  0.00     0.037 A 
ATOM     49  C   UNL A   1      39.787  32.927  35.716  1.00  0.00     0.037 A 
ATOM     50  C   UNL A   1      41.591  28.455  31.326  1.00  0.00     0.049 A 
ATOM     51  C   UNL A   1      40.885  31.898  35.681  1.00  0.00     0.074 A 
ATOM     52  C   UNL A   1      42.672  27.593  31.381  1.00  0.00     0.029 A 
ATOM     53  N   UNL A   1      41.606  29.192  32.501  1.00  0.00    -0.354 N 
ATOM     54  N   UNL A   1      41.188  31.043  34.735  1.00  0.00    -0.248 NA
ATOM     55  C   UNL A   1      41.760  31.823  36.859  1.00  0.00     0.031 C 
ATOM     56  C   UNL A   1      43.319  27.779  32.607  1.00  0.00     0.029 A 
ATOM     57  C   UNL A   1      42.667  28.791  33.296  1.00  0.00     0.049 A 
ATOM     58  H   UNL A   1      40.960  29.896  32.734  1.00  0.00     0.167 HD
ATOM     59  C   UNL A   1      42.300  30.348  35.190  1.00  0.00     0.074 A 
ATOM     60  C   UNL A   1      42.628  30.891  36.492  1.00  0.00     0.031 C 
ATOM     61  C   UNL A   1      42.986  29.348  34.585  1.00  0.00     0.037 A 
BRANCH  48  62
ATOM     62  C   UNL A   1      40.686  27.671  29.106  1.00  0.00     0.064 A 
ATOM     63  C   UNL A   1      39.856  26.544  29.008  1.00  0.00     0.173 A 
ATOM     64  C   UNL A   1      41.570  27.927  28.048  1.00  0.00     0.173 A 
ATOM     65  F   UNL A   1      39.000  26.247  29.997  1.00  0.00    -0.203 F 
ATOM     66  C   UNL A   1      39.928  25.694  27.908  1.00  0.00     0.198 A 
ATOM     67  C   UNL A   1      41.620  27.091  26.935  1.00  0.00     0.198 A 
ATOM     68  F   UNL A   1      42.382  28.995  28.088  1.00  0.00    -0.203 F 
ATOM     69  F   UNL A   1      39.158  24.597  27.858  1.00  0.00    -0.200 F 
ATOM     70  C   UNL A   1      40.805  25.972  26.870  1.00  0.00     0.200 A 
ATOM     71  F   UNL A   1      42.458  27.369  25.927  1.00  0.00    -0.200 F 
ATOM     72  F   UNL A   1      40.868  25.156  25.808  1.00  0.00    -0.200 F 
ENDBRANCH  48  62
BRANCH  49  73
ATOM     73  C   UNL A   1      39.612  33.812  36.897  1.00  0.00     0.064 A 
ATOM     74  C   UNL A   1      38.836  33.407  37.992  1.00  0.00     0.173 A 
ATOM     75  C   UNL A   1      40.211  35.079  36.954  1.00  0.00     0.173 A 
ATOM     76  F   UNL A   1      38.226  32.214  37.975  1.00  0.00    -0.203 F 
ATOM     77  C   UNL A   1      38.650  34.244  39.091  1.00  0.00     0.198 A 
ATOM     78  C   UNL A   1      40.046  35.903  38.066  1.00  0.00     0.198 A 
ATOM     79  F   UNL A   1      40.966  35.511  35.933  1.00  0.00    -0.203 F 
ATOM     80  F   UNL A   1      37.868  33.849  40.105  1.00  0.00    -0.200 F 
ATOM     81  C   UNL A   1      39.260  35.488  39.129  1.00  0.00     0.200 A 
ATOM     82  F   UNL A   1      40.649  37.099  38.105  1.00  0.00    -0.200 F 
ATOM     83  F   UNL A   1      39.085  36.290  40.188  1.00  0.00    -0.200 F 
ENDBRANCH  49  73
BRANCH  61  84
ATOM     84  C   UNL A   1      44.180  28.797  35.308  1.00  0.00     0.064 A 
ATOM     85  C   UNL A   1      44.073  27.705  36.180  1.00  0.00     0.173 A 
ATOM     86  C   UNL A   1      45.455  29.345  35.092  1.00  0.00     0.173 A 
ATOM     87  F   UNL A   1      42.873  27.157  36.430  1.00  0.00    -0.203 F 
ATOM     88  C   UNL A   1      45.194  27.194  36.828  1.00  0.00     0.198 A 
ATOM     89  C   UNL A   1      46.577  28.814  35.719  1.00  0.00     0.198 A 
ATOM     90  F   UNL A   1      45.611  30.386  34.261  1.00  0.00    -0.203 F 
ATOM     91  F   UNL A   1      45.061  26.178  37.691  1.00  0.00    -0.200 F 
ATOM     92  C   UNL A   1      46.446  27.743  36.592  1.00  0.00     0.200 A 
ATOM     93  F   UNL A   1      47.788  29.337  35.480  1.00  0.00    -0.200 F 
ATOM     94  F   UNL A   1      47.524  27.246  37.211  1.00  0.00    -0.200 F 
ENDBRANCH  61  84
ENDBRANCH  35  36
ENDBRANCH  27  30
ENDBRANCH  25  26
ENDBRANCH  24  25
ENDBRANCH  23  24
ENDBRANCH   3  23
TORSDOF 16
ENDMDL
MODEL 2
REMARK VINA RESULT:     -11.2      1.902      8.147
REMARK SMILES C[C@@H](CC(=O)NCCCNC(=O)c1ccc(-c2c3nc(c(-c4c(F)c(F)c(F)c(F)c4F)c4ccc([nH]4)c(-c4c(F)c(F)c(F)c(F)c4F)c4nc(c(-c5c(F)c(F)c(F)c(F)c5F)c5ccc2[nH]5)C=C4)C=C3)cc1)NC(=O)CCCN1C(=O)CN(C)C1=O
REMARK SMILES IDX 4 1 5 2 6 3 3 5 2 6 1 7 76 8 77 9 78 11 79 12 80 13 81 14
REMARK SMILES IDX 82 15 83 16 88 17 84 18 85 19 86 20 89 21 87 22 7 23 8 24
REMARK SMILES IDX 9 25 10 26 11 27 12 29 13 30 14 31 75 32 15 33 74 34 16 35
REMARK SMILES IDX 17 36 18 37 68 38 19 39 73 40 67 41 69 42 20 43 72 44 66 45
REMARK SMILES IDX 65 46 21 48 53 49 33 50 52 51 34 52 37 53 51 54 70 55 35 56
REMARK SMILES IDX 36 57 50 59 71 60 38 61 22 62 23 63 31 64 24 65 25 66 29 67
REMARK SMILES IDX 32 68 26 69 27 70 30 71 28 72 54 73 55 74 63 75 56 76 57 77
REMARK SMILES IDX 61 78 64 79 58 80 59 81 62 82 60 83 39 84 40 85 48 86 41 87
REMARK SMILES IDX 42 88 46 89 49 90 43 91 44 92 47 93 45 94
REMARK H PARENT 6 4 76 10 10 28 69 47 37 58
REMARK Flexibility Score: inf
ROOT
ATOM      1  C   UNL A   1      31.725  28.282  27.009  1.00  0.00     0.222 C 
ATOM      2  O   UNL A   1      31.638  27.679  28.079  1.00  0.00    -0.275 OA
ATOM      3  N   UNL A   1      31.530  29.631  27.012  1.00  0.00    -0.356 N 
ATOM      4  H   UNL A   1      31.406  30.015  27.909  1.00  0.00     0.163 HD
ENDROOT
BRANCH   1   5
ATOM      5  C   UNL A   1      32.063  27.550  25.736  1.00  0.00     0.124 C 
BRANCH   5   6
ATOM      6  C   UNL A   1      31.210  26.321  25.424  1.00  0.00     0.088 C 
ATOM      7  C   UNL A   1      29.942  26.587  24.633  1.00  0.00     0.031 C 
BRANCH   6   8
ATOM      8  N   UNL A   1      30.861  25.486  26.555  1.00  0.00    -0.353 N 
ATOM      9  C   UNL A   1      30.998  24.121  26.582  1.00  0.00     0.220 C 
ATOM     10  H   UNL A   1      30.502  25.927  27.359  1.00  0.00     0.163 HD
ATOM     11  O   UNL A   1      30.275  23.459  27.324  1.00  0.00    -0.275 OA
BRANCH   9  12
ATOM     12  C   UNL A   1      32.096  23.464  25.747  1.00  0.00     0.102 C 
BRANCH  12  13
ATOM     13  C   UNL A   1      31.693  22.827  24.405  1.00  0.00     0.032 C 
BRANCH  13  14
ATOM     14  C   UNL A   1      32.667  21.838  23.715  1.00  0.00     0.131 C 
BRANCH  14  15
ATOM     15  N   UNL A   1      34.079  22.139  23.857  1.00  0.00    -0.263 N 
ATOM     16  C   UNL A   1      34.754  23.103  23.160  1.00  0.00     0.250 C 
ATOM     17  C   UNL A   1      34.936  21.458  24.684  1.00  0.00     0.326 C 
ATOM     18  O   UNL A   1      34.264  23.928  22.403  1.00  0.00    -0.272 OA
ATOM     19  C   UNL A   1      36.242  22.931  23.416  1.00  0.00     0.221 C 
ATOM     20  N   UNL A   1      36.224  21.868  24.390  1.00  0.00    -0.318 N 
ATOM     21  O   UNL A   1      34.638  20.588  25.480  1.00  0.00    -0.248 OA
ATOM     22  C   UNL A   1      37.425  21.198  24.828  1.00  0.00     0.149 C 
ENDBRANCH  14  15
ENDBRANCH  13  14
ENDBRANCH  12  13
ENDBRANCH   9  12
ENDBRANCH   6   8
ENDBRANCH   5   6
ENDBRANCH   1   5
BRANCH   3  23
ATOM     23  C   UNL A   1      31.471  30.608  25.931  1.00  0.00     0.117 C 
BRANCH  23  24
ATOM     24  C   UNL A   1      31.406  32.053  26.435  1.00  0.00     0.042 C 
BRANCH  24  25
ATOM     25  C   UNL A   1      32.686  32.575  27.070  1.00  0.00     0.118 C 
BRANCH  25  26
ATOM     26  N   UNL A   1      32.545  33.937  27.543  1.00  0.00    -0.352 N 
ATOM     27  C   UNL A   1      33.179  34.545  28.599  1.00  0.00     0.251 C 
ATOM     28  H   UNL A   1      31.910  34.500  27.042  1.00  0.00     0.163 HD
ATOM     29  O   UNL A   1      32.779  35.631  29.004  1.00  0.00    -0.269 OA
BRANCH  27  30
ATOM     30  C   UNL A   1      34.335  33.892  29.262  1.00  0.00     0.039 A 
ATOM     31  C   UNL A   1      35.620  34.371  28.995  1.00  0.00     0.014 A 
ATOM     32  C   UNL A   1      34.170  32.785  30.103  1.00  0.00     0.014 A 
ATOM     33  C   UNL A   1      36.731  33.762  29.584  1.00  0.00     0.010 A 
ATOM     34  C   UNL A   1      35.272  32.225  30.750  1.00  0.00     0.010 A 
ATOM     35  C   UNL A   1      36.567  32.691  30.477  1.00  0.00    -0.014 A 
BRANCH  35  36
ATOM     36  C   UNL A   1      37.741  32.015  31.089  1.00  0.00     0.031 A 
ATOM     37  C   UNL A   1      38.195  32.401  32.472  1.00  0.00     0.074 A 
ATOM     38  C   UNL A   1      38.423  31.085  30.395  1.00  0.00     0.049 A 
ATOM     39  N   UNL A   1      39.220  31.967  33.162  1.00  0.00    -0.248 NA
ATOM     40  C   UNL A   1      37.406  33.434  33.163  1.00  0.00     0.031 C 
ATOM     41  C   UNL A   1      38.115  30.654  29.031  1.00  0.00     0.029 A 
ATOM     42  N   UNL A   1      39.527  30.342  30.738  1.00  0.00    -0.354 N 
ATOM     43  C   UNL A   1      39.210  32.686  34.350  1.00  0.00     0.074 A 
ATOM     44  C   UNL A   1      38.108  33.618  34.271  1.00  0.00     0.031 C 
ATOM     45  C   UNL A   1      38.995  29.710  28.660  1.00  0.00     0.029 A 
ATOM     46  C   UNL A   1      39.948  29.491  29.746  1.00  0.00     0.049 A 
ATOM     47  H   UNL A   1      39.972  30.413  31.612  1.00  0.00     0.167 HD
ATOM     48  C   UNL A   1      40.031  32.564  35.420  1.00  0.00     0.037 A 
ATOM     49  C   UNL A   1      40.987  28.634  29.714  1.00  0.00     0.037 A 
ATOM     50  C   UNL A   1      41.103  31.608  35.516  1.00  0.00     0.049 A 
ATOM     51  C   UNL A   1      41.872  28.504  30.924  1.00  0.00     0.074 A 
ATOM     52  C   UNL A   1      41.942  31.357  36.587  1.00  0.00     0.029 A 
ATOM     53  N   UNL A   1      41.480  30.744  34.500  1.00  0.00    -0.354 N 
ATOM     54  N   UNL A   1      41.808  29.139  32.069  1.00  0.00    -0.248 NA
ATOM     55  C   UNL A   1      42.972  27.532  30.839  1.00  0.00     0.031 C 
ATOM     56  C   UNL A   1      42.855  30.368  36.206  1.00  0.00     0.029 A 
ATOM     57  C   UNL A   1      42.554  29.971  34.912  1.00  0.00     0.049 A 
ATOM     58  H   UNL A   1      41.050  30.687  33.617  1.00  0.00     0.167 HD
ATOM     59  C   UNL A   1      42.837  28.627  32.848  1.00  0.00     0.074 A 
ATOM     60  C   UNL A   1      43.502  27.617  32.051  1.00  0.00     0.031 C 
ATOM     61  C   UNL A   1      43.199  28.964  34.110  1.00  0.00     0.037 A 
BRANCH  48  62
ATOM     62  C   UNL A   1      39.800  33.486  36.583  1.00  0.00     0.064 A 
ATOM     63  C   UNL A   1      38.931  33.146  37.631  1.00  0.00     0.173 A 
ATOM     64  C   UNL A   1      40.483  34.708  36.669  1.00  0.00     0.173 A 
ATOM     65  F   UNL A   1      38.245  31.994  37.592  1.00  0.00    -0.203 F 
ATOM     66  C   UNL A   1      38.734  34.006  38.707  1.00  0.00     0.198 A 
ATOM     67  C   UNL A   1      40.306  35.554  37.762  1.00  0.00     0.198 A 
ATOM     68  F   UNL A   1      41.331  35.079  35.698  1.00  0.00    -0.203 F 
ATOM     69  F   UNL A   1      37.864  33.681  39.673  1.00  0.00    -0.200 F 
ATOM     70  C   UNL A   1      39.427  35.205  38.775  1.00  0.00     0.200 A 
ATOM     71  F   UNL A   1      40.987  36.706  37.832  1.00  0.00    -0.200 F 
ATOM     72  F   UNL A   1      39.242  36.029  39.816  1.00  0.00    -0.200 F 
ENDBRANCH  48  62
BRANCH  49  73
ATOM     73  C   UNL A   1      41.231  27.810  28.502  1.00  0.00     0.064 A 
ATOM     74  C   UNL A   1      42.117  28.241  27.505  1.00  0.00     0.173 A 
ATOM     75  C   UNL A   1      40.582  26.581  28.312  1.00  0.00     0.173 A 
ATOM     76  F   UNL A   1      42.744  29.419  27.631  1.00  0.00    -0.203 F 
ATOM     77  C   UNL A   1      42.331  27.484  26.354  1.00  0.00     0.198 A 
ATOM     78  C   UNL A   1      40.818  25.812  27.174  1.00  0.00     0.198 A 
ATOM     79  F   UNL A   1      39.728  26.123  29.239  1.00  0.00    -0.203 F 
ATOM     80  F   UNL A   1      43.150  27.940  25.398  1.00  0.00    -0.200 F 
ATOM     81  C   UNL A   1      41.685  26.267  26.194  1.00  0.00     0.200 A 
ATOM     82  F   UNL A   1      40.203  24.630  27.029  1.00  0.00    -0.200 F 
ATOM     83  F   UNL A   1      41.895  25.537  25.090  1.00  0.00    -0.200 F 
ENDBRANCH  49  73
BRANCH  61  84
ATOM     84  C   UNL A   1      44.346  28.214  34.721  1.00  0.00     0.064 A 
ATOM     85  C   UNL A   1      45.662  28.687  34.636  1.00  0.00     0.173 A 
ATOM     86  C   UNL A   1      44.117  27.027  35.435  1.00  0.00     0.173 A 
ATOM     87  F   UNL A   1      45.933  29.808  33.949  1.00  0.00    -0.203 F 
ATOM     88  C   UNL A   1      46.713  27.988  35.225  1.00  0.00     0.198 A 
ATOM     89  C   UNL A   1      45.166  26.347  36.047  1.00  0.00     0.198 A 
ATOM     90  F   UNL A   1      42.874  26.537  35.552  1.00  0.00    -0.203 F 
ATOM     91  F   UNL A   1      47.969  28.436  35.092  1.00  0.00    -0.200 F 
ATOM     92  C   UNL A   1      46.464  26.824  35.935  1.00  0.00     0.200 A 
ATOM     93  F   UNL A   1      44.922  25.229  36.744  1.00  0.00    -0.200 F 
ATOM     94  F   UNL A   1      47.475  26.157  36.506  1.00  0.00    -0.200 F 
ENDBRANCH  61  84
ENDBRANCH  35  36
ENDBRANCH  27  30
ENDBRANCH  25  26
ENDBRANCH  24  25
ENDBRANCH  23  24
ENDBRANCH   3  23
TORSDOF 16
ENDMDL
MODEL 3
REMARK VINA RESULT:     -11.2      1.784      3.795
REMARK SMILES C[C@@H](CC(=O)NCCCNC(=O)c1ccc(-c2c3nc(c(-c4c(F)c(F)c(F)c(F)c4F)c4ccc([nH]4)c(-c4c(F)c(F)c(F)c(F)c4F)c4nc(c(-c5c(F)c(F)c(F)c(F)c5F)c5ccc2[nH]5)C=C4)C=C3)cc1)NC(=O)CCCN1C(=O)CN(C)C1=O
REMARK SMILES IDX 4 1 5 2 6 3 3 5 2 6 1 7 76 8 77 9 78 11 79 12 80 13 81 14
REMARK SMILES IDX 82 15 83 16 88 17 84 18 85 19 86 20 89 21 87 22 7 23 8 24
REMARK SMILES IDX 9 25 10 26 11 27 12 29 13 30 14 31 75 32 15 33 74 34 16 35
REMARK SMILES IDX 17 36 18 37 68 38 19 39 73 40 67 41 69 42 20 43 72 44 66 45
REMARK SMILES IDX 65 46 21 48 53 49 33 50 52 51 34 52 37 53 51 54 70 55 35 56
REMARK SMILES IDX 36 57 50 59 71 60 38 61 22 62 23 63 31 64 24 65 25 66 29 67
REMARK SMILES IDX 32 68 26 69 27 70 30 71 28 72 54 73 55 74 63 75 56 76 57 77
REMARK SMILES IDX 61 78 64 79 58 80 59 81 62 82 60 83 39 84 40 85 48 86 41 87
REMARK SMILES IDX 42 88 46 89 49 90 43 91 44 92 47 93 45 94
REMARK H PARENT 6 4 76 10 10 28 69 47 37 58
REMARK Flexibility Score: inf
ROOT
ATOM      1  C   UNL A   1      31.119  29.242  23.813  1.00  0.00     0.222 C 
ATOM      2  O   UNL A   1      30.572  29.353  22.715  1.00  0.00    -0.275 OA
ATOM      3  N   UNL A   1      30.982  30.261  24.707  1.00  0.00    -0.356 N 
ATOM      4  H   UNL A   1      30.379  30.979  24.406  1.00  0.00     0.163 HD
ENDROOT
BRANCH   1   5
ATOM      5  C   UNL A   1      31.897  28.000  24.165  1.00  0.00     0.124 C 
BRANCH   5   6
ATOM      6  C   UNL A   1      33.074  27.666  23.248  1.00  0.00     0.088 C 
ATOM      7  C   UNL A   1      34.096  28.772  23.063  1.00  0.00     0.031 C 
BRANCH   6   8
ATOM      8  N   UNL A   1      32.731  27.152  21.937  1.00  0.00    -0.353 N 
ATOM      9  C   UNL A   1      32.906  25.849  21.547  1.00  0.00     0.220 C 
ATOM     10  H   UNL A   1      32.346  27.781  21.284  1.00  0.00     0.163 HD
ATOM     11  O   UNL A   1      33.054  25.594  20.352  1.00  0.00    -0.275 OA
BRANCH   9  12
ATOM     12  C   UNL A   1      32.835  24.739  22.594  1.00  0.00     0.102 C 
BRANCH  12  13
ATOM     13  C   UNL A   1      34.163  24.185  23.143  1.00  0.00     0.032 C 
BRANCH  13  14
ATOM     14  C   UNL A   1      34.247  23.760  24.631  1.00  0.00     0.131 C 
BRANCH  14  15
ATOM     15  N   UNL A   1      34.598  22.374  24.873  1.00  0.00    -0.263 N 
ATOM     16  C   UNL A   1      35.847  21.922  25.200  1.00  0.00     0.250 C 
ATOM     17  C   UNL A   1      33.723  21.323  24.759  1.00  0.00     0.326 C 
ATOM     18  O   UNL A   1      36.826  22.610  25.450  1.00  0.00    -0.272 OA
ATOM     19  C   UNL A   1      35.847  20.404  25.124  1.00  0.00     0.221 C 
ATOM     20  N   UNL A   1      34.456  20.151  24.840  1.00  0.00    -0.318 N 
ATOM     21  O   UNL A   1      32.529  21.393  24.543  1.00  0.00    -0.248 OA
ATOM     22  C   UNL A   1      33.962  18.842  24.485  1.00  0.00     0.149 C 
ENDBRANCH  14  15
ENDBRANCH  13  14
ENDBRANCH  12  13
ENDBRANCH   9  12
ENDBRANCH   6   8
ENDBRANCH   5   6
ENDBRANCH   1   5
BRANCH   3  23
ATOM     23  C   UNL A   1      31.563  30.485  26.026  1.00  0.00     0.117 C 
BRANCH  23  24
ATOM     24  C   UNL A   1      31.425  31.933  26.502  1.00  0.00     0.042 C 
BRANCH  24  25
ATOM     25  C   UNL A   1      32.656  32.513  27.181  1.00  0.00     0.118 C 
BRANCH  25  26
ATOM     26  N   UNL A   1      32.487  33.911  27.517  1.00  0.00    -0.352 N 
ATOM     27  C   UNL A   1      33.085  34.626  28.528  1.00  0.00     0.251 C 
ATOM     28  H   UNL A   1      31.861  34.415  26.949  1.00  0.00     0.163 HD
ATOM     29  O   UNL A   1      32.662  35.740  28.817  1.00  0.00    -0.269 OA
BRANCH  27  30
ATOM     30  C   UNL A   1      34.229  34.054  29.281  1.00  0.00     0.039 A 
ATOM     31  C   UNL A   1      35.527  34.342  28.849  1.00  0.00     0.014 A 
ATOM     32  C   UNL A   1      34.036  33.202  30.374  1.00  0.00     0.014 A 
ATOM     33  C   UNL A   1      36.625  33.798  29.522  1.00  0.00     0.010 A 
ATOM     34  C   UNL A   1      35.132  32.721  31.091  1.00  0.00     0.010 A 
ATOM     35  C   UNL A   1      36.438  32.993  30.657  1.00  0.00    -0.014 A 
BRANCH  35  36
ATOM     36  C   UNL A   1      37.595  32.386  31.366  1.00  0.00     0.031 A 
ATOM     37  C   UNL A   1      38.361  31.257  30.729  1.00  0.00     0.074 A 
ATOM     38  C   UNL A   1      37.936  32.818  32.595  1.00  0.00     0.049 A 
ATOM     39  N   UNL A   1      39.366  30.563  31.202  1.00  0.00    -0.248 NA
ATOM     40  C   UNL A   1      37.920  30.832  29.390  1.00  0.00     0.031 C 
ATOM     41  C   UNL A   1      37.248  33.871  33.342  1.00  0.00     0.029 A 
ATOM     42  N   UNL A   1      38.942  32.414  33.439  1.00  0.00    -0.354 N 
ATOM     43  C   UNL A   1      39.659  29.612  30.234  1.00  0.00     0.074 A 
ATOM     44  C   UNL A   1      38.699  29.784  29.167  1.00  0.00     0.031 C 
ATOM     45  C   UNL A   1      37.863  34.045  34.523  1.00  0.00     0.029 A 
ATOM     46  C   UNL A   1      38.967  33.094  34.632  1.00  0.00     0.049 A 
ATOM     47  H   UNL A   1      39.584  31.704  33.210  1.00  0.00     0.167 HD
ATOM     48  C   UNL A   1      40.655  28.694  30.222  1.00  0.00     0.037 A 
ATOM     49  C   UNL A   1      39.786  32.964  35.693  1.00  0.00     0.037 A 
ATOM     50  C   UNL A   1      41.637  28.549  31.265  1.00  0.00     0.049 A 
ATOM     51  C   UNL A   1      40.896  31.948  35.648  1.00  0.00     0.074 A 
ATOM     52  C   UNL A   1      42.728  27.699  31.312  1.00  0.00     0.029 A 
ATOM     53  N   UNL A   1      41.645  29.277  32.446  1.00  0.00    -0.354 N 
ATOM     54  N   UNL A   1      41.207  31.105  34.695  1.00  0.00    -0.248 NA
ATOM     55  C   UNL A   1      41.773  31.874  36.825  1.00  0.00     0.031 C 
ATOM     56  C   UNL A   1      43.373  27.883  32.539  1.00  0.00     0.029 A 
ATOM     57  C   UNL A   1      42.711  28.881  33.237  1.00  0.00     0.049 A 
ATOM     58  H   UNL A   1      40.990  29.971  32.686  1.00  0.00     0.167 HD
ATOM     59  C   UNL A   1      42.328  30.419  35.144  1.00  0.00     0.074 A 
ATOM     60  C   UNL A   1      42.652  30.956  36.449  1.00  0.00     0.031 C 
ATOM     61  C   UNL A   1      43.025  29.432  34.530  1.00  0.00     0.037 A 
BRANCH  48  62
ATOM     62  C   UNL A   1      40.738  27.772  29.040  1.00  0.00     0.064 A 
ATOM     63  C   UNL A   1      39.907  26.647  28.924  1.00  0.00     0.173 A 
ATOM     64  C   UNL A   1      41.632  28.036  27.993  1.00  0.00     0.173 A 
ATOM     65  F   UNL A   1      39.042  26.343  29.903  1.00  0.00    -0.203 F 
ATOM     66  C   UNL A   1      39.988  25.807  27.817  1.00  0.00     0.198 A 
ATOM     67  C   UNL A   1      41.691  27.210  26.872  1.00  0.00     0.198 A 
ATOM     68  F   UNL A   1      42.445  29.103  28.050  1.00  0.00    -0.203 F 
ATOM     69  F   UNL A   1      39.217  24.712  27.750  1.00  0.00    -0.200 F 
ATOM     70  C   UNL A   1      40.874  26.093  26.790  1.00  0.00     0.200 A 
ATOM     71  F   UNL A   1      42.539  27.495  25.875  1.00  0.00    -0.200 F 
ATOM     72  F   UNL A   1      40.946  25.287  25.721  1.00  0.00    -0.200 F 
ENDBRANCH  48  62
BRANCH  49  73
ATOM     73  C   UNL A   1      39.603  33.837  36.881  1.00  0.00     0.064 A 
ATOM     74  C   UNL A   1      40.187  35.111  36.935  1.00  0.00     0.173 A 
ATOM     75  C   UNL A   1      38.847  33.419  37.986  1.00  0.00     0.173 A 
ATOM     76  F   UNL A   1      40.936  35.547  35.912  1.00  0.00    -0.203 F 
ATOM     77  C   UNL A   1      40.039  35.925  38.057  1.00  0.00     0.198 A 
ATOM     78  C   UNL A   1      38.677  34.244  39.096  1.00  0.00     0.198 A 
ATOM     79  F   UNL A   1      38.265  32.211  37.981  1.00  0.00    -0.203 F 
ATOM     80  F   UNL A   1      40.643  37.119  38.100  1.00  0.00    -0.200 F 
ATOM     81  C   UNL A   1      39.279  35.493  39.133  1.00  0.00     0.200 A 
ATOM     82  F   UNL A   1      37.930  33.829  40.128  1.00  0.00    -0.200 F 
ATOM     83  F   UNL A   1      39.132  36.277  40.209  1.00  0.00    -0.200 F 
ENDBRANCH  49  73
BRANCH  61  84
ATOM     84  C   UNL A   1      44.227  28.890  35.246  1.00  0.00     0.064 A 
ATOM     85  C   UNL A   1      45.497  29.463  35.092  1.00  0.00     0.173 A 
ATOM     86  C   UNL A   1      44.096  27.807  36.130  1.00  0.00     0.173 A 
ATOM     87  F   UNL A   1      45.675  30.490  34.246  1.00  0.00    -0.203 F 
ATOM     88  C   UNL A   1      46.597  28.959  35.779  1.00  0.00     0.198 A 
ATOM     89  C   UNL A   1      45.193  27.324  36.837  1.00  0.00     0.198 A 
ATOM     90  F   UNL A   1      42.901  27.228  36.318  1.00  0.00    -0.203 F 
ATOM     91  F   UNL A   1      47.810  29.494  35.582  1.00  0.00    -0.200 F 
ATOM     92  C   UNL A   1      46.444  27.895  36.656  1.00  0.00     0.200 A 
ATOM     93  F   UNL A   1      45.041  26.305  37.694  1.00  0.00    -0.200 F 
ATOM     94  F   UNL A   1      47.504  27.416  37.321  1.00  0.00    -0.200 F 
ENDBRANCH  61  84
ENDBRANCH  35  36
ENDBRANCH  27  30
ENDBRANCH  25  26
ENDBRANCH  24  25
ENDBRANCH  23  24
ENDBRANCH   3  23
TORSDOF 16
ENDMDL
