MODEL 1
REMARK VINA RESULT:     -11.6      0.000      0.000
REMARK SMILES CCc1nc(=O)n([C@@H](CC)C(C)C)c(CC)c1CC(=O)NCCCNC(=O)c1ccc(-c2c3nc(c(-c4c(F)c(F)c(F)c(F)c4F)c4ccc([nH]4)c(-c4c(F)c(F)c(F)c(F)c4F)c4nc(c(-c5c(F)c(F)c(F)c(F)c5F)c5ccc2[nH]5)C=C4)C=C3)cc1
REMARK SMILES IDX 22 1 21 2 19 3 20 4 18 6 17 7 3 8 4 9 5 10 14 11 6 12 7 13
REMARK SMILES IDX 2 14 1 15 15 16 16 17 8 18 9 19 10 20 11 21 12 22 13 23
REMARK SMILES IDX 23 24 24 25 25 26 26 27 27 29 28 30 29 31 90 32 30 33 89 34
REMARK SMILES IDX 31 35 32 36 33 37 83 38 34 39 88 40 82 41 84 42 35 43 87 44
REMARK SMILES IDX 81 45 80 46 36 48 68 49 48 50 67 51 49 52 52 53 66 54 85 55
REMARK SMILES IDX 50 56 51 57 65 59 86 60 53 61 37 62 38 63 46 64 39 65 40 66
REMARK SMILES IDX 44 67 47 68 41 69 42 70 45 71 43 72 69 73 70 74 78 75 71 76
REMARK SMILES IDX 72 77 76 78 79 79 73 80 74 81 77 82 75 83 54 84 55 85 63 86
REMARK SMILES IDX 56 87 57 88 61 89 64 90 58 91 59 92 62 93 60 94
REMARK H PARENT 21 5 25 28 84 47 52 58
REMARK Flexibility Score: inf
ROOT
ATOM      1  C   UNL A   1      36.709  20.643  25.257  1.00  0.00     0.117 C 
ENDROOT
BRANCH   1   2
ATOM      2  N   UNL A   1      36.882  21.996  25.741  1.00  0.00    -0.356 N 
ATOM      3  C   UNL A   1      36.146  23.111  25.477  1.00  0.00     0.224 C 
ATOM      4  O   UNL A   1      36.480  24.164  26.025  1.00  0.00    -0.275 OA
ATOM      5  H   UNL A   1      37.643  22.129  26.350  1.00  0.00     0.163 HD
BRANCH   3   6
ATOM      6  C   UNL A   1      34.927  23.046  24.561  1.00  0.00     0.139 C 
BRANCH   6   7
ATOM      7  C   UNL A   1      33.632  23.501  25.193  1.00  0.00     0.003 A 
ATOM      8  C   UNL A   1      32.858  22.528  26.027  1.00  0.00     0.051 A 
ATOM      9  N   UNL A   1      31.734  22.802  26.586  1.00  0.00    -0.198 NA
ATOM     10  C   UNL A   1      31.189  24.043  26.493  1.00  0.00     0.348 A 
ATOM     11  C   UNL A   1      33.103  24.750  25.129  1.00  0.00     0.028 A 
ATOM     12  O   UNL A   1      30.137  24.264  27.085  1.00  0.00    -0.246 OA
ATOM     13  N   UNL A   1      31.869  25.033  25.758  1.00  0.00    -0.293 N 
BRANCH   8  14
ATOM     14  C   UNL A   1      33.427  21.132  26.323  1.00  0.00     0.053 C 
ATOM     15  C   UNL A   1      32.946  20.048  25.367  1.00  0.00     0.011 C 
ENDBRANCH   8  14
BRANCH  11  16
ATOM     16  C   UNL A   1      33.873  25.884  24.449  1.00  0.00     0.051 C 
ATOM     17  C   UNL A   1      33.659  25.994  22.942  1.00  0.00     0.010 C 
ENDBRANCH  11  16
BRANCH  13  18
ATOM     18  C   UNL A   1      31.238  26.387  25.704  1.00  0.00     0.094 C 
BRANCH  18  19
ATOM     19  C   UNL A   1      32.125  27.484  26.357  1.00  0.00     0.022 C 
ATOM     20  C   UNL A   1      31.657  28.114  27.658  1.00  0.00     0.006 C 
ENDBRANCH  18  19
BRANCH  18  21
ATOM     21  C   UNL A   1      30.613  26.743  24.316  1.00  0.00     0.006 C 
ATOM     22  C   UNL A   1      29.156  26.262  24.230  1.00  0.00     0.009 C 
ATOM     23  C   UNL A   1      30.642  28.254  24.046  1.00  0.00     0.009 C 
ENDBRANCH  18  21
ENDBRANCH  13  18
ENDBRANCH   6   7
ENDBRANCH   3   6
ENDBRANCH   1   2
BRANCH   1  24
ATOM     24  C   UNL A   1      38.023  20.001  24.842  1.00  0.00     0.042 C 
BRANCH  24  25
ATOM     25  C   UNL A   1      39.161  20.287  25.812  1.00  0.00     0.118 C 
BRANCH  25  26
ATOM     26  N   UNL A   1      40.155  19.219  25.853  1.00  0.00    -0.352 N 
ATOM     27  C   UNL A   1      41.511  19.271  26.072  1.00  0.00     0.251 C 
ATOM     28  H   UNL A   1      39.797  18.316  25.698  1.00  0.00     0.163 HD
ATOM     29  O   UNL A   1      42.199  18.272  25.892  1.00  0.00    -0.269 OA
BRANCH  27  30
ATOM     30  C   UNL A   1      42.142  20.539  26.494  1.00  0.00     0.039 A 
ATOM     31  C   UNL A   1      42.197  20.884  27.844  1.00  0.00     0.014 A 
ATOM     32  C   UNL A   1      42.667  21.402  25.529  1.00  0.00     0.014 A 
ATOM     33  C   UNL A   1      42.569  22.171  28.206  1.00  0.00     0.010 A 
ATOM     34  C   UNL A   1      43.154  22.656  25.912  1.00  0.00     0.010 A 
ATOM     35  C   UNL A   1      43.054  23.074  27.247  1.00  0.00    -0.014 A 
BRANCH  35  36
ATOM     36  C   UNL A   1      43.436  24.445  27.676  1.00  0.00     0.031 A 
ATOM     37  C   UNL A   1      44.882  24.867  27.711  1.00  0.00     0.074 A 
ATOM     38  C   UNL A   1      42.465  25.335  27.967  1.00  0.00     0.049 A 
ATOM     39  N   UNL A   1      45.391  26.031  28.036  1.00  0.00    -0.248 NA
ATOM     40  C   UNL A   1      45.892  23.863  27.339  1.00  0.00     0.031 C 
ATOM     41  C   UNL A   1      41.029  25.044  27.959  1.00  0.00     0.029 A 
ATOM     42  N   UNL A   1      42.529  26.665  28.296  1.00  0.00    -0.354 N 
ATOM     43  C   UNL A   1      46.768  25.892  27.921  1.00  0.00     0.074 A 
ATOM     44  C   UNL A   1      47.025  24.523  27.531  1.00  0.00     0.031 C 
ATOM     45  C   UNL A   1      40.349  26.171  28.211  1.00  0.00     0.029 A 
ATOM     46  C   UNL A   1      41.297  27.247  28.477  1.00  0.00     0.049 A 
ATOM     47  H   UNL A   1      43.377  27.156  28.393  1.00  0.00     0.167 HD
ATOM     48  C   UNL A   1      47.727  26.828  28.109  1.00  0.00     0.037 A 
ATOM     49  C   UNL A   1      40.964  28.500  28.839  1.00  0.00     0.037 A 
ATOM     50  C   UNL A   1      47.465  28.199  28.459  1.00  0.00     0.049 A 
ATOM     51  C   UNL A   1      42.058  29.502  29.086  1.00  0.00     0.074 A 
ATOM     52  C   UNL A   1      48.374  29.228  28.638  1.00  0.00     0.029 A 
ATOM     53  N   UNL A   1      46.205  28.735  28.679  1.00  0.00    -0.354 N 
ATOM     54  N   UNL A   1      43.353  29.360  28.948  1.00  0.00    -0.248 NA
ATOM     55  C   UNL A   1      41.647  30.837  29.544  1.00  0.00     0.031 C 
ATOM     56  C   UNL A   1      47.670  30.371  29.021  1.00  0.00     0.029 A 
ATOM     57  C   UNL A   1      46.318  30.073  29.019  1.00  0.00     0.049 A 
ATOM     58  H   UNL A   1      45.358  28.239  28.605  1.00  0.00     0.167 HD
ATOM     59  C   UNL A   1      43.908  30.588  29.278  1.00  0.00     0.074 A 
ATOM     60  C   UNL A   1      42.809  31.472  29.604  1.00  0.00     0.031 C 
ATOM     61  C   UNL A   1      45.213  30.947  29.318  1.00  0.00     0.037 A 
BRANCH  48  62
ATOM     62  C   UNL A   1      49.165  26.431  27.932  1.00  0.00     0.064 A 
ATOM     63  C   UNL A   1      49.766  26.401  26.667  1.00  0.00     0.173 A 
ATOM     64  C   UNL A   1      49.983  26.223  29.055  1.00  0.00     0.173 A 
ATOM     65  F   UNL A   1      49.025  26.590  25.564  1.00  0.00    -0.203 F 
ATOM     66  C   UNL A   1      51.134  26.184  26.530  1.00  0.00     0.198 A 
ATOM     67  C   UNL A   1      51.354  26.032  28.915  1.00  0.00     0.198 A 
ATOM     68  F   UNL A   1      49.458  26.253  30.289  1.00  0.00    -0.203 F 
ATOM     69  F   UNL A   1      51.688  26.153  25.310  1.00  0.00    -0.200 F 
ATOM     70  C   UNL A   1      51.929  26.015  27.654  1.00  0.00     0.200 A 
ATOM     71  F   UNL A   1      52.124  25.892  30.004  1.00  0.00    -0.200 F 
ATOM     72  F   UNL A   1      53.253  25.845  27.523  1.00  0.00    -0.200 F 
ENDBRANCH  48  62
BRANCH  49  73
ATOM     73  C   UNL A   1      39.533  28.870  29.008  1.00  0.00     0.064 A 
ATOM     74  C   UNL A   1      38.899  28.768  30.254  1.00  0.00     0.173 A 
ATOM     75  C   UNL A   1      38.766  29.325  27.924  1.00  0.00     0.173 A 
ATOM     76  F   UNL A   1      39.583  28.320  31.318  1.00  0.00    -0.203 F 
ATOM     77  C   UNL A   1      37.551  29.085  30.404  1.00  0.00     0.198 A 
ATOM     78  C   UNL A   1      37.428  29.678  28.084  1.00  0.00     0.198 A 
ATOM     79  F   UNL A   1      39.322  29.446  26.710  1.00  0.00    -0.203 F 
ATOM     80  F   UNL A   1      36.958  28.926  31.596  1.00  0.00    -0.200 F 
ATOM     81  C   UNL A   1      36.819  29.546  29.321  1.00  0.00     0.200 A 
ATOM     82  F   UNL A   1      36.731  30.144  27.039  1.00  0.00    -0.200 F 
ATOM     83  F   UNL A   1      35.523  29.857  29.469  1.00  0.00    -0.200 F 
ENDBRANCH  49  73
BRANCH  61  84
ATOM     84  C   UNL A   1      45.540  32.363  29.693  1.00  0.00     0.064 A 
ATOM     85  C   UNL A   1      45.834  32.720  31.016  1.00  0.00     0.173 A 
ATOM     86  C   UNL A   1      45.659  33.349  28.701  1.00  0.00     0.173 A 
ATOM     87  F   UNL A   1      45.722  31.816  32.001  1.00  0.00    -0.203 F 
ATOM     88  C   UNL A   1      46.228  34.016  31.335  1.00  0.00     0.198 A 
ATOM     89  C   UNL A   1      46.085  34.636  29.019  1.00  0.00     0.198 A 
ATOM     90  F   UNL A   1      45.397  33.055  27.419  1.00  0.00    -0.203 F 
ATOM     91  F   UNL A   1      46.476  34.344  32.610  1.00  0.00    -0.200 F 
ATOM     92  C   UNL A   1      46.366  34.968  30.335  1.00  0.00     0.200 A 
ATOM     93  F   UNL A   1      46.237  35.548  28.050  1.00  0.00    -0.200 F 
ATOM     94  F   UNL A   1      46.772  36.208  30.642  1.00  0.00    -0.200 F 
ENDBRANCH  61  84
ENDBRANCH  35  36
ENDBRANCH  27  30
ENDBRANCH  25  26
ENDBRANCH  24  25
ENDBRANCH   1  24
TORSDOF 16
ENDMDL
MODEL 2
REMARK VINA RESULT:     -11.6      0.819      1.836
REMARK SMILES CCc1nc(=O)n([C@@H](CC)C(C)C)c(CC)c1CC(=O)NCCCNC(=O)c1ccc(-c2c3nc(c(-c4c(F)c(F)c(F)c(F)c4F)c4ccc([nH]4)c(-c4c(F)c(F)c(F)c(F)c4F)c4nc(c(-c5c(F)c(F)c(F)c(F)c5F)c5ccc2[nH]5)C=C4)C=C3)cc1
REMARK SMILES IDX 22 1 21 2 19 3 20 4 18 6 17 7 3 8 4 9 5 10 14 11 6 12 7 13
REMARK SMILES IDX 2 14 1 15 15 16 16 17 8 18 9 19 10 20 11 21 12 22 13 23
REMARK SMILES IDX 23 24 24 25 25 26 26 27 27 29 28 30 29 31 90 32 30 33 89 34
REMARK SMILES IDX 31 35 32 36 33 37 83 38 34 39 88 40 82 41 84 42 35 43 87 44
REMARK SMILES IDX 81 45 80 46 36 48 68 49 48 50 67 51 49 52 52 53 66 54 85 55
REMARK SMILES IDX 50 56 51 57 65 59 86 60 53 61 37 62 38 63 46 64 39 65 40 66
REMARK SMILES IDX 44 67 47 68 41 69 42 70 45 71 43 72 69 73 70 74 78 75 71 76
REMARK SMILES IDX 72 77 76 78 79 79 73 80 74 81 77 82 75 83 54 84 55 85 63 86
REMARK SMILES IDX 56 87 57 88 61 89 64 90 58 91 59 92 62 93 60 94
REMARK H PARENT 21 5 25 28 84 47 52 58
REMARK Flexibility Score: inf
ROOT
ATOM      1  C   UNL A   1      36.792  20.633  25.068  1.00  0.00     0.117 C 
ENDROOT
BRANCH   1   2
ATOM      2  N   UNL A   1      36.940  21.980  25.578  1.00  0.00    -0.356 N 
ATOM      3  C   UNL A   1      36.164  23.078  25.365  1.00  0.00     0.224 C 
ATOM      4  O   UNL A   1      36.484  24.128  25.927  1.00  0.00    -0.275 OA
ATOM      5  H   UNL A   1      37.718  22.123  26.165  1.00  0.00     0.163 HD
BRANCH   3   6
ATOM      6  C   UNL A   1      34.917  22.996  24.488  1.00  0.00     0.139 C 
BRANCH   6   7
ATOM      7  C   UNL A   1      33.636  23.433  25.162  1.00  0.00     0.003 A 
ATOM      8  C   UNL A   1      32.888  22.440  25.995  1.00  0.00     0.051 A 
ATOM      9  N   UNL A   1      31.776  22.698  26.586  1.00  0.00    -0.198 NA
ATOM     10  C   UNL A   1      31.225  23.938  26.533  1.00  0.00     0.348 A 
ATOM     11  C   UNL A   1      33.102  24.681  25.136  1.00  0.00     0.028 A 
ATOM     12  O   UNL A   1      30.187  24.143  27.155  1.00  0.00    -0.246 OA
ATOM     13  N   UNL A   1      31.883  24.946  25.801  1.00  0.00    -0.293 N 
BRANCH   8  14
ATOM     14  C   UNL A   1      33.468  21.041  26.247  1.00  0.00     0.053 C 
ATOM     15  C   UNL A   1      32.922  19.962  25.321  1.00  0.00     0.011 C 
ENDBRANCH   8  14
BRANCH  11  16
ATOM     16  C   UNL A   1      33.851  25.831  24.461  1.00  0.00     0.051 C 
ATOM     17  C   UNL A   1      33.676  25.912  22.947  1.00  0.00     0.010 C 
ENDBRANCH  11  16
BRANCH  13  18
ATOM     18  C   UNL A   1      31.245  26.298  25.791  1.00  0.00     0.094 C 
BRANCH  18  19
ATOM     19  C   UNL A   1      32.123  27.375  26.489  1.00  0.00     0.022 C 
ATOM     20  C   UNL A   1      31.508  28.190  27.616  1.00  0.00     0.006 C 
ENDBRANCH  18  19
BRANCH  18  21
ATOM     21  C   UNL A   1      30.629  26.701  24.411  1.00  0.00     0.006 C 
ATOM     22  C   UNL A   1      29.136  26.343  24.352  1.00  0.00     0.009 C 
ATOM     23  C   UNL A   1      30.780  28.203  24.134  1.00  0.00     0.009 C 
ENDBRANCH  18  21
ENDBRANCH  13  18
ENDBRANCH   6   7
ENDBRANCH   3   6
ENDBRANCH   1   2
BRANCH   1  24
ATOM     24  C   UNL A   1      38.129  19.971  24.777  1.00  0.00     0.042 C 
BRANCH  24  25
ATOM     25  C   UNL A   1      39.196  20.297  25.813  1.00  0.00     0.118 C 
BRANCH  25  26
ATOM     26  N   UNL A   1      40.201  19.247  25.944  1.00  0.00    -0.352 N 
ATOM     27  C   UNL A   1      41.558  19.331  26.144  1.00  0.00     0.251 C 
ATOM     28  H   UNL A   1      39.851  18.330  25.877  1.00  0.00     0.163 HD
ATOM     29  O   UNL A   1      42.254  18.326  26.052  1.00  0.00    -0.269 OA
BRANCH  27  30
ATOM     30  C   UNL A   1      42.181  20.638  26.441  1.00  0.00     0.039 A 
ATOM     31  C   UNL A   1      42.501  20.986  27.752  1.00  0.00     0.014 A 
ATOM     32  C   UNL A   1      42.428  21.535  25.399  1.00  0.00     0.014 A 
ATOM     33  C   UNL A   1      42.856  22.295  28.046  1.00  0.00     0.010 A 
ATOM     34  C   UNL A   1      42.903  22.819  25.687  1.00  0.00     0.010 A 
ATOM     35  C   UNL A   1      43.064  23.229  27.019  1.00  0.00    -0.014 A 
BRANCH  35  36
ATOM     36  C   UNL A   1      43.439  24.622  27.377  1.00  0.00     0.031 A 
ATOM     37  C   UNL A   1      44.828  25.141  27.108  1.00  0.00     0.074 A 
ATOM     38  C   UNL A   1      42.496  25.444  27.882  1.00  0.00     0.049 A 
ATOM     39  N   UNL A   1      45.316  26.337  27.334  1.00  0.00    -0.248 NA
ATOM     40  C   UNL A   1      45.797  24.207  26.514  1.00  0.00     0.031 C 
ATOM     41  C   UNL A   1      41.114  25.058  28.176  1.00  0.00     0.029 A 
ATOM     42  N   UNL A   1      42.541  26.775  28.209  1.00  0.00    -0.354 N 
ATOM     43  C   UNL A   1      46.643  26.290  26.926  1.00  0.00     0.074 A 
ATOM     44  C   UNL A   1      46.900  24.942  26.469  1.00  0.00     0.031 C 
ATOM     45  C   UNL A   1      40.431  26.136  28.585  1.00  0.00     0.029 A 
ATOM     46  C   UNL A   1      41.341  27.273  28.658  1.00  0.00     0.049 A 
ATOM     47  H   UNL A   1      43.356  27.323  28.130  1.00  0.00     0.167 HD
ATOM     48  C   UNL A   1      47.556  27.288  26.918  1.00  0.00     0.037 A 
ATOM     49  C   UNL A   1      41.012  28.501  29.102  1.00  0.00     0.037 A 
ATOM     50  C   UNL A   1      47.286  28.639  27.337  1.00  0.00     0.049 A 
ATOM     51  C   UNL A   1      42.065  29.574  29.124  1.00  0.00     0.074 A 
ATOM     52  C   UNL A   1      48.142  29.726  27.332  1.00  0.00     0.029 A 
ATOM     53  N   UNL A   1      46.070  29.089  27.829  1.00  0.00    -0.354 N 
ATOM     54  N   UNL A   1      43.307  29.520  28.710  1.00  0.00    -0.248 NA
ATOM     55  C   UNL A   1      41.675  30.878  29.679  1.00  0.00     0.031 C 
ATOM     56  C   UNL A   1      47.463  30.819  27.874  1.00  0.00     0.029 A 
ATOM     57  C   UNL A   1      46.164  30.431  28.156  1.00  0.00     0.049 A 
ATOM     58  H   UNL A   1      45.261  28.537  27.930  1.00  0.00     0.167 HD
ATOM     59  C   UNL A   1      43.837  30.783  28.932  1.00  0.00     0.074 A 
ATOM     60  C   UNL A   1      42.778  31.590  29.499  1.00  0.00     0.031 C 
ATOM     61  C   UNL A   1      45.095  31.228  28.697  1.00  0.00     0.037 A 
BRANCH  48  62
ATOM     62  C   UNL A   1      48.945  26.990  26.432  1.00  0.00     0.064 A 
ATOM     63  C   UNL A   1      49.911  26.425  27.276  1.00  0.00     0.173 A 
ATOM     64  C   UNL A   1      49.265  27.136  25.072  1.00  0.00     0.173 A 
ATOM     65  F   UNL A   1      49.655  26.270  28.584  1.00  0.00    -0.203 F 
ATOM     66  C   UNL A   1      51.143  26.011  26.777  1.00  0.00     0.198 A 
ATOM     67  C   UNL A   1      50.487  26.695  24.573  1.00  0.00     0.198 A 
ATOM     68  F   UNL A   1      48.371  27.661  24.220  1.00  0.00    -0.203 F 
ATOM     69  F   UNL A   1      52.054  25.478  27.603  1.00  0.00    -0.200 F 
ATOM     70  C   UNL A   1      51.424  26.131  25.425  1.00  0.00     0.200 A 
ATOM     71  F   UNL A   1      50.748  26.792  23.261  1.00  0.00    -0.200 F 
ATOM     72  F   UNL A   1      52.595  25.696  24.939  1.00  0.00    -0.200 F 
ENDBRANCH  48  62
BRANCH  49  73
ATOM     73  C   UNL A   1      39.629  28.773  29.578  1.00  0.00     0.064 A 
ATOM     74  C   UNL A   1      38.667  29.338  28.729  1.00  0.00     0.173 A 
ATOM     75  C   UNL A   1      39.242  28.482  30.896  1.00  0.00     0.173 A 
ATOM     76  F   UNL A   1      38.991  29.652  27.465  1.00  0.00    -0.203 F 
ATOM     77  C   UNL A   1      37.382  29.621  29.185  1.00  0.00     0.198 A 
ATOM     78  C   UNL A   1      37.946  28.730  31.339  1.00  0.00     0.198 A 
ATOM     79  F   UNL A   1      40.121  27.938  31.750  1.00  0.00    -0.203 F 
ATOM     80  F   UNL A   1      36.499  30.210  28.366  1.00  0.00    -0.200 F 
ATOM     81  C   UNL A   1      37.020  29.310  30.487  1.00  0.00     0.200 A 
ATOM     82  F   UNL A   1      37.595  28.408  32.591  1.00  0.00    -0.200 F 
ATOM     83  F   UNL A   1      35.780  29.577  30.922  1.00  0.00    -0.200 F 
ENDBRANCH  49  73
BRANCH  61  84
ATOM     84  C   UNL A   1      45.401  32.663  29.015  1.00  0.00     0.064 A 
ATOM     85  C   UNL A   1      45.960  33.037  30.244  1.00  0.00     0.173 A 
ATOM     86  C   UNL A   1      45.227  33.658  28.040  1.00  0.00     0.173 A 
ATOM     87  F   UNL A   1      46.134  32.125  31.213  1.00  0.00    -0.203 F 
ATOM     88  C   UNL A   1      46.326  34.357  30.490  1.00  0.00     0.198 A 
ATOM     89  C   UNL A   1      45.624  34.970  28.278  1.00  0.00     0.198 A 
ATOM     90  F   UNL A   1      44.703  33.349  26.844  1.00  0.00    -0.203 F 
ATOM     91  F   UNL A   1      46.832  34.698  31.683  1.00  0.00    -0.200 F 
ATOM     92  C   UNL A   1      46.171  35.318  29.503  1.00  0.00     0.200 A 
ATOM     93  F   UNL A   1      45.492  35.893  27.315  1.00  0.00    -0.200 F 
ATOM     94  F   UNL A   1      46.550  36.583  29.732  1.00  0.00    -0.200 F 
ENDBRANCH  61  84
ENDBRANCH  35  36
ENDBRANCH  27  30
ENDBRANCH  25  26
ENDBRANCH  24  25
ENDBRANCH   1  24
TORSDOF 16
ENDMDL
MODEL 3
REMARK VINA RESULT:     -11.5      0.938      7.277
REMARK SMILES CCc1nc(=O)n([C@@H](CC)C(C)C)c(CC)c1CC(=O)NCCCNC(=O)c1ccc(-c2c3nc(c(-c4c(F)c(F)c(F)c(F)c4F)c4ccc([nH]4)c(-c4c(F)c(F)c(F)c(F)c4F)c4nc(c(-c5c(F)c(F)c(F)c(F)c5F)c5ccc2[nH]5)C=C4)C=C3)cc1
REMARK SMILES IDX 22 1 21 2 19 3 20 4 18 6 17 7 3 8 4 9 5 10 14 11 6 12 7 13
REMARK SMILES IDX 2 14 1 15 15 16 16 17 8 18 9 19 10 20 11 21 12 22 13 23
REMARK SMILES IDX 23 24 24 25 25 26 26 27 27 29 28 30 29 31 90 32 30 33 89 34
REMARK SMILES IDX 31 35 32 36 33 37 83 38 34 39 88 40 82 41 84 42 35 43 87 44
REMARK SMILES IDX 81 45 80 46 36 48 68 49 48 50 67 51 49 52 52 53 66 54 85 55
REMARK SMILES IDX 50 56 51 57 65 59 86 60 53 61 37 62 38 63 46 64 39 65 40 66
REMARK SMILES IDX 44 67 47 68 41 69 42 70 45 71 43 72 69 73 70 74 78 75 71 76
REMARK SMILES IDX 72 77 76 78 79 79 73 80 74 81 77 82 75 83 54 84 55 85 63 86
REMARK SMILES IDX 56 87 57 88 61 89 64 90 58 91 59 92 62 93 60 94
REMARK H PARENT 21 5 25 28 84 47 52 58
REMARK Flexibility Score: inf
ROOT
ATOM      1  C   UNL A   1      36.854  20.604  25.091  1.00  0.00     0.117 C 
ENDROOT
BRANCH   1   2
ATOM      2  N   UNL A   1      36.998  21.953  25.596  1.00  0.00    -0.356 N 
ATOM      3  C   UNL A   1      36.219  23.048  25.378  1.00  0.00     0.224 C 
ATOM      4  O   UNL A   1      36.535  24.101  25.935  1.00  0.00    -0.275 OA
ATOM      5  H   UNL A   1      37.774  22.100  26.183  1.00  0.00     0.163 HD
BRANCH   3   6
ATOM      6  C   UNL A   1      34.973  22.960  24.499  1.00  0.00     0.139 C 
BRANCH   6   7
ATOM      7  C   UNL A   1      33.693  23.410  25.165  1.00  0.00     0.003 A 
ATOM      8  C   UNL A   1      32.960  22.445  26.042  1.00  0.00     0.051 A 
ATOM      9  N   UNL A   1      31.851  22.715  26.632  1.00  0.00    -0.198 NA
ATOM     10  C   UNL A   1      31.287  23.947  26.533  1.00  0.00     0.348 A 
ATOM     11  C   UNL A   1      33.146  24.651  25.093  1.00  0.00     0.028 A 
ATOM     12  O   UNL A   1      30.252  24.166  27.155  1.00  0.00    -0.246 OA
ATOM     13  N   UNL A   1      31.929  24.930  25.757  1.00  0.00    -0.293 N 
BRANCH   8  14
ATOM     14  C   UNL A   1      33.557  21.062  26.346  1.00  0.00     0.053 C 
ATOM     15  C   UNL A   1      33.056  19.952  25.431  1.00  0.00     0.011 C 
ENDBRANCH   8  14
BRANCH  11  16
ATOM     16  C   UNL A   1      33.878  25.781  24.368  1.00  0.00     0.051 C 
ATOM     17  C   UNL A   1      33.724  25.777  22.849  1.00  0.00     0.010 C 
ENDBRANCH  11  16
BRANCH  13  18
ATOM     18  C   UNL A   1      31.278  26.275  25.697  1.00  0.00     0.094 C 
BRANCH  18  19
ATOM     19  C   UNL A   1      32.142  27.385  26.361  1.00  0.00     0.022 C 
ATOM     20  C   UNL A   1      31.616  28.055  27.619  1.00  0.00     0.006 C 
ENDBRANCH  18  19
BRANCH  18  21
ATOM     21  C   UNL A   1      30.663  26.623  24.303  1.00  0.00     0.006 C 
ATOM     22  C   UNL A   1      29.158  26.314  24.274  1.00  0.00     0.009 C 
ATOM     23  C   UNL A   1      30.862  28.102  23.943  1.00  0.00     0.009 C 
ENDBRANCH  18  21
ENDBRANCH  13  18
ENDBRANCH   6   7
ENDBRANCH   3   6
ENDBRANCH   1   2
BRANCH   1  24
ATOM     24  C   UNL A   1      38.193  19.949  24.792  1.00  0.00     0.042 C 
BRANCH  24  25
ATOM     25  C   UNL A   1      39.263  20.278  25.823  1.00  0.00     0.118 C 
BRANCH  25  26
ATOM     26  N   UNL A   1      40.243  19.208  25.987  1.00  0.00    -0.352 N 
ATOM     27  C   UNL A   1      41.605  19.266  26.154  1.00  0.00     0.251 C 
ATOM     28  H   UNL A   1      39.867  18.299  25.975  1.00  0.00     0.163 HD
ATOM     29  O   UNL A   1      42.273  18.238  26.099  1.00  0.00    -0.269 OA
BRANCH  27  30
ATOM     30  C   UNL A   1      42.269  20.568  26.369  1.00  0.00     0.039 A 
ATOM     31  C   UNL A   1      42.416  21.080  27.657  1.00  0.00     0.014 A 
ATOM     32  C   UNL A   1      42.730  21.296  25.269  1.00  0.00     0.014 A 
ATOM     33  C   UNL A   1      42.816  22.398  27.828  1.00  0.00     0.010 A 
ATOM     34  C   UNL A   1      43.247  22.582  25.456  1.00  0.00     0.010 A 
ATOM     35  C   UNL A   1      43.239  23.167  26.731  1.00  0.00    -0.014 A 
BRANCH  35  36
ATOM     36  C   UNL A   1      43.655  24.576  26.957  1.00  0.00     0.031 A 
ATOM     37  C   UNL A   1      42.687  25.587  27.515  1.00  0.00     0.074 A 
ATOM     38  C   UNL A   1      44.936  24.926  26.721  1.00  0.00     0.049 A 
ATOM     39  N   UNL A   1      42.890  26.851  27.798  1.00  0.00    -0.248 NA
ATOM     40  C   UNL A   1      41.315  25.131  27.793  1.00  0.00     0.031 C 
ATOM     41  C   UNL A   1      45.967  24.031  26.189  1.00  0.00     0.029 A 
ATOM     42  N   UNL A   1      45.600  26.109  26.924  1.00  0.00    -0.354 N 
ATOM     43  C   UNL A   1      41.677  27.337  28.267  1.00  0.00     0.074 A 
ATOM     44  C   UNL A   1      40.729  26.248  28.203  1.00  0.00     0.031 C 
ATOM     45  C   UNL A   1      47.141  24.678  26.160  1.00  0.00     0.029 A 
ATOM     46  C   UNL A   1      46.934  26.054  26.596  1.00  0.00     0.049 A 
ATOM     47  H   UNL A   1      45.163  26.920  27.270  1.00  0.00     0.167 HD
ATOM     48  C   UNL A   1      41.389  28.577  28.726  1.00  0.00     0.037 A 
ATOM     49  C   UNL A   1      47.883  27.009  26.621  1.00  0.00     0.037 A 
ATOM     50  C   UNL A   1      42.346  29.649  28.825  1.00  0.00     0.049 A 
ATOM     51  C   UNL A   1      47.516  28.389  27.093  1.00  0.00     0.074 A 
ATOM     52  C   UNL A   1      42.150  30.931  29.310  1.00  0.00     0.029 A 
ATOM     53  N   UNL A   1      43.674  29.564  28.439  1.00  0.00    -0.354 N 
ATOM     54  N   UNL A   1      46.371  28.824  27.558  1.00  0.00    -0.248 NA
ATOM     55  C   UNL A   1      48.569  29.413  27.038  1.00  0.00     0.031 C 
ATOM     56  C   UNL A   1      43.345  31.639  29.164  1.00  0.00     0.029 A 
ATOM     57  C   UNL A   1      44.302  30.781  28.649  1.00  0.00     0.049 A 
ATOM     58  H   UNL A   1      44.106  28.760  28.070  1.00  0.00     0.167 HD
ATOM     59  C   UNL A   1      46.572  30.161  27.871  1.00  0.00     0.074 A 
ATOM     60  C   UNL A   1      47.953  30.462  27.564  1.00  0.00     0.031 C 
ATOM     61  C   UNL A   1      45.684  31.060  28.361  1.00  0.00     0.037 A 
BRANCH  48  62
ATOM     62  C   UNL A   1      39.987  28.870  29.178  1.00  0.00     0.064 A 
ATOM     63  C   UNL A   1      38.997  29.279  28.275  1.00  0.00     0.173 A 
ATOM     64  C   UNL A   1      39.600  28.597  30.500  1.00  0.00     0.173 A 
ATOM     65  F   UNL A   1      39.318  29.556  27.002  1.00  0.00    -0.203 F 
ATOM     66  C   UNL A   1      37.668  29.397  28.675  1.00  0.00     0.198 A 
ATOM     67  C   UNL A   1      38.267  28.692  30.889  1.00  0.00     0.198 A 
ATOM     68  F   UNL A   1      40.508  28.193  31.402  1.00  0.00    -0.203 F 
ATOM     69  F   UNL A   1      36.738  29.795  27.796  1.00  0.00    -0.200 F 
ATOM     70  C   UNL A   1      37.302  29.089  29.977  1.00  0.00     0.200 A 
ATOM     71  F   UNL A   1      37.911  28.371  32.142  1.00  0.00    -0.200 F 
ATOM     72  F   UNL A   1      36.017  29.166  30.350  1.00  0.00    -0.200 F 
ENDBRANCH  48  62
BRANCH  49  73
ATOM     73  C   UNL A   1      49.266  26.695  26.169  1.00  0.00     0.064 A 
ATOM     74  C   UNL A   1      50.219  26.178  27.056  1.00  0.00     0.173 A 
ATOM     75  C   UNL A   1      49.664  26.914  24.841  1.00  0.00     0.173 A 
ATOM     76  F   UNL A   1      49.894  25.967  28.341  1.00  0.00    -0.203 F 
ATOM     77  C   UNL A   1      51.522  25.913  26.639  1.00  0.00     0.198 A 
ATOM     78  C   UNL A   1      50.955  26.614  24.416  1.00  0.00     0.198 A 
ATOM     79  F   UNL A   1      48.791  27.404  23.948  1.00  0.00    -0.203 F 
ATOM     80  F   UNL A   1      52.427  25.470  27.522  1.00  0.00    -0.200 F 
ATOM     81  C   UNL A   1      51.887  26.125  25.318  1.00  0.00     0.200 A 
ATOM     82  F   UNL A   1      51.297  26.799  23.134  1.00  0.00    -0.200 F 
ATOM     83  F   UNL A   1      53.139  25.863  24.916  1.00  0.00    -0.200 F 
ENDBRANCH  49  73
BRANCH  61  84
ATOM     84  C   UNL A   1      46.175  32.452  28.632  1.00  0.00     0.064 A 
ATOM     85  C   UNL A   1      46.087  33.461  27.665  1.00  0.00     0.173 A 
ATOM     86  C   UNL A   1      46.644  32.801  29.909  1.00  0.00     0.173 A 
ATOM     87  F   UNL A   1      45.657  33.174  26.426  1.00  0.00    -0.203 F 
ATOM     88  C   UNL A   1      46.458  34.769  27.961  1.00  0.00     0.198 A 
ATOM     89  C   UNL A   1      46.983  34.117  30.211  1.00  0.00     0.198 A 
ATOM     90  F   UNL A   1      46.739  31.873  30.873  1.00  0.00    -0.203 F 
ATOM     91  F   UNL A   1      46.393  35.713  27.011  1.00  0.00    -0.200 F 
ATOM     92  C   UNL A   1      46.892  35.098  29.236  1.00  0.00     0.200 A 
ATOM     93  F   UNL A   1      47.383  34.437  31.450  1.00  0.00    -0.200 F 
ATOM     94  F   UNL A   1      47.223  36.364  29.527  1.00  0.00    -0.200 F 
ENDBRANCH  61  84
ENDBRANCH  35  36
ENDBRANCH  27  30
ENDBRANCH  25  26
ENDBRANCH  24  25
ENDBRANCH   1  24
TORSDOF 16
ENDMDL
