MODEL 1
REMARK VINA RESULT:     -11.4      0.000      0.000
REMARK SMILES CC[C@](O)(C(=O)NCCCNC(=O)c1ccc(-c2c3nc(c(-c4c(F)c(F)c(F)c(F)c4F)c4ccc([nH]4)c(-c4c(F)c(F)c(F)c(F)c4F)c4nc(c(-c5c(F)c(F)c(F)c(F)c5F)c5ccc2[nH]5)C=C4)C=C3)cc1)[C@@H](C)c1ccc(C)s1
REMARK SMILES IDX 9 1 8 2 7 3 5 4 6 5 3 7 2 8 1 9 77 10 78 11 79 12 80 13
REMARK SMILES IDX 84 14 81 15 82 16 83 17 4 18 10 20 11 21 12 22 13 24 14 25
REMARK SMILES IDX 15 26 76 27 16 28 75 29 17 30 18 31 19 32 69 33 20 34 74 35
REMARK SMILES IDX 68 36 70 37 21 38 73 39 67 40 66 41 22 43 54 44 34 45 53 46
REMARK SMILES IDX 35 47 38 48 52 49 71 50 36 51 37 52 51 54 72 55 39 56 23 57
REMARK SMILES IDX 24 58 32 59 25 60 26 61 30 62 33 63 27 64 28 65 31 66 29 67
REMARK SMILES IDX 55 68 56 69 64 70 57 71 58 72 62 73 65 74 59 75 60 76 63 77
REMARK SMILES IDX 61 78 40 79 41 80 49 81 42 82 43 83 47 84 50 85 44 86 45 87
REMARK SMILES IDX 48 88 46 89
REMARK H PARENT 7 6 4 19 11 23 70 42 38 53
REMARK Flexibility Score: inf
ROOT
ATOM      1  C   UNL A   1      37.671  19.943  24.736  1.00  0.00     0.042 C 
ENDROOT
BRANCH   1   2
ATOM      2  C   UNL A   1      36.304  20.540  25.034  1.00  0.00     0.117 C 
BRANCH   2   3
ATOM      3  N   UNL A   1      35.233  19.552  25.014  1.00  0.00    -0.354 N 
ATOM      4  C   UNL A   1      33.881  19.728  25.183  1.00  0.00     0.252 C 
ATOM      5  O   UNL A   1      33.158  18.743  25.009  1.00  0.00    -0.272 OA
ATOM      6  H   UNL A   1      35.520  18.624  24.855  1.00  0.00     0.163 HD
BRANCH   4   7
ATOM      7  C   UNL A   1      33.311  21.148  25.487  1.00  0.00     0.150 C 
BRANCH   7   8
ATOM      8  C   UNL A   1      34.062  21.640  26.765  1.00  0.00     0.043 C 
ATOM      9  C   UNL A   1      33.218  22.237  27.883  1.00  0.00     0.007 C 
ENDBRANCH   7   8
BRANCH   7  10
ATOM     10  C   UNL A   1      33.542  22.114  24.258  1.00  0.00     0.068 C 
ATOM     11  C   UNL A   1      32.588  21.875  23.074  1.00  0.00     0.017 C 
BRANCH  10  12
ATOM     12  C   UNL A   1      33.484  23.584  24.674  1.00  0.00     0.011 A 
ATOM     13  C   UNL A   1      34.539  24.447  24.905  1.00  0.00     0.016 A 
ATOM     14  S   UNL A   1      31.984  24.380  24.958  1.00  0.00    -0.145 S 
ATOM     15  C   UNL A   1      34.114  25.661  25.529  1.00  0.00     0.015 A 
ATOM     16  C   UNL A   1      32.750  25.694  25.728  1.00  0.00     0.002 A 
ATOM     17  C   UNL A   1      31.940  26.687  26.486  1.00  0.00     0.056 C 
ENDBRANCH  10  12
ENDBRANCH   7  10
BRANCH   7  18
ATOM     18  O   UNL A   1      31.905  20.978  25.735  1.00  0.00    -0.379 OA
ATOM     19  H   UNL A   1      31.417  21.060  24.901  1.00  0.00     0.212 HD
ENDBRANCH   7  18
ENDBRANCH   4   7
ENDBRANCH   2   3
ENDBRANCH   1   2
BRANCH   1  20
ATOM     20  C   UNL A   1      38.744  20.326  25.747  1.00  0.00     0.118 C 
BRANCH  20  21
ATOM     21  N   UNL A   1      39.793  19.319  25.871  1.00  0.00    -0.352 N 
ATOM     22  C   UNL A   1      41.141  19.452  26.077  1.00  0.00     0.251 C 
ATOM     23  H   UNL A   1      39.480  18.390  25.795  1.00  0.00     0.163 HD
ATOM     24  O   UNL A   1      41.869  18.461  25.969  1.00  0.00    -0.269 OA
BRANCH  22  25
ATOM     25  C   UNL A   1      41.737  20.761  26.407  1.00  0.00     0.039 A 
ATOM     26  C   UNL A   1      42.023  21.653  25.370  1.00  0.00     0.014 A 
ATOM     27  C   UNL A   1      42.052  21.103  27.724  1.00  0.00     0.014 A 
ATOM     28  C   UNL A   1      42.560  22.909  25.659  1.00  0.00     0.010 A 
ATOM     29  C   UNL A   1      42.503  22.385  28.021  1.00  0.00     0.010 A 
ATOM     30  C   UNL A   1      42.770  23.300  26.991  1.00  0.00    -0.014 A 
BRANCH  30  31
ATOM     31  C   UNL A   1      43.272  24.655  27.328  1.00  0.00     0.031 A 
ATOM     32  C   UNL A   1      42.344  25.680  27.920  1.00  0.00     0.074 A 
ATOM     33  C   UNL A   1      44.545  24.985  27.037  1.00  0.00     0.049 A 
ATOM     34  N   UNL A   1      42.573  26.936  28.213  1.00  0.00    -0.248 NA
ATOM     35  C   UNL A   1      40.965  25.244  28.193  1.00  0.00     0.031 C 
ATOM     36  C   UNL A   1      45.528  24.097  26.415  1.00  0.00     0.029 A 
ATOM     37  N   UNL A   1      45.228  26.162  27.215  1.00  0.00    -0.354 N 
ATOM     38  C   UNL A   1      41.367  27.440  28.682  1.00  0.00     0.074 A 
ATOM     39  C   UNL A   1      40.395  26.373  28.585  1.00  0.00     0.031 C 
ATOM     40  C   UNL A   1      46.694  24.751  26.288  1.00  0.00     0.029 A 
ATOM     41  C   UNL A   1      46.530  26.114  26.781  1.00  0.00     0.049 A 
ATOM     42  H   UNL A   1      44.823  26.965  27.616  1.00  0.00     0.167 HD
ATOM     43  C   UNL A   1      41.101  28.674  29.172  1.00  0.00     0.037 A 
ATOM     44  C   UNL A   1      47.483  27.066  26.777  1.00  0.00     0.037 A 
ATOM     45  C   UNL A   1      42.078  29.724  29.295  1.00  0.00     0.049 A 
ATOM     46  C   UNL A   1      47.161  28.428  27.328  1.00  0.00     0.074 A 
ATOM     47  C   UNL A   1      41.926  30.987  29.840  1.00  0.00     0.029 A 
ATOM     48  N   UNL A   1      43.394  29.630  28.864  1.00  0.00    -0.354 N 
ATOM     49  N   UNL A   1      46.037  28.872  27.836  1.00  0.00    -0.248 NA
ATOM     50  C   UNL A   1      48.245  29.421  27.311  1.00  0.00     0.031 C 
ATOM     51  C   UNL A   1      43.135  31.674  29.696  1.00  0.00     0.029 A 
ATOM     52  C   UNL A   1      44.058  30.823  29.111  1.00  0.00     0.049 A 
ATOM     53  H   UNL A   1      43.796  28.836  28.445  1.00  0.00     0.167 HD
ATOM     54  C   UNL A   1      46.285  30.180  28.227  1.00  0.00     0.074 A 
ATOM     55  C   UNL A   1      47.671  30.455  27.910  1.00  0.00     0.031 C 
ATOM     56  C   UNL A   1      45.441  31.075  28.798  1.00  0.00     0.037 A 
BRANCH  43  57
ATOM     57  C   UNL A   1      39.694  28.956  29.616  1.00  0.00     0.064 A 
ATOM     58  C   UNL A   1      38.724  29.442  28.726  1.00  0.00     0.173 A 
ATOM     59  C   UNL A   1      39.302  28.707  30.940  1.00  0.00     0.173 A 
ATOM     60  F   UNL A   1      39.048  29.707  27.452  1.00  0.00    -0.203 F 
ATOM     61  C   UNL A   1      37.424  29.700  29.154  1.00  0.00     0.198 A 
ATOM     62  C   UNL A   1      37.993  28.935  31.356  1.00  0.00     0.198 A 
ATOM     63  F   UNL A   1      40.187  28.236  31.831  1.00  0.00    -0.203 F 
ATOM     64  F   UNL A   1      36.528  30.214  28.299  1.00  0.00    -0.200 F 
ATOM     65  C   UNL A   1      37.057  29.440  30.465  1.00  0.00     0.200 A 
ATOM     66  F   UNL A   1      37.636  28.670  32.621  1.00  0.00    -0.200 F 
ATOM     67  F   UNL A   1      35.803  29.681  30.873  1.00  0.00    -0.200 F 
ENDBRANCH  43  57
BRANCH  44  68
ATOM     68  C   UNL A   1      48.841  26.755  26.262  1.00  0.00     0.064 A 
ATOM     69  C   UNL A   1      49.801  26.154  27.089  1.00  0.00     0.173 A 
ATOM     70  C   UNL A   1      49.210  27.052  24.942  1.00  0.00     0.173 A 
ATOM     71  F   UNL A   1      49.501  25.869  28.364  1.00  0.00    -0.203 F 
ATOM     72  C   UNL A   1      51.086  25.885  26.622  1.00  0.00     0.198 A 
ATOM     73  C   UNL A   1      50.487  26.755  24.468  1.00  0.00     0.198 A 
ATOM     74  F   UNL A   1      48.328  27.622  24.109  1.00  0.00    -0.203 F 
ATOM     75  F   UNL A   1      51.998  25.354  27.448  1.00  0.00    -0.200 F 
ATOM     76  C   UNL A   1      51.426  26.180  25.311  1.00  0.00     0.200 A 
ATOM     77  F   UNL A   1      50.807  27.029  23.196  1.00  0.00    -0.200 F 
ATOM     78  F   UNL A   1      52.661  25.918  24.861  1.00  0.00    -0.200 F 
ENDBRANCH  44  68
BRANCH  56  79
ATOM     79  C   UNL A   1      46.004  32.421  29.154  1.00  0.00     0.064 A 
ATOM     80  C   UNL A   1      46.620  32.659  30.390  1.00  0.00     0.173 A 
ATOM     81  C   UNL A   1      45.956  33.475  28.229  1.00  0.00     0.173 A 
ATOM     82  F   UNL A   1      46.678  31.687  31.315  1.00  0.00    -0.203 F 
ATOM     83  C   UNL A   1      47.142  33.912  30.700  1.00  0.00     0.198 A 
ATOM     84  C   UNL A   1      46.507  34.717  28.529  1.00  0.00     0.198 A 
ATOM     85  F   UNL A   1      45.385  33.297  27.028  1.00  0.00    -0.203 F 
ATOM     86  F   UNL A   1      47.681  34.132  31.907  1.00  0.00    -0.200 F 
ATOM     87  C   UNL A   1      47.092  34.937  29.767  1.00  0.00     0.200 A 
ATOM     88  F   UNL A   1      46.470  35.702  27.622  1.00  0.00    -0.200 F 
ATOM     89  F   UNL A   1      47.600  36.140  30.065  1.00  0.00    -0.200 F 
ENDBRANCH  56  79
ENDBRANCH  30  31
ENDBRANCH  22  25
ENDBRANCH  20  21
ENDBRANCH   1  20
TORSDOF 14
ENDMDL
MODEL 2
REMARK VINA RESULT:     -11.4      0.248      1.656
REMARK SMILES CC[C@](O)(C(=O)NCCCNC(=O)c1ccc(-c2c3nc(c(-c4c(F)c(F)c(F)c(F)c4F)c4ccc([nH]4)c(-c4c(F)c(F)c(F)c(F)c4F)c4nc(c(-c5c(F)c(F)c(F)c(F)c5F)c5ccc2[nH]5)C=C4)C=C3)cc1)[C@@H](C)c1ccc(C)s1
REMARK SMILES IDX 9 1 8 2 7 3 5 4 6 5 3 7 2 8 1 9 77 10 78 11 79 12 80 13
REMARK SMILES IDX 84 14 81 15 82 16 83 17 4 18 10 20 11 21 12 22 13 24 14 25
REMARK SMILES IDX 15 26 76 27 16 28 75 29 17 30 18 31 19 32 69 33 20 34 74 35
REMARK SMILES IDX 68 36 70 37 21 38 73 39 67 40 66 41 22 43 54 44 34 45 53 46
REMARK SMILES IDX 35 47 38 48 52 49 71 50 36 51 37 52 51 54 72 55 39 56 23 57
REMARK SMILES IDX 24 58 32 59 25 60 26 61 30 62 33 63 27 64 28 65 31 66 29 67
REMARK SMILES IDX 55 68 56 69 64 70 57 71 58 72 62 73 65 74 59 75 60 76 63 77
REMARK SMILES IDX 61 78 40 79 41 80 49 81 42 82 43 83 47 84 50 85 44 86 45 87
REMARK SMILES IDX 48 88 46 89
REMARK H PARENT 7 6 4 19 11 23 70 42 38 53
REMARK Flexibility Score: inf
ROOT
ATOM      1  C   UNL A   1      37.777  19.731  24.808  1.00  0.00     0.042 C 
ENDROOT
BRANCH   1   2
ATOM      2  C   UNL A   1      36.446  20.436  25.025  1.00  0.00     0.117 C 
BRANCH   2   3
ATOM      3  N   UNL A   1      35.305  19.531  24.970  1.00  0.00    -0.354 N 
ATOM      4  C   UNL A   1      33.971  19.797  25.163  1.00  0.00     0.252 C 
ATOM      5  O   UNL A   1      33.177  18.876  24.952  1.00  0.00    -0.272 OA
ATOM      6  H   UNL A   1      35.523  18.592  24.766  1.00  0.00     0.163 HD
BRANCH   4   7
ATOM      7  C   UNL A   1      33.510  21.239  25.538  1.00  0.00     0.150 C 
BRANCH   7   8
ATOM      8  C   UNL A   1      34.364  21.646  26.780  1.00  0.00     0.043 C 
ATOM      9  C   UNL A   1      33.619  22.202  27.987  1.00  0.00     0.007 C 
ENDBRANCH   7   8
BRANCH   7  10
ATOM     10  C   UNL A   1      33.726  22.226  24.323  1.00  0.00     0.068 C 
ATOM     11  C   UNL A   1      32.832  21.938  23.104  1.00  0.00     0.017 C 
BRANCH  10  12
ATOM     12  C   UNL A   1      33.566  23.686  24.745  1.00  0.00     0.011 A 
ATOM     13  C   UNL A   1      34.556  24.599  25.053  1.00  0.00     0.016 A 
ATOM     14  S   UNL A   1      32.011  24.402  24.929  1.00  0.00    -0.145 S 
ATOM     15  C   UNL A   1      34.029  25.783  25.655  1.00  0.00     0.015 A 
ATOM     16  C   UNL A   1      32.654  25.746  25.759  1.00  0.00     0.002 A 
ATOM     17  C   UNL A   1      31.744  26.689  26.465  1.00  0.00     0.056 C 
ENDBRANCH  10  12
ENDBRANCH   7  10
BRANCH   7  18
ATOM     18  O   UNL A   1      32.113  21.146  25.867  1.00  0.00    -0.379 OA
ATOM     19  H   UNL A   1      31.671  20.551  25.241  1.00  0.00     0.212 HD
ENDBRANCH   7  18
ENDBRANCH   4   7
ENDBRANCH   2   3
ENDBRANCH   1   2
BRANCH   1  20
ATOM     20  C   UNL A   1      38.883  20.203  25.743  1.00  0.00     0.118 C 
BRANCH  20  21
ATOM     21  N   UNL A   1      39.943  19.215  25.913  1.00  0.00    -0.352 N 
ATOM     22  C   UNL A   1      41.287  19.373  26.126  1.00  0.00     0.251 C 
ATOM     23  H   UNL A   1      39.643  18.279  25.868  1.00  0.00     0.163 HD
ATOM     24  O   UNL A   1      42.030  18.389  26.060  1.00  0.00    -0.269 OA
BRANCH  22  25
ATOM     25  C   UNL A   1      41.864  20.701  26.414  1.00  0.00     0.039 A 
ATOM     26  C   UNL A   1      42.106  21.576  25.351  1.00  0.00     0.014 A 
ATOM     27  C   UNL A   1      42.203  21.078  27.715  1.00  0.00     0.014 A 
ATOM     28  C   UNL A   1      42.623  22.849  25.601  1.00  0.00     0.010 A 
ATOM     29  C   UNL A   1      42.633  22.375  27.974  1.00  0.00     0.010 A 
ATOM     30  C   UNL A   1      42.856  23.273  26.919  1.00  0.00    -0.014 A 
BRANCH  30  31
ATOM     31  C   UNL A   1      43.337  24.645  27.215  1.00  0.00     0.031 A 
ATOM     32  C   UNL A   1      42.394  25.672  27.778  1.00  0.00     0.074 A 
ATOM     33  C   UNL A   1      44.605  24.986  26.911  1.00  0.00     0.049 A 
ATOM     34  N   UNL A   1      42.604  26.939  28.033  1.00  0.00    -0.248 NA
ATOM     35  C   UNL A   1      41.023  25.223  28.067  1.00  0.00     0.031 C 
ATOM     36  C   UNL A   1      45.600  24.096  26.314  1.00  0.00     0.029 A 
ATOM     37  N   UNL A   1      45.269  26.179  27.054  1.00  0.00    -0.354 N 
ATOM     38  C   UNL A   1      41.391  27.439  28.490  1.00  0.00     0.074 A 
ATOM     39  C   UNL A   1      40.436  26.354  28.427  1.00  0.00     0.031 C 
ATOM     40  C   UNL A   1      46.756  24.764  26.166  1.00  0.00     0.029 A 
ATOM     41  C   UNL A   1      46.571  26.138  26.619  1.00  0.00     0.049 A 
ATOM     42  H   UNL A   1      44.852  26.986  27.432  1.00  0.00     0.167 HD
ATOM     43  C   UNL A   1      41.107  28.682  28.944  1.00  0.00     0.037 A 
ATOM     44  C   UNL A   1      47.509  27.104  26.585  1.00  0.00     0.037 A 
ATOM     45  C   UNL A   1      42.068  29.750  29.034  1.00  0.00     0.049 A 
ATOM     46  C   UNL A   1      47.167  28.477  27.096  1.00  0.00     0.074 A 
ATOM     47  C   UNL A   1      41.896  31.026  29.542  1.00  0.00     0.029 A 
ATOM     48  N   UNL A   1      43.384  29.665  28.604  1.00  0.00    -0.354 N 
ATOM     49  N   UNL A   1      46.037  28.918  27.593  1.00  0.00    -0.248 NA
ATOM     50  C   UNL A   1      48.235  29.485  27.048  1.00  0.00     0.031 C 
ATOM     51  C   UNL A   1      43.094  31.728  29.376  1.00  0.00     0.029 A 
ATOM     52  C   UNL A   1      44.029  30.874  28.814  1.00  0.00     0.049 A 
ATOM     53  H   UNL A   1      43.798  28.865  28.207  1.00  0.00     0.167 HD
ATOM     54  C   UNL A   1      46.265  30.240  27.945  1.00  0.00     0.074 A 
ATOM     55  C   UNL A   1      47.646  30.527  27.617  1.00  0.00     0.031 C 
ATOM     56  C   UNL A   1      45.408  31.138  28.491  1.00  0.00     0.037 A 
BRANCH  43  57
ATOM     57  C   UNL A   1      39.696  28.955  29.382  1.00  0.00     0.064 A 
ATOM     58  C   UNL A   1      38.725  29.429  28.487  1.00  0.00     0.173 A 
ATOM     59  C   UNL A   1      39.302  28.710  30.706  1.00  0.00     0.173 A 
ATOM     60  F   UNL A   1      39.051  29.690  27.212  1.00  0.00    -0.203 F 
ATOM     61  C   UNL A   1      37.421  29.678  28.909  1.00  0.00     0.198 A 
ATOM     62  C   UNL A   1      37.990  28.929  31.117  1.00  0.00     0.198 A 
ATOM     63  F   UNL A   1      40.188  28.250  31.602  1.00  0.00    -0.203 F 
ATOM     64  F   UNL A   1      36.525  30.181  28.049  1.00  0.00    -0.200 F 
ATOM     65  C   UNL A   1      37.052  29.422  30.221  1.00  0.00     0.200 A 
ATOM     66  F   UNL A   1      37.631  28.668  32.382  1.00  0.00    -0.200 F 
ATOM     67  F   UNL A   1      35.795  29.655  30.624  1.00  0.00    -0.200 F 
ENDBRANCH  43  57
BRANCH  44  68
ATOM     68  C   UNL A   1      48.871  26.799  26.076  1.00  0.00     0.064 A 
ATOM     69  C   UNL A   1      49.197  27.009  24.729  1.00  0.00     0.173 A 
ATOM     70  C   UNL A   1      49.872  26.290  26.917  1.00  0.00     0.173 A 
ATOM     71  F   UNL A   1      48.268  27.477  23.881  1.00  0.00    -0.203 F 
ATOM     72  C   UNL A   1      50.463  26.700  24.237  1.00  0.00     0.198 A 
ATOM     73  C   UNL A   1      51.146  26.008  26.430  1.00  0.00     0.198 A 
ATOM     74  F   UNL A   1      49.613  26.076  28.215  1.00  0.00    -0.203 F 
ATOM     75  F   UNL A   1      50.732  26.866  22.935  1.00  0.00    -0.200 F 
ATOM     76  C   UNL A   1      51.438  26.205  25.089  1.00  0.00     0.200 A 
ATOM     77  F   UNL A   1      52.090  25.543  27.260  1.00  0.00    -0.200 F 
ATOM     78  F   UNL A   1      52.657  25.910  24.616  1.00  0.00    -0.200 F 
ENDBRANCH  44  68
BRANCH  56  79
ATOM     79  C   UNL A   1      45.950  32.503  28.806  1.00  0.00     0.064 A 
ATOM     80  C   UNL A   1      45.876  33.556  27.884  1.00  0.00     0.173 A 
ATOM     81  C   UNL A   1      46.521  32.765  30.061  1.00  0.00     0.173 A 
ATOM     82  F   UNL A   1      45.354  33.352  26.664  1.00  0.00    -0.203 F 
ATOM     83  C   UNL A   1      46.379  34.817  28.197  1.00  0.00     0.198 A 
ATOM     84  C   UNL A   1      46.993  34.034  30.381  1.00  0.00     0.198 A 
ATOM     85  F   UNL A   1      46.609  31.794  30.981  1.00  0.00    -0.203 F 
ATOM     86  F   UNL A   1      46.343  35.796  27.283  1.00  0.00    -0.200 F 
ATOM     87  C   UNL A   1      46.929  35.057  29.447  1.00  0.00     0.200 A 
ATOM     88  F   UNL A   1      47.513  34.268  31.595  1.00  0.00    -0.200 F 
ATOM     89  F   UNL A   1      47.407  36.272  29.748  1.00  0.00    -0.200 F 
ENDBRANCH  56  79
ENDBRANCH  30  31
ENDBRANCH  22  25
ENDBRANCH  20  21
ENDBRANCH   1  20
TORSDOF 14
ENDMDL
MODEL 3
REMARK VINA RESULT:     -11.3      5.911     11.216
REMARK SMILES CC[C@](O)(C(=O)NCCCNC(=O)c1ccc(-c2c3nc(c(-c4c(F)c(F)c(F)c(F)c4F)c4ccc([nH]4)c(-c4c(F)c(F)c(F)c(F)c4F)c4nc(c(-c5c(F)c(F)c(F)c(F)c5F)c5ccc2[nH]5)C=C4)C=C3)cc1)[C@@H](C)c1ccc(C)s1
REMARK SMILES IDX 9 1 8 2 7 3 5 4 6 5 3 7 2 8 1 9 77 10 78 11 79 12 80 13
REMARK SMILES IDX 84 14 81 15 82 16 83 17 4 18 10 20 11 21 12 22 13 24 14 25
REMARK SMILES IDX 15 26 76 27 16 28 75 29 17 30 18 31 19 32 69 33 20 34 74 35
REMARK SMILES IDX 68 36 70 37 21 38 73 39 67 40 66 41 22 43 54 44 34 45 53 46
REMARK SMILES IDX 35 47 38 48 52 49 71 50 36 51 37 52 51 54 72 55 39 56 23 57
REMARK SMILES IDX 24 58 32 59 25 60 26 61 30 62 33 63 27 64 28 65 31 66 29 67
REMARK SMILES IDX 55 68 56 69 64 70 57 71 58 72 62 73 65 74 59 75 60 76 63 77
REMARK SMILES IDX 61 78 40 79 41 80 49 81 42 82 43 83 47 84 50 85 44 86 45 87
REMARK SMILES IDX 48 88 46 89
REMARK H PARENT 7 6 4 19 11 23 70 42 38 53
REMARK Flexibility Score: inf
ROOT
ATOM      1  C   UNL A   1      31.183  32.256  26.536  1.00  0.00     0.042 C 
ENDROOT
BRANCH   1   2
ATOM      2  C   UNL A   1      31.403  30.953  25.782  1.00  0.00     0.117 C 
BRANCH   2   3
ATOM      3  N   UNL A   1      32.629  30.268  26.172  1.00  0.00    -0.354 N 
ATOM      4  C   UNL A   1      33.240  29.180  25.597  1.00  0.00     0.252 C 
ATOM      5  O   UNL A   1      34.341  28.850  26.046  1.00  0.00    -0.272 OA
ATOM      6  H   UNL A   1      33.085  30.639  26.961  1.00  0.00     0.163 HD
BRANCH   4   7
ATOM      7  C   UNL A   1      32.586  28.478  24.367  1.00  0.00     0.150 C 
BRANCH   7   8
ATOM      8  C   UNL A   1      33.562  27.324  23.972  1.00  0.00     0.043 C 
ATOM      9  C   UNL A   1      33.630  26.941  22.500  1.00  0.00     0.007 C 
ENDBRANCH   7   8
BRANCH   7  10
ATOM     10  C   UNL A   1      31.148  27.936  24.735  1.00  0.00     0.068 C 
ATOM     11  C   UNL A   1      30.119  28.043  23.597  1.00  0.00     0.017 C 
BRANCH  10  12
ATOM     12  C   UNL A   1      31.200  26.497  25.247  1.00  0.00     0.011 A 
ATOM     13  C   UNL A   1      31.679  26.039  26.461  1.00  0.00     0.016 A 
ATOM     14  S   UNL A   1      30.657  25.179  24.281  1.00  0.00    -0.145 S 
ATOM     15  C   UNL A   1      31.809  24.617  26.486  1.00  0.00     0.015 A 
ATOM     16  C   UNL A   1      31.400  24.035  25.304  1.00  0.00     0.002 A 
ATOM     17  C   UNL A   1      31.529  22.619  24.865  1.00  0.00     0.056 C 
ENDBRANCH  10  12
ENDBRANCH   7  10
BRANCH   7  18
ATOM     18  O   UNL A   1      32.499  29.471  23.330  1.00  0.00    -0.379 OA
ATOM     19  H   UNL A   1      31.753  29.265  22.747  1.00  0.00     0.212 HD
ENDBRANCH   7  18
ENDBRANCH   4   7
ENDBRANCH   2   3
ENDBRANCH   1   2
BRANCH   1  20
ATOM     20  C   UNL A   1      32.442  32.810  27.190  1.00  0.00     0.118 C 
BRANCH  20  21
ATOM     21  N   UNL A   1      32.318  34.215  27.563  1.00  0.00    -0.352 N 
ATOM     22  C   UNL A   1      32.981  34.952  28.508  1.00  0.00     0.251 C 
ATOM     23  H   UNL A   1      31.645  34.718  27.050  1.00  0.00     0.163 HD
ATOM     24  O   UNL A   1      32.584  36.090  28.776  1.00  0.00    -0.269 OA
BRANCH  22  25
ATOM     25  C   UNL A   1      34.150  34.403  29.222  1.00  0.00     0.039 A 
ATOM     26  C   UNL A   1      33.951  33.761  30.448  1.00  0.00     0.014 A 
ATOM     27  C   UNL A   1      35.443  34.546  28.715  1.00  0.00     0.014 A 
ATOM     28  C   UNL A   1      35.037  33.206  31.128  1.00  0.00     0.010 A 
ATOM     29  C   UNL A   1      36.512  33.918  29.347  1.00  0.00     0.010 A 
ATOM     30  C   UNL A   1      36.322  33.248  30.564  1.00  0.00    -0.014 A 
BRANCH  30  31
ATOM     31  C   UNL A   1      37.480  32.603  31.234  1.00  0.00     0.031 A 
ATOM     32  C   UNL A   1      38.214  31.479  30.557  1.00  0.00     0.074 A 
ATOM     33  C   UNL A   1      37.826  32.984  32.479  1.00  0.00     0.049 A 
ATOM     34  N   UNL A   1      39.199  30.742  31.008  1.00  0.00    -0.248 NA
ATOM     35  C   UNL A   1      37.763  31.113  29.205  1.00  0.00     0.031 C 
ATOM     36  C   UNL A   1      37.159  34.027  33.260  1.00  0.00     0.029 A 
ATOM     37  N   UNL A   1      38.818  32.530  33.310  1.00  0.00    -0.354 N 
ATOM     38  C   UNL A   1      39.467  29.818  30.006  1.00  0.00     0.074 A 
ATOM     39  C   UNL A   1      38.510  30.050  28.948  1.00  0.00     0.031 C 
ATOM     40  C   UNL A   1      37.778  34.151  34.445  1.00  0.00     0.029 A 
ATOM     41  C   UNL A   1      38.856  33.171  34.524  1.00  0.00     0.049 A 
ATOM     42  H   UNL A   1      39.444  31.812  33.061  1.00  0.00     0.167 HD
ATOM     43  C   UNL A   1      40.441  28.878  29.964  1.00  0.00     0.037 A 
ATOM     44  C   UNL A   1      39.667  32.985  35.583  1.00  0.00     0.037 A 
ATOM     45  C   UNL A   1      41.412  28.670  31.006  1.00  0.00     0.049 A 
ATOM     46  C   UNL A   1      40.740  31.934  35.509  1.00  0.00     0.074 A 
ATOM     47  C   UNL A   1      42.479  27.789  31.030  1.00  0.00     0.029 A 
ATOM     48  N   UNL A   1      41.431  29.355  32.213  1.00  0.00    -0.354 N 
ATOM     49  N   UNL A   1      41.032  31.115  34.528  1.00  0.00    -0.248 NA
ATOM     50  C   UNL A   1      41.604  31.787  36.690  1.00  0.00     0.031 C 
ATOM     51  C   UNL A   1      43.116  27.907  32.270  1.00  0.00     0.029 A 
ATOM     52  C   UNL A   1      42.479  28.899  32.998  1.00  0.00     0.049 A 
ATOM     53  H   UNL A   1      40.795  30.059  32.473  1.00  0.00     0.167 HD
ATOM     54  C   UNL A   1      42.127  30.379  34.957  1.00  0.00     0.074 A 
ATOM     55  C   UNL A   1      42.458  30.859  36.283  1.00  0.00     0.031 C 
ATOM     56  C   UNL A   1      42.800  29.395  34.312  1.00  0.00     0.037 A 
BRANCH  43  57
ATOM     57  C   UNL A   1      40.507  28.002  28.745  1.00  0.00     0.064 A 
ATOM     58  C   UNL A   1      41.261  28.363  27.618  1.00  0.00     0.173 A 
ATOM     59  C   UNL A   1      39.835  26.770  28.716  1.00  0.00     0.173 A 
ATOM     60  F   UNL A   1      41.914  29.534  27.590  1.00  0.00    -0.203 F 
ATOM     61  C   UNL A   1      41.311  27.541  26.495  1.00  0.00     0.198 A 
ATOM     62  C   UNL A   1      39.913  25.936  27.604  1.00  0.00     0.198 A 
ATOM     63  F   UNL A   1      39.106  26.372  29.769  1.00  0.00    -0.203 F 
ATOM     64  F   UNL A   1      41.993  27.932  25.410  1.00  0.00    -0.200 F 
ATOM     65  C   UNL A   1      40.644  26.325  26.491  1.00  0.00     0.200 A 
ATOM     66  F   UNL A   1      39.279  24.754  27.608  1.00  0.00    -0.200 F 
ATOM     67  F   UNL A   1      40.699  25.531  25.413  1.00  0.00    -0.200 F 
ENDBRANCH  43  57
BRANCH  44  68
ATOM     68  C   UNL A   1      39.514  33.834  36.793  1.00  0.00     0.064 A 
ATOM     69  C   UNL A   1      40.139  35.086  36.873  1.00  0.00     0.173 A 
ATOM     70  C   UNL A   1      38.750  33.414  37.892  1.00  0.00     0.173 A 
ATOM     71  F   UNL A   1      40.896  35.523  35.856  1.00  0.00    -0.203 F 
ATOM     72  C   UNL A   1      40.024  35.876  38.015  1.00  0.00     0.198 A 
ATOM     73  C   UNL A   1      38.613  34.218  39.022  1.00  0.00     0.198 A 
ATOM     74  F   UNL A   1      38.129  32.227  37.864  1.00  0.00    -0.203 F 
ATOM     75  F   UNL A   1      40.671  37.048  38.083  1.00  0.00    -0.200 F 
ATOM     76  C   UNL A   1      39.257  35.444  39.086  1.00  0.00     0.200 A 
ATOM     77  F   UNL A   1      37.860  33.803  40.049  1.00  0.00    -0.200 F 
ATOM     78  F   UNL A   1      39.145  36.205  40.183  1.00  0.00    -0.200 F 
ENDBRANCH  44  68
BRANCH  56  79
ATOM     79  C   UNL A   1      43.986  28.799  35.014  1.00  0.00     0.064 A 
ATOM     80  C   UNL A   1      45.271  29.341  34.880  1.00  0.00     0.173 A 
ATOM     81  C   UNL A   1      43.824  27.690  35.859  1.00  0.00     0.173 A 
ATOM     82  F   UNL A   1      45.481  30.392  34.072  1.00  0.00    -0.203 F 
ATOM     83  C   UNL A   1      46.359  28.778  35.544  1.00  0.00     0.198 A 
ATOM     84  C   UNL A   1      44.907  27.149  36.546  1.00  0.00     0.198 A 
ATOM     85  F   UNL A   1      42.614  27.137  36.027  1.00  0.00    -0.203 F 
ATOM     86  F   UNL A   1      47.587  29.281  35.362  1.00  0.00    -0.200 F 
ATOM     87  C   UNL A   1      46.174  27.688  36.382  1.00  0.00     0.200 A 
ATOM     88  F   UNL A   1      44.725  26.104  37.365  1.00  0.00    -0.200 F 
ATOM     89  F   UNL A   1      47.220  27.152  37.024  1.00  0.00    -0.200 F 
ENDBRANCH  56  79
ENDBRANCH  30  31
ENDBRANCH  22  25
ENDBRANCH  20  21
ENDBRANCH   1  20
TORSDOF 14
ENDMDL
