MODEL 1
REMARK VINA RESULT:     -12.7      0.000      0.000
REMARK SMILES O=C(NCCCNC(=O)c1ccc(-c2c3nc(c(-c4c(F)c(F)c(F)c(F)c4F)c4ccc([nH]4)c(-c4c(F)c(F)c(F)c(F)c4F)c4nc(c(-c5c(F)c(F)c(F)c(F)c5F)c5ccc2[nH]5)C=C4)C=C3)cc1)c1ccc(CNC(=O)c2c(F)cccc2Cl)cc1
REMARK SMILES IDX 4 1 3 2 1 3 2 4 73 6 74 7 90 8 75 9 89 10 76 11 77 12 78 13
REMARK SMILES IDX 79 14 80 16 81 17 82 18 87 19 83 20 84 21 86 22 88 23 85 24
REMARK SMILES IDX 5 25 6 26 7 27 8 28 9 30 10 31 11 32 72 33 12 34 71 35 13 36
REMARK SMILES IDX 14 37 15 38 65 39 16 40 70 41 64 42 66 43 17 44 69 45 63 46
REMARK SMILES IDX 62 47 18 49 50 50 30 51 49 52 31 53 34 54 48 55 67 56 32 57
REMARK SMILES IDX 33 58 47 60 68 61 35 62 19 63 20 64 28 65 21 66 22 67 26 68
REMARK SMILES IDX 29 69 23 70 24 71 27 72 25 73 51 74 52 75 60 76 53 77 54 78
REMARK SMILES IDX 58 79 61 80 55 81 56 82 59 83 57 84 36 85 37 86 45 87 38 88
REMARK SMILES IDX 39 89 43 90 46 91 40 92 41 93 44 94 42 95
REMARK H PARENT 3 5 78 15 7 29 66 48 34 59
REMARK Flexibility Score: inf
ROOT
ATOM      1  C   UNL A   1      31.130  30.510  25.310  1.00  0.00     0.118 C 
ENDROOT
BRANCH   1   2
ATOM      2  N   UNL A   1      30.281  30.808  24.166  1.00  0.00    -0.352 N 
ATOM      3  O   UNL A   1      29.285  30.434  22.178  1.00  0.00    -0.269 OA
ATOM      4  C   UNL A   1      29.829  29.971  23.179  1.00  0.00     0.251 C 
ATOM      5  H   UNL A   1      29.991  31.744  24.090  1.00  0.00     0.163 HD
BRANCH   4   6
ATOM      6  C   UNL A   1      30.017  28.514  23.307  1.00  0.00     0.039 A 
ATOM      7  C   UNL A   1      31.226  27.912  22.945  1.00  0.00     0.014 A 
ATOM      8  C   UNL A   1      28.973  27.743  23.821  1.00  0.00     0.014 A 
ATOM      9  C   UNL A   1      31.358  26.528  23.006  1.00  0.00     0.006 A 
ATOM     10  C   UNL A   1      29.117  26.359  23.910  1.00  0.00     0.006 A 
ATOM     11  C   UNL A   1      30.303  25.738  23.484  1.00  0.00    -0.029 A 
BRANCH  11  12
ATOM     12  C   UNL A   1      30.485  24.254  23.642  1.00  0.00     0.152 C 
BRANCH  12  13
ATOM     13  N   UNL A   1      30.297  23.807  25.007  1.00  0.00    -0.348 N 
ATOM     14  C   UNL A   1      30.916  24.227  26.158  1.00  0.00     0.256 C 
ATOM     15  H   UNL A   1      29.626  23.097  25.127  1.00  0.00     0.164 HD
ATOM     16  O   UNL A   1      30.574  23.776  27.246  1.00  0.00    -0.269 OA
BRANCH  14  17
ATOM     17  C   UNL A   1      32.035  25.178  26.092  1.00  0.00     0.094 A 
ATOM     18  C   UNL A   1      31.772  26.499  26.459  1.00  0.00     0.137 A 
ATOM     19  C   UNL A   1      33.322  24.831  25.672  1.00  0.00     0.056 A 
ATOM     20  F   UNL A   1      30.542  26.876  26.839  1.00  0.00    -0.206 F 
ATOM     21  C   UNL A   1      32.784  27.456  26.470  1.00  0.00     0.040 A 
ATOM     22  C   UNL A   1      34.350  25.780  25.722  1.00  0.00     0.021 A 
ATOM     23  Cl  UNL A   1      33.717  23.261  25.064  1.00  0.00    -0.083 Cl
ATOM     24  C   UNL A   1      34.083  27.091  26.125  1.00  0.00     0.005 A 
ENDBRANCH  14  17
ENDBRANCH  12  13
ENDBRANCH  11  12
ENDBRANCH   4   6
ENDBRANCH   1   2
BRANCH   1  25
ATOM     25  C   UNL A   1      31.028  31.566  26.400  1.00  0.00     0.042 C 
BRANCH  25  26
ATOM     26  C   UNL A   1      32.370  32.098  26.877  1.00  0.00     0.118 C 
BRANCH  26  27
ATOM     27  N   UNL A   1      32.319  33.505  27.250  1.00  0.00    -0.352 N 
ATOM     28  C   UNL A   1      33.055  34.216  28.163  1.00  0.00     0.251 C 
ATOM     29  H   UNL A   1      31.645  34.035  26.765  1.00  0.00     0.163 HD
ATOM     30  O   UNL A   1      32.718  35.363  28.446  1.00  0.00    -0.269 OA
BRANCH  28  31
ATOM     31  C   UNL A   1      34.236  33.616  28.820  1.00  0.00     0.039 A 
ATOM     32  C   UNL A   1      34.032  32.636  29.796  1.00  0.00     0.014 A 
ATOM     33  C   UNL A   1      35.534  34.034  28.519  1.00  0.00     0.014 A 
ATOM     34  C   UNL A   1      35.127  32.046  30.429  1.00  0.00     0.010 A 
ATOM     35  C   UNL A   1      36.627  33.375  29.073  1.00  0.00     0.010 A 
ATOM     36  C   UNL A   1      36.437  32.388  30.051  1.00  0.00    -0.014 A 
BRANCH  36  37
ATOM     37  C   UNL A   1      37.610  31.741  30.690  1.00  0.00     0.031 A 
ATOM     38  C   UNL A   1      38.040  32.145  32.074  1.00  0.00     0.074 A 
ATOM     39  C   UNL A   1      38.316  30.820  30.007  1.00  0.00     0.049 A 
ATOM     40  N   UNL A   1      39.049  31.711  32.789  1.00  0.00    -0.248 NA
ATOM     41  C   UNL A   1      37.253  33.199  32.734  1.00  0.00     0.031 C 
ATOM     42  C   UNL A   1      38.037  30.386  28.638  1.00  0.00     0.029 A 
ATOM     43  N   UNL A   1      39.417  30.084  30.370  1.00  0.00    -0.354 N 
ATOM     44  C   UNL A   1      39.022  32.446  33.968  1.00  0.00     0.074 A 
ATOM     45  C   UNL A   1      37.939  33.398  33.848  1.00  0.00     0.031 C 
ATOM     46  C   UNL A   1      38.921  29.438  28.287  1.00  0.00     0.029 A 
ATOM     47  C   UNL A   1      39.852  29.226  29.391  1.00  0.00     0.049 A 
ATOM     48  H   UNL A   1      39.853  30.164  31.249  1.00  0.00     0.167 HD
ATOM     49  C   UNL A   1      39.809  32.320  35.062  1.00  0.00     0.037 A 
ATOM     50  C   UNL A   1      40.889  28.367  29.382  1.00  0.00     0.037 A 
ATOM     51  C   UNL A   1      40.872  31.355  35.185  1.00  0.00     0.049 A 
ATOM     52  C   UNL A   1      41.747  28.242  30.612  1.00  0.00     0.074 A 
ATOM     53  C   UNL A   1      41.684  31.100  36.276  1.00  0.00     0.029 A 
ATOM     54  N   UNL A   1      41.273  30.490  34.177  1.00  0.00    -0.354 N 
ATOM     55  N   UNL A   1      41.659  28.882  31.752  1.00  0.00    -0.248 NA
ATOM     56  C   UNL A   1      42.842  27.264  30.557  1.00  0.00     0.031 C 
ATOM     57  C   UNL A   1      42.616  30.125  35.908  1.00  0.00     0.029 A 
ATOM     58  C   UNL A   1      42.342  29.721  34.611  1.00  0.00     0.049 A 
ATOM     59  H   UNL A   1      40.859  30.430  33.286  1.00  0.00     0.167 HD
ATOM     60  C   UNL A   1      42.665  28.366  32.559  1.00  0.00     0.074 A 
ATOM     61  C   UNL A   1      43.337  27.345  31.783  1.00  0.00     0.031 C 
ATOM     62  C   UNL A   1      43.000  28.706  33.829  1.00  0.00     0.037 A 
BRANCH  49  63
ATOM     63  C   UNL A   1      39.556  33.252  36.213  1.00  0.00     0.064 A 
ATOM     64  C   UNL A   1      38.701  32.906  37.273  1.00  0.00     0.173 A 
ATOM     65  C   UNL A   1      40.199  34.497  36.275  1.00  0.00     0.173 A 
ATOM     66  F   UNL A   1      38.052  31.732  37.261  1.00  0.00    -0.203 F 
ATOM     67  C   UNL A   1      38.474  33.785  38.330  1.00  0.00     0.198 A 
ATOM     68  C   UNL A   1      39.997  35.358  37.351  1.00  0.00     0.198 A 
ATOM     69  F   UNL A   1      41.031  34.879  35.295  1.00  0.00    -0.203 F 
ATOM     70  F   UNL A   1      37.608  33.455  39.299  1.00  0.00    -0.200 F 
ATOM     71  C   UNL A   1      39.128  35.006  38.371  1.00  0.00     0.200 A 
ATOM     72  F   UNL A   1      40.642  36.533  37.399  1.00  0.00    -0.200 F 
ATOM     73  F   UNL A   1      38.914  35.848  39.393  1.00  0.00    -0.200 F 
ENDBRANCH  49  63
BRANCH  50  74
ATOM     74  C   UNL A   1      41.155  27.538  28.175  1.00  0.00     0.064 A 
ATOM     75  C   UNL A   1      40.605  26.256  28.043  1.00  0.00     0.173 A 
ATOM     76  C   UNL A   1      41.966  28.009  27.132  1.00  0.00     0.173 A 
ATOM     77  F   UNL A   1      39.837  25.752  29.022  1.00  0.00    -0.203 F 
ATOM     78  C   UNL A   1      40.874  25.468  26.926  1.00  0.00     0.198 A 
ATOM     79  C   UNL A   1      42.208  27.234  26.001  1.00  0.00     0.198 A 
ATOM     80  F   UNL A   1      42.512  29.233  27.206  1.00  0.00    -0.203 F 
ATOM     81  F   UNL A   1      40.376  24.226  26.849  1.00  0.00    -0.200 F 
ATOM     82  C   UNL A   1      41.670  25.960  25.903  1.00  0.00     0.200 A 
ATOM     83  F   UNL A   1      42.963  27.721  25.007  1.00  0.00    -0.200 F 
ATOM     84  F   UNL A   1      41.925  25.203  24.826  1.00  0.00    -0.200 F 
ENDBRANCH  50  74
BRANCH  62  85
ATOM     85  C   UNL A   1      44.121  27.940  34.472  1.00  0.00     0.064 A 
ATOM     86  C   UNL A   1      45.450  28.390  34.427  1.00  0.00     0.173 A 
ATOM     87  C   UNL A   1      43.857  26.750  35.168  1.00  0.00     0.173 A 
ATOM     88  F   UNL A   1      45.759  29.514  33.764  1.00  0.00    -0.203 F 
ATOM     89  C   UNL A   1      46.474  27.659  35.022  1.00  0.00     0.198 A 
ATOM     90  C   UNL A   1      44.879  26.041  35.794  1.00  0.00     0.198 A 
ATOM     91  F   UNL A   1      42.604  26.278  35.252  1.00  0.00    -0.203 F 
ATOM     92  F   UNL A   1      47.744  28.077  34.911  1.00  0.00    -0.200 F 
ATOM     93  C   UNL A   1      46.188  26.490  35.710  1.00  0.00     0.200 A 
ATOM     94  F   UNL A   1      44.596  24.922  36.474  1.00  0.00    -0.200 F 
ATOM     95  F   UNL A   1      47.175  25.790  36.285  1.00  0.00    -0.200 F 
ENDBRANCH  62  85
ENDBRANCH  36  37
ENDBRANCH  28  31
ENDBRANCH  26  27
ENDBRANCH  25  26
ENDBRANCH   1  25
TORSDOF 13
ENDMDL
MODEL 2
REMARK VINA RESULT:     -12.6      1.895      3.213
REMARK SMILES O=C(NCCCNC(=O)c1ccc(-c2c3nc(c(-c4c(F)c(F)c(F)c(F)c4F)c4ccc([nH]4)c(-c4c(F)c(F)c(F)c(F)c4F)c4nc(c(-c5c(F)c(F)c(F)c(F)c5F)c5ccc2[nH]5)C=C4)C=C3)cc1)c1ccc(CNC(=O)c2c(F)cccc2Cl)cc1
REMARK SMILES IDX 4 1 3 2 1 3 2 4 73 6 74 7 90 8 75 9 89 10 76 11 77 12 78 13
REMARK SMILES IDX 79 14 80 16 81 17 82 18 87 19 83 20 84 21 86 22 88 23 85 24
REMARK SMILES IDX 5 25 6 26 7 27 8 28 9 30 10 31 11 32 72 33 12 34 71 35 13 36
REMARK SMILES IDX 14 37 15 38 65 39 16 40 70 41 64 42 66 43 17 44 69 45 63 46
REMARK SMILES IDX 62 47 18 49 50 50 30 51 49 52 31 53 34 54 48 55 67 56 32 57
REMARK SMILES IDX 33 58 47 60 68 61 35 62 19 63 20 64 28 65 21 66 22 67 26 68
REMARK SMILES IDX 29 69 23 70 24 71 27 72 25 73 51 74 52 75 60 76 53 77 54 78
REMARK SMILES IDX 58 79 61 80 55 81 56 82 59 83 57 84 36 85 37 86 45 87 38 88
REMARK SMILES IDX 39 89 43 90 46 91 40 92 41 93 44 94 42 95
REMARK H PARENT 3 5 78 15 7 29 66 48 34 59
REMARK Flexibility Score: inf
ROOT
ATOM      1  C   UNL A   1      31.330  29.732  24.941  1.00  0.00     0.118 C 
ENDROOT
BRANCH   1   2
ATOM      2  N   UNL A   1      30.660  29.990  23.675  1.00  0.00    -0.352 N 
ATOM      3  O   UNL A   1      29.909  29.525  21.601  1.00  0.00    -0.269 OA
ATOM      4  C   UNL A   1      30.286  29.109  22.695  1.00  0.00     0.251 C 
ATOM      5  H   UNL A   1      30.445  30.934  23.497  1.00  0.00     0.163 HD
BRANCH   4   6
ATOM      6  C   UNL A   1      30.358  27.657  22.944  1.00  0.00     0.039 A 
ATOM      7  C   UNL A   1      29.370  27.007  23.690  1.00  0.00     0.014 A 
ATOM      8  C   UNL A   1      31.420  26.933  22.400  1.00  0.00     0.014 A 
ATOM      9  C   UNL A   1      29.495  25.650  23.974  1.00  0.00     0.006 A 
ATOM     10  C   UNL A   1      31.529  25.567  22.661  1.00  0.00     0.006 A 
ATOM     11  C   UNL A   1      30.578  24.919  23.466  1.00  0.00    -0.029 A 
BRANCH  11  12
ATOM     12  C   UNL A   1      30.656  23.435  23.692  1.00  0.00     0.152 C 
BRANCH  12  13
ATOM     13  N   UNL A   1      30.513  23.072  25.088  1.00  0.00    -0.348 N 
ATOM     14  C   UNL A   1      31.368  23.291  26.140  1.00  0.00     0.256 C 
ATOM     15  H   UNL A   1      29.681  22.597  25.315  1.00  0.00     0.164 HD
ATOM     16  O   UNL A   1      31.044  22.968  27.278  1.00  0.00    -0.269 OA
BRANCH  14  17
ATOM     17  C   UNL A   1      32.703  23.859  25.904  1.00  0.00     0.094 A 
ATOM     18  C   UNL A   1      33.724  22.969  25.568  1.00  0.00     0.137 A 
ATOM     19  C   UNL A   1      32.994  25.222  26.013  1.00  0.00     0.056 A 
ATOM     20  F   UNL A   1      33.489  21.651  25.481  1.00  0.00    -0.206 F 
ATOM     21  C   UNL A   1      35.009  23.427  25.282  1.00  0.00     0.040 A 
ATOM     22  C   UNL A   1      34.273  25.688  25.687  1.00  0.00     0.021 A 
ATOM     23  Cl  UNL A   1      31.838  26.385  26.560  1.00  0.00    -0.083 Cl
ATOM     24  C   UNL A   1      35.279  24.792  25.317  1.00  0.00     0.005 A 
ENDBRANCH  14  17
ENDBRANCH  12  13
ENDBRANCH  11  12
ENDBRANCH   4   6
ENDBRANCH   1   2
BRANCH   1  25
ATOM     25  C   UNL A   1      32.785  29.332  24.757  1.00  0.00     0.042 C 
BRANCH  25  26
ATOM     26  C   UNL A   1      33.666  29.618  25.964  1.00  0.00     0.118 C 
BRANCH  26  27
ATOM     27  N   UNL A   1      33.432  30.939  26.532  1.00  0.00    -0.352 N 
ATOM     28  C   UNL A   1      34.065  31.598  27.554  1.00  0.00     0.251 C 
ATOM     29  H   UNL A   1      32.698  31.443  26.111  1.00  0.00     0.163 HD
ATOM     30  O   UNL A   1      33.581  32.640  27.989  1.00  0.00    -0.269 OA
BRANCH  28  31
ATOM     31  C   UNL A   1      35.309  31.063  28.148  1.00  0.00     0.039 A 
ATOM     32  C   UNL A   1      36.472  31.835  28.071  1.00  0.00     0.014 A 
ATOM     33  C   UNL A   1      35.354  29.799  28.740  1.00  0.00     0.014 A 
ATOM     34  C   UNL A   1      37.660  31.360  28.628  1.00  0.00     0.010 A 
ATOM     35  C   UNL A   1      36.510  29.372  29.387  1.00  0.00     0.010 A 
ATOM     36  C   UNL A   1      37.682  30.136  29.319  1.00  0.00    -0.014 A 
BRANCH  36  37
ATOM     37  C   UNL A   1      38.931  29.638  29.950  1.00  0.00     0.031 A 
ATOM     38  C   UNL A   1      39.405  30.216  31.256  1.00  0.00     0.074 A 
ATOM     39  C   UNL A   1      39.663  28.696  29.324  1.00  0.00     0.049 A 
ATOM     40  N   UNL A   1      40.479  29.927  31.950  1.00  0.00    -0.248 NA
ATOM     41  C   UNL A   1      38.582  31.281  31.849  1.00  0.00     0.031 C 
ATOM     42  C   UNL A   1      39.341  28.100  28.027  1.00  0.00     0.029 A 
ATOM     43  N   UNL A   1      40.831  28.076  29.694  1.00  0.00    -0.354 N 
ATOM     44  C   UNL A   1      40.464  30.781  33.045  1.00  0.00     0.074 A 
ATOM     45  C   UNL A   1      39.312  31.643  32.893  1.00  0.00     0.031 C 
ATOM     46  C   UNL A   1      40.270  27.179  27.724  1.00  0.00     0.029 A 
ATOM     47  C   UNL A   1      41.272  27.147  28.784  1.00  0.00     0.049 A 
ATOM     48  H   UNL A   1      41.306  28.278  30.532  1.00  0.00     0.167 HD
ATOM     49  C   UNL A   1      41.316  30.825  34.096  1.00  0.00     0.037 A 
ATOM     50  C   UNL A   1      42.364  26.361  28.802  1.00  0.00     0.037 A 
ATOM     51  C   UNL A   1      42.448  29.949  34.254  1.00  0.00     0.049 A 
ATOM     52  C   UNL A   1      43.294  26.424  29.983  1.00  0.00     0.074 A 
ATOM     53  C   UNL A   1      43.334  29.866  35.314  1.00  0.00     0.029 A 
ATOM     54  N   UNL A   1      42.855  29.008  33.319  1.00  0.00    -0.354 N 
ATOM     55  N   UNL A   1      43.223  27.177  31.054  1.00  0.00    -0.248 NA
ATOM     56  C   UNL A   1      44.450  25.519  29.964  1.00  0.00     0.031 C 
ATOM     57  C   UNL A   1      44.311  28.918  34.993  1.00  0.00     0.029 A 
ATOM     58  C   UNL A   1      43.997  28.360  33.764  1.00  0.00     0.049 A 
ATOM     59  H   UNL A   1      42.399  28.826  32.465  1.00  0.00     0.167 HD
ATOM     60  C   UNL A   1      44.304  26.816  31.848  1.00  0.00     0.074 A 
ATOM     61  C   UNL A   1      45.003  25.763  31.142  1.00  0.00     0.031 C 
ATOM     62  C   UNL A   1      44.682  27.311  33.052  1.00  0.00     0.037 A 
BRANCH  49  63
ATOM     63  C   UNL A   1      41.060  31.857  35.158  1.00  0.00     0.064 A 
ATOM     64  C   UNL A   1      41.784  33.059  35.214  1.00  0.00     0.173 A 
ATOM     65  C   UNL A   1      40.056  31.656  36.118  1.00  0.00     0.173 A 
ATOM     66  F   UNL A   1      42.763  33.300  34.328  1.00  0.00    -0.203 F 
ATOM     67  C   UNL A   1      41.537  34.002  36.209  1.00  0.00     0.198 A 
ATOM     68  C   UNL A   1      39.787  32.617  37.089  1.00  0.00     0.198 A 
ATOM     69  F   UNL A   1      39.328  30.529  36.110  1.00  0.00    -0.203 F 
ATOM     70  F   UNL A   1      42.282  35.114  36.275  1.00  0.00    -0.200 F 
ATOM     71  C   UNL A   1      40.534  33.783  37.140  1.00  0.00     0.200 A 
ATOM     72  F   UNL A   1      38.807  32.412  37.980  1.00  0.00    -0.200 F 
ATOM     73  F   UNL A   1      40.293  34.695  38.093  1.00  0.00    -0.200 F 
ENDBRANCH  49  63
BRANCH  50  74
ATOM     74  C   UNL A   1      42.623  25.426  27.674  1.00  0.00     0.064 A 
ATOM     75  C   UNL A   1      43.474  25.783  26.619  1.00  0.00     0.173 A 
ATOM     76  C   UNL A   1      42.023  24.159  27.626  1.00  0.00     0.173 A 
ATOM     77  F   UNL A   1      44.058  26.991  26.609  1.00  0.00    -0.203 F 
ATOM     78  C   UNL A   1      43.697  24.919  25.548  1.00  0.00     0.198 A 
ATOM     79  C   UNL A   1      42.272  23.283  26.572  1.00  0.00     0.198 A 
ATOM     80  F   UNL A   1      41.204  23.765  28.613  1.00  0.00    -0.203 F 
ATOM     81  F   UNL A   1      44.475  25.307  24.529  1.00  0.00    -0.200 F 
ATOM     82  C   UNL A   1      43.100  23.668  25.529  1.00  0.00     0.200 A 
ATOM     83  F   UNL A   1      41.707  22.068  26.566  1.00  0.00    -0.200 F 
ATOM     84  F   UNL A   1      43.319  22.835  24.501  1.00  0.00    -0.200 F 
ENDBRANCH  50  74
BRANCH  62  85
ATOM     85  C   UNL A   1      45.887  26.693  33.702  1.00  0.00     0.064 A 
ATOM     86  C   UNL A   1      45.787  25.569  34.537  1.00  0.00     0.173 A 
ATOM     87  C   UNL A   1      47.167  27.219  33.465  1.00  0.00     0.173 A 
ATOM     88  F   UNL A   1      44.587  25.035  34.807  1.00  0.00    -0.203 F 
ATOM     89  C   UNL A   1      46.917  25.019  35.137  1.00  0.00     0.198 A 
ATOM     90  C   UNL A   1      48.299  26.645  34.037  1.00  0.00     0.198 A 
ATOM     91  F   UNL A   1      47.323  28.288  32.668  1.00  0.00    -0.203 F 
ATOM     92  F   UNL A   1      46.788  23.984  35.979  1.00  0.00    -0.200 F 
ATOM     93  C   UNL A   1      48.171  25.552  34.881  1.00  0.00     0.200 A 
ATOM     94  F   UNL A   1      49.511  27.150  33.774  1.00  0.00    -0.200 F 
ATOM     95  F   UNL A   1      49.257  25.018  35.457  1.00  0.00    -0.200 F 
ENDBRANCH  62  85
ENDBRANCH  36  37
ENDBRANCH  28  31
ENDBRANCH  26  27
ENDBRANCH  25  26
ENDBRANCH   1  25
TORSDOF 13
ENDMDL
MODEL 3
REMARK VINA RESULT:     -12.6      1.824      2.374
REMARK SMILES O=C(NCCCNC(=O)c1ccc(-c2c3nc(c(-c4c(F)c(F)c(F)c(F)c4F)c4ccc([nH]4)c(-c4c(F)c(F)c(F)c(F)c4F)c4nc(c(-c5c(F)c(F)c(F)c(F)c5F)c5ccc2[nH]5)C=C4)C=C3)cc1)c1ccc(CNC(=O)c2c(F)cccc2Cl)cc1
REMARK SMILES IDX 4 1 3 2 1 3 2 4 73 6 74 7 90 8 75 9 89 10 76 11 77 12 78 13
REMARK SMILES IDX 79 14 80 16 81 17 82 18 87 19 83 20 84 21 86 22 88 23 85 24
REMARK SMILES IDX 5 25 6 26 7 27 8 28 9 30 10 31 11 32 72 33 12 34 71 35 13 36
REMARK SMILES IDX 14 37 15 38 65 39 16 40 70 41 64 42 66 43 17 44 69 45 63 46
REMARK SMILES IDX 62 47 18 49 50 50 30 51 49 52 31 53 34 54 48 55 67 56 32 57
REMARK SMILES IDX 33 58 47 60 68 61 35 62 19 63 20 64 28 65 21 66 22 67 26 68
REMARK SMILES IDX 29 69 23 70 24 71 27 72 25 73 51 74 52 75 60 76 53 77 54 78
REMARK SMILES IDX 58 79 61 80 55 81 56 82 59 83 57 84 36 85 37 86 45 87 38 88
REMARK SMILES IDX 39 89 43 90 46 91 40 92 41 93 44 94 42 95
REMARK H PARENT 3 5 78 15 7 29 66 48 34 59
REMARK Flexibility Score: inf
ROOT
ATOM      1  C   UNL A   1      31.786  30.606  26.641  1.00  0.00     0.118 C 
ENDROOT
BRANCH   1   2
ATOM      2  N   UNL A   1      33.165  30.275  26.966  1.00  0.00    -0.352 N 
ATOM      3  O   UNL A   1      34.955  28.936  27.264  1.00  0.00    -0.269 OA
ATOM      4  C   UNL A   1      33.854  29.111  26.744  1.00  0.00     0.251 C 
ATOM      5  H   UNL A   1      33.676  30.989  27.410  1.00  0.00     0.163 HD
BRANCH   4   6
ATOM      6  C   UNL A   1      33.264  28.057  25.898  1.00  0.00     0.039 A 
ATOM      7  C   UNL A   1      33.518  28.014  24.524  1.00  0.00     0.014 A 
ATOM      8  C   UNL A   1      32.465  27.081  26.497  1.00  0.00     0.014 A 
ATOM      9  C   UNL A   1      32.894  27.053  23.733  1.00  0.00     0.006 A 
ATOM     10  C   UNL A   1      31.864  26.102  25.708  1.00  0.00     0.006 A 
ATOM     11  C   UNL A   1      32.058  26.092  24.317  1.00  0.00    -0.029 A 
BRANCH  11  12
ATOM     12  C   UNL A   1      31.466  24.997  23.473  1.00  0.00     0.152 C 
BRANCH  12  13
ATOM     13  N   UNL A   1      32.289  24.665  22.327  1.00  0.00    -0.348 N 
ATOM     14  C   UNL A   1      33.074  23.561  22.106  1.00  0.00     0.256 C 
ATOM     15  H   UNL A   1      32.284  25.329  21.601  1.00  0.00     0.164 HD
ATOM     16  O   UNL A   1      33.653  23.417  21.034  1.00  0.00    -0.269 OA
BRANCH  14  17
ATOM     17  C   UNL A   1      33.277  22.570  23.173  1.00  0.00     0.094 A 
ATOM     18  C   UNL A   1      32.493  21.416  23.129  1.00  0.00     0.137 A 
ATOM     19  C   UNL A   1      34.190  22.735  24.218  1.00  0.00     0.056 A 
ATOM     20  F   UNL A   1      31.586  21.236  22.157  1.00  0.00    -0.206 F 
ATOM     21  C   UNL A   1      32.653  20.405  24.073  1.00  0.00     0.040 A 
ATOM     22  C   UNL A   1      34.381  21.702  25.145  1.00  0.00     0.021 A 
ATOM     23  Cl  UNL A   1      35.103  24.186  24.444  1.00  0.00    -0.083 Cl
ATOM     24  C   UNL A   1      33.617  20.536  25.070  1.00  0.00     0.005 A 
ENDBRANCH  14  17
ENDBRANCH  12  13
ENDBRANCH  11  12
ENDBRANCH   4   6
ENDBRANCH   1   2
BRANCH   1  25
ATOM     25  C   UNL A   1      31.470  32.075  26.876  1.00  0.00     0.042 C 
BRANCH  25  26
ATOM     26  C   UNL A   1      32.696  32.975  26.909  1.00  0.00     0.118 C 
BRANCH  26  27
ATOM     27  N   UNL A   1      32.458  34.227  27.614  1.00  0.00    -0.352 N 
ATOM     28  C   UNL A   1      33.031  34.736  28.751  1.00  0.00     0.251 C 
ATOM     29  H   UNL A   1      31.773  34.805  27.206  1.00  0.00     0.163 HD
ATOM     30  O   UNL A   1      32.546  35.736  29.274  1.00  0.00    -0.269 OA
BRANCH  28  31
ATOM     31  C   UNL A   1      34.211  34.088  29.364  1.00  0.00     0.039 A 
ATOM     32  C   UNL A   1      34.006  33.127  30.358  1.00  0.00     0.014 A 
ATOM     33  C   UNL A   1      35.512  34.444  29.002  1.00  0.00     0.014 A 
ATOM     34  C   UNL A   1      35.100  32.494  30.950  1.00  0.00     0.010 A 
ATOM     35  C   UNL A   1      36.597  33.740  29.515  1.00  0.00     0.010 A 
ATOM     36  C   UNL A   1      36.406  32.773  30.511  1.00  0.00    -0.014 A 
BRANCH  36  37
ATOM     37  C   UNL A   1      37.576  32.078  31.106  1.00  0.00     0.031 A 
ATOM     38  C   UNL A   1      38.053  32.441  32.486  1.00  0.00     0.074 A 
ATOM     39  C   UNL A   1      38.236  31.151  30.386  1.00  0.00     0.049 A 
ATOM     40  N   UNL A   1      39.066  31.963  33.165  1.00  0.00    -0.248 NA
ATOM     41  C   UNL A   1      37.314  33.503  33.187  1.00  0.00     0.031 C 
ATOM     42  C   UNL A   1      37.909  30.754  29.016  1.00  0.00     0.029 A 
ATOM     43  N   UNL A   1      39.324  30.376  30.705  1.00  0.00    -0.354 N 
ATOM     44  C   UNL A   1      39.092  32.673  34.359  1.00  0.00     0.074 A 
ATOM     45  C   UNL A   1      38.035  33.658  34.287  1.00  0.00     0.031 C 
ATOM     46  C   UNL A   1      38.754  29.788  28.624  1.00  0.00     0.029 A 
ATOM     47  C   UNL A   1      39.707  29.526  29.698  1.00  0.00     0.049 A 
ATOM     48  H   UNL A   1      39.784  30.425  31.574  1.00  0.00     0.167 HD
ATOM     49  C   UNL A   1      39.903  32.502  35.429  1.00  0.00     0.037 A 
ATOM     50  C   UNL A   1      40.717  28.637  29.645  1.00  0.00     0.037 A 
ATOM     51  C   UNL A   1      40.939  31.504  35.505  1.00  0.00     0.049 A 
ATOM     52  C   UNL A   1      41.603  28.462  30.848  1.00  0.00     0.074 A 
ATOM     53  C   UNL A   1      41.771  31.203  36.568  1.00  0.00     0.029 A 
ATOM     54  N   UNL A   1      41.288  30.648  34.470  1.00  0.00    -0.354 N 
ATOM     55  N   UNL A   1      41.564  29.081  32.003  1.00  0.00    -0.248 NA
ATOM     56  C   UNL A   1      42.667  27.454  30.745  1.00  0.00     0.031 C 
ATOM     57  C   UNL A   1      42.664  30.208  36.156  1.00  0.00     0.029 A 
ATOM     58  C   UNL A   1      42.344  29.839  34.860  1.00  0.00     0.049 A 
ATOM     59  H   UNL A   1      40.850  30.620  33.589  1.00  0.00     0.167 HD
ATOM     60  C   UNL A   1      42.574  28.518  32.773  1.00  0.00     0.074 A 
ATOM     61  C   UNL A   1      43.195  27.495  31.959  1.00  0.00     0.031 C 
ATOM     62  C   UNL A   1      42.952  28.822  34.040  1.00  0.00     0.037 A 
BRANCH  49  63
ATOM     63  C   UNL A   1      39.707  33.416  36.605  1.00  0.00     0.064 A 
ATOM     64  C   UNL A   1      38.832  33.096  37.656  1.00  0.00     0.173 A 
ATOM     65  C   UNL A   1      40.427  34.617  36.700  1.00  0.00     0.173 A 
ATOM     66  F   UNL A   1      38.110  31.966  37.613  1.00  0.00    -0.203 F 
ATOM     67  C   UNL A   1      38.659  33.959  38.736  1.00  0.00     0.198 A 
ATOM     68  C   UNL A   1      40.278  35.460  37.799  1.00  0.00     0.198 A 
ATOM     69  F   UNL A   1      41.282  34.973  35.729  1.00  0.00    -0.203 F 
ATOM     70  F   UNL A   1      37.774  33.658  39.696  1.00  0.00    -0.200 F 
ATOM     71  C   UNL A   1      39.387  35.135  38.810  1.00  0.00     0.200 A 
ATOM     72  F   UNL A   1      40.995  36.590  37.877  1.00  0.00    -0.200 F 
ATOM     73  F   UNL A   1      39.225  35.961  39.854  1.00  0.00    -0.200 F 
ENDBRANCH  49  63
BRANCH  50  74
ATOM     74  C   UNL A   1      40.927  27.826  28.415  1.00  0.00     0.064 A 
ATOM     75  C   UNL A   1      40.303  26.582  28.253  1.00  0.00     0.173 A 
ATOM     76  C   UNL A   1      41.758  28.277  27.378  1.00  0.00     0.173 A 
ATOM     77  F   UNL A   1      39.514  26.098  29.225  1.00  0.00    -0.203 F 
ATOM     78  C   UNL A   1      40.519  25.809  27.115  1.00  0.00     0.198 A 
ATOM     79  C   UNL A   1      41.947  27.519  26.226  1.00  0.00     0.198 A 
ATOM     80  F   UNL A   1      42.374  29.465  27.479  1.00  0.00    -0.203 F 
ATOM     81  F   UNL A   1      39.949  24.600  27.010  1.00  0.00    -0.200 F 
ATOM     82  C   UNL A   1      41.336  26.281  26.099  1.00  0.00     0.200 A 
ATOM     83  F   UNL A   1      42.724  27.987  25.239  1.00  0.00    -0.200 F 
ATOM     84  F   UNL A   1      41.540  25.540  25.001  1.00  0.00    -0.200 F 
ENDBRANCH  50  74
BRANCH  62  85
ATOM     85  C   UNL A   1      44.066  28.011  34.638  1.00  0.00     0.064 A 
ATOM     86  C   UNL A   1      45.406  28.423  34.566  1.00  0.00     0.173 A 
ATOM     87  C   UNL A   1      43.785  26.815  35.317  1.00  0.00     0.173 A 
ATOM     88  F   UNL A   1      45.731  29.551  33.918  1.00  0.00    -0.203 F 
ATOM     89  C   UNL A   1      46.423  27.650  35.119  1.00  0.00     0.198 A 
ATOM     90  C   UNL A   1      44.801  26.063  35.901  1.00  0.00     0.198 A 
ATOM     91  F   UNL A   1      42.520  26.378  35.425  1.00  0.00    -0.203 F 
ATOM     92  F   UNL A   1      47.701  28.032  34.983  1.00  0.00    -0.200 F 
ATOM     93  C   UNL A   1      46.120  26.475  35.792  1.00  0.00     0.200 A 
ATOM     94  F   UNL A   1      44.503  24.940  36.566  1.00  0.00    -0.200 F 
ATOM     95  F   UNL A   1      47.101  25.735  36.326  1.00  0.00    -0.200 F 
ENDBRANCH  62  85
ENDBRANCH  36  37
ENDBRANCH  28  31
ENDBRANCH  26  27
ENDBRANCH  25  26
ENDBRANCH   1  25
TORSDOF 13
ENDMDL
