MODEL 1
REMARK VINA RESULT:     -12.2      0.000      0.000
REMARK SMILES CC(C)COc1cccc(N2C[C@@H](C(=O)NCCCNC(=O)c3ccc(-c4c5nc(c(-c6c(F)c(F)c(F)c(F)c6F)c6ccc([nH]6)c(-c6c(F)c(F)c(F)c(F)c6F)c6nc(c(-c7c(F)c(F)c(F)c(F)c7F)c7ccc4[nH]7)C=C6)C=C5)cc3)CC2=O)c1
REMARK SMILES IDX 17 1 16 2 14 3 15 4 13 6 11 7 12 8 87 9 86 10 88 11 10 12
REMARK SMILES IDX 6 13 7 14 89 15 8 16 9 17 5 18 4 19 2 20 1 21 3 22 18 23
REMARK SMILES IDX 19 24 20 25 21 26 22 28 23 29 24 30 85 31 25 32 84 33 26 34
REMARK SMILES IDX 27 35 28 36 78 37 29 38 83 39 77 40 79 41 30 42 82 43 76 44
REMARK SMILES IDX 75 45 31 47 63 48 43 49 62 50 44 51 47 52 61 53 80 54 45 55
REMARK SMILES IDX 46 56 60 58 81 59 48 60 32 61 33 62 41 63 34 64 35 65 39 66
REMARK SMILES IDX 42 67 36 68 37 69 40 70 38 71 64 72 65 73 73 74 66 75 67 76
REMARK SMILES IDX 71 77 74 78 68 79 69 80 72 81 70 82 49 83 50 84 58 85 51 86
REMARK SMILES IDX 52 87 56 88 59 89 53 90 54 91 57 92 55 93
REMARK H PARENT 16 5 20 27 79 46 47 57
REMARK Flexibility Score: inf
ROOT
ATOM      1  C   UNL A   1      31.505  30.795  25.979  1.00  0.00     0.117 C 
ENDROOT
BRANCH   1   2
ATOM      2  N   UNL A   1      32.793  30.191  26.272  1.00  0.00    -0.356 N 
ATOM      3  C   UNL A   1      33.455  29.131  25.744  1.00  0.00     0.225 C 
ATOM      4  O   UNL A   1      34.581  28.902  26.196  1.00  0.00    -0.275 OA
ATOM      5  H   UNL A   1      33.284  30.640  26.999  1.00  0.00     0.163 HD
BRANCH   3   6
ATOM      6  C   UNL A   1      32.900  28.241  24.652  1.00  0.00     0.107 C 
ATOM      7  N   UNL A   1      33.241  26.107  23.720  1.00  0.00    -0.311 N 
ATOM      8  C   UNL A   1      32.950  26.760  24.976  1.00  0.00     0.139 C 
ATOM      9  C   UNL A   1      33.624  27.018  22.733  1.00  0.00     0.227 C 
ATOM     10  C   UNL A   1      33.568  28.407  23.301  1.00  0.00     0.116 C 
ATOM     11  O   UNL A   1      33.981  26.799  21.582  1.00  0.00    -0.274 OA
BRANCH   7  12
ATOM     12  C   UNL A   1      33.392  24.697  23.636  1.00  0.00     0.047 A 
ATOM     13  C   UNL A   1      34.225  22.678  24.672  1.00  0.00     0.121 A 
ATOM     14  C   UNL A   1      33.425  21.889  23.856  1.00  0.00     0.046 A 
ATOM     15  C   UNL A   1      34.305  24.049  24.467  1.00  0.00     0.072 A 
ATOM     16  C   UNL A   1      32.609  22.508  22.910  1.00  0.00     0.006 A 
ATOM     17  C   UNL A   1      32.553  23.908  22.839  1.00  0.00     0.026 A 
BRANCH  13  18
ATOM     18  O   UNL A   1      34.942  22.132  25.700  1.00  0.00    -0.493 OA
BRANCH  18  19
ATOM     19  C   UNL A   1      36.260  22.720  25.804  1.00  0.00     0.232 C 
BRANCH  19  20
ATOM     20  C   UNL A   1      37.374  21.904  25.095  1.00  0.00     0.020 C 
ATOM     21  C   UNL A   1      38.714  21.951  25.844  1.00  0.00     0.011 C 
ATOM     22  C   UNL A   1      36.974  20.429  24.977  1.00  0.00     0.011 C 
ENDBRANCH  19  20
ENDBRANCH  18  19
ENDBRANCH  13  18
ENDBRANCH   7  12
ENDBRANCH   3   6
ENDBRANCH   1   2
BRANCH   1  23
ATOM     23  C   UNL A   1      31.287  32.116  26.714  1.00  0.00     0.042 C 
BRANCH  23  24
ATOM     24  C   UNL A   1      32.559  32.798  27.216  1.00  0.00     0.118 C 
BRANCH  24  25
ATOM     25  N   UNL A   1      32.352  34.189  27.596  1.00  0.00    -0.352 N 
ATOM     26  C   UNL A   1      32.978  34.963  28.544  1.00  0.00     0.251 C 
ATOM     27  H   UNL A   1      31.647  34.652  27.090  1.00  0.00     0.163 HD
ATOM     28  O   UNL A   1      32.522  36.072  28.810  1.00  0.00    -0.269 OA
BRANCH  26  29
ATOM     29  C   UNL A   1      34.172  34.474  29.272  1.00  0.00     0.039 A 
ATOM     30  C   UNL A   1      33.997  33.892  30.532  1.00  0.00     0.014 A 
ATOM     31  C   UNL A   1      35.459  34.609  28.746  1.00  0.00     0.014 A 
ATOM     32  C   UNL A   1      35.096  33.371  31.220  1.00  0.00     0.010 A 
ATOM     33  C   UNL A   1      36.543  34.018  29.395  1.00  0.00     0.010 A 
ATOM     34  C   UNL A   1      36.373  33.384  30.635  1.00  0.00    -0.014 A 
BRANCH  34  35
ATOM     35  C   UNL A   1      37.525  32.706  31.287  1.00  0.00     0.031 A 
ATOM     36  C   UNL A   1      38.193  31.526  30.638  1.00  0.00     0.074 A 
ATOM     37  C   UNL A   1      37.927  33.115  32.507  1.00  0.00     0.049 A 
ATOM     38  N   UNL A   1      39.166  30.773  31.088  1.00  0.00    -0.248 NA
ATOM     39  C   UNL A   1      37.686  31.123  29.317  1.00  0.00     0.031 C 
ATOM     40  C   UNL A   1      37.331  34.216  33.266  1.00  0.00     0.029 A 
ATOM     41  N   UNL A   1      38.922  32.647  33.330  1.00  0.00    -0.354 N 
ATOM     42  C   UNL A   1      39.380  29.805  30.114  1.00  0.00     0.074 A 
ATOM     43  C   UNL A   1      38.399  30.033  29.074  1.00  0.00     0.031 C 
ATOM     44  C   UNL A   1      37.986  34.355  34.428  1.00  0.00     0.029 A 
ATOM     45  C   UNL A   1      39.015  33.324  34.522  1.00  0.00     0.049 A 
ATOM     46  H   UNL A   1      39.513  31.898  33.089  1.00  0.00     0.167 HD
ATOM     47  C   UNL A   1      40.320  28.831  30.082  1.00  0.00     0.037 A 
ATOM     48  C   UNL A   1      39.825  33.129  35.580  1.00  0.00     0.037 A 
ATOM     49  C   UNL A   1      41.301  28.615  31.115  1.00  0.00     0.049 A 
ATOM     50  C   UNL A   1      40.841  32.019  35.531  1.00  0.00     0.074 A 
ATOM     51  C   UNL A   1      42.335  27.694  31.144  1.00  0.00     0.029 A 
ATOM     52  N   UNL A   1      41.361  29.319  32.309  1.00  0.00    -0.354 N 
ATOM     53  N   UNL A   1      41.085  31.162  34.570  1.00  0.00    -0.248 NA
ATOM     54  C   UNL A   1      41.696  31.853  36.715  1.00  0.00     0.031 C 
ATOM     55  C   UNL A   1      42.980  27.799  32.381  1.00  0.00     0.029 A 
ATOM     56  C   UNL A   1      42.392  28.829  33.097  1.00  0.00     0.049 A 
ATOM     57  H   UNL A   1      40.762  30.060  32.559  1.00  0.00     0.167 HD
ATOM     58  C   UNL A   1      42.133  30.371  35.022  1.00  0.00     0.074 A 
ATOM     59  C   UNL A   1      42.493  30.866  36.333  1.00  0.00     0.031 C 
ATOM     60  C   UNL A   1      42.740  29.327  34.404  1.00  0.00     0.037 A 
BRANCH  47  61
ATOM     61  C   UNL A   1      40.334  27.914  28.891  1.00  0.00     0.064 A 
ATOM     62  C   UNL A   1      41.081  28.208  27.739  1.00  0.00     0.173 A 
ATOM     63  C   UNL A   1      39.622  26.704  28.914  1.00  0.00     0.173 A 
ATOM     64  F   UNL A   1      41.775  29.354  27.659  1.00  0.00    -0.203 F 
ATOM     65  C   UNL A   1      41.089  27.345  26.647  1.00  0.00     0.198 A 
ATOM     66  C   UNL A   1      39.659  25.826  27.833  1.00  0.00     0.198 A 
ATOM     67  F   UNL A   1      38.897  26.367  29.992  1.00  0.00    -0.203 F 
ATOM     68  F   UNL A   1      41.766  27.674  25.539  1.00  0.00    -0.200 F 
ATOM     69  C   UNL A   1      40.385  26.152  26.697  1.00  0.00     0.200 A 
ATOM     70  F   UNL A   1      38.992  24.666  27.891  1.00  0.00    -0.200 F 
ATOM     71  F   UNL A   1      40.399  25.317  25.649  1.00  0.00    -0.200 F 
ENDBRANCH  47  61
BRANCH  48  72
ATOM     72  C   UNL A   1      39.716  34.011  36.772  1.00  0.00     0.064 A 
ATOM     73  C   UNL A   1      38.936  33.640  37.875  1.00  0.00     0.173 A 
ATOM     74  C   UNL A   1      40.385  35.243  36.833  1.00  0.00     0.173 A 
ATOM     75  F   UNL A   1      38.260  32.481  37.857  1.00  0.00    -0.203 F 
ATOM     76  C   UNL A   1      38.812  34.475  38.984  1.00  0.00     0.198 A 
ATOM     77  C   UNL A   1      40.287  36.062  37.955  1.00  0.00     0.198 A 
ATOM     78  F   UNL A   1      41.149  35.645  35.806  1.00  0.00    -0.203 F 
ATOM     79  F   UNL A   1      38.021  34.116  40.004  1.00  0.00    -0.200 F 
ATOM     80  C   UNL A   1      39.494  35.681  39.026  1.00  0.00     0.200 A 
ATOM     81  F   UNL A   1      40.961  37.219  37.999  1.00  0.00    -0.200 F 
ATOM     82  F   UNL A   1      39.380  36.480  40.096  1.00  0.00    -0.200 F 
ENDBRANCH  48  72
BRANCH  60  83
ATOM     83  C   UNL A   1      43.875  28.661  35.132  1.00  0.00     0.064 A 
ATOM     84  C   UNL A   1      45.201  29.091  34.980  1.00  0.00     0.173 A 
ATOM     85  C   UNL A   1      43.626  27.604  36.021  1.00  0.00     0.173 A 
ATOM     86  F   UNL A   1      45.496  30.087  34.130  1.00  0.00    -0.203 F 
ATOM     87  C   UNL A   1      46.239  28.469  35.668  1.00  0.00     0.198 A 
ATOM     88  C   UNL A   1      44.662  27.008  36.735  1.00  0.00     0.198 A 
ATOM     89  F   UNL A   1      42.375  27.158  36.209  1.00  0.00    -0.203 F 
ATOM     90  F   UNL A   1      47.505  28.861  35.466  1.00  0.00    -0.200 F 
ATOM     91  C   UNL A   1      45.968  27.435  36.552  1.00  0.00     0.200 A 
ATOM     92  F   UNL A   1      44.395  26.019  37.600  1.00  0.00    -0.200 F 
ATOM     93  F   UNL A   1      46.967  26.843  37.221  1.00  0.00    -0.200 F 
ENDBRANCH  60  83
ENDBRANCH  34  35
ENDBRANCH  26  29
ENDBRANCH  24  25
ENDBRANCH  23  24
ENDBRANCH   1  23
TORSDOF 14
ENDMDL
MODEL 2
REMARK VINA RESULT:     -12.1      1.222      2.287
REMARK SMILES CC(C)COc1cccc(N2C[C@@H](C(=O)NCCCNC(=O)c3ccc(-c4c5nc(c(-c6c(F)c(F)c(F)c(F)c6F)c6ccc([nH]6)c(-c6c(F)c(F)c(F)c(F)c6F)c6nc(c(-c7c(F)c(F)c(F)c(F)c7F)c7ccc4[nH]7)C=C6)C=C5)cc3)CC2=O)c1
REMARK SMILES IDX 17 1 16 2 14 3 15 4 13 6 11 7 12 8 87 9 86 10 88 11 10 12
REMARK SMILES IDX 6 13 7 14 89 15 8 16 9 17 5 18 4 19 2 20 1 21 3 22 18 23
REMARK SMILES IDX 19 24 20 25 21 26 22 28 23 29 24 30 85 31 25 32 84 33 26 34
REMARK SMILES IDX 27 35 28 36 78 37 29 38 83 39 77 40 79 41 30 42 82 43 76 44
REMARK SMILES IDX 75 45 31 47 63 48 43 49 62 50 44 51 47 52 61 53 80 54 45 55
REMARK SMILES IDX 46 56 60 58 81 59 48 60 32 61 33 62 41 63 34 64 35 65 39 66
REMARK SMILES IDX 42 67 36 68 37 69 40 70 38 71 64 72 65 73 73 74 66 75 67 76
REMARK SMILES IDX 71 77 74 78 68 79 69 80 72 81 70 82 49 83 50 84 58 85 51 86
REMARK SMILES IDX 52 87 56 88 59 89 53 90 54 91 57 92 55 93
REMARK H PARENT 16 5 20 27 79 46 47 57
REMARK Flexibility Score: inf
ROOT
ATOM      1  C   UNL A   1      31.601  30.494  26.082  1.00  0.00     0.117 C 
ENDROOT
BRANCH   1   2
ATOM      2  N   UNL A   1      31.292  30.271  24.680  1.00  0.00    -0.356 N 
ATOM      3  C   UNL A   1      30.970  29.159  23.973  1.00  0.00     0.225 C 
ATOM      4  O   UNL A   1      30.712  29.320  22.776  1.00  0.00    -0.275 OA
ATOM      5  H   UNL A   1      31.323  31.090  24.133  1.00  0.00     0.163 HD
BRANCH   3   6
ATOM      6  C   UNL A   1      30.904  27.766  24.564  1.00  0.00     0.107 C 
ATOM      7  N   UNL A   1      31.981  25.681  24.384  1.00  0.00    -0.311 N 
ATOM      8  C   UNL A   1      32.250  27.074  24.664  1.00  0.00     0.139 C 
ATOM      9  C   UNL A   1      30.693  25.488  23.880  1.00  0.00     0.227 C 
ATOM     10  C   UNL A   1      29.984  26.810  23.829  1.00  0.00     0.116 C 
ATOM     11  O   UNL A   1      30.165  24.451  23.499  1.00  0.00    -0.274 OA
BRANCH   7  12
ATOM     12  C   UNL A   1      33.023  24.716  24.361  1.00  0.00     0.047 A 
ATOM     13  C   UNL A   1      33.805  22.553  25.105  1.00  0.00     0.121 A 
ATOM     14  C   UNL A   1      34.774  22.524  24.111  1.00  0.00     0.046 A 
ATOM     15  C   UNL A   1      33.037  23.692  25.308  1.00  0.00     0.072 A 
ATOM     16  C   UNL A   1      34.879  23.608  23.240  1.00  0.00     0.006 A 
ATOM     17  C   UNL A   1      33.972  24.674  23.332  1.00  0.00     0.026 A 
BRANCH  13  18
ATOM     18  O   UNL A   1      33.574  21.464  25.898  1.00  0.00    -0.493 OA
BRANCH  18  19
ATOM     19  C   UNL A   1      33.871  20.228  25.208  1.00  0.00     0.232 C 
BRANCH  19  20
ATOM     20  C   UNL A   1      32.615  19.402  24.820  1.00  0.00     0.020 C 
ATOM     21  C   UNL A   1      32.528  19.121  23.312  1.00  0.00     0.011 C 
ATOM     22  C   UNL A   1      32.616  18.045  25.533  1.00  0.00     0.011 C 
ENDBRANCH  19  20
ENDBRANCH  18  19
ENDBRANCH  13  18
ENDBRANCH   7  12
ENDBRANCH   3   6
ENDBRANCH   1   2
BRANCH   1  23
ATOM     23  C   UNL A   1      31.405  31.947  26.510  1.00  0.00     0.042 C 
BRANCH  23  24
ATOM     24  C   UNL A   1      32.586  32.572  27.251  1.00  0.00     0.118 C 
BRANCH  24  25
ATOM     25  N   UNL A   1      32.375  33.972  27.590  1.00  0.00    -0.352 N 
ATOM     26  C   UNL A   1      32.987  34.772  28.525  1.00  0.00     0.251 C 
ATOM     27  H   UNL A   1      31.678  34.421  27.060  1.00  0.00     0.163 HD
ATOM     28  O   UNL A   1      32.528  35.888  28.753  1.00  0.00    -0.269 OA
BRANCH  26  29
ATOM     29  C   UNL A   1      34.169  34.303  29.283  1.00  0.00     0.039 A 
ATOM     30  C   UNL A   1      33.972  33.718  30.539  1.00  0.00     0.014 A 
ATOM     31  C   UNL A   1      35.467  34.460  28.791  1.00  0.00     0.014 A 
ATOM     32  C   UNL A   1      35.061  33.216  31.255  1.00  0.00     0.010 A 
ATOM     33  C   UNL A   1      36.544  33.888  29.469  1.00  0.00     0.010 A 
ATOM     34  C   UNL A   1      36.352  33.250  30.703  1.00  0.00    -0.014 A 
BRANCH  34  35
ATOM     35  C   UNL A   1      37.498  32.592  31.386  1.00  0.00     0.031 A 
ATOM     36  C   UNL A   1      38.198  31.419  30.757  1.00  0.00     0.074 A 
ATOM     37  C   UNL A   1      37.866  33.012  32.612  1.00  0.00     0.049 A 
ATOM     38  N   UNL A   1      39.171  30.682  31.233  1.00  0.00    -0.248 NA
ATOM     39  C   UNL A   1      37.728  31.003  29.427  1.00  0.00     0.031 C 
ATOM     40  C   UNL A   1      37.238  34.108  33.351  1.00  0.00     0.029 A 
ATOM     41  N   UNL A   1      38.849  32.562  33.460  1.00  0.00    -0.354 N 
ATOM     42  C   UNL A   1      39.421  29.713  30.270  1.00  0.00     0.074 A 
ATOM     43  C   UNL A   1      38.462  29.922  29.206  1.00  0.00     0.031 C 
ATOM     44  C   UNL A   1      37.863  34.262  34.528  1.00  0.00     0.029 A 
ATOM     45  C   UNL A   1      38.904  33.246  34.651  1.00  0.00     0.049 A 
ATOM     46  H   UNL A   1      39.456  31.820  33.237  1.00  0.00     0.167 HD
ATOM     47  C   UNL A   1      40.375  28.752  30.264  1.00  0.00     0.037 A 
ATOM     48  C   UNL A   1      39.693  33.068  35.728  1.00  0.00     0.037 A 
ATOM     49  C   UNL A   1      41.336  28.555  31.320  1.00  0.00     0.049 A 
ATOM     50  C   UNL A   1      40.724  31.972  35.708  1.00  0.00     0.074 A 
ATOM     51  C   UNL A   1      42.381  27.649  31.378  1.00  0.00     0.029 A 
ATOM     52  N   UNL A   1      41.358  29.265  32.512  1.00  0.00    -0.354 N 
ATOM     53  N   UNL A   1      41.003  31.114  34.757  1.00  0.00    -0.248 NA
ATOM     54  C   UNL A   1      41.555  31.823  36.913  1.00  0.00     0.031 C 
ATOM     55  C   UNL A   1      42.996  27.768  32.629  1.00  0.00     0.029 A 
ATOM     56  C   UNL A   1      42.377  28.794  33.326  1.00  0.00     0.049 A 
ATOM     57  H   UNL A   1      40.743  29.998  32.744  1.00  0.00     0.167 HD
ATOM     58  C   UNL A   1      42.052  30.340  35.237  1.00  0.00     0.074 A 
ATOM     59  C   UNL A   1      42.374  30.846  36.554  1.00  0.00     0.031 C 
ATOM     60  C   UNL A   1      42.687  29.302  34.639  1.00  0.00     0.037 A 
BRANCH  47  61
ATOM     61  C   UNL A   1      40.430  27.830  29.078  1.00  0.00     0.064 A 
ATOM     62  C   UNL A   1      39.672  26.650  29.023  1.00  0.00     0.173 A 
ATOM     63  C   UNL A   1      41.221  28.149  27.963  1.00  0.00     0.173 A 
ATOM     64  F   UNL A   1      38.904  26.291  30.063  1.00  0.00    -0.203 F 
ATOM     65  C   UNL A   1      39.729  25.810  27.913  1.00  0.00     0.198 A 
ATOM     66  C   UNL A   1      41.249  27.324  26.841  1.00  0.00     0.198 A 
ATOM     67  F   UNL A   1      41.960  29.269  27.956  1.00  0.00    -0.203 F 
ATOM     68  F   UNL A   1      39.037  24.662  27.908  1.00  0.00    -0.200 F 
ATOM     69  C   UNL A   1      40.510  26.151  26.821  1.00  0.00     0.200 A 
ATOM     70  F   UNL A   1      41.992  27.665  25.779  1.00  0.00    -0.200 F 
ATOM     71  F   UNL A   1      40.558  25.346  25.750  1.00  0.00    -0.200 F 
ENDBRANCH  47  61
BRANCH  48  72
ATOM     72  C   UNL A   1      39.543  33.953  36.913  1.00  0.00     0.064 A 
ATOM     73  C   UNL A   1      40.177  35.202  36.964  1.00  0.00     0.173 A 
ATOM     74  C   UNL A   1      38.768  33.570  38.019  1.00  0.00     0.173 A 
ATOM     75  F   UNL A   1      40.945  35.605  35.941  1.00  0.00    -0.203 F 
ATOM     76  C   UNL A   1      40.058  36.025  38.083  1.00  0.00     0.198 A 
ATOM     77  C   UNL A   1      38.624  34.407  39.122  1.00  0.00     0.198 A 
ATOM     78  F   UNL A   1      38.137  32.387  38.019  1.00  0.00    -0.203 F 
ATOM     79  F   UNL A   1      40.714  37.192  38.125  1.00  0.00    -0.200 F 
ATOM     80  C   UNL A   1      39.276  35.630  39.157  1.00  0.00     0.200 A 
ATOM     81  F   UNL A   1      37.854  34.029  40.151  1.00  0.00    -0.200 F 
ATOM     82  F   UNL A   1      39.157  36.425  40.230  1.00  0.00    -0.200 F 
ENDBRANCH  48  72
BRANCH  60  83
ATOM     83  C   UNL A   1      43.814  28.656  35.396  1.00  0.00     0.064 A 
ATOM     84  C   UNL A   1      45.137  29.106  35.275  1.00  0.00     0.173 A 
ATOM     85  C   UNL A   1      43.561  27.597  36.281  1.00  0.00     0.173 A 
ATOM     86  F   UNL A   1      45.436  30.106  34.431  1.00  0.00    -0.203 F 
ATOM     87  C   UNL A   1      46.167  28.502  35.991  1.00  0.00     0.198 A 
ATOM     88  C   UNL A   1      44.588  27.018  37.021  1.00  0.00     0.198 A 
ATOM     89  F   UNL A   1      42.313  27.131  36.438  1.00  0.00    -0.203 F 
ATOM     90  F   UNL A   1      47.432  28.915  35.819  1.00  0.00    -0.200 F 
ATOM     91  C   UNL A   1      45.891  27.466  36.869  1.00  0.00     0.200 A 
ATOM     92  F   UNL A   1      44.316  26.027  37.881  1.00  0.00    -0.200 F 
ATOM     93  F   UNL A   1      46.883  26.891  37.564  1.00  0.00    -0.200 F 
ENDBRANCH  60  83
ENDBRANCH  34  35
ENDBRANCH  26  29
ENDBRANCH  24  25
ENDBRANCH  23  24
ENDBRANCH   1  23
TORSDOF 14
ENDMDL
MODEL 3
REMARK VINA RESULT:     -12.1      5.624     11.417
REMARK SMILES CC(C)COc1cccc(N2C[C@@H](C(=O)NCCCNC(=O)c3ccc(-c4c5nc(c(-c6c(F)c(F)c(F)c(F)c6F)c6ccc([nH]6)c(-c6c(F)c(F)c(F)c(F)c6F)c6nc(c(-c7c(F)c(F)c(F)c(F)c7F)c7ccc4[nH]7)C=C6)C=C5)cc3)CC2=O)c1
REMARK SMILES IDX 17 1 16 2 14 3 15 4 13 6 11 7 12 8 87 9 86 10 88 11 10 12
REMARK SMILES IDX 6 13 7 14 89 15 8 16 9 17 5 18 4 19 2 20 1 21 3 22 18 23
REMARK SMILES IDX 19 24 20 25 21 26 22 28 23 29 24 30 85 31 25 32 84 33 26 34
REMARK SMILES IDX 27 35 28 36 78 37 29 38 83 39 77 40 79 41 30 42 82 43 76 44
REMARK SMILES IDX 75 45 31 47 63 48 43 49 62 50 44 51 47 52 61 53 80 54 45 55
REMARK SMILES IDX 46 56 60 58 81 59 48 60 32 61 33 62 41 63 34 64 35 65 39 66
REMARK SMILES IDX 42 67 36 68 37 69 40 70 38 71 64 72 65 73 73 74 66 75 67 76
REMARK SMILES IDX 71 77 74 78 68 79 69 80 72 81 70 82 49 83 50 84 58 85 51 86
REMARK SMILES IDX 52 87 56 88 59 89 53 90 54 91 57 92 55 93
REMARK H PARENT 16 5 20 27 79 46 47 57
REMARK Flexibility Score: inf
ROOT
ATOM      1  C   UNL A   1      37.124  20.781  24.700  1.00  0.00     0.117 C 
ENDROOT
BRANCH   1   2
ATOM      2  N   UNL A   1      37.519  22.042  25.304  1.00  0.00    -0.356 N 
ATOM      3  C   UNL A   1      36.836  23.178  25.595  1.00  0.00     0.225 C 
ATOM      4  O   UNL A   1      37.469  24.073  26.164  1.00  0.00    -0.275 OA
ATOM      5  H   UNL A   1      38.472  22.081  25.550  1.00  0.00     0.163 HD
BRANCH   3   6
ATOM      6  C   UNL A   1      35.372  23.395  25.273  1.00  0.00     0.107 C 
ATOM      7  N   UNL A   1      33.697  25.031  25.520  1.00  0.00    -0.311 N 
ATOM      8  C   UNL A   1      35.016  24.836  24.961  1.00  0.00     0.139 C 
ATOM      9  C   UNL A   1      33.320  23.971  26.350  1.00  0.00     0.227 C 
ATOM     10  C   UNL A   1      34.412  22.942  26.356  1.00  0.00     0.116 C 
ATOM     11  O   UNL A   1      32.298  23.842  27.012  1.00  0.00    -0.274 OA
BRANCH   7  12
ATOM     12  C   UNL A   1      33.038  26.287  25.444  1.00  0.00     0.047 A 
ATOM     13  C   UNL A   1      31.086  27.516  24.721  1.00  0.00     0.121 A 
ATOM     14  C   UNL A   1      31.403  28.577  25.558  1.00  0.00     0.046 A 
ATOM     15  C   UNL A   1      31.965  26.451  24.569  1.00  0.00     0.072 A 
ATOM     16  C   UNL A   1      32.557  28.500  26.337  1.00  0.00     0.006 A 
ATOM     17  C   UNL A   1      33.341  27.337  26.319  1.00  0.00     0.026 A 
BRANCH  13  18
ATOM     18  O   UNL A   1      29.903  27.483  24.038  1.00  0.00    -0.493 OA
BRANCH  18  19
ATOM     19  C   UNL A   1      29.971  28.252  22.815  1.00  0.00     0.232 C 
BRANCH  19  20
ATOM     20  C   UNL A   1      28.837  29.302  22.664  1.00  0.00     0.020 C 
ATOM     21  C   UNL A   1      27.470  28.773  23.126  1.00  0.00     0.011 C 
ATOM     22  C   UNL A   1      29.141  30.553  23.494  1.00  0.00     0.011 C 
ENDBRANCH  19  20
ENDBRANCH  18  19
ENDBRANCH  13  18
ENDBRANCH   7  12
ENDBRANCH   3   6
ENDBRANCH   1   2
BRANCH   1  23
ATOM     23  C   UNL A   1      38.102  19.647  25.000  1.00  0.00     0.042 C 
BRANCH  23  24
ATOM     24  C   UNL A   1      39.239  20.005  25.956  1.00  0.00     0.118 C 
BRANCH  24  25
ATOM     25  N   UNL A   1      40.318  19.026  25.955  1.00  0.00    -0.352 N 
ATOM     26  C   UNL A   1      41.678  19.189  26.072  1.00  0.00     0.251 C 
ATOM     27  H   UNL A   1      40.025  18.092  25.854  1.00  0.00     0.163 HD
ATOM     28  O   UNL A   1      42.417  18.228  25.875  1.00  0.00    -0.269 OA
BRANCH  26  29
ATOM     29  C   UNL A   1      42.270  20.506  26.402  1.00  0.00     0.039 A 
ATOM     30  C   UNL A   1      42.862  21.250  25.376  1.00  0.00     0.014 A 
ATOM     31  C   UNL A   1      42.278  21.002  27.708  1.00  0.00     0.014 A 
ATOM     32  C   UNL A   1      43.380  22.520  25.643  1.00  0.00     0.010 A 
ATOM     33  C   UNL A   1      42.722  22.300  27.958  1.00  0.00     0.010 A 
ATOM     34  C   UNL A   1      43.270  23.078  26.927  1.00  0.00    -0.014 A 
BRANCH  34  35
ATOM     35  C   UNL A   1      43.683  24.481  27.194  1.00  0.00     0.031 A 
ATOM     36  C   UNL A   1      42.689  25.498  27.681  1.00  0.00     0.074 A 
ATOM     37  C   UNL A   1      44.950  24.857  26.930  1.00  0.00     0.049 A 
ATOM     38  N   UNL A   1      42.854  26.778  27.905  1.00  0.00    -0.248 NA
ATOM     39  C   UNL A   1      41.320  25.020  27.926  1.00  0.00     0.031 C 
ATOM     40  C   UNL A   1      46.000  23.979  26.410  1.00  0.00     0.029 A 
ATOM     41  N   UNL A   1      45.571  26.077  27.051  1.00  0.00    -0.354 N 
ATOM     42  C   UNL A   1      41.614  27.258  28.306  1.00  0.00     0.074 A 
ATOM     43  C   UNL A   1      40.693  26.144  28.243  1.00  0.00     0.031 C 
ATOM     44  C   UNL A   1      47.136  24.679  26.279  1.00  0.00     0.029 A 
ATOM     45  C   UNL A   1      46.888  26.066  26.659  1.00  0.00     0.049 A 
ATOM     46  H   UNL A   1      45.115  26.882  27.386  1.00  0.00     0.167 HD
ATOM     47  C   UNL A   1      41.281  28.507  28.710  1.00  0.00     0.037 A 
ATOM     48  C   UNL A   1      47.791  27.063  26.596  1.00  0.00     0.037 A 
ATOM     49  C   UNL A   1      42.204  29.611  28.783  1.00  0.00     0.049 A 
ATOM     50  C   UNL A   1      47.385  28.448  27.022  1.00  0.00     0.074 A 
ATOM     51  C   UNL A   1      41.976  30.898  29.240  1.00  0.00     0.029 A 
ATOM     52  N   UNL A   1      43.529  29.562  28.374  1.00  0.00    -0.354 N 
ATOM     53  N   UNL A   1      46.230  28.871  27.474  1.00  0.00    -0.248 NA
ATOM     54  C   UNL A   1      48.413  29.496  26.929  1.00  0.00     0.031 C 
ATOM     55  C   UNL A   1      43.144  31.644  29.049  1.00  0.00     0.029 A 
ATOM     56  C   UNL A   1      44.121  30.806  28.534  1.00  0.00     0.049 A 
ATOM     57  H   UNL A   1      43.983  28.761  28.024  1.00  0.00     0.167 HD
ATOM     58  C   UNL A   1      46.397  30.224  27.742  1.00  0.00     0.074 A 
ATOM     59  C   UNL A   1      47.771  30.545  27.422  1.00  0.00     0.031 C 
ATOM     60  C   UNL A   1      45.490  31.117  28.209  1.00  0.00     0.037 A 
BRANCH  47  61
ATOM     61  C   UNL A   1      39.850  28.755  29.103  1.00  0.00     0.064 A 
ATOM     62  C   UNL A   1      39.411  28.603  30.428  1.00  0.00     0.173 A 
ATOM     63  C   UNL A   1      38.914  29.188  28.151  1.00  0.00     0.173 A 
ATOM     64  F   UNL A   1      40.261  28.184  31.378  1.00  0.00    -0.203 F 
ATOM     65  C   UNL A   1      38.084  28.843  30.776  1.00  0.00     0.198 A 
ATOM     66  C   UNL A   1      37.596  29.460  28.510  1.00  0.00     0.198 A 
ATOM     67  F   UNL A   1      39.281  29.358  26.871  1.00  0.00    -0.203 F 
ATOM     68  F   UNL A   1      37.677  28.639  32.036  1.00  0.00    -0.200 F 
ATOM     69  C   UNL A   1      37.180  29.278  29.820  1.00  0.00     0.200 A 
ATOM     70  F   UNL A   1      36.729  29.897  27.587  1.00  0.00    -0.200 F 
ATOM     71  F   UNL A   1      35.906  29.517  30.158  1.00  0.00    -0.200 F 
ENDBRANCH  47  61
BRANCH  48  72
ATOM     72  C   UNL A   1      49.172  26.785  26.120  1.00  0.00     0.064 A 
ATOM     73  C   UNL A   1      49.527  26.986  24.779  1.00  0.00     0.173 A 
ATOM     74  C   UNL A   1      50.164  26.310  26.992  1.00  0.00     0.173 A 
ATOM     75  F   UNL A   1      48.609  27.419  23.902  1.00  0.00    -0.203 F 
ATOM     76  C   UNL A   1      50.814  26.704  24.323  1.00  0.00     0.198 A 
ATOM     77  C   UNL A   1      51.458  26.060  26.543  1.00  0.00     0.198 A 
ATOM     78  F   UNL A   1      49.879  26.104  28.286  1.00  0.00    -0.203 F 
ATOM     79  F   UNL A   1      51.111  26.859  23.027  1.00  0.00    -0.200 F 
ATOM     80  C   UNL A   1      51.780  26.248  25.208  1.00  0.00     0.200 A 
ATOM     81  F   UNL A   1      52.394  25.635  27.403  1.00  0.00    -0.200 F 
ATOM     82  F   UNL A   1      53.019  25.984  24.771  1.00  0.00    -0.200 F 
ENDBRANCH  48  72
BRANCH  60  83
ATOM     83  C   UNL A   1      45.962  32.528  28.424  1.00  0.00     0.064 A 
ATOM     84  C   UNL A   1      46.545  32.935  29.634  1.00  0.00     0.173 A 
ATOM     85  C   UNL A   1      45.863  33.476  27.394  1.00  0.00     0.173 A 
ATOM     86  F   UNL A   1      46.649  32.073  30.656  1.00  0.00    -0.203 F 
ATOM     87  C   UNL A   1      46.984  34.243  29.813  1.00  0.00     0.198 A 
ATOM     88  C   UNL A   1      46.336  34.774  27.564  1.00  0.00     0.198 A 
ATOM     89  F   UNL A   1      45.319  33.139  26.215  1.00  0.00    -0.203 F 
ATOM     90  F   UNL A   1      47.490  34.623  30.995  1.00  0.00    -0.200 F 
ATOM     91  C   UNL A   1      46.888  35.159  28.776  1.00  0.00     0.200 A 
ATOM     92  F   UNL A   1      46.256  35.653  26.555  1.00  0.00    -0.200 F 
ATOM     93  F   UNL A   1      47.321  36.416  28.947  1.00  0.00    -0.200 F 
ENDBRANCH  60  83
ENDBRANCH  34  35
ENDBRANCH  26  29
ENDBRANCH  24  25
ENDBRANCH  23  24
ENDBRANCH   1  23
TORSDOF 14
ENDMDL
