MODEL 1
REMARK VINA RESULT:     -13.1      0.000      0.000
REMARK SMILES O=C(NCCCNC(=O)[C@@H](Cc1ccncc1)c1ccc(Cl)cc1)c1ccc(-c2c3nc(c(-c4c(F)c(F)c(F)c(F)c4F)c4ccc([nH]4)c(-c4c(F)c(F)c(F)c(F)c4F)c4nc(c(-c5c(F)c(F)c(F)c(F)c5F)c5ccc2[nH]5)C=C4)C=C3)cc1
REMARK SMILES IDX 5 1 4 2 3 3 1 4 2 5 25 7 26 8 87 9 27 10 86 11 28 12 29 13
REMARK SMILES IDX 30 14 80 15 31 16 85 17 79 18 81 19 32 20 84 21 78 22 77 23
REMARK SMILES IDX 33 25 65 26 45 27 64 28 46 29 49 30 63 31 82 32 47 33 48 34
REMARK SMILES IDX 62 36 83 37 50 38 34 39 35 40 43 41 36 42 37 43 41 44 44 45
REMARK SMILES IDX 38 46 39 47 42 48 40 49 66 50 67 51 75 52 68 53 69 54 73 55
REMARK SMILES IDX 76 56 70 57 71 58 74 59 72 60 51 61 52 62 60 63 53 64 54 65
REMARK SMILES IDX 58 66 61 67 55 68 56 69 59 70 57 71 6 72 7 73 8 74 9 76
REMARK SMILES IDX 10 77 11 78 12 79 13 80 17 81 14 82 16 83 15 84 18 85 19 86
REMARK SMILES IDX 24 87 20 88 23 89 21 90 22 91
REMARK H PARENT 3 6 81 24 49 35 7 75
REMARK Flexibility Score: inf
ROOT
ATOM      1  C   UNL A   1      37.806  19.858  24.993  1.00  0.00     0.042 C 
ENDROOT
BRANCH   1   2
ATOM      2  C   UNL A   1      39.034  20.358  25.737  1.00  0.00     0.118 C 
BRANCH   2   3
ATOM      3  N   UNL A   1      40.011  19.301  25.944  1.00  0.00    -0.352 N 
ATOM      4  O   UNL A   1      42.012  18.291  25.985  1.00  0.00    -0.269 OA
ATOM      5  C   UNL A   1      41.373  19.349  26.089  1.00  0.00     0.251 C 
ATOM      6  H   UNL A   1      39.629  18.394  25.985  1.00  0.00     0.163 HD
BRANCH   5   7
ATOM      7  C   UNL A   1      42.104  20.607  26.372  1.00  0.00     0.039 A 
ATOM      8  C   UNL A   1      42.518  21.462  25.352  1.00  0.00     0.014 A 
ATOM      9  C   UNL A   1      42.260  21.019  27.704  1.00  0.00     0.014 A 
ATOM     10  C   UNL A   1      43.173  22.653  25.645  1.00  0.00     0.010 A 
ATOM     11  C   UNL A   1      42.799  22.278  28.000  1.00  0.00     0.010 A 
ATOM     12  C   UNL A   1      43.251  23.111  26.968  1.00  0.00    -0.014 A 
BRANCH  12  13
ATOM     13  C   UNL A   1      43.628  24.528  27.201  1.00  0.00     0.031 A 
ATOM     14  C   UNL A   1      42.656  25.527  27.753  1.00  0.00     0.074 A 
ATOM     15  C   UNL A   1      44.895  24.898  26.917  1.00  0.00     0.049 A 
ATOM     16  N   UNL A   1      42.850  26.793  28.024  1.00  0.00    -0.248 NA
ATOM     17  C   UNL A   1      41.290  25.057  28.026  1.00  0.00     0.031 C 
ATOM     18  C   UNL A   1      45.917  24.018  26.337  1.00  0.00     0.029 A 
ATOM     19  N   UNL A   1      45.553  26.089  27.087  1.00  0.00    -0.354 N 
ATOM     20  C   UNL A   1      41.630  27.278  28.474  1.00  0.00     0.074 A 
ATOM     21  C   UNL A   1      40.696  26.173  28.432  1.00  0.00     0.031 C 
ATOM     22  C   UNL A   1      47.080  24.676  26.258  1.00  0.00     0.029 A 
ATOM     23  C   UNL A   1      46.872  26.048  26.703  1.00  0.00     0.049 A 
ATOM     24  H   UNL A   1      45.122  26.896  27.451  1.00  0.00     0.167 HD
ATOM     25  C   UNL A   1      41.327  28.533  28.882  1.00  0.00     0.037 A 
ATOM     26  C   UNL A   1      47.810  27.013  26.679  1.00  0.00     0.037 A 
ATOM     27  C   UNL A   1      42.275  29.617  28.952  1.00  0.00     0.049 A 
ATOM     28  C   UNL A   1      47.436  28.391  27.139  1.00  0.00     0.074 A 
ATOM     29  C   UNL A   1      42.080  30.901  29.431  1.00  0.00     0.029 A 
ATOM     30  N   UNL A   1      43.591  29.548  28.520  1.00  0.00    -0.354 N 
ATOM     31  N   UNL A   1      46.293  28.818  27.616  1.00  0.00    -0.248 NA
ATOM     32  C   UNL A   1      48.474  29.426  27.039  1.00  0.00     0.031 C 
ATOM     33  C   UNL A   1      43.264  31.623  29.247  1.00  0.00     0.029 A 
ATOM     34  C   UNL A   1      44.209  30.778  28.689  1.00  0.00     0.049 A 
ATOM     35  H   UNL A   1      44.022  28.745  28.149  1.00  0.00     0.167 HD
ATOM     36  C   UNL A   1      46.470  30.170  27.868  1.00  0.00     0.074 A 
ATOM     37  C   UNL A   1      47.842  30.483  27.527  1.00  0.00     0.031 C 
ATOM     38  C   UNL A   1      45.571  31.072  28.328  1.00  0.00     0.037 A 
BRANCH  25  39
ATOM     39  C   UNL A   1      39.912  28.826  29.281  1.00  0.00     0.064 A 
ATOM     40  C   UNL A   1      38.958  29.256  28.349  1.00  0.00     0.173 A 
ATOM     41  C   UNL A   1      39.485  28.579  30.595  1.00  0.00     0.173 A 
ATOM     42  F   UNL A   1      39.317  29.511  27.082  1.00  0.00    -0.203 F 
ATOM     43  C   UNL A   1      37.627  29.434  28.719  1.00  0.00     0.198 A 
ATOM     44  C   UNL A   1      38.150  28.740  30.957  1.00  0.00     0.198 A 
ATOM     45  F   UNL A   1      40.359  28.159  31.522  1.00  0.00    -0.203 F 
ATOM     46  F   UNL A   1      36.732  29.860  27.816  1.00  0.00    -0.200 F 
ATOM     47  C   UNL A   1      37.222  29.167  30.020  1.00  0.00     0.200 A 
ATOM     48  F   UNL A   1      37.759  28.468  32.210  1.00  0.00    -0.200 F 
ATOM     49  F   UNL A   1      35.937  29.319  30.368  1.00  0.00    -0.200 F 
ENDBRANCH  25  39
BRANCH  26  50
ATOM     50  C   UNL A   1      49.172  26.715  26.166  1.00  0.00     0.064 A 
ATOM     51  C   UNL A   1      49.513  26.957  24.829  1.00  0.00     0.173 A 
ATOM     52  C   UNL A   1      50.161  26.182  27.006  1.00  0.00     0.173 A 
ATOM     53  F   UNL A   1      48.596  27.446  23.981  1.00  0.00    -0.203 F 
ATOM     54  C   UNL A   1      50.787  26.661  24.348  1.00  0.00     0.198 A 
ATOM     55  C   UNL A   1      51.444  25.918  26.532  1.00  0.00     0.198 A 
ATOM     56  F   UNL A   1      49.887  25.935  28.295  1.00  0.00    -0.203 F 
ATOM     57  F   UNL A   1      51.075  26.859  23.054  1.00  0.00    -0.200 F 
ATOM     58  C   UNL A   1      51.754  26.148  25.202  1.00  0.00     0.200 A 
ATOM     59  F   UNL A   1      52.378  25.440  27.366  1.00  0.00    -0.200 F 
ATOM     60  F   UNL A   1      52.980  25.871  24.740  1.00  0.00    -0.200 F 
ENDBRANCH  26  50
BRANCH  38  61
ATOM     61  C   UNL A   1      46.050  32.484  28.474  1.00  0.00     0.064 A 
ATOM     62  C   UNL A   1      46.660  32.925  29.658  1.00  0.00     0.173 A 
ATOM     63  C   UNL A   1      45.916  33.399  27.420  1.00  0.00     0.173 A 
ATOM     64  F   UNL A   1      46.790  32.091  30.701  1.00  0.00    -0.203 F 
ATOM     65  C   UNL A   1      47.099  34.238  29.788  1.00  0.00     0.198 A 
ATOM     66  C   UNL A   1      46.380  34.704  27.544  1.00  0.00     0.198 A 
ATOM     67  F   UNL A   1      45.340  33.022  26.268  1.00  0.00    -0.203 F 
ATOM     68  F   UNL A   1      47.637  34.652  30.944  1.00  0.00    -0.200 F 
ATOM     69  C   UNL A   1      46.966  35.125  28.729  1.00  0.00     0.200 A 
ATOM     70  F   UNL A   1      46.258  35.558  26.519  1.00  0.00    -0.200 F 
ATOM     71  F   UNL A   1      47.391  36.389  28.856  1.00  0.00    -0.200 F 
ENDBRANCH  38  61
ENDBRANCH  12  13
ENDBRANCH   5   7
ENDBRANCH   2   3
ENDBRANCH   1   2
BRANCH   1  72
ATOM     72  C   UNL A   1      36.813  20.980  24.746  1.00  0.00     0.117 C 
BRANCH  72  73
ATOM     73  N   UNL A   1      35.881  21.106  25.855  1.00  0.00    -0.355 N 
ATOM     74  C   UNL A   1      34.526  21.074  25.906  1.00  0.00     0.227 C 
ATOM     75  H   UNL A   1      36.314  21.238  26.729  1.00  0.00     0.163 HD
ATOM     76  O   UNL A   1      34.032  21.212  27.033  1.00  0.00    -0.274 OA
BRANCH  74  77
ATOM     77  C   UNL A   1      33.612  20.928  24.688  1.00  0.00     0.113 C 
BRANCH  77  78
ATOM     78  C   UNL A   1      32.566  19.789  24.846  1.00  0.00     0.054 C 
BRANCH  78  79
ATOM     79  C   UNL A   1      32.984  18.340  24.749  1.00  0.00    -0.044 A 
ATOM     80  C   UNL A   1      32.619  17.392  25.708  1.00  0.00     0.024 A 
ATOM     81  C   UNL A   1      33.706  17.894  23.635  1.00  0.00     0.024 A 
ATOM     82  C   UNL A   1      33.049  16.080  25.555  1.00  0.00     0.111 A 
ATOM     83  C   UNL A   1      34.078  16.559  23.562  1.00  0.00     0.111 A 
ATOM     84  N   UNL A   1      33.783  15.646  24.508  1.00  0.00    -0.265 NA
ENDBRANCH  78  79
ENDBRANCH  77  78
BRANCH  77  85
ATOM     85  C   UNL A   1      33.172  22.193  23.952  1.00  0.00    -0.035 A 
ATOM     86  C   UNL A   1      31.812  22.556  23.996  1.00  0.00     0.006 A 
ATOM     87  C   UNL A   1      34.030  22.997  23.187  1.00  0.00     0.006 A 
ATOM     88  C   UNL A   1      31.345  23.713  23.364  1.00  0.00     0.021 A 
ATOM     89  C   UNL A   1      33.575  24.171  22.579  1.00  0.00     0.021 A 
ATOM     90  C   UNL A   1      32.234  24.528  22.676  1.00  0.00     0.041 A 
ATOM     91  Cl  UNL A   1      31.676  25.972  21.928  1.00  0.00    -0.084 Cl
ENDBRANCH  77  85
ENDBRANCH  74  77
ENDBRANCH  72  73
ENDBRANCH   1  72
TORSDOF 13
ENDMDL
MODEL 2
REMARK VINA RESULT:     -13.0      0.874      7.313
REMARK SMILES O=C(NCCCNC(=O)[C@@H](Cc1ccncc1)c1ccc(Cl)cc1)c1ccc(-c2c3nc(c(-c4c(F)c(F)c(F)c(F)c4F)c4ccc([nH]4)c(-c4c(F)c(F)c(F)c(F)c4F)c4nc(c(-c5c(F)c(F)c(F)c(F)c5F)c5ccc2[nH]5)C=C4)C=C3)cc1
REMARK SMILES IDX 5 1 4 2 3 3 1 4 2 5 25 7 26 8 87 9 27 10 86 11 28 12 29 13
REMARK SMILES IDX 30 14 80 15 31 16 85 17 79 18 81 19 32 20 84 21 78 22 77 23
REMARK SMILES IDX 33 25 65 26 45 27 64 28 46 29 49 30 63 31 82 32 47 33 48 34
REMARK SMILES IDX 62 36 83 37 50 38 34 39 35 40 43 41 36 42 37 43 41 44 44 45
REMARK SMILES IDX 38 46 39 47 42 48 40 49 66 50 67 51 75 52 68 53 69 54 73 55
REMARK SMILES IDX 76 56 70 57 71 58 74 59 72 60 51 61 52 62 60 63 53 64 54 65
REMARK SMILES IDX 58 66 61 67 55 68 56 69 59 70 57 71 6 72 7 73 8 74 9 76
REMARK SMILES IDX 10 77 11 78 12 79 13 80 17 81 14 82 16 83 15 84 18 85 19 86
REMARK SMILES IDX 24 87 20 88 23 89 21 90 22 91
REMARK H PARENT 3 6 81 24 49 35 7 75
REMARK Flexibility Score: inf
ROOT
ATOM      1  C   UNL A   1      37.724  19.980  25.005  1.00  0.00     0.042 C 
ENDROOT
BRANCH   1   2
ATOM      2  C   UNL A   1      38.973  20.412  25.757  1.00  0.00     0.118 C 
BRANCH   2   3
ATOM      3  N   UNL A   1      39.936  19.328  25.875  1.00  0.00    -0.352 N 
ATOM      4  O   UNL A   1      41.926  18.296  25.847  1.00  0.00    -0.269 OA
ATOM      5  C   UNL A   1      41.297  19.347  26.042  1.00  0.00     0.251 C 
ATOM      6  H   UNL A   1      39.544  18.426  25.826  1.00  0.00     0.163 HD
BRANCH   5   7
ATOM      7  C   UNL A   1      42.037  20.563  26.451  1.00  0.00     0.039 A 
ATOM      8  C   UNL A   1      42.602  21.429  25.517  1.00  0.00     0.014 A 
ATOM      9  C   UNL A   1      42.049  20.930  27.806  1.00  0.00     0.014 A 
ATOM     10  C   UNL A   1      43.263  22.582  25.925  1.00  0.00     0.010 A 
ATOM     11  C   UNL A   1      42.598  22.155  28.206  1.00  0.00     0.010 A 
ATOM     12  C   UNL A   1      43.201  22.998  27.263  1.00  0.00    -0.014 A 
BRANCH  12  13
ATOM     13  C   UNL A   1      43.602  24.391  27.587  1.00  0.00     0.031 A 
ATOM     14  C   UNL A   1      45.035  24.830  27.562  1.00  0.00     0.074 A 
ATOM     15  C   UNL A   1      42.626  25.271  27.894  1.00  0.00     0.049 A 
ATOM     16  N   UNL A   1      45.531  26.017  27.806  1.00  0.00    -0.248 NA
ATOM     17  C   UNL A   1      46.045  23.814  27.234  1.00  0.00     0.031 C 
ATOM     18  C   UNL A   1      41.199  24.944  27.988  1.00  0.00     0.029 A 
ATOM     19  N   UNL A   1      42.669  26.616  28.163  1.00  0.00    -0.354 N 
ATOM     20  C   UNL A   1      46.907  25.887  27.687  1.00  0.00     0.074 A 
ATOM     21  C   UNL A   1      47.173  24.502  27.358  1.00  0.00     0.031 C 
ATOM     22  C   UNL A   1      40.500  26.060  28.231  1.00  0.00     0.029 A 
ATOM     23  C   UNL A   1      41.431  27.170  28.391  1.00  0.00     0.049 A 
ATOM     24  H   UNL A   1      43.505  27.135  28.189  1.00  0.00     0.167 HD
ATOM     25  C   UNL A   1      47.854  26.842  27.841  1.00  0.00     0.037 A 
ATOM     26  C   UNL A   1      41.080  28.425  28.724  1.00  0.00     0.037 A 
ATOM     27  C   UNL A   1      47.575  28.225  28.137  1.00  0.00     0.049 A 
ATOM     28  C   UNL A   1      42.158  29.455  28.888  1.00  0.00     0.074 A 
ATOM     29  C   UNL A   1      48.464  29.282  28.229  1.00  0.00     0.029 A 
ATOM     30  N   UNL A   1      46.314  28.741  28.398  1.00  0.00    -0.354 N 
ATOM     31  N   UNL A   1      43.450  29.329  28.715  1.00  0.00    -0.248 NA
ATOM     32  C   UNL A   1      41.732  30.796  29.310  1.00  0.00     0.031 C 
ATOM     33  C   UNL A   1      47.749  30.428  28.592  1.00  0.00     0.029 A 
ATOM     34  C   UNL A   1      46.408  30.094  28.687  1.00  0.00     0.049 A 
ATOM     35  H   UNL A   1      45.478  28.223  28.380  1.00  0.00     0.167 HD
ATOM     36  C   UNL A   1      43.994  30.568  29.012  1.00  0.00     0.074 A 
ATOM     37  C   UNL A   1      42.888  31.444  29.338  1.00  0.00     0.031 C 
ATOM     38  C   UNL A   1      45.296  30.943  29.026  1.00  0.00     0.037 A 
BRANCH  25  39
ATOM     39  C   UNL A   1      49.293  26.441  27.708  1.00  0.00     0.064 A 
ATOM     40  C   UNL A   1      49.905  26.298  26.455  1.00  0.00     0.173 A 
ATOM     41  C   UNL A   1      50.091  26.291  28.853  1.00  0.00     0.173 A 
ATOM     42  F   UNL A   1      49.183  26.426  25.332  1.00  0.00    -0.203 F 
ATOM     43  C   UNL A   1      51.265  26.014  26.353  1.00  0.00     0.198 A 
ATOM     44  C   UNL A   1      51.454  26.027  28.746  1.00  0.00     0.198 A 
ATOM     45  F   UNL A   1      49.553  26.426  30.074  1.00  0.00    -0.203 F 
ATOM     46  F   UNL A   1      51.828  25.867  25.146  1.00  0.00    -0.200 F 
ATOM     47  C   UNL A   1      52.040  25.888  27.497  1.00  0.00     0.200 A 
ATOM     48  F   UNL A   1      52.204  25.919  29.853  1.00  0.00    -0.200 F 
ATOM     49  F   UNL A   1      53.353  25.636  27.395  1.00  0.00    -0.200 F 
ENDBRANCH  25  39
BRANCH  26  50
ATOM     50  C   UNL A   1      39.652  28.759  28.965  1.00  0.00     0.064 A 
ATOM     51  C   UNL A   1      38.837  29.251  27.937  1.00  0.00     0.173 A 
ATOM     52  C   UNL A   1      39.073  28.590  30.233  1.00  0.00     0.173 A 
ATOM     53  F   UNL A   1      39.349  29.449  26.714  1.00  0.00    -0.203 F 
ATOM     54  C   UNL A   1      37.503  29.577  28.172  1.00  0.00     0.198 A 
ATOM     55  C   UNL A   1      37.731  28.886  30.458  1.00  0.00     0.198 A 
ATOM     56  F   UNL A   1      39.809  28.119  31.250  1.00  0.00    -0.203 F 
ATOM     57  F   UNL A   1      36.757  30.089  27.184  1.00  0.00    -0.200 F 
ATOM     58  C   UNL A   1      36.949  29.388  29.431  1.00  0.00     0.200 A 
ATOM     59  F   UNL A   1      37.198  28.683  31.670  1.00  0.00    -0.200 F 
ATOM     60  F   UNL A   1      35.665  29.696  29.654  1.00  0.00    -0.200 F 
ENDBRANCH  26  50
BRANCH  38  61
ATOM     61  C   UNL A   1      45.584  32.359  29.419  1.00  0.00     0.064 A 
ATOM     62  C   UNL A   1      45.870  32.699  30.750  1.00  0.00     0.173 A 
ATOM     63  C   UNL A   1      45.594  33.381  28.459  1.00  0.00     0.173 A 
ATOM     64  F   UNL A   1      45.850  31.758  31.706  1.00  0.00    -0.203 F 
ATOM     65  C   UNL A   1      46.133  34.018  31.108  1.00  0.00     0.198 A 
ATOM     66  C   UNL A   1      45.884  34.694  28.817  1.00  0.00     0.198 A 
ATOM     67  F   UNL A   1      45.328  33.103  27.174  1.00  0.00    -0.203 F 
ATOM     68  F   UNL A   1      46.357  34.329  32.393  1.00  0.00    -0.200 F 
ATOM     69  C   UNL A   1      46.147  35.012  30.141  1.00  0.00     0.200 A 
ATOM     70  F   UNL A   1      45.905  35.652  27.882  1.00  0.00    -0.200 F 
ATOM     71  F   UNL A   1      46.404  36.281  30.488  1.00  0.00    -0.200 F 
ENDBRANCH  38  61
ENDBRANCH  12  13
ENDBRANCH   5   7
ENDBRANCH   2   3
ENDBRANCH   1   2
BRANCH   1  72
ATOM     72  C   UNL A   1      36.752  21.135  24.837  1.00  0.00     0.117 C 
BRANCH  72  73
ATOM     73  N   UNL A   1      35.746  21.127  25.886  1.00  0.00    -0.355 N 
ATOM     74  C   UNL A   1      34.393  21.037  25.841  1.00  0.00     0.227 C 
ATOM     75  H   UNL A   1      36.113  21.200  26.796  1.00  0.00     0.163 HD
ATOM     76  O   UNL A   1      33.820  21.057  26.939  1.00  0.00    -0.274 OA
BRANCH  74  77
ATOM     77  C   UNL A   1      33.568  20.962  24.554  1.00  0.00     0.113 C 
BRANCH  77  78
ATOM     78  C   UNL A   1      32.527  19.807  24.567  1.00  0.00     0.054 C 
BRANCH  78  79
ATOM     79  C   UNL A   1      32.976  18.365  24.598  1.00  0.00    -0.044 A 
ATOM     80  C   UNL A   1      32.720  17.526  25.686  1.00  0.00     0.024 A 
ATOM     81  C   UNL A   1      33.616  17.807  23.484  1.00  0.00     0.024 A 
ATOM     82  C   UNL A   1      33.173  16.214  25.646  1.00  0.00     0.111 A 
ATOM     83  C   UNL A   1      34.018  16.480  23.531  1.00  0.00     0.111 A 
ATOM     84  N   UNL A   1      33.829  15.676  24.596  1.00  0.00    -0.265 NA
ENDBRANCH  78  79
ENDBRANCH  77  78
BRANCH  77  85
ATOM     85  C   UNL A   1      33.165  22.267  23.870  1.00  0.00    -0.035 A 
ATOM     86  C   UNL A   1      31.805  22.634  23.871  1.00  0.00     0.006 A 
ATOM     87  C   UNL A   1      34.059  23.108  23.191  1.00  0.00     0.006 A 
ATOM     88  C   UNL A   1      31.371  23.826  23.283  1.00  0.00     0.021 A 
ATOM     89  C   UNL A   1      33.635  24.316  22.628  1.00  0.00     0.021 A 
ATOM     90  C   UNL A   1      32.293  24.673  22.682  1.00  0.00     0.041 A 
ATOM     91  Cl  UNL A   1      31.773  26.158  21.991  1.00  0.00    -0.084 Cl
ENDBRANCH  77  85
ENDBRANCH  74  77
ENDBRANCH  72  73
ENDBRANCH   1  72
TORSDOF 13
ENDMDL
MODEL 3
REMARK VINA RESULT:     -13.0      6.593     12.021
REMARK SMILES O=C(NCCCNC(=O)[C@@H](Cc1ccncc1)c1ccc(Cl)cc1)c1ccc(-c2c3nc(c(-c4c(F)c(F)c(F)c(F)c4F)c4ccc([nH]4)c(-c4c(F)c(F)c(F)c(F)c4F)c4nc(c(-c5c(F)c(F)c(F)c(F)c5F)c5ccc2[nH]5)C=C4)C=C3)cc1
REMARK SMILES IDX 5 1 4 2 3 3 1 4 2 5 25 7 26 8 87 9 27 10 86 11 28 12 29 13
REMARK SMILES IDX 30 14 80 15 31 16 85 17 79 18 81 19 32 20 84 21 78 22 77 23
REMARK SMILES IDX 33 25 65 26 45 27 64 28 46 29 49 30 63 31 82 32 47 33 48 34
REMARK SMILES IDX 62 36 83 37 50 38 34 39 35 40 43 41 36 42 37 43 41 44 44 45
REMARK SMILES IDX 38 46 39 47 42 48 40 49 66 50 67 51 75 52 68 53 69 54 73 55
REMARK SMILES IDX 76 56 70 57 71 58 74 59 72 60 51 61 52 62 60 63 53 64 54 65
REMARK SMILES IDX 58 66 61 67 55 68 56 69 59 70 57 71 6 72 7 73 8 74 9 76
REMARK SMILES IDX 10 77 11 78 12 79 13 80 17 81 14 82 16 83 15 84 18 85 19 86
REMARK SMILES IDX 24 87 20 88 23 89 21 90 22 91
REMARK H PARENT 3 6 81 24 49 35 7 75
REMARK Flexibility Score: inf
ROOT
ATOM      1  C   UNL A   1      31.525  31.932  26.613  1.00  0.00     0.042 C 
ENDROOT
BRANCH   1   2
ATOM      2  C   UNL A   1      32.753  32.561  27.252  1.00  0.00     0.118 C 
BRANCH   2   3
ATOM      3  N   UNL A   1      32.547  33.969  27.551  1.00  0.00    -0.352 N 
ATOM      4  O   UNL A   1      32.516  35.862  28.751  1.00  0.00    -0.269 OA
ATOM      5  C   UNL A   1      33.049  34.761  28.551  1.00  0.00     0.251 C 
ATOM      6  H   UNL A   1      31.942  34.434  26.929  1.00  0.00     0.163 HD
BRANCH   5   7
ATOM      7  C   UNL A   1      34.201  34.356  29.391  1.00  0.00     0.039 A 
ATOM      8  C   UNL A   1      34.029  33.696  30.607  1.00  0.00     0.014 A 
ATOM      9  C   UNL A   1      35.501  34.510  28.884  1.00  0.00     0.014 A 
ATOM     10  C   UNL A   1      35.127  33.297  31.361  1.00  0.00     0.010 A 
ATOM     11  C   UNL A   1      36.601  33.991  29.579  1.00  0.00     0.010 A 
ATOM     12  C   UNL A   1      36.419  33.368  30.821  1.00  0.00    -0.014 A 
BRANCH  12  13
ATOM     13  C   UNL A   1      37.507  32.614  31.496  1.00  0.00     0.031 A 
ATOM     14  C   UNL A   1      38.207  31.467  30.831  1.00  0.00     0.074 A 
ATOM     15  C   UNL A   1      37.867  33.004  32.737  1.00  0.00     0.049 A 
ATOM     16  N   UNL A   1      39.184  30.728  31.292  1.00  0.00    -0.248 NA
ATOM     17  C   UNL A   1      37.752  31.089  29.485  1.00  0.00     0.031 C 
ATOM     18  C   UNL A   1      37.227  34.083  33.498  1.00  0.00     0.029 A 
ATOM     19  N   UNL A   1      38.862  32.564  33.573  1.00  0.00    -0.354 N 
ATOM     20  C   UNL A   1      39.445  29.784  30.309  1.00  0.00     0.074 A 
ATOM     21  C   UNL A   1      38.516  30.035  29.227  1.00  0.00     0.031 C 
ATOM     22  C   UNL A   1      37.878  34.261  34.654  1.00  0.00     0.029 A 
ATOM     23  C   UNL A   1      38.931  33.259  34.757  1.00  0.00     0.049 A 
ATOM     24  H   UNL A   1      39.469  31.823  33.347  1.00  0.00     0.167 HD
ATOM     25  C   UNL A   1      40.375  28.801  30.318  1.00  0.00     0.037 A 
ATOM     26  C   UNL A   1      39.730  33.093  35.826  1.00  0.00     0.037 A 
ATOM     27  C   UNL A   1      41.317  28.581  31.388  1.00  0.00     0.049 A 
ATOM     28  C   UNL A   1      40.749  31.992  35.800  1.00  0.00     0.074 A 
ATOM     29  C   UNL A   1      42.351  27.663  31.450  1.00  0.00     0.029 A 
ATOM     30  N   UNL A   1      41.332  29.280  32.586  1.00  0.00    -0.354 N 
ATOM     31  N   UNL A   1      41.020  31.145  34.839  1.00  0.00    -0.248 NA
ATOM     32  C   UNL A   1      41.558  31.811  37.012  1.00  0.00     0.031 C 
ATOM     33  C   UNL A   1      42.962  27.774  32.702  1.00  0.00     0.029 A 
ATOM     34  C   UNL A   1      42.336  28.788  33.407  1.00  0.00     0.049 A 
ATOM     35  H   UNL A   1      40.722  30.016  32.818  1.00  0.00     0.167 HD
ATOM     36  C   UNL A   1      42.026  30.327  35.328  1.00  0.00     0.074 A 
ATOM     37  C   UNL A   1      42.343  30.803  36.659  1.00  0.00     0.031 C 
ATOM     38  C   UNL A   1      42.623  29.266  34.734  1.00  0.00     0.037 A 
BRANCH  25  39
ATOM     39  C   UNL A   1      40.430  27.867  29.147  1.00  0.00     0.064 A 
ATOM     40  C   UNL A   1      39.652  26.702  29.095  1.00  0.00     0.173 A 
ATOM     41  C   UNL A   1      41.203  28.194  28.021  1.00  0.00     0.173 A 
ATOM     42  F   UNL A   1      38.902  26.344  30.147  1.00  0.00    -0.203 F 
ATOM     43  C   UNL A   1      39.647  25.896  27.959  1.00  0.00     0.198 A 
ATOM     44  C   UNL A   1      41.180  27.396  26.880  1.00  0.00     0.198 A 
ATOM     45  F   UNL A   1      41.958  29.302  28.019  1.00  0.00    -0.203 F 
ATOM     46  F   UNL A   1      38.907  24.779  27.935  1.00  0.00    -0.200 F 
ATOM     47  C   UNL A   1      40.403  26.247  26.850  1.00  0.00     0.200 A 
ATOM     48  F   UNL A   1      41.901  27.745  25.805  1.00  0.00    -0.200 F 
ATOM     49  F   UNL A   1      40.381  25.481  25.751  1.00  0.00    -0.200 F 
ENDBRANCH  25  39
BRANCH  26  50
ATOM     50  C   UNL A   1      39.567  33.963  37.020  1.00  0.00     0.064 A 
ATOM     51  C   UNL A   1      38.784  33.563  38.110  1.00  0.00     0.173 A 
ATOM     52  C   UNL A   1      40.195  35.216  37.093  1.00  0.00     0.173 A 
ATOM     53  F   UNL A   1      38.146  32.383  38.079  1.00  0.00    -0.203 F 
ATOM     54  C   UNL A   1      38.621  34.389  39.220  1.00  0.00     0.198 A 
ATOM     55  C   UNL A   1      40.059  36.027  38.217  1.00  0.00     0.198 A 
ATOM     56  F   UNL A   1      40.959  35.645  36.077  1.00  0.00    -0.203 F 
ATOM     57  F   UNL A   1      37.830  34.003  40.230  1.00  0.00    -0.200 F 
ATOM     58  C   UNL A   1      39.265  35.618  39.276  1.00  0.00     0.200 A 
ATOM     59  F   UNL A   1      40.698  37.204  38.273  1.00  0.00    -0.200 F 
ATOM     60  F   UNL A   1      39.114  36.409  40.346  1.00  0.00    -0.200 F 
ENDBRANCH  26  50
BRANCH  38  61
ATOM     61  C   UNL A   1      43.669  28.550  35.530  1.00  0.00     0.064 A 
ATOM     62  C   UNL A   1      45.028  28.878  35.407  1.00  0.00     0.173 A 
ATOM     63  C   UNL A   1      43.314  27.541  36.437  1.00  0.00     0.173 A 
ATOM     64  F   UNL A   1      45.417  29.821  34.535  1.00  0.00    -0.203 F 
ATOM     65  C   UNL A   1      45.995  28.206  36.147  1.00  0.00     0.198 A 
ATOM     66  C   UNL A   1      44.281  26.889  37.195  1.00  0.00     0.198 A 
ATOM     67  F   UNL A   1      42.027  27.193  36.590  1.00  0.00    -0.203 F 
ATOM     68  F   UNL A   1      47.291  28.503  35.979  1.00  0.00    -0.200 F 
ATOM     69  C   UNL A   1      45.620  27.217  37.046  1.00  0.00     0.200 A 
ATOM     70  F   UNL A   1      43.918  25.940  38.069  1.00  0.00    -0.200 F 
ATOM     71  F   UNL A   1      46.553  26.572  37.760  1.00  0.00    -0.200 F 
ENDBRANCH  38  61
ENDBRANCH  12  13
ENDBRANCH   5   7
ENDBRANCH   2   3
ENDBRANCH   1   2
BRANCH   1  72
ATOM     72  C   UNL A   1      31.676  30.425  26.489  1.00  0.00     0.117 C 
BRANCH  72  73
ATOM     73  N   UNL A   1      32.533  30.078  25.367  1.00  0.00    -0.355 N 
ATOM     74  C   UNL A   1      32.318  29.313  24.268  1.00  0.00     0.227 C 
ATOM     75  H   UNL A   1      33.435  30.470  25.415  1.00  0.00     0.163 HD
ATOM     76  O   UNL A   1      33.276  29.220  23.487  1.00  0.00    -0.274 OA
BRANCH  74  77
ATOM     77  C   UNL A   1      31.023  28.553  23.975  1.00  0.00     0.113 C 
BRANCH  77  78
ATOM     78  C   UNL A   1      30.399  28.921  22.600  1.00  0.00     0.054 C 
BRANCH  78  79
ATOM     79  C   UNL A   1      29.472  30.107  22.468  1.00  0.00    -0.044 A 
ATOM     80  C   UNL A   1      28.876  30.458  21.253  1.00  0.00     0.024 A 
ATOM     81  C   UNL A   1      29.130  30.858  23.600  1.00  0.00     0.024 A 
ATOM     82  C   UNL A   1      28.041  31.567  21.208  1.00  0.00     0.111 A 
ATOM     83  C   UNL A   1      28.274  31.941  23.458  1.00  0.00     0.111 A 
ATOM     84  N   UNL A   1      27.738  32.325  22.283  1.00  0.00    -0.265 NA
ENDBRANCH  78  79
ENDBRANCH  77  78
BRANCH  77  85
ATOM     85  C   UNL A   1      30.912  27.099  24.433  1.00  0.00    -0.035 A 
ATOM     86  C   UNL A   1      30.739  26.099  23.456  1.00  0.00     0.006 A 
ATOM     87  C   UNL A   1      30.921  26.694  25.776  1.00  0.00     0.006 A 
ATOM     88  C   UNL A   1      30.654  24.748  23.804  1.00  0.00     0.021 A 
ATOM     89  C   UNL A   1      30.867  25.342  26.127  1.00  0.00     0.021 A 
ATOM     90  C   UNL A   1      30.740  24.373  25.138  1.00  0.00     0.041 A 
ATOM     91  Cl  UNL A   1      30.674  22.711  25.571  1.00  0.00    -0.084 Cl
ENDBRANCH  77  85
ENDBRANCH  74  77
ENDBRANCH  72  73
ENDBRANCH   1  72
TORSDOF 13
ENDMDL
