MODEL 1
REMARK VINA RESULT:     -12.3      0.000      0.000
REMARK SMILES CSc1ccccc1[C@H](C(=O)NCCCNC(=O)c1ccc(-c2c3nc(c(-c4c(F)c(F)c(F)c(F)c4F)c4ccc([nH]4)c(-c4c(F)c(F)c(F)c(F)c4F)c4nc(c(-c5c(F)c(F)c(F)c(F)c5F)c5ccc2[nH]5)C=C4)C=C3)cc1)[N@@H+](C)CCc1cnn(C)c1
REMARK SMILES IDX 13 1 12 2 10 3 11 4 9 6 8 7 3 8 4 9 5 10 7 11 6 12 2 13 1 14
REMARK SMILES IDX 82 15 83 16 84 18 85 19 86 20 87 21 91 22 88 23 89 24 90 25
REMARK SMILES IDX 14 26 15 27 16 28 17 29 18 31 19 32 20 33 81 34 21 35 80 36
REMARK SMILES IDX 22 37 23 38 24 39 74 40 25 41 79 42 73 43 75 44 26 45 78 46
REMARK SMILES IDX 72 47 71 48 27 50 59 51 39 52 58 53 40 54 43 55 57 56 76 57
REMARK SMILES IDX 41 58 42 59 56 61 77 62 44 63 28 64 29 65 37 66 30 67 31 68
REMARK SMILES IDX 35 69 38 70 32 71 33 72 36 73 34 74 60 75 61 76 69 77 62 78
REMARK SMILES IDX 63 79 67 80 70 81 64 82 65 83 68 84 66 85 45 86 46 87 54 88
REMARK SMILES IDX 47 89 48 90 52 91 55 92 49 93 50 94 53 95 51 96
REMARK H PARENT 12 5 82 17 16 30 75 49 43 60
REMARK Flexibility Score: inf
ROOT
ATOM      1  C   UNL A   1      36.963  20.798  25.119  1.00  0.00     0.118 C 
ENDROOT
BRANCH   1   2
ATOM      2  N   UNL A   1      35.698  20.076  25.033  1.00  0.00    -0.351 N 
ATOM      3  C   UNL A   1      34.425  20.565  24.878  1.00  0.00     0.283 C 
ATOM      4  O   UNL A   1      33.520  19.731  24.787  1.00  0.00    -0.268 OA
ATOM      5  H   UNL A   1      35.767  19.096  25.095  1.00  0.00     0.163 HD
BRANCH   3   6
ATOM      6  C   UNL A   1      34.189  22.071  24.947  1.00  0.00     0.306 C 
BRANCH   6   7
ATOM      7  C   UNL A   1      33.128  22.662  24.073  1.00  0.00     0.033 A 
ATOM      8  C   UNL A   1      31.420  23.142  24.463  1.00  0.00     0.017 A 
ATOM      9  C   UNL A   1      30.642  24.642  23.204  1.00  0.00     0.015 A 
ATOM     10  C   UNL A   1      31.643  25.334  21.942  1.00  0.00     0.001 A 
ATOM     11  C   UNL A   1      33.904  23.471  22.704  1.00  0.00     0.011 A 
ATOM     12  C   UNL A   1      33.203  24.727  21.744  1.00  0.00     0.001 A 
BRANCH   8  13
ATOM     13  S   UNL A   1      30.698  22.079  26.024  1.00  0.00    -0.129 SA
ATOM     14  C   UNL A   1      29.725  23.267  26.993  1.00  0.00     0.091 C 
ENDBRANCH   8  13
ENDBRANCH   6   7
BRANCH   6  15
ATOM     15  N   UNL A   1      33.998  22.565  26.346  1.00  0.00    -0.323 N 
ATOM     16  C   UNL A   1      34.168  21.552  27.384  1.00  0.00     0.333 C 
ATOM     17  H   UNL A   1      33.007  22.807  26.350  1.00  0.00     0.348 HD
BRANCH  15  18
ATOM     18  C   UNL A   1      34.714  23.823  26.673  1.00  0.00     0.267 C 
BRANCH  18  19
ATOM     19  C   UNL A   1      35.053  24.930  25.590  1.00  0.00     0.100 C 
BRANCH  19  20
ATOM     20  C   UNL A   1      34.027  26.126  25.407  1.00  0.00    -0.004 A 
ATOM     21  C   UNL A   1      32.362  25.922  26.453  1.00  0.00     0.139 A 
ATOM     22  C   UNL A   1      33.531  27.571  24.123  1.00  0.00     0.112 A 
ATOM     23  N   UNL A   1      31.152  26.992  25.907  1.00  0.00    -0.182 NA
ATOM     24  N   UNL A   1      31.764  27.979  24.494  1.00  0.00    -0.276 N 
ATOM     25  C   UNL A   1      31.000  28.856  23.644  1.00  0.00     0.173 C 
ENDBRANCH  19  20
ENDBRANCH  18  19
ENDBRANCH  15  18
ENDBRANCH   6  15
ENDBRANCH   3   6
ENDBRANCH   1   2
BRANCH   1  26
ATOM     26  C   UNL A   1      38.149  19.913  24.822  1.00  0.00     0.042 C 
BRANCH  26  27
ATOM     27  C   UNL A   1      39.339  20.170  25.739  1.00  0.00     0.118 C 
BRANCH  27  28
ATOM     28  N   UNL A   1      40.272  19.056  25.845  1.00  0.00    -0.352 N 
ATOM     29  C   UNL A   1      41.627  19.083  26.093  1.00  0.00     0.251 C 
ATOM     30  H   UNL A   1      39.880  18.161  25.723  1.00  0.00     0.163 HD
ATOM     31  O   UNL A   1      42.294  18.055  26.027  1.00  0.00    -0.269 OA
BRANCH  29  32
ATOM     32  C   UNL A   1      42.291  20.374  26.389  1.00  0.00     0.039 A 
ATOM     33  C   UNL A   1      42.888  21.080  25.345  1.00  0.00     0.014 A 
ATOM     34  C   UNL A   1      42.277  20.914  27.677  1.00  0.00     0.014 A 
ATOM     35  C   UNL A   1      43.384  22.364  25.578  1.00  0.00     0.010 A 
ATOM     36  C   UNL A   1      42.643  22.241  27.875  1.00  0.00     0.010 A 
ATOM     37  C   UNL A   1      43.215  22.979  26.831  1.00  0.00    -0.014 A 
BRANCH  37  38
ATOM     38  C   UNL A   1      43.638  24.387  27.055  1.00  0.00     0.031 A 
ATOM     39  C   UNL A   1      42.653  25.406  27.565  1.00  0.00     0.074 A 
ATOM     40  C   UNL A   1      44.904  24.757  26.776  1.00  0.00     0.049 A 
ATOM     41  N   UNL A   1      42.840  26.675  27.830  1.00  0.00    -0.248 NA
ATOM     42  C   UNL A   1      41.273  24.948  27.784  1.00  0.00     0.031 C 
ATOM     43  C   UNL A   1      45.939  23.880  26.226  1.00  0.00     0.029 A 
ATOM     44  N   UNL A   1      45.539  25.966  26.922  1.00  0.00    -0.354 N 
ATOM     45  C   UNL A   1      41.606  27.159  28.243  1.00  0.00     0.074 A 
ATOM     46  C   UNL A   1      40.662  26.073  28.121  1.00  0.00     0.031 C 
ATOM     47  C   UNL A   1      47.089  24.564  26.127  1.00  0.00     0.029 A 
ATOM     48  C   UNL A   1      46.862  25.942  26.551  1.00  0.00     0.049 A 
ATOM     49  H   UNL A   1      45.088  26.774  27.259  1.00  0.00     0.167 HD
ATOM     50  C   UNL A   1      41.292  28.391  28.711  1.00  0.00     0.037 A 
ATOM     51  C   UNL A   1      47.787  26.920  26.547  1.00  0.00     0.037 A 
ATOM     52  C   UNL A   1      42.236  29.473  28.833  1.00  0.00     0.049 A 
ATOM     53  C   UNL A   1      47.400  28.293  27.031  1.00  0.00     0.074 A 
ATOM     54  C   UNL A   1      42.028  30.743  29.338  1.00  0.00     0.029 A 
ATOM     55  N   UNL A   1      43.562  29.415  28.428  1.00  0.00    -0.354 N 
ATOM     56  N   UNL A   1      46.250  28.716  27.499  1.00  0.00    -0.248 NA
ATOM     57  C   UNL A   1      48.446  29.325  26.993  1.00  0.00     0.031 C 
ATOM     58  C   UNL A   1      43.202  31.480  29.164  1.00  0.00     0.029 A 
ATOM     59  C   UNL A   1      44.171  30.644  28.634  1.00  0.00     0.049 A 
ATOM     60  H   UNL A   1      44.004  28.621  28.050  1.00  0.00     0.167 HD
ATOM     61  C   UNL A   1      46.442  30.049  27.837  1.00  0.00     0.074 A 
ATOM     62  C   UNL A   1      47.827  30.355  27.549  1.00  0.00     0.031 C 
ATOM     63  C   UNL A   1      45.551  30.941  28.339  1.00  0.00     0.037 A 
BRANCH  50  64
ATOM     64  C   UNL A   1      39.866  28.640  29.116  1.00  0.00     0.064 A 
ATOM     65  C   UNL A   1      39.412  28.397  30.423  1.00  0.00     0.173 A 
ATOM     66  C   UNL A   1      38.947  29.164  28.194  1.00  0.00     0.173 A 
ATOM     67  F   UNL A   1      40.244  27.890  31.345  1.00  0.00    -0.203 F 
ATOM     68  C   UNL A   1      38.086  28.631  30.778  1.00  0.00     0.198 A 
ATOM     69  C   UNL A   1      37.632  29.437  28.565  1.00  0.00     0.198 A 
ATOM     70  F   UNL A   1      39.325  29.423  26.933  1.00  0.00    -0.203 F 
ATOM     71  F   UNL A   1      37.663  28.331  32.014  1.00  0.00    -0.200 F 
ATOM     72  C   UNL A   1      37.200  29.159  29.852  1.00  0.00     0.200 A 
ATOM     73  F   UNL A   1      36.784  29.966  27.673  1.00  0.00    -0.200 F 
ATOM     74  F   UNL A   1      35.927  29.394  30.198  1.00  0.00    -0.200 F 
ENDBRANCH  50  64
BRANCH  51  75
ATOM     75  C   UNL A   1      49.171  26.643  26.073  1.00  0.00     0.064 A 
ATOM     76  C   UNL A   1      49.562  26.933  24.758  1.00  0.00     0.173 A 
ATOM     77  C   UNL A   1      50.125  26.055  26.918  1.00  0.00     0.173 A 
ATOM     78  F   UNL A   1      48.683  27.477  23.903  1.00  0.00    -0.203 F 
ATOM     79  C   UNL A   1      50.837  26.615  24.297  1.00  0.00     0.198 A 
ATOM     80  C   UNL A   1      51.413  25.776  26.469  1.00  0.00     0.198 A 
ATOM     81  F   UNL A   1      49.808  25.761  28.188  1.00  0.00    -0.203 F 
ATOM     82  F   UNL A   1      51.162  26.842  23.017  1.00  0.00    -0.200 F 
ATOM     83  C   UNL A   1      51.765  26.042  25.155  1.00  0.00     0.200 A 
ATOM     84  F   UNL A   1      52.312  25.243  27.308  1.00  0.00    -0.200 F 
ATOM     85  F   UNL A   1      52.992  25.739  24.713  1.00  0.00    -0.200 F 
ENDBRANCH  51  75
BRANCH  63  86
ATOM     86  C   UNL A   1      46.058  32.325  28.643  1.00  0.00     0.064 A 
ATOM     87  C   UNL A   1      45.997  33.363  27.702  1.00  0.00     0.173 A 
ATOM     88  C   UNL A   1      46.599  32.620  29.905  1.00  0.00     0.173 A 
ATOM     89  F   UNL A   1      45.497  33.137  26.477  1.00  0.00    -0.203 F 
ATOM     90  C   UNL A   1      46.503  34.627  27.993  1.00  0.00     0.198 A 
ATOM     91  C   UNL A   1      47.061  33.898  30.209  1.00  0.00     0.198 A 
ATOM     92  F   UNL A   1      46.673  31.671  30.851  1.00  0.00    -0.203 F 
ATOM     93  F   UNL A   1      46.505  35.579  27.050  1.00  0.00    -0.200 F 
ATOM     94  C   UNL A   1      47.029  34.895  29.247  1.00  0.00     0.200 A 
ATOM     95  F   UNL A   1      47.545  34.161  31.431  1.00  0.00    -0.200 F 
ATOM     96  F   UNL A   1      47.512  36.114  29.527  1.00  0.00    -0.200 F 
ENDBRANCH  63  86
ENDBRANCH  37  38
ENDBRANCH  29  32
ENDBRANCH  27  28
ENDBRANCH  26  27
ENDBRANCH   1  26
TORSDOF 16
ENDMDL
MODEL 2
REMARK VINA RESULT:     -12.2      0.695      7.264
REMARK SMILES CSc1ccccc1[C@H](C(=O)NCCCNC(=O)c1ccc(-c2c3nc(c(-c4c(F)c(F)c(F)c(F)c4F)c4ccc([nH]4)c(-c4c(F)c(F)c(F)c(F)c4F)c4nc(c(-c5c(F)c(F)c(F)c(F)c5F)c5ccc2[nH]5)C=C4)C=C3)cc1)[N@@H+](C)CCc1cnn(C)c1
REMARK SMILES IDX 13 1 12 2 10 3 11 4 9 6 8 7 3 8 4 9 5 10 7 11 6 12 2 13 1 14
REMARK SMILES IDX 82 15 83 16 84 18 85 19 86 20 87 21 91 22 88 23 89 24 90 25
REMARK SMILES IDX 14 26 15 27 16 28 17 29 18 31 19 32 20 33 81 34 21 35 80 36
REMARK SMILES IDX 22 37 23 38 24 39 74 40 25 41 79 42 73 43 75 44 26 45 78 46
REMARK SMILES IDX 72 47 71 48 27 50 59 51 39 52 58 53 40 54 43 55 57 56 76 57
REMARK SMILES IDX 41 58 42 59 56 61 77 62 44 63 28 64 29 65 37 66 30 67 31 68
REMARK SMILES IDX 35 69 38 70 32 71 33 72 36 73 34 74 60 75 61 76 69 77 62 78
REMARK SMILES IDX 63 79 67 80 70 81 64 82 65 83 68 84 66 85 45 86 46 87 54 88
REMARK SMILES IDX 47 89 48 90 52 91 55 92 49 93 50 94 53 95 51 96
REMARK H PARENT 12 5 82 17 16 30 75 49 43 60
REMARK Flexibility Score: inf
ROOT
ATOM      1  C   UNL A   1      36.867  20.833  25.015  1.00  0.00     0.118 C 
ENDROOT
BRANCH   1   2
ATOM      2  N   UNL A   1      35.571  20.163  25.004  1.00  0.00    -0.351 N 
ATOM      3  C   UNL A   1      34.315  20.700  24.866  1.00  0.00     0.283 C 
ATOM      4  O   UNL A   1      33.373  19.902  24.844  1.00  0.00    -0.268 OA
ATOM      5  H   UNL A   1      35.601  19.185  25.109  1.00  0.00     0.163 HD
BRANCH   3   6
ATOM      6  C   UNL A   1      34.145  22.216  24.872  1.00  0.00     0.306 C 
BRANCH   6   7
ATOM      7  C   UNL A   1      33.046  22.808  24.047  1.00  0.00     0.033 A 
ATOM      8  C   UNL A   1      31.353  23.277  24.511  1.00  0.00     0.017 A 
ATOM      9  C   UNL A   1      30.518  24.782  23.296  1.00  0.00     0.015 A 
ATOM     10  C   UNL A   1      31.462  25.489  21.999  1.00  0.00     0.001 A 
ATOM     11  C   UNL A   1      33.762  23.632  22.653  1.00  0.00     0.011 A 
ATOM     12  C   UNL A   1      33.016  24.891  21.733  1.00  0.00     0.001 A 
BRANCH   8  13
ATOM     13  S   UNL A   1      30.702  22.198  26.091  1.00  0.00    -0.129 SA
ATOM     14  C   UNL A   1      29.621  23.326  27.018  1.00  0.00     0.091 C 
ENDBRANCH   8  13
ENDBRANCH   6   7
BRANCH   6  15
ATOM     15  N   UNL A   1      34.079  22.788  26.253  1.00  0.00    -0.323 N 
ATOM     16  C   UNL A   1      34.341  21.833  27.326  1.00  0.00     0.333 C 
ATOM     17  H   UNL A   1      33.093  23.035  26.331  1.00  0.00     0.348 HD
BRANCH  15  18
ATOM     18  C   UNL A   1      34.822  24.059  26.444  1.00  0.00     0.267 C 
BRANCH  18  19
ATOM     19  C   UNL A   1      34.777  25.251  25.401  1.00  0.00     0.100 C 
BRANCH  19  20
ATOM     20  C   UNL A   1      33.898  26.520  25.762  1.00  0.00    -0.004 A 
ATOM     21  C   UNL A   1      32.090  26.080  26.430  1.00  0.00     0.139 A 
ATOM     22  C   UNL A   1      33.718  28.463  25.342  1.00  0.00     0.112 A 
ATOM     23  N   UNL A   1      31.069  27.444  26.401  1.00  0.00    -0.182 NA
ATOM     24  N   UNL A   1      31.959  28.893  25.727  1.00  0.00    -0.276 N 
ATOM     25  C   UNL A   1      31.404  30.175  25.375  1.00  0.00     0.173 C 
ENDBRANCH  19  20
ENDBRANCH  18  19
ENDBRANCH  15  18
ENDBRANCH   6  15
ENDBRANCH   3   6
ENDBRANCH   1   2
BRANCH   1  26
ATOM     26  C   UNL A   1      38.013  19.865  24.841  1.00  0.00     0.042 C 
BRANCH  26  27
ATOM     27  C   UNL A   1      39.188  20.148  25.769  1.00  0.00     0.118 C 
BRANCH  27  28
ATOM     28  N   UNL A   1      40.177  19.080  25.834  1.00  0.00    -0.352 N 
ATOM     29  C   UNL A   1      41.533  19.168  26.065  1.00  0.00     0.251 C 
ATOM     30  H   UNL A   1      39.828  18.170  25.695  1.00  0.00     0.163 HD
ATOM     31  O   UNL A   1      42.249  18.177  25.963  1.00  0.00    -0.269 OA
BRANCH  29  32
ATOM     32  C   UNL A   1      42.136  20.483  26.384  1.00  0.00     0.039 A 
ATOM     33  C   UNL A   1      42.515  21.323  25.338  1.00  0.00     0.014 A 
ATOM     34  C   UNL A   1      42.275  20.910  27.707  1.00  0.00     0.014 A 
ATOM     35  C   UNL A   1      42.943  22.622  25.619  1.00  0.00     0.010 A 
ATOM     36  C   UNL A   1      42.568  22.243  27.976  1.00  0.00     0.010 A 
ATOM     37  C   UNL A   1      42.919  23.113  26.936  1.00  0.00    -0.014 A 
BRANCH  37  38
ATOM     38  C   UNL A   1      43.265  24.529  27.231  1.00  0.00     0.031 A 
ATOM     39  C   UNL A   1      44.656  25.043  26.971  1.00  0.00     0.074 A 
ATOM     40  C   UNL A   1      42.334  25.348  27.759  1.00  0.00     0.049 A 
ATOM     41  N   UNL A   1      45.141  26.246  27.156  1.00  0.00    -0.248 NA
ATOM     42  C   UNL A   1      45.639  24.077  26.457  1.00  0.00     0.031 C 
ATOM     43  C   UNL A   1      40.966  24.960  28.109  1.00  0.00     0.029 A 
ATOM     44  N   UNL A   1      42.392  26.680  28.089  1.00  0.00    -0.354 N 
ATOM     45  C   UNL A   1      46.477  26.175  26.784  1.00  0.00     0.074 A 
ATOM     46  C   UNL A   1      46.748  24.800  26.436  1.00  0.00     0.031 C 
ATOM     47  C   UNL A   1      40.304  26.036  28.557  1.00  0.00     0.029 A 
ATOM     48  C   UNL A   1      41.210  27.179  28.581  1.00  0.00     0.049 A 
ATOM     49  H   UNL A   1      43.205  27.226  27.983  1.00  0.00     0.167 HD
ATOM     50  C   UNL A   1      47.390  27.174  26.708  1.00  0.00     0.037 A 
ATOM     51  C   UNL A   1      40.894  28.415  29.010  1.00  0.00     0.037 A 
ATOM     52  C   UNL A   1      47.116  28.545  27.054  1.00  0.00     0.049 A 
ATOM     53  C   UNL A   1      41.941  29.497  28.958  1.00  0.00     0.074 A 
ATOM     54  C   UNL A   1      47.958  29.638  26.969  1.00  0.00     0.029 A 
ATOM     55  N   UNL A   1      45.913  29.007  27.568  1.00  0.00    -0.354 N 
ATOM     56  N   UNL A   1      43.177  29.437  28.523  1.00  0.00    -0.248 NA
ATOM     57  C   UNL A   1      41.544  30.824  29.449  1.00  0.00     0.031 C 
ATOM     58  C   UNL A   1      47.296  30.744  27.508  1.00  0.00     0.029 A 
ATOM     59  C   UNL A   1      46.007  30.362  27.845  1.00  0.00     0.049 A 
ATOM     60  H   UNL A   1      45.111  28.454  27.716  1.00  0.00     0.167 HD
ATOM     61  C   UNL A   1      43.694  30.718  28.661  1.00  0.00     0.074 A 
ATOM     62  C   UNL A   1      42.626  31.541  29.190  1.00  0.00     0.031 C 
ATOM     63  C   UNL A   1      44.940  31.173  28.377  1.00  0.00     0.037 A 
BRANCH  50  64
ATOM     64  C   UNL A   1      48.774  26.818  26.245  1.00  0.00     0.064 A 
ATOM     65  C   UNL A   1      49.744  26.308  27.124  1.00  0.00     0.173 A 
ATOM     66  C   UNL A   1      49.128  26.954  24.893  1.00  0.00     0.173 A 
ATOM     67  F   UNL A   1      49.465  26.164  28.428  1.00  0.00    -0.203 F 
ATOM     68  C   UNL A   1      51.022  25.987  26.676  1.00  0.00     0.198 A 
ATOM     69  C   UNL A   1      50.394  26.591  24.441  1.00  0.00     0.198 A 
ATOM     70  F   UNL A   1      48.241  27.428  24.005  1.00  0.00    -0.203 F 
ATOM     71  F   UNL A   1      51.948  25.562  27.547  1.00  0.00    -0.200 F 
ATOM     72  C   UNL A   1      51.343  26.119  25.333  1.00  0.00     0.200 A 
ATOM     73  F   UNL A   1      50.695  26.701  23.140  1.00  0.00    -0.200 F 
ATOM     74  F   UNL A   1      52.571  25.799  24.902  1.00  0.00    -0.200 F 
ENDBRANCH  50  64
BRANCH  51  75
ATOM     75  C   UNL A   1      39.527  28.705  29.523  1.00  0.00     0.064 A 
ATOM     76  C   UNL A   1      38.523  29.203  28.680  1.00  0.00     0.173 A 
ATOM     77  C   UNL A   1      39.202  28.514  30.875  1.00  0.00     0.173 A 
ATOM     78  F   UNL A   1      38.786  29.422  27.383  1.00  0.00    -0.203 F 
ATOM     79  C   UNL A   1      37.263  29.533  29.174  1.00  0.00     0.198 A 
ATOM     80  C   UNL A   1      37.928  28.805  31.359  1.00  0.00     0.198 A 
ATOM     81  F   UNL A   1      40.120  28.035  31.727  1.00  0.00    -0.203 F 
ATOM     82  F   UNL A   1      36.345  30.071  28.359  1.00  0.00    -0.200 F 
ATOM     83  C   UNL A   1      36.964  29.328  30.513  1.00  0.00     0.200 A 
ATOM     84  F   UNL A   1      37.638  28.585  32.649  1.00  0.00    -0.200 F 
ATOM     85  F   UNL A   1      35.752  29.642  30.987  1.00  0.00    -0.200 F 
ENDBRANCH  51  75
BRANCH  63  86
ATOM     86  C   UNL A   1      45.207  32.637  28.600  1.00  0.00     0.064 A 
ATOM     87  C   UNL A   1      45.755  33.120  29.798  1.00  0.00     0.173 A 
ATOM     88  C   UNL A   1      44.924  33.571  27.590  1.00  0.00     0.173 A 
ATOM     89  F   UNL A   1      46.037  32.274  30.801  1.00  0.00    -0.203 F 
ATOM     90  C   UNL A   1      45.961  34.483  29.995  1.00  0.00     0.198 A 
ATOM     91  C   UNL A   1      45.176  34.928  27.773  1.00  0.00     0.198 A 
ATOM     92  F   UNL A   1      44.410  33.168  26.417  1.00  0.00    -0.203 F 
ATOM     93  F   UNL A   1      46.411  34.925  31.177  1.00  0.00    -0.200 F 
ATOM     94  C   UNL A   1      45.678  35.384  28.981  1.00  0.00     0.200 A 
ATOM     95  F   UNL A   1      44.925  35.794  26.781  1.00  0.00    -0.200 F 
ATOM     96  F   UNL A   1      45.881  36.695  29.172  1.00  0.00    -0.200 F 
ENDBRANCH  63  86
ENDBRANCH  37  38
ENDBRANCH  29  32
ENDBRANCH  27  28
ENDBRANCH  26  27
ENDBRANCH   1  26
TORSDOF 16
ENDMDL
MODEL 3
REMARK VINA RESULT:     -12.0      1.028      7.387
REMARK SMILES CSc1ccccc1[C@H](C(=O)NCCCNC(=O)c1ccc(-c2c3nc(c(-c4c(F)c(F)c(F)c(F)c4F)c4ccc([nH]4)c(-c4c(F)c(F)c(F)c(F)c4F)c4nc(c(-c5c(F)c(F)c(F)c(F)c5F)c5ccc2[nH]5)C=C4)C=C3)cc1)[N@@H+](C)CCc1cnn(C)c1
REMARK SMILES IDX 13 1 12 2 10 3 11 4 9 6 8 7 3 8 4 9 5 10 7 11 6 12 2 13 1 14
REMARK SMILES IDX 82 15 83 16 84 18 85 19 86 20 87 21 91 22 88 23 89 24 90 25
REMARK SMILES IDX 14 26 15 27 16 28 17 29 18 31 19 32 20 33 81 34 21 35 80 36
REMARK SMILES IDX 22 37 23 38 24 39 74 40 25 41 79 42 73 43 75 44 26 45 78 46
REMARK SMILES IDX 72 47 71 48 27 50 59 51 39 52 58 53 40 54 43 55 57 56 76 57
REMARK SMILES IDX 41 58 42 59 56 61 77 62 44 63 28 64 29 65 37 66 30 67 31 68
REMARK SMILES IDX 35 69 38 70 32 71 33 72 36 73 34 74 60 75 61 76 69 77 62 78
REMARK SMILES IDX 63 79 67 80 70 81 64 82 65 83 68 84 66 85 45 86 46 87 54 88
REMARK SMILES IDX 47 89 48 90 52 91 55 92 49 93 50 94 53 95 51 96
REMARK H PARENT 12 5 82 17 16 30 75 49 43 60
REMARK Flexibility Score: inf
ROOT
ATOM      1  C   UNL A   1      36.687  20.895  25.227  1.00  0.00     0.118 C 
ENDROOT
BRANCH   1   2
ATOM      2  N   UNL A   1      35.501  20.058  25.377  1.00  0.00    -0.351 N 
ATOM      3  C   UNL A   1      34.188  20.428  25.529  1.00  0.00     0.283 C 
ATOM      4  O   UNL A   1      33.360  19.514  25.590  1.00  0.00    -0.268 OA
ATOM      5  H   UNL A   1      35.666  19.088  25.367  1.00  0.00     0.163 HD
BRANCH   3   6
ATOM      6  C   UNL A   1      33.845  21.901  25.732  1.00  0.00     0.306 C 
BRANCH   6   7
ATOM      7  C   UNL A   1      33.805  22.790  24.530  1.00  0.00     0.033 A 
ATOM      8  C   UNL A   1      32.759  22.712  23.046  1.00  0.00     0.017 A 
ATOM      9  C   UNL A   1      32.483  24.570  22.093  1.00  0.00     0.015 A 
ATOM     10  C   UNL A   1      33.206  26.019  22.766  1.00  0.00     0.001 A 
ATOM     11  C   UNL A   1      34.469  24.371  24.970  1.00  0.00     0.011 A 
ATOM     12  C   UNL A   1      34.156  25.861  24.150  1.00  0.00     0.001 A 
BRANCH   8  13
ATOM     13  S   UNL A   1      32.138  20.822  22.689  1.00  0.00    -0.129 SA
ATOM     14  C   UNL A   1      31.758  20.780  20.913  1.00  0.00     0.091 C 
ENDBRANCH   8  13
ENDBRANCH   6   7
BRANCH   6  15
ATOM     15  N   UNL A   1      32.594  22.101  26.528  1.00  0.00    -0.323 N 
ATOM     16  C   UNL A   1      32.801  22.631  27.873  1.00  0.00     0.333 C 
ATOM     17  H   UNL A   1      32.268  21.143  26.652  1.00  0.00     0.348 HD
BRANCH  15  18
ATOM     18  C   UNL A   1      31.499  22.804  25.814  1.00  0.00     0.267 C 
BRANCH  18  19
ATOM     19  C   UNL A   1      30.492  23.792  26.537  1.00  0.00     0.100 C 
BRANCH  19  20
ATOM     20  C   UNL A   1      30.630  25.343  26.234  1.00  0.00    -0.004 A 
ATOM     21  C   UNL A   1      29.771  25.910  24.546  1.00  0.00     0.139 A 
ATOM     22  C   UNL A   1      31.780  26.917  26.658  1.00  0.00     0.112 A 
ATOM     23  N   UNL A   1      30.299  27.460  24.072  1.00  0.00    -0.182 NA
ATOM     24  N   UNL A   1      31.529  28.106  25.262  1.00  0.00    -0.276 N 
ATOM     25  C   UNL A   1      32.339  29.290  25.127  1.00  0.00     0.173 C 
ENDBRANCH  19  20
ENDBRANCH  18  19
ENDBRANCH  15  18
ENDBRANCH   6  15
ENDBRANCH   3   6
ENDBRANCH   1   2
BRANCH   1  26
ATOM     26  C   UNL A   1      37.910  20.093  24.852  1.00  0.00     0.042 C 
BRANCH  26  27
ATOM     27  C   UNL A   1      39.117  20.384  25.736  1.00  0.00     0.118 C 
BRANCH  27  28
ATOM     28  N   UNL A   1      40.072  19.288  25.834  1.00  0.00    -0.352 N 
ATOM     29  C   UNL A   1      41.423  19.339  26.102  1.00  0.00     0.251 C 
ATOM     30  H   UNL A   1      39.701  18.388  25.690  1.00  0.00     0.163 HD
ATOM     31  O   UNL A   1      42.113  18.327  26.026  1.00  0.00    -0.269 OA
BRANCH  29  32
ATOM     32  C   UNL A   1      42.055  20.638  26.431  1.00  0.00     0.039 A 
ATOM     33  C   UNL A   1      42.388  21.509  25.393  1.00  0.00     0.014 A 
ATOM     34  C   UNL A   1      42.267  21.021  27.757  1.00  0.00     0.014 A 
ATOM     35  C   UNL A   1      42.843  22.794  25.693  1.00  0.00     0.010 A 
ATOM     36  C   UNL A   1      42.587  22.343  28.053  1.00  0.00     0.010 A 
ATOM     37  C   UNL A   1      42.892  23.243  27.024  1.00  0.00    -0.014 A 
BRANCH  37  38
ATOM     38  C   UNL A   1      43.267  24.645  27.346  1.00  0.00     0.031 A 
ATOM     39  C   UNL A   1      44.669  25.135  27.099  1.00  0.00     0.074 A 
ATOM     40  C   UNL A   1      42.351  25.475  27.886  1.00  0.00     0.049 A 
ATOM     41  N   UNL A   1      45.179  26.324  27.307  1.00  0.00    -0.248 NA
ATOM     42  C   UNL A   1      45.633  24.157  26.572  1.00  0.00     0.031 C 
ATOM     43  C   UNL A   1      40.975  25.109  28.224  1.00  0.00     0.029 A 
ATOM     44  N   UNL A   1      42.436  26.799  28.239  1.00  0.00    -0.354 N 
ATOM     45  C   UNL A   1      46.514  26.231  26.938  1.00  0.00     0.074 A 
ATOM     46  C   UNL A   1      46.758  24.856  26.567  1.00  0.00     0.031 C 
ATOM     47  C   UNL A   1      40.333  26.191  28.689  1.00  0.00     0.029 A 
ATOM     48  C   UNL A   1      41.263  27.314  28.736  1.00  0.00     0.049 A 
ATOM     49  H   UNL A   1      43.261  27.329  28.146  1.00  0.00     0.167 HD
ATOM     50  C   UNL A   1      47.448  27.211  26.884  1.00  0.00     0.037 A 
ATOM     51  C   UNL A   1      40.972  28.549  29.186  1.00  0.00     0.037 A 
ATOM     52  C   UNL A   1      47.202  28.581  27.253  1.00  0.00     0.049 A 
ATOM     53  C   UNL A   1      42.042  29.609  29.156  1.00  0.00     0.074 A 
ATOM     54  C   UNL A   1      48.068  29.658  27.190  1.00  0.00     0.029 A 
ATOM     55  N   UNL A   1      46.007  29.059  27.772  1.00  0.00    -0.354 N 
ATOM     56  N   UNL A   1      43.278  29.530  28.725  1.00  0.00    -0.248 NA
ATOM     57  C   UNL A   1      41.671  30.935  29.670  1.00  0.00     0.031 C 
ATOM     58  C   UNL A   1      47.427  30.768  27.747  1.00  0.00     0.029 A 
ATOM     59  C   UNL A   1      46.130  30.407  28.072  1.00  0.00     0.049 A 
ATOM     60  H   UNL A   1      45.194  28.521  27.907  1.00  0.00     0.167 HD
ATOM     61  C   UNL A   1      43.822  30.798  28.887  1.00  0.00     0.074 A 
ATOM     62  C   UNL A   1      42.770  31.633  29.427  1.00  0.00     0.031 C 
ATOM     63  C   UNL A   1      45.078  31.231  28.616  1.00  0.00     0.037 A 
BRANCH  50  64
ATOM     64  C   UNL A   1      48.827  26.834  26.418  1.00  0.00     0.064 A 
ATOM     65  C   UNL A   1      49.785  26.295  27.293  1.00  0.00     0.173 A 
ATOM     66  C   UNL A   1      49.186  26.979  25.069  1.00  0.00     0.173 A 
ATOM     67  F   UNL A   1      49.500  26.141  28.595  1.00  0.00    -0.203 F 
ATOM     68  C   UNL A   1      51.057  25.954  26.844  1.00  0.00     0.198 A 
ATOM     69  C   UNL A   1      50.446  26.597  24.615  1.00  0.00     0.198 A 
ATOM     70  F   UNL A   1      48.310  27.480  24.185  1.00  0.00    -0.203 F 
ATOM     71  F   UNL A   1      51.974  25.502  27.711  1.00  0.00    -0.200 F 
ATOM     72  C   UNL A   1      51.384  26.097  25.503  1.00  0.00     0.200 A 
ATOM     73  F   UNL A   1      50.751  26.716  23.315  1.00  0.00    -0.200 F 
ATOM     74  F   UNL A   1      52.606  25.758  25.070  1.00  0.00    -0.200 F 
ENDBRANCH  50  64
BRANCH  51  75
ATOM     75  C   UNL A   1      39.610  28.858  29.700  1.00  0.00     0.064 A 
ATOM     76  C   UNL A   1      39.262  28.610  31.036  1.00  0.00     0.173 A 
ATOM     77  C   UNL A   1      38.616  29.383  28.859  1.00  0.00     0.173 A 
ATOM     78  F   UNL A   1      40.168  28.091  31.878  1.00  0.00    -0.203 F 
ATOM     79  C   UNL A   1      37.969  28.840  31.500  1.00  0.00     0.198 A 
ATOM     80  C   UNL A   1      37.335  29.652  29.335  1.00  0.00     0.198 A 
ATOM     81  F   UNL A   1      38.893  29.645  27.573  1.00  0.00    -0.203 F 
ATOM     82  F   UNL A   1      37.648  28.531  32.764  1.00  0.00    -0.200 F 
ATOM     83  C   UNL A   1      37.008  29.368  30.651  1.00  0.00     0.200 A 
ATOM     84  F   UNL A   1      36.416  30.182  28.516  1.00  0.00    -0.200 F 
ATOM     85  F   UNL A   1      35.766  29.591  31.098  1.00  0.00    -0.200 F 
ENDBRANCH  51  75
BRANCH  63  86
ATOM     86  C   UNL A   1      45.375  32.685  28.865  1.00  0.00     0.064 A 
ATOM     87  C   UNL A   1      45.131  33.671  27.897  1.00  0.00     0.173 A 
ATOM     88  C   UNL A   1      45.899  33.100  30.100  1.00  0.00     0.173 A 
ATOM     89  F   UNL A   1      44.639  33.331  26.696  1.00  0.00    -0.203 F 
ATOM     90  C   UNL A   1      45.446  35.006  28.136  1.00  0.00     0.198 A 
ATOM     91  C   UNL A   1      46.169  34.442  30.353  1.00  0.00     0.198 A 
ATOM     92  F   UNL A   1      46.142  32.205  31.070  1.00  0.00    -0.203 F 
ATOM     93  F   UNL A   1      45.277  35.915  27.167  1.00  0.00    -0.200 F 
ATOM     94  C   UNL A   1      45.958  35.391  29.365  1.00  0.00     0.200 A 
ATOM     95  F   UNL A   1      46.640  34.815  31.551  1.00  0.00    -0.200 F 
ATOM     96  F   UNL A   1      46.258  36.677  29.595  1.00  0.00    -0.200 F 
ENDBRANCH  63  86
ENDBRANCH  37  38
ENDBRANCH  29  32
ENDBRANCH  27  28
ENDBRANCH  26  27
ENDBRANCH   1  26
TORSDOF 16
ENDMDL
