MODEL 1
REMARK VINA RESULT:     -13.8      0.000      0.000
REMARK SMILES O=C(Cn1c(=O)c2c3c(sc2n(Cc2ccc(Cl)cc2Cl)c1=O)CCCC3)NCCCNC(=O)c1ccc(-c2c3nc(c(-c4c(F)c(F)c(F)c(F)c4F)c4ccc([nH]4)c(-c4c(F)c(F)c(F)c(F)c4F)c4nc(c(-c5c(F)c(F)c(F)c(F)c5F)c5ccc2[nH]5)C=C4)C=C3)cc1
REMARK SMILES IDX 29 1 28 2 1 3 2 4 3 6 4 7 5 8 22 9 6 10 7 11 12 12 23 13
REMARK SMILES IDX 8 14 11 15 9 16 27 17 10 18 24 19 26 20 25 21 13 22 14 23
REMARK SMILES IDX 15 24 20 25 16 26 19 27 21 28 17 29 18 30 30 31 31 32 32 33
REMARK SMILES IDX 33 34 34 36 35 37 36 38 97 39 37 40 96 41 38 42 39 43 40 44
REMARK SMILES IDX 90 45 41 46 95 47 89 48 91 49 42 50 94 51 88 52 87 53 43 55
REMARK SMILES IDX 75 56 55 57 74 58 56 59 59 60 73 61 92 62 57 63 58 64 72 66
REMARK SMILES IDX 93 67 60 68 44 69 45 70 53 71 46 72 47 73 51 74 54 75 48 76
REMARK SMILES IDX 49 77 52 78 50 79 76 80 77 81 85 82 78 83 79 84 83 85 86 86
REMARK SMILES IDX 80 87 81 88 84 89 82 90 61 91 62 92 70 93 63 94 64 95 68 96
REMARK SMILES IDX 71 97 65 98 66 99 69 100 67 101
REMARK H PARENT 28 5 32 35 91 54 59 65
REMARK Flexibility Score: inf
ROOT
ATOM      1  C   UNL A   1      43.346  41.114  26.353  1.00  0.00     0.117 C 
ENDROOT
BRANCH   1   2
ATOM      2  N   UNL A   1      43.308  42.312  25.528  1.00  0.00    -0.354 N 
ATOM      3  O   UNL A   1      42.234  41.330  23.751  1.00  0.00    -0.273 OA
ATOM      4  C   UNL A   1      42.682  42.339  24.292  1.00  0.00     0.240 C 
ATOM      5  H   UNL A   1      43.743  43.131  25.859  1.00  0.00     0.163 HD
BRANCH   4   6
ATOM      6  C   UNL A   1      42.630  43.712  23.609  1.00  0.00     0.230 C 
BRANCH   6   7
ATOM      7  N   UNL A   1      43.599  43.785  22.515  1.00  0.00    -0.250 N 
ATOM      8  C   UNL A   1      44.927  44.031  22.870  1.00  0.00     0.265 A 
ATOM      9  C   UNL A   1      43.115  43.624  21.207  1.00  0.00     0.332 A 
ATOM     10  O   UNL A   1      45.296  44.287  24.021  1.00  0.00    -0.268 OA
ATOM     11  C   UNL A   1      45.863  43.974  21.773  1.00  0.00     0.079 A 
ATOM     12  N   UNL A   1      44.034  43.662  20.155  1.00  0.00    -0.280 N 
ATOM     13  O   UNL A   1      41.912  43.421  21.010  1.00  0.00    -0.247 OA
ATOM     14  C   UNL A   1      47.296  44.154  21.755  1.00  0.00    -0.019 A 
ATOM     15  C   UNL A   1      45.374  43.761  20.507  1.00  0.00     0.113 A 
ATOM     16  C   UNL A   1      47.790  44.034  20.470  1.00  0.00     0.011 A 
ATOM     17  C   UNL A   1      48.205  44.495  22.903  1.00  0.00     0.037 C 
ATOM     18  S   UNL A   1      46.601  43.567  19.370  1.00  0.00    -0.122 S 
ATOM     19  C   UNL A   1      49.206  44.235  20.038  1.00  0.00     0.047 C 
ATOM     20  C   UNL A   1      49.689  44.323  22.522  1.00  0.00     0.005 C 
ATOM     21  C   UNL A   1      50.003  44.929  21.146  1.00  0.00     0.006 C 
BRANCH  12  22
ATOM     22  C   UNL A   1      43.537  43.579  18.755  1.00  0.00     0.165 C 
BRANCH  22  23
ATOM     23  C   UNL A   1      43.124  44.928  18.177  1.00  0.00    -0.009 A 
ATOM     24  C   UNL A   1      44.104  45.927  18.025  1.00  0.00     0.008 A 
ATOM     25  C   UNL A   1      41.814  45.237  17.760  1.00  0.00     0.047 A 
ATOM     26  C   UNL A   1      43.807  47.142  17.397  1.00  0.00     0.021 A 
ATOM     27  C   UNL A   1      41.540  46.408  17.045  1.00  0.00     0.041 A 
ATOM     28  Cl  UNL A   1      40.437  44.285  18.203  1.00  0.00    -0.084 Cl
ATOM     29  C   UNL A   1      42.539  47.354  16.864  1.00  0.00     0.042 A 
ATOM     30  Cl  UNL A   1      42.193  48.810  16.016  1.00  0.00    -0.084 Cl
ENDBRANCH  22  23
ENDBRANCH  12  22
ENDBRANCH   6   7
ENDBRANCH   4   6
ENDBRANCH   1   2
BRANCH   1  31
ATOM     31  C   UNL A   1      41.963  40.548  26.712  1.00  0.00     0.042 C 
BRANCH  31  32
ATOM     32  C   UNL A   1      41.927  39.059  27.116  1.00  0.00     0.118 C 
BRANCH  32  33
ATOM     33  N   UNL A   1      43.094  38.340  26.621  1.00  0.00    -0.352 N 
ATOM     34  C   UNL A   1      43.746  37.190  26.981  1.00  0.00     0.251 C 
ATOM     35  H   UNL A   1      43.512  38.785  25.850  1.00  0.00     0.163 HD
ATOM     36  O   UNL A   1      44.836  36.989  26.439  1.00  0.00    -0.269 OA
BRANCH  34  37
ATOM     37  C   UNL A   1      43.261  36.172  27.951  1.00  0.00     0.039 A 
ATOM     38  C   UNL A   1      44.245  35.462  28.668  1.00  0.00     0.014 A 
ATOM     39  C   UNL A   1      41.935  35.761  28.065  1.00  0.00     0.014 A 
ATOM     40  C   UNL A   1      43.919  34.391  29.514  1.00  0.00     0.010 A 
ATOM     41  C   UNL A   1      41.610  34.680  28.913  1.00  0.00     0.010 A 
ATOM     42  C   UNL A   1      42.591  33.997  29.668  1.00  0.00    -0.014 A 
BRANCH  42  43
ATOM     43  C   UNL A   1      42.248  33.051  30.772  1.00  0.00     0.031 A 
ATOM     44  C   UNL A   1      40.854  33.200  31.257  1.00  0.00     0.074 A 
ATOM     45  C   UNL A   1      42.784  31.831  31.025  1.00  0.00     0.049 A 
ATOM     46  N   UNL A   1      39.900  32.591  30.626  1.00  0.00    -0.248 NA
ATOM     47  C   UNL A   1      40.386  34.170  32.238  1.00  0.00     0.031 C 
ATOM     48  C   UNL A   1      43.530  31.029  30.053  1.00  0.00     0.029 A 
ATOM     49  N   UNL A   1      42.595  30.967  32.097  1.00  0.00    -0.354 N 
ATOM     50  C   UNL A   1      38.709  33.147  31.029  1.00  0.00     0.074 A 
ATOM     51  C   UNL A   1      39.053  34.093  32.068  1.00  0.00     0.031 C 
ATOM     52  C   UNL A   1      43.607  29.758  30.507  1.00  0.00     0.029 A 
ATOM     53  C   UNL A   1      43.062  29.676  31.865  1.00  0.00     0.049 A 
ATOM     54  H   UNL A   1      42.170  31.241  32.942  1.00  0.00     0.167 HD
ATOM     55  C   UNL A   1      37.541  32.765  30.448  1.00  0.00     0.037 A 
ATOM     56  C   UNL A   1      42.594  28.519  32.410  1.00  0.00     0.037 A 
ATOM     57  C   UNL A   1      37.597  31.733  29.429  1.00  0.00     0.049 A 
ATOM     58  C   UNL A   1      41.229  28.358  31.807  1.00  0.00     0.074 A 
ATOM     59  C   UNL A   1      36.951  31.379  28.261  1.00  0.00     0.029 A 
ATOM     60  N   UNL A   1      38.557  30.776  29.594  1.00  0.00    -0.354 N 
ATOM     61  N   UNL A   1      40.961  27.861  30.627  1.00  0.00    -0.248 NA
ATOM     62  C   UNL A   1      40.082  28.979  32.492  1.00  0.00     0.031 C 
ATOM     63  C   UNL A   1      37.453  30.090  27.862  1.00  0.00     0.029 A 
ATOM     64  C   UNL A   1      38.359  29.671  28.820  1.00  0.00     0.049 A 
ATOM     65  H   UNL A   1      39.318  30.874  30.211  1.00  0.00     0.167 HD
ATOM     66  C   UNL A   1      39.687  28.331  30.338  1.00  0.00     0.074 A 
ATOM     67  C   UNL A   1      39.138  28.861  31.567  1.00  0.00     0.031 C 
ATOM     68  C   UNL A   1      39.240  28.561  29.073  1.00  0.00     0.037 A 
BRANCH  55  69
ATOM     69  C   UNL A   1      36.225  33.162  30.979  1.00  0.00     0.064 A 
ATOM     70  C   UNL A   1      35.467  34.071  30.223  1.00  0.00     0.173 A 
ATOM     71  C   UNL A   1      35.771  32.818  32.253  1.00  0.00     0.173 A 
ATOM     72  F   UNL A   1      35.870  34.416  28.989  1.00  0.00    -0.203 F 
ATOM     73  C   UNL A   1      34.315  34.651  30.737  1.00  0.00     0.198 A 
ATOM     74  C   UNL A   1      34.608  33.396  32.764  1.00  0.00     0.198 A 
ATOM     75  F   UNL A   1      36.466  31.959  33.011  1.00  0.00    -0.203 F 
ATOM     76  F   UNL A   1      33.632  35.541  30.006  1.00  0.00    -0.200 F 
ATOM     77  C   UNL A   1      33.890  34.318  32.013  1.00  0.00     0.200 A 
ATOM     78  F   UNL A   1      34.191  33.078  33.999  1.00  0.00    -0.200 F 
ATOM     79  F   UNL A   1      32.791  34.894  32.521  1.00  0.00    -0.200 F 
ENDBRANCH  55  69
BRANCH  56  80
ATOM     80  C   UNL A   1      42.875  28.183  33.846  1.00  0.00     0.064 A 
ATOM     81  C   UNL A   1      43.297  26.881  34.185  1.00  0.00     0.173 A 
ATOM     82  C   UNL A   1      42.658  29.047  34.935  1.00  0.00     0.173 A 
ATOM     83  F   UNL A   1      43.401  25.938  33.236  1.00  0.00    -0.203 F 
ATOM     84  C   UNL A   1      43.590  26.511  35.504  1.00  0.00     0.198 A 
ATOM     85  C   UNL A   1      42.988  28.694  36.247  1.00  0.00     0.198 A 
ATOM     86  F   UNL A   1      42.106  30.255  34.766  1.00  0.00    -0.203 F 
ATOM     87  F   UNL A   1      43.992  25.262  35.775  1.00  0.00    -0.200 F 
ATOM     88  C   UNL A   1      43.468  27.430  36.530  1.00  0.00     0.200 A 
ATOM     89  F   UNL A   1      42.839  29.589  37.233  1.00  0.00    -0.200 F 
ATOM     90  F   UNL A   1      43.789  27.095  37.786  1.00  0.00    -0.200 F 
ENDBRANCH  56  80
BRANCH  68  91
ATOM     91  C   UNL A   1      39.870  27.780  27.991  1.00  0.00     0.064 A 
ATOM     92  C   UNL A   1      40.718  28.426  27.080  1.00  0.00     0.173 A 
ATOM     93  C   UNL A   1      39.681  26.400  27.860  1.00  0.00     0.173 A 
ATOM     94  F   UNL A   1      40.950  29.744  27.186  1.00  0.00    -0.203 F 
ATOM     95  C   UNL A   1      41.359  27.716  26.073  1.00  0.00     0.198 A 
ATOM     96  C   UNL A   1      40.333  25.690  26.856  1.00  0.00     0.198 A 
ATOM     97  F   UNL A   1      38.869  25.737  28.698  1.00  0.00    -0.203 F 
ATOM     98  F   UNL A   1      42.173  28.353  25.220  1.00  0.00    -0.200 F 
ATOM     99  C   UNL A   1      41.172  26.346  25.966  1.00  0.00     0.200 A 
ATOM    100  F   UNL A   1      40.163  24.363  26.757  1.00  0.00    -0.200 F 
ATOM    101  F   UNL A   1      41.812  25.656  25.012  1.00  0.00    -0.200 F 
ENDBRANCH  68  91
ENDBRANCH  42  43
ENDBRANCH  34  37
ENDBRANCH  32  33
ENDBRANCH  31  32
ENDBRANCH   1  31
TORSDOF 13
ENDMDL
MODEL 2
REMARK VINA RESULT:     -13.4      8.215     13.788
REMARK SMILES O=C(Cn1c(=O)c2c3c(sc2n(Cc2ccc(Cl)cc2Cl)c1=O)CCCC3)NCCCNC(=O)c1ccc(-c2c3nc(c(-c4c(F)c(F)c(F)c(F)c4F)c4ccc([nH]4)c(-c4c(F)c(F)c(F)c(F)c4F)c4nc(c(-c5c(F)c(F)c(F)c(F)c5F)c5ccc2[nH]5)C=C4)C=C3)cc1
REMARK SMILES IDX 29 1 28 2 1 3 2 4 3 6 4 7 5 8 22 9 6 10 7 11 12 12 23 13
REMARK SMILES IDX 8 14 11 15 9 16 27 17 10 18 24 19 26 20 25 21 13 22 14 23
REMARK SMILES IDX 15 24 20 25 16 26 19 27 21 28 17 29 18 30 30 31 31 32 32 33
REMARK SMILES IDX 33 34 34 36 35 37 36 38 97 39 37 40 96 41 38 42 39 43 40 44
REMARK SMILES IDX 90 45 41 46 95 47 89 48 91 49 42 50 94 51 88 52 87 53 43 55
REMARK SMILES IDX 75 56 55 57 74 58 56 59 59 60 73 61 92 62 57 63 58 64 72 66
REMARK SMILES IDX 93 67 60 68 44 69 45 70 53 71 46 72 47 73 51 74 54 75 48 76
REMARK SMILES IDX 49 77 52 78 50 79 76 80 77 81 85 82 78 83 79 84 83 85 86 86
REMARK SMILES IDX 80 87 81 88 84 89 82 90 61 91 62 92 70 93 63 94 64 95 68 96
REMARK SMILES IDX 71 97 65 98 66 99 69 100 67 101
REMARK H PARENT 28 5 32 35 91 54 59 65
REMARK Flexibility Score: inf
ROOT
ATOM      1  C   UNL A   1      42.242  27.495  36.159  1.00  0.00     0.117 C 
ENDROOT
BRANCH   1   2
ATOM      2  N   UNL A   1      41.116  28.228  35.602  1.00  0.00    -0.354 N 
ATOM      3  O   UNL A   1      42.386  29.682  34.358  1.00  0.00    -0.273 OA
ATOM      4  C   UNL A   1      41.282  29.244  34.673  1.00  0.00     0.240 C 
ATOM      5  H   UNL A   1      40.205  27.995  35.895  1.00  0.00     0.163 HD
BRANCH   4   6
ATOM      6  C   UNL A   1      39.985  29.829  34.099  1.00  0.00     0.230 C 
BRANCH   6   7
ATOM      7  N   UNL A   1      39.900  31.266  34.368  1.00  0.00    -0.250 N 
ATOM      8  C   UNL A   1      39.791  31.646  35.708  1.00  0.00     0.265 A 
ATOM      9  C   UNL A   1      39.912  32.134  33.266  1.00  0.00     0.332 A 
ATOM     10  O   UNL A   1      39.663  30.848  36.642  1.00  0.00    -0.268 OA
ATOM     11  C   UNL A   1      39.832  33.070  35.933  1.00  0.00     0.079 A 
ATOM     12  N   UNL A   1      39.861  33.510  33.511  1.00  0.00    -0.280 N 
ATOM     13  O   UNL A   1      40.000  31.683  32.119  1.00  0.00    -0.247 OA
ATOM     14  C   UNL A   1      39.767  33.826  37.162  1.00  0.00    -0.019 A 
ATOM     15  C   UNL A   1      39.900  33.903  34.843  1.00  0.00     0.113 A 
ATOM     16  C   UNL A   1      39.819  35.183  36.908  1.00  0.00     0.011 A 
ATOM     17  C   UNL A   1      39.597  33.309  38.564  1.00  0.00     0.037 C 
ATOM     18  S   UNL A   1      40.096  35.518  35.280  1.00  0.00    -0.122 S 
ATOM     19  C   UNL A   1      39.698  36.283  37.913  1.00  0.00     0.047 C 
ATOM     20  C   UNL A   1      39.856  34.411  39.611  1.00  0.00     0.005 C 
ATOM     21  C   UNL A   1      39.165  35.731  39.239  1.00  0.00     0.006 C 
BRANCH  12  22
ATOM     22  C   UNL A   1      39.787  34.449  32.359  1.00  0.00     0.165 C 
BRANCH  22  23
ATOM     23  C   UNL A   1      38.521  34.285  31.524  1.00  0.00    -0.009 A 
ATOM     24  C   UNL A   1      38.644  34.176  30.126  1.00  0.00     0.008 A 
ATOM     25  C   UNL A   1      37.223  34.215  32.069  1.00  0.00     0.047 A 
ATOM     26  C   UNL A   1      37.529  33.911  29.322  1.00  0.00     0.021 A 
ATOM     27  C   UNL A   1      36.126  33.853  31.279  1.00  0.00     0.041 A 
ATOM     28  Cl  UNL A   1      36.858  34.691  33.693  1.00  0.00    -0.084 Cl
ATOM     29  C   UNL A   1      36.285  33.700  29.909  1.00  0.00     0.042 A 
ATOM     30  Cl  UNL A   1      34.929  33.291  28.933  1.00  0.00    -0.084 Cl
ENDBRANCH  22  23
ENDBRANCH  12  22
ENDBRANCH   6   7
ENDBRANCH   4   6
ENDBRANCH   1   2
BRANCH   1  31
ATOM     31  C   UNL A   1      41.847  26.340  37.093  1.00  0.00     0.042 C 
BRANCH  31  32
ATOM     32  C   UNL A   1      41.515  24.999  36.406  1.00  0.00     0.118 C 
BRANCH  32  33
ATOM     33  N   UNL A   1      42.654  24.090  36.422  1.00  0.00    -0.352 N 
ATOM     34  C   UNL A   1      43.723  23.864  35.596  1.00  0.00     0.251 C 
ATOM     35  H   UNL A   1      42.654  23.500  37.209  1.00  0.00     0.163 HD
ATOM     36  O   UNL A   1      44.398  22.860  35.839  1.00  0.00    -0.269 OA
BRANCH  34  37
ATOM     37  C   UNL A   1      44.142  24.714  34.448  1.00  0.00     0.039 A 
ATOM     38  C   UNL A   1      43.770  24.270  33.163  1.00  0.00     0.014 A 
ATOM     39  C   UNL A   1      45.008  25.800  34.547  1.00  0.00     0.014 A 
ATOM     40  C   UNL A   1      44.214  24.913  31.999  1.00  0.00     0.010 A 
ATOM     41  C   UNL A   1      45.458  26.443  33.374  1.00  0.00     0.010 A 
ATOM     42  C   UNL A   1      45.049  26.026  32.086  1.00  0.00    -0.014 A 
BRANCH  42  43
ATOM     43  C   UNL A   1      45.277  26.848  30.860  1.00  0.00     0.031 A 
ATOM     44  C   UNL A   1      45.326  26.042  29.616  1.00  0.00     0.074 A 
ATOM     45  C   UNL A   1      44.950  28.148  30.652  1.00  0.00     0.049 A 
ATOM     46  N   UNL A   1      44.216  25.724  29.028  1.00  0.00    -0.248 NA
ATOM     47  C   UNL A   1      46.491  25.338  29.095  1.00  0.00     0.031 C 
ATOM     48  C   UNL A   1      43.968  28.899  31.437  1.00  0.00     0.029 A 
ATOM     49  N   UNL A   1      45.244  28.994  29.588  1.00  0.00    -0.354 N 
ATOM     50  C   UNL A   1      44.488  24.715  28.135  1.00  0.00     0.074 A 
ATOM     51  C   UNL A   1      45.924  24.538  28.173  1.00  0.00     0.031 C 
ATOM     52  C   UNL A   1      43.634  30.019  30.759  1.00  0.00     0.029 A 
ATOM     53  C   UNL A   1      44.481  30.159  29.571  1.00  0.00     0.049 A 
ATOM     54  H   UNL A   1      45.928  28.788  28.910  1.00  0.00     0.167 HD
ATOM     55  C   UNL A   1      43.480  24.116  27.447  1.00  0.00     0.037 A 
ATOM     56  C   UNL A   1      44.121  30.893  28.482  1.00  0.00     0.037 A 
ATOM     57  C   UNL A   1      42.131  24.604  27.661  1.00  0.00     0.049 A 
ATOM     58  C   UNL A   1      43.162  30.004  27.745  1.00  0.00     0.074 A 
ATOM     59  C   UNL A   1      40.837  24.123  27.695  1.00  0.00     0.029 A 
ATOM     60  N   UNL A   1      42.007  25.940  27.915  1.00  0.00    -0.354 N 
ATOM     61  N   UNL A   1      41.890  29.854  28.011  1.00  0.00    -0.248 NA
ATOM     62  C   UNL A   1      43.703  29.059  26.753  1.00  0.00     0.031 C 
ATOM     63  C   UNL A   1      39.956  25.257  27.797  1.00  0.00     0.029 A 
ATOM     64  C   UNL A   1      40.732  26.402  27.776  1.00  0.00     0.049 A 
ATOM     65  H   UNL A   1      42.765  26.513  28.173  1.00  0.00     0.167 HD
ATOM     66  C   UNL A   1      41.553  28.651  27.408  1.00  0.00     0.074 A 
ATOM     67  C   UNL A   1      42.641  28.296  26.522  1.00  0.00     0.031 C 
ATOM     68  C   UNL A   1      40.568  27.830  27.866  1.00  0.00     0.037 A 
BRANCH  55  69
ATOM     69  C   UNL A   1      43.726  23.187  26.330  1.00  0.00     0.064 A 
ATOM     70  C   UNL A   1      43.451  21.826  26.544  1.00  0.00     0.173 A 
ATOM     71  C   UNL A   1      44.366  23.555  25.146  1.00  0.00     0.173 A 
ATOM     72  F   UNL A   1      42.827  21.437  27.668  1.00  0.00    -0.203 F 
ATOM     73  C   UNL A   1      43.837  20.860  25.625  1.00  0.00     0.198 A 
ATOM     74  C   UNL A   1      44.747  22.583  24.220  1.00  0.00     0.198 A 
ATOM     75  F   UNL A   1      44.654  24.842  24.904  1.00  0.00    -0.203 F 
ATOM     76  F   UNL A   1      43.592  19.567  25.873  1.00  0.00    -0.200 F 
ATOM     77  C   UNL A   1      44.494  21.239  24.465  1.00  0.00     0.200 A 
ATOM     78  F   UNL A   1      45.382  22.944  23.095  1.00  0.00    -0.200 F 
ATOM     79  F   UNL A   1      44.890  20.306  23.588  1.00  0.00    -0.200 F 
ENDBRANCH  55  69
BRANCH  56  80
ATOM     80  C   UNL A   1      45.132  31.742  27.766  1.00  0.00     0.064 A 
ATOM     81  C   UNL A   1      44.775  33.042  27.351  1.00  0.00     0.173 A 
ATOM     82  C   UNL A   1      46.413  31.315  27.372  1.00  0.00     0.173 A 
ATOM     83  F   UNL A   1      43.530  33.497  27.554  1.00  0.00    -0.203 F 
ATOM     84  C   UNL A   1      45.678  33.888  26.694  1.00  0.00     0.198 A 
ATOM     85  C   UNL A   1      47.328  32.170  26.752  1.00  0.00     0.198 A 
ATOM     86  F   UNL A   1      46.814  30.051  27.562  1.00  0.00    -0.203 F 
ATOM     87  F   UNL A   1      45.294  35.117  26.323  1.00  0.00    -0.200 F 
ATOM     88  C   UNL A   1      46.965  33.462  26.425  1.00  0.00     0.200 A 
ATOM     89  F   UNL A   1      48.565  31.732  26.477  1.00  0.00    -0.200 F 
ATOM     90  F   UNL A   1      47.846  34.283  25.837  1.00  0.00    -0.200 F 
ENDBRANCH  56  80
BRANCH  68  91
ATOM     91  C   UNL A   1      39.478  28.462  28.635  1.00  0.00     0.064 A 
ATOM     92  C   UNL A   1      39.352  28.185  30.004  1.00  0.00     0.173 A 
ATOM     93  C   UNL A   1      38.579  29.361  28.052  1.00  0.00     0.173 A 
ATOM     94  F   UNL A   1      40.211  27.350  30.610  1.00  0.00    -0.203 F 
ATOM     95  C   UNL A   1      38.363  28.792  30.766  1.00  0.00     0.198 A 
ATOM     96  C   UNL A   1      37.596  29.975  28.823  1.00  0.00     0.198 A 
ATOM     97  F   UNL A   1      38.650  29.649  26.743  1.00  0.00    -0.203 F 
ATOM     98  F   UNL A   1      38.268  28.521  32.076  1.00  0.00    -0.200 F 
ATOM     99  C   UNL A   1      37.489  29.693  30.177  1.00  0.00     0.200 A 
ATOM    100  F   UNL A   1      36.756  30.855  28.256  1.00  0.00    -0.200 F 
ATOM    101  F   UNL A   1      36.553  30.300  30.919  1.00  0.00    -0.200 F 
ENDBRANCH  68  91
ENDBRANCH  42  43
ENDBRANCH  34  37
ENDBRANCH  32  33
ENDBRANCH  31  32
ENDBRANCH   1  31
TORSDOF 13
ENDMDL
MODEL 3
REMARK VINA RESULT:     -13.3      8.730     12.079
REMARK SMILES O=C(Cn1c(=O)c2c3c(sc2n(Cc2ccc(Cl)cc2Cl)c1=O)CCCC3)NCCCNC(=O)c1ccc(-c2c3nc(c(-c4c(F)c(F)c(F)c(F)c4F)c4ccc([nH]4)c(-c4c(F)c(F)c(F)c(F)c4F)c4nc(c(-c5c(F)c(F)c(F)c(F)c5F)c5ccc2[nH]5)C=C4)C=C3)cc1
REMARK SMILES IDX 29 1 28 2 1 3 2 4 3 6 4 7 5 8 22 9 6 10 7 11 12 12 23 13
REMARK SMILES IDX 8 14 11 15 9 16 27 17 10 18 24 19 26 20 25 21 13 22 14 23
REMARK SMILES IDX 15 24 20 25 16 26 19 27 21 28 17 29 18 30 30 31 31 32 32 33
REMARK SMILES IDX 33 34 34 36 35 37 36 38 97 39 37 40 96 41 38 42 39 43 40 44
REMARK SMILES IDX 90 45 41 46 95 47 89 48 91 49 42 50 94 51 88 52 87 53 43 55
REMARK SMILES IDX 75 56 55 57 74 58 56 59 59 60 73 61 92 62 57 63 58 64 72 66
REMARK SMILES IDX 93 67 60 68 44 69 45 70 53 71 46 72 47 73 51 74 54 75 48 76
REMARK SMILES IDX 49 77 52 78 50 79 76 80 77 81 85 82 78 83 79 84 83 85 86 86
REMARK SMILES IDX 80 87 81 88 84 89 82 90 61 91 62 92 70 93 63 94 64 95 68 96
REMARK SMILES IDX 71 97 65 98 66 99 69 100 67 101
REMARK H PARENT 28 5 32 35 91 54 59 65
REMARK Flexibility Score: inf
ROOT
ATOM      1  C   UNL A   1      33.645  35.162  30.697  1.00  0.00     0.117 C 
ENDROOT
BRANCH   1   2
ATOM      2  N   UNL A   1      34.393  34.157  31.437  1.00  0.00    -0.354 N 
ATOM      3  O   UNL A   1      35.199  35.603  33.029  1.00  0.00    -0.273 OA
ATOM      4  C   UNL A   1      35.071  34.456  32.608  1.00  0.00     0.240 C 
ATOM      5  H   UNL A   1      34.417  33.234  31.094  1.00  0.00     0.163 HD
BRANCH   4   6
ATOM      6  C   UNL A   1      35.706  33.257  33.324  1.00  0.00     0.230 C 
BRANCH   6   7
ATOM      7  N   UNL A   1      37.161  33.405  33.397  1.00  0.00    -0.250 N 
ATOM      8  C   UNL A   1      37.819  33.705  32.203  1.00  0.00     0.265 A 
ATOM      9  C   UNL A   1      37.771  33.213  34.645  1.00  0.00     0.332 A 
ATOM     10  O   UNL A   1      37.262  33.748  31.101  1.00  0.00    -0.268 OA
ATOM     11  C   UNL A   1      39.232  33.961  32.343  1.00  0.00     0.079 A 
ATOM     12  N   UNL A   1      39.157  33.381  34.734  1.00  0.00    -0.280 N 
ATOM     13  O   UNL A   1      37.087  32.937  35.637  1.00  0.00    -0.247 OA
ATOM     14  C   UNL A   1      40.222  34.315  31.353  1.00  0.00    -0.019 A 
ATOM     15  C   UNL A   1      39.801  33.822  33.585  1.00  0.00     0.113 A 
ATOM     16  C   UNL A   1      41.470  34.444  31.932  1.00  0.00     0.011 A 
ATOM     17  C   UNL A   1      40.039  34.475  29.870  1.00  0.00     0.037 C 
ATOM     18  S   UNL A   1      41.414  34.305  33.610  1.00  0.00    -0.122 S 
ATOM     19  C   UNL A   1      42.757  34.721  31.223  1.00  0.00     0.047 C 
ATOM     20  C   UNL A   1      41.272  35.127  29.212  1.00  0.00     0.005 C 
ATOM     21  C   UNL A   1      42.585  34.510  29.715  1.00  0.00     0.006 C 
BRANCH  12  22
ATOM     22  C   UNL A   1      39.839  33.101  36.026  1.00  0.00     0.165 C 
BRANCH  22  23
ATOM     23  C   UNL A   1      39.734  34.245  37.028  1.00  0.00    -0.009 A 
ATOM     24  C   UNL A   1      40.393  35.456  36.743  1.00  0.00     0.008 A 
ATOM     25  C   UNL A   1      38.994  34.177  38.226  1.00  0.00     0.047 A 
ATOM     26  C   UNL A   1      40.240  36.575  37.569  1.00  0.00     0.021 A 
ATOM     27  C   UNL A   1      38.759  35.321  38.997  1.00  0.00     0.041 A 
ATOM     28  Cl  UNL A   1      38.438  32.684  38.903  1.00  0.00    -0.084 Cl
ATOM     29  C   UNL A   1      39.381  36.516  38.663  1.00  0.00     0.042 A 
ATOM     30  Cl  UNL A   1      39.122  37.913  39.633  1.00  0.00    -0.084 Cl
ENDBRANCH  22  23
ENDBRANCH  12  22
ENDBRANCH   6   7
ENDBRANCH   4   6
ENDBRANCH   1   2
BRANCH   1  31
ATOM     31  C   UNL A   1      33.835  35.099  29.173  1.00  0.00     0.042 C 
BRANCH  31  32
ATOM     32  C   UNL A   1      34.939  34.146  28.669  1.00  0.00     0.118 C 
BRANCH  32  33
ATOM     33  N   UNL A   1      34.378  32.979  28.001  1.00  0.00    -0.352 N 
ATOM     34  C   UNL A   1      34.782  31.684  27.814  1.00  0.00     0.251 C 
ATOM     35  H   UNL A   1      33.505  33.164  27.587  1.00  0.00     0.163 HD
ATOM     36  O   UNL A   1      34.120  31.015  27.015  1.00  0.00    -0.269 OA
BRANCH  34  37
ATOM     37  C   UNL A   1      35.933  31.017  28.482  1.00  0.00     0.039 A 
ATOM     38  C   UNL A   1      35.866  30.893  29.884  1.00  0.00     0.014 A 
ATOM     39  C   UNL A   1      37.123  30.674  27.845  1.00  0.00     0.014 A 
ATOM     40  C   UNL A   1      36.941  30.401  30.639  1.00  0.00     0.010 A 
ATOM     41  C   UNL A   1      38.206  30.184  28.606  1.00  0.00     0.010 A 
ATOM     42  C   UNL A   1      38.123  30.017  30.008  1.00  0.00    -0.014 A 
BRANCH  42  43
ATOM     43  C   UNL A   1      39.135  29.246  30.791  1.00  0.00     0.031 A 
ATOM     44  C   UNL A   1      39.231  27.824  30.382  1.00  0.00     0.074 A 
ATOM     45  C   UNL A   1      40.252  29.714  31.401  1.00  0.00     0.049 A 
ATOM     46  N   UNL A   1      39.979  27.510  29.371  1.00  0.00    -0.248 NA
ATOM     47  C   UNL A   1      38.374  26.739  30.839  1.00  0.00     0.031 C 
ATOM     48  C   UNL A   1      40.899  30.991  31.096  1.00  0.00     0.029 A 
ATOM     49  N   UNL A   1      41.158  29.073  32.239  1.00  0.00    -0.354 N 
ATOM     50  C   UNL A   1      39.640  26.238  28.977  1.00  0.00     0.074 A 
ATOM     51  C   UNL A   1      38.670  25.775  29.947  1.00  0.00     0.031 C 
ATOM     52  C   UNL A   1      42.148  30.982  31.614  1.00  0.00     0.029 A 
ATOM     53  C   UNL A   1      42.347  29.774  32.420  1.00  0.00     0.049 A 
ATOM     54  H   UNL A   1      40.976  28.205  32.666  1.00  0.00     0.167 HD
ATOM     55  C   UNL A   1      40.200  25.689  27.867  1.00  0.00     0.037 A 
ATOM     56  C   UNL A   1      43.577  29.256  32.692  1.00  0.00     0.037 A 
ATOM     57  C   UNL A   1      41.187  26.474  27.148  1.00  0.00     0.049 A 
ATOM     58  C   UNL A   1      43.952  28.529  31.433  1.00  0.00     0.074 A 
ATOM     59  C   UNL A   1      41.621  26.677  25.853  1.00  0.00     0.029 A 
ATOM     60  N   UNL A   1      41.973  27.292  27.907  1.00  0.00    -0.354 N 
ATOM     61  N   UNL A   1      44.464  29.065  30.356  1.00  0.00    -0.248 NA
ATOM     62  C   UNL A   1      43.546  27.120  31.290  1.00  0.00     0.031 C 
ATOM     63  C   UNL A   1      42.799  27.502  25.917  1.00  0.00     0.029 A 
ATOM     64  C   UNL A   1      43.080  27.742  27.250  1.00  0.00     0.049 A 
ATOM     65  H   UNL A   1      41.761  27.535  28.838  1.00  0.00     0.167 HD
ATOM     66  C   UNL A   1      44.209  28.138  29.356  1.00  0.00     0.074 A 
ATOM     67  C   UNL A   1      43.802  26.910  30.005  1.00  0.00     0.031 C 
ATOM     68  C   UNL A   1      44.031  28.471  28.048  1.00  0.00     0.037 A 
BRANCH  55  69
ATOM     69  C   UNL A   1      40.041  24.266  27.519  1.00  0.00     0.064 A 
ATOM     70  C   UNL A   1      41.031  23.374  27.963  1.00  0.00     0.173 A 
ATOM     71  C   UNL A   1      39.064  23.790  26.644  1.00  0.00     0.173 A 
ATOM     72  F   UNL A   1      41.980  23.796  28.814  1.00  0.00    -0.203 F 
ATOM     73  C   UNL A   1      41.068  22.059  27.517  1.00  0.00     0.198 A 
ATOM     74  C   UNL A   1      39.099  22.466  26.203  1.00  0.00     0.198 A 
ATOM     75  F   UNL A   1      38.104  24.609  26.189  1.00  0.00    -0.203 F 
ATOM     76  F   UNL A   1      42.044  21.241  27.932  1.00  0.00    -0.200 F 
ATOM     77  C   UNL A   1      40.105  21.608  26.629  1.00  0.00     0.200 A 
ATOM     78  F   UNL A   1      38.170  22.023  25.343  1.00  0.00    -0.200 F 
ATOM     79  F   UNL A   1      40.153  20.347  26.178  1.00  0.00    -0.200 F 
ENDBRANCH  55  69
BRANCH  56  80
ATOM     80  C   UNL A   1      43.890  28.706  34.053  1.00  0.00     0.064 A 
ATOM     81  C   UNL A   1      45.049  29.142  34.728  1.00  0.00     0.173 A 
ATOM     82  C   UNL A   1      43.161  27.692  34.702  1.00  0.00     0.173 A 
ATOM     83  F   UNL A   1      45.889  30.004  34.138  1.00  0.00    -0.203 F 
ATOM     84  C   UNL A   1      45.386  28.678  36.006  1.00  0.00     0.198 A 
ATOM     85  C   UNL A   1      43.473  27.257  35.994  1.00  0.00     0.198 A 
ATOM     86  F   UNL A   1      42.134  27.079  34.100  1.00  0.00    -0.203 F 
ATOM     87  F   UNL A   1      46.496  29.124  36.609  1.00  0.00    -0.200 F 
ATOM     88  C   UNL A   1      44.578  27.760  36.652  1.00  0.00     0.200 A 
ATOM     89  F   UNL A   1      42.692  26.348  36.595  1.00  0.00    -0.200 F 
ATOM     90  F   UNL A   1      44.871  27.347  37.892  1.00  0.00    -0.200 F 
ENDBRANCH  56  80
BRANCH  68  91
ATOM     91  C   UNL A   1      44.674  29.717  27.585  1.00  0.00     0.064 A 
ATOM     92  C   UNL A   1      46.032  29.701  27.237  1.00  0.00     0.173 A 
ATOM     93  C   UNL A   1      43.965  30.914  27.446  1.00  0.00     0.173 A 
ATOM     94  F   UNL A   1      46.744  28.566  27.329  1.00  0.00    -0.203 F 
ATOM     95  C   UNL A   1      46.660  30.844  26.761  1.00  0.00     0.198 A 
ATOM     96  C   UNL A   1      44.596  32.056  26.958  1.00  0.00     0.198 A 
ATOM     97  F   UNL A   1      42.667  30.985  27.778  1.00  0.00    -0.203 F 
ATOM     98  F   UNL A   1      47.957  30.803  26.423  1.00  0.00    -0.200 F 
ATOM     99  C   UNL A   1      45.940  32.019  26.614  1.00  0.00     0.200 A 
ATOM    100  F   UNL A   1      43.898  33.191  26.805  1.00  0.00    -0.200 F 
ATOM    101  F   UNL A   1      46.539  33.115  26.128  1.00  0.00    -0.200 F 
ENDBRANCH  68  91
ENDBRANCH  42  43
ENDBRANCH  34  37
ENDBRANCH  32  33
ENDBRANCH  31  32
ENDBRANCH   1  31
TORSDOF 13
ENDMDL
