MODEL 1
REMARK VINA RESULT:     -13.9      0.000      0.000
REMARK SMILES CC(=O)Nc1cccc(-c2cc(F)ccc2C(=O)NCCCNC(=O)c2ccc(-c3c4nc(c(-c5c(F)c(F)c(F)c(F)c5F)c5ccc([nH]5)c(-c5c(F)c(F)c(F)c(F)c5F)c5nc(c(-c6c(F)c(F)c(F)c(F)c6F)c6ccc3[nH]6)C=C5)C=C4)cc2)c1
REMARK SMILES IDX 21 1 20 2 19 3 17 4 18 5 16 7 10 8 11 9 12 10 15 11 13 12
REMARK SMILES IDX 14 13 9 14 5 15 6 16 89 17 7 18 8 19 4 20 1 21 2 22 3 23
REMARK SMILES IDX 22 25 23 26 24 27 25 29 26 30 27 31 88 32 28 33 87 34 29 35
REMARK SMILES IDX 30 36 31 37 81 38 32 39 86 40 80 41 82 42 33 43 85 44 79 45
REMARK SMILES IDX 78 46 34 48 66 49 46 50 65 51 47 52 50 53 64 54 83 55 48 56
REMARK SMILES IDX 49 57 63 59 84 60 51 61 35 62 36 63 44 64 37 65 38 66 42 67
REMARK SMILES IDX 45 68 39 69 40 70 43 71 41 72 67 73 68 74 76 75 69 76 70 77
REMARK SMILES IDX 74 78 77 79 71 80 72 81 75 82 73 83 52 84 53 85 61 86 54 87
REMARK SMILES IDX 55 88 59 89 62 90 56 91 57 92 60 93 58 94
REMARK H PARENT 19 6 4 24 23 28 82 47 50 58
REMARK Flexibility Score: inf
ROOT
ATOM      1  C   UNL A   1      31.590  31.770  26.540  1.00  0.00     0.042 C 
ENDROOT
BRANCH   1   2
ATOM      2  C   UNL A   1      31.896  30.413  25.957  1.00  0.00     0.118 C 
BRANCH   2   3
ATOM      3  N   UNL A   1      31.409  29.238  26.606  1.00  0.00    -0.352 N 
ATOM      4  C   UNL A   1      31.538  27.930  26.195  1.00  0.00     0.251 C 
ATOM      5  O   UNL A   1      31.298  27.084  27.065  1.00  0.00    -0.269 OA
ATOM      6  H   UNL A   1      30.922  29.380  27.449  1.00  0.00     0.163 HD
BRANCH   4   7
ATOM      7  C   UNL A   1      31.827  27.434  24.786  1.00  0.00     0.047 A 
ATOM      8  C   UNL A   1      31.125  27.592  23.552  1.00  0.00    -0.003 A 
ATOM      9  C   UNL A   1      31.694  27.017  22.384  1.00  0.00     0.048 A 
ATOM     10  C   UNL A   1      32.895  26.321  22.410  1.00  0.00     0.123 A 
ATOM     11  C   UNL A   1      33.057  26.717  24.759  1.00  0.00     0.017 A 
ATOM     12  F   UNL A   1      33.381  25.796  21.279  1.00  0.00    -0.207 F 
ATOM     13  C   UNL A   1      33.586  26.166  23.591  1.00  0.00     0.040 A 
BRANCH   8  14
ATOM     14  C   UNL A   1      29.828  28.269  23.328  1.00  0.00    -0.015 A 
ATOM     15  C   UNL A   1      28.479  30.302  23.214  1.00  0.00     0.041 A 
ATOM     16  C   UNL A   1      27.317  29.531  23.352  1.00  0.00     0.026 A 
ATOM     17  C   UNL A   1      29.728  29.658  23.150  1.00  0.00     0.034 A 
ATOM     18  C   UNL A   1      27.388  28.142  23.409  1.00  0.00     0.003 A 
ATOM     19  C   UNL A   1      28.632  27.516  23.395  1.00  0.00     0.009 A 
BRANCH  15  20
ATOM     20  N   UNL A   1      28.333  31.692  23.379  1.00  0.00    -0.326 N 
ATOM     21  C   UNL A   1      28.111  32.466  21.029  1.00  0.00     0.114 C 
ATOM     22  C   UNL A   1      28.386  32.720  22.483  1.00  0.00     0.221 C 
ATOM     23  O   UNL A   1      28.622  33.861  22.882  1.00  0.00    -0.275 OA
ATOM     24  H   UNL A   1      28.162  31.974  24.307  1.00  0.00     0.169 HD
ENDBRANCH  15  20
ENDBRANCH   8  14
ENDBRANCH   4   7
ENDBRANCH   2   3
ENDBRANCH   1   2
BRANCH   1  25
ATOM     25  C   UNL A   1      32.732  32.426  27.303  1.00  0.00     0.118 C 
BRANCH  25  26
ATOM     26  N   UNL A   1      32.531  33.849  27.598  1.00  0.00    -0.352 N 
ATOM     27  C   UNL A   1      33.072  34.721  28.516  1.00  0.00     0.251 C 
ATOM     28  H   UNL A   1      31.863  34.273  27.012  1.00  0.00     0.163 HD
ATOM     29  O   UNL A   1      32.502  35.791  28.712  1.00  0.00    -0.269 OA
BRANCH  27  30
ATOM     30  C   UNL A   1      34.270  34.382  29.326  1.00  0.00     0.039 A 
ATOM     31  C   UNL A   1      34.097  33.818  30.599  1.00  0.00     0.014 A 
ATOM     32  C   UNL A   1      35.560  34.609  28.867  1.00  0.00     0.014 A 
ATOM     33  C   UNL A   1      35.205  33.367  31.326  1.00  0.00     0.010 A 
ATOM     34  C   UNL A   1      36.641  34.017  29.506  1.00  0.00     0.010 A 
ATOM     35  C   UNL A   1      36.480  33.388  30.747  1.00  0.00    -0.014 A 
BRANCH  35  36
ATOM     36  C   UNL A   1      37.672  32.780  31.396  1.00  0.00     0.031 A 
ATOM     37  C   UNL A   1      38.375  31.623  30.732  1.00  0.00     0.074 A 
ATOM     38  C   UNL A   1      38.036  33.175  32.633  1.00  0.00     0.049 A 
ATOM     39  N   UNL A   1      39.297  30.827  31.209  1.00  0.00    -0.248 NA
ATOM     40  C   UNL A   1      37.948  31.284  29.364  1.00  0.00     0.031 C 
ATOM     41  C   UNL A   1      37.400  34.245  33.406  1.00  0.00     0.029 A 
ATOM     42  N   UNL A   1      39.018  32.707  33.470  1.00  0.00    -0.354 N 
ATOM     43  C   UNL A   1      39.520  29.873  30.224  1.00  0.00     0.074 A 
ATOM     44  C   UNL A   1      38.600  30.152  29.145  1.00  0.00     0.031 C 
ATOM     45  C   UNL A   1      38.027  34.371  34.587  1.00  0.00     0.029 A 
ATOM     46  C   UNL A   1      39.068  33.355  34.682  1.00  0.00     0.049 A 
ATOM     47  H   UNL A   1      39.630  31.976  33.226  1.00  0.00     0.167 HD
ATOM     48  C   UNL A   1      40.427  28.868  30.210  1.00  0.00     0.037 A 
ATOM     49  C   UNL A   1      39.855  33.141  35.754  1.00  0.00     0.037 A 
ATOM     50  C   UNL A   1      41.383  28.638  31.260  1.00  0.00     0.049 A 
ATOM     51  C   UNL A   1      40.863  32.024  35.703  1.00  0.00     0.074 A 
ATOM     52  C   UNL A   1      42.412  27.716  31.301  1.00  0.00     0.029 A 
ATOM     53  N   UNL A   1      41.427  29.343  32.453  1.00  0.00    -0.354 N 
ATOM     54  N   UNL A   1      41.119  31.180  34.731  1.00  0.00    -0.248 NA
ATOM     55  C   UNL A   1      41.696  31.831  36.897  1.00  0.00     0.031 C 
ATOM     56  C   UNL A   1      43.043  27.822  32.544  1.00  0.00     0.029 A 
ATOM     57  C   UNL A   1      42.448  28.855  33.250  1.00  0.00     0.049 A 
ATOM     58  H   UNL A   1      40.823  30.081  32.698  1.00  0.00     0.167 HD
ATOM     59  C   UNL A   1      42.163  30.384  35.183  1.00  0.00     0.074 A 
ATOM     60  C   UNL A   1      42.505  30.857  36.508  1.00  0.00     0.031 C 
ATOM     61  C   UNL A   1      42.784  29.354  34.559  1.00  0.00     0.037 A 
BRANCH  48  62
ATOM     62  C   UNL A   1      40.441  27.944  29.027  1.00  0.00     0.064 A 
ATOM     63  C   UNL A   1      39.671  26.770  28.991  1.00  0.00     0.173 A 
ATOM     64  C   UNL A   1      41.191  28.267  27.885  1.00  0.00     0.173 A 
ATOM     65  F   UNL A   1      38.945  26.406  30.058  1.00  0.00    -0.203 F 
ATOM     66  C   UNL A   1      39.673  25.944  27.869  1.00  0.00     0.198 A 
ATOM     67  C   UNL A   1      41.164  27.457  26.753  1.00  0.00     0.198 A 
ATOM     68  F   UNL A   1      41.942  29.378  27.861  1.00  0.00    -0.203 F 
ATOM     69  F   UNL A   1      38.968  24.805  27.878  1.00  0.00    -0.200 F 
ATOM     70  C   UNL A   1      40.411  26.293  26.749  1.00  0.00     0.200 A 
ATOM     71  F   UNL A   1      41.865  27.804  25.665  1.00  0.00    -0.200 F 
ATOM     72  F   UNL A   1      40.398  25.506  25.664  1.00  0.00    -0.200 F 
ENDBRANCH  48  62
BRANCH  49  73
ATOM     73  C   UNL A   1      39.741  34.004  36.962  1.00  0.00     0.064 A 
ATOM     74  C   UNL A   1      38.928  33.621  38.039  1.00  0.00     0.173 A 
ATOM     75  C   UNL A   1      40.405  35.236  37.055  1.00  0.00     0.173 A 
ATOM     76  F   UNL A   1      38.258  32.461  37.993  1.00  0.00    -0.203 F 
ATOM     77  C   UNL A   1      38.755  34.453  39.143  1.00  0.00     0.198 A 
ATOM     78  C   UNL A   1      40.258  36.051  38.176  1.00  0.00     0.198 A 
ATOM     79  F   UNL A   1      41.202  35.647  36.057  1.00  0.00    -0.203 F 
ATOM     80  F   UNL A   1      37.921  34.091  40.128  1.00  0.00    -0.200 F 
ATOM     81  C   UNL A   1      39.422  35.666  39.213  1.00  0.00     0.200 A 
ATOM     82  F   UNL A   1      40.920  37.214  38.246  1.00  0.00    -0.200 F 
ATOM     83  F   UNL A   1      39.253  36.468  40.273  1.00  0.00    -0.200 F 
ENDBRANCH  49  73
BRANCH  61  84
ATOM     84  C   UNL A   1      43.930  28.703  35.278  1.00  0.00     0.064 A 
ATOM     85  C   UNL A   1      43.734  27.634  36.166  1.00  0.00     0.173 A 
ATOM     86  C   UNL A   1      45.246  29.130  35.043  1.00  0.00     0.173 A 
ATOM     87  F   UNL A   1      42.494  27.199  36.436  1.00  0.00    -0.203 F 
ATOM     88  C   UNL A   1      44.811  27.039  36.813  1.00  0.00     0.198 A 
ATOM     89  C   UNL A   1      46.323  28.506  35.663  1.00  0.00     0.198 A 
ATOM     90  F   UNL A   1      45.487  30.141  34.196  1.00  0.00    -0.203 F 
ATOM     91  F   UNL A   1      44.597  26.056  37.700  1.00  0.00    -0.200 F 
ATOM     92  C   UNL A   1      46.105  27.468  36.556  1.00  0.00     0.200 A 
ATOM     93  F   UNL A   1      47.572  28.911  35.398  1.00  0.00    -0.200 F 
ATOM     94  F   UNL A   1      47.142  26.886  37.173  1.00  0.00    -0.200 F 
ENDBRANCH  61  84
ENDBRANCH  35  36
ENDBRANCH  27  30
ENDBRANCH  25  26
ENDBRANCH   1  25
TORSDOF 12
ENDMDL
MODEL 2
REMARK VINA RESULT:     -13.9      0.081      1.595
REMARK SMILES CC(=O)Nc1cccc(-c2cc(F)ccc2C(=O)NCCCNC(=O)c2ccc(-c3c4nc(c(-c5c(F)c(F)c(F)c(F)c5F)c5ccc([nH]5)c(-c5c(F)c(F)c(F)c(F)c5F)c5nc(c(-c6c(F)c(F)c(F)c(F)c6F)c6ccc3[nH]6)C=C5)C=C4)cc2)c1
REMARK SMILES IDX 21 1 20 2 19 3 17 4 18 5 16 7 10 8 11 9 12 10 15 11 13 12
REMARK SMILES IDX 14 13 9 14 5 15 6 16 89 17 7 18 8 19 4 20 1 21 2 22 3 23
REMARK SMILES IDX 22 25 23 26 24 27 25 29 26 30 27 31 88 32 28 33 87 34 29 35
REMARK SMILES IDX 30 36 31 37 81 38 32 39 86 40 80 41 82 42 33 43 85 44 79 45
REMARK SMILES IDX 78 46 34 48 66 49 46 50 65 51 47 52 50 53 64 54 83 55 48 56
REMARK SMILES IDX 49 57 63 59 84 60 51 61 35 62 36 63 44 64 37 65 38 66 42 67
REMARK SMILES IDX 45 68 39 69 40 70 43 71 41 72 67 73 68 74 76 75 69 76 70 77
REMARK SMILES IDX 74 78 77 79 71 80 72 81 75 82 73 83 52 84 53 85 61 86 54 87
REMARK SMILES IDX 55 88 59 89 62 90 56 91 57 92 60 93 58 94
REMARK H PARENT 19 6 4 24 23 28 82 47 50 58
REMARK Flexibility Score: inf
ROOT
ATOM      1  C   UNL A   1      31.547  31.814  26.515  1.00  0.00     0.042 C 
ENDROOT
BRANCH   1   2
ATOM      2  C   UNL A   1      31.846  30.455  25.931  1.00  0.00     0.118 C 
BRANCH   2   3
ATOM      3  N   UNL A   1      31.385  29.281  26.600  1.00  0.00    -0.352 N 
ATOM      4  C   UNL A   1      31.538  27.969  26.208  1.00  0.00     0.251 C 
ATOM      5  O   UNL A   1      31.319  27.132  27.091  1.00  0.00    -0.269 OA
ATOM      6  H   UNL A   1      30.898  29.425  27.442  1.00  0.00     0.163 HD
BRANCH   4   7
ATOM      7  C   UNL A   1      31.832  27.459  24.805  1.00  0.00     0.047 A 
ATOM      8  C   UNL A   1      31.135  27.604  23.566  1.00  0.00    -0.003 A 
ATOM      9  C   UNL A   1      31.708  27.016  22.407  1.00  0.00     0.048 A 
ATOM     10  C   UNL A   1      32.908  26.318  22.445  1.00  0.00     0.123 A 
ATOM     11  C   UNL A   1      33.061  26.739  24.790  1.00  0.00     0.017 A 
ATOM     12  F   UNL A   1      33.397  25.780  21.321  1.00  0.00    -0.207 F 
ATOM     13  C   UNL A   1      33.594  26.174  23.631  1.00  0.00     0.040 A 
BRANCH   8  14
ATOM     14  C   UNL A   1      29.840  28.281  23.331  1.00  0.00    -0.015 A 
ATOM     15  C   UNL A   1      28.491  30.313  23.211  1.00  0.00     0.041 A 
ATOM     16  C   UNL A   1      27.328  29.541  23.331  1.00  0.00     0.026 A 
ATOM     17  C   UNL A   1      29.741  29.671  23.159  1.00  0.00     0.034 A 
ATOM     18  C   UNL A   1      27.400  28.151  23.381  1.00  0.00     0.003 A 
ATOM     19  C   UNL A   1      28.645  27.527  23.379  1.00  0.00     0.009 A 
BRANCH  15  20
ATOM     20  N   UNL A   1      28.341  31.702  23.381  1.00  0.00    -0.326 N 
ATOM     21  C   UNL A   1      28.108  32.484  21.035  1.00  0.00     0.114 C 
ATOM     22  C   UNL A   1      28.388  32.734  22.489  1.00  0.00     0.221 C 
ATOM     23  O   UNL A   1      28.623  33.874  22.892  1.00  0.00    -0.275 OA
ATOM     24  H   UNL A   1      28.173  31.980  24.312  1.00  0.00     0.169 HD
ENDBRANCH  15  20
ENDBRANCH   8  14
ENDBRANCH   4   7
ENDBRANCH   2   3
ENDBRANCH   1   2
BRANCH   1  25
ATOM     25  C   UNL A   1      32.698  32.470  27.264  1.00  0.00     0.118 C 
BRANCH  25  26
ATOM     26  N   UNL A   1      32.490  33.887  27.581  1.00  0.00    -0.352 N 
ATOM     27  C   UNL A   1      33.031  34.749  28.509  1.00  0.00     0.251 C 
ATOM     28  H   UNL A   1      31.815  34.315  27.006  1.00  0.00     0.163 HD
ATOM     29  O   UNL A   1      32.456  35.813  28.724  1.00  0.00    -0.269 OA
BRANCH  27  30
ATOM     30  C   UNL A   1      34.236  34.406  29.306  1.00  0.00     0.039 A 
ATOM     31  C   UNL A   1      34.075  33.863  30.589  1.00  0.00     0.014 A 
ATOM     32  C   UNL A   1      35.523  34.610  28.825  1.00  0.00     0.014 A 
ATOM     33  C   UNL A   1      35.188  33.407  31.306  1.00  0.00     0.010 A 
ATOM     34  C   UNL A   1      36.605  34.013  29.456  1.00  0.00     0.010 A 
ATOM     35  C   UNL A   1      36.454  33.404  30.709  1.00  0.00    -0.014 A 
BRANCH  35  36
ATOM     36  C   UNL A   1      37.648  32.789  31.349  1.00  0.00     0.031 A 
ATOM     37  C   UNL A   1      38.343  31.631  30.677  1.00  0.00     0.074 A 
ATOM     38  C   UNL A   1      38.020  33.179  32.585  1.00  0.00     0.049 A 
ATOM     39  N   UNL A   1      39.265  30.831  31.147  1.00  0.00    -0.248 NA
ATOM     40  C   UNL A   1      37.907  31.298  29.310  1.00  0.00     0.031 C 
ATOM     41  C   UNL A   1      37.393  34.249  33.365  1.00  0.00     0.029 A 
ATOM     42  N   UNL A   1      39.006  32.705  33.415  1.00  0.00    -0.354 N 
ATOM     43  C   UNL A   1      39.478  29.879  30.157  1.00  0.00     0.074 A 
ATOM     44  C   UNL A   1      38.553  30.165  29.084  1.00  0.00     0.031 C 
ATOM     45  C   UNL A   1      38.027  34.370  34.542  1.00  0.00     0.029 A 
ATOM     46  C   UNL A   1      39.065  33.349  34.628  1.00  0.00     0.049 A 
ATOM     47  H   UNL A   1      39.614  31.972  33.165  1.00  0.00     0.167 HD
ATOM     48  C   UNL A   1      40.381  28.871  30.135  1.00  0.00     0.037 A 
ATOM     49  C   UNL A   1      39.857  33.129  35.695  1.00  0.00     0.037 A 
ATOM     50  C   UNL A   1      41.343  28.635  31.179  1.00  0.00     0.049 A 
ATOM     51  C   UNL A   1      40.862  32.009  35.635  1.00  0.00     0.074 A 
ATOM     52  C   UNL A   1      42.369  27.708  31.211  1.00  0.00     0.029 A 
ATOM     53  N   UNL A   1      41.397  29.336  32.373  1.00  0.00    -0.354 N 
ATOM     54  N   UNL A   1      41.108  31.167  34.659  1.00  0.00    -0.248 NA
ATOM     55  C   UNL A   1      41.700  31.809  36.824  1.00  0.00     0.031 C 
ATOM     56  C   UNL A   1      43.008  27.809  32.450  1.00  0.00     0.029 A 
ATOM     57  C   UNL A   1      42.420  28.841  33.164  1.00  0.00     0.049 A 
ATOM     58  H   UNL A   1      40.796  30.075  32.624  1.00  0.00     0.167 HD
ATOM     59  C   UNL A   1      42.152  30.366  35.102  1.00  0.00     0.074 A 
ATOM     60  C   UNL A   1      42.504  30.834  36.427  1.00  0.00     0.031 C 
ATOM     61  C   UNL A   1      42.766  29.335  34.472  1.00  0.00     0.037 A 
BRANCH  48  62
ATOM     62  C   UNL A   1      40.385  27.950  28.949  1.00  0.00     0.064 A 
ATOM     63  C   UNL A   1      41.148  28.218  27.802  1.00  0.00     0.173 A 
ATOM     64  C   UNL A   1      39.659  26.748  28.983  1.00  0.00     0.173 A 
ATOM     65  F   UNL A   1      41.851  29.358  27.710  1.00  0.00    -0.203 F 
ATOM     66  C   UNL A   1      41.164  27.334  26.726  1.00  0.00     0.198 A 
ATOM     67  C   UNL A   1      39.704  25.850  27.921  1.00  0.00     0.198 A 
ATOM     68  F   UNL A   1      38.916  26.438  30.056  1.00  0.00    -0.203 F 
ATOM     69  F   UNL A   1      41.862  27.636  25.623  1.00  0.00    -0.200 F 
ATOM     70  C   UNL A   1      40.451  26.146  26.791  1.00  0.00     0.200 A 
ATOM     71  F   UNL A   1      39.027  24.696  27.992  1.00  0.00    -0.200 F 
ATOM     72  F   UNL A   1      40.480  25.288  25.762  1.00  0.00    -0.200 F 
ENDBRANCH  48  62
BRANCH  49  73
ATOM     73  C   UNL A   1      39.754  33.989  36.906  1.00  0.00     0.064 A 
ATOM     74  C   UNL A   1      38.944  33.607  37.986  1.00  0.00     0.173 A 
ATOM     75  C   UNL A   1      40.425  35.217  37.000  1.00  0.00     0.173 A 
ATOM     76  F   UNL A   1      38.267  32.451  37.939  1.00  0.00    -0.203 F 
ATOM     77  C   UNL A   1      38.780  34.437  39.094  1.00  0.00     0.198 A 
ATOM     78  C   UNL A   1      40.287  36.030  38.124  1.00  0.00     0.198 A 
ATOM     79  F   UNL A   1      41.219  35.628  36.000  1.00  0.00    -0.203 F 
ATOM     80  F   UNL A   1      37.949  34.075  40.081  1.00  0.00    -0.200 F 
ATOM     81  C   UNL A   1      39.454  35.646  39.163  1.00  0.00     0.200 A 
ATOM     82  F   UNL A   1      40.955  37.189  38.194  1.00  0.00    -0.200 F 
ATOM     83  F   UNL A   1      39.294  36.445  40.227  1.00  0.00    -0.200 F 
ENDBRANCH  49  73
BRANCH  61  84
ATOM     84  C   UNL A   1      43.913  28.677  35.182  1.00  0.00     0.064 A 
ATOM     85  C   UNL A   1      45.234  29.122  35.022  1.00  0.00     0.173 A 
ATOM     86  C   UNL A   1      43.680  27.614  36.068  1.00  0.00     0.173 A 
ATOM     87  F   UNL A   1      45.511  30.125  34.175  1.00  0.00    -0.203 F 
ATOM     88  C   UNL A   1      46.281  28.504  35.698  1.00  0.00     0.198 A 
ATOM     89  C   UNL A   1      44.725  27.024  36.771  1.00  0.00     0.198 A 
ATOM     90  F   UNL A   1      42.434  27.158  36.263  1.00  0.00    -0.203 F 
ATOM     91  F   UNL A   1      47.542  28.908  35.487  1.00  0.00    -0.200 F 
ATOM     92  C   UNL A   1      46.026  27.464  36.578  1.00  0.00     0.200 A 
ATOM     93  F   UNL A   1      44.473  26.031  37.634  1.00  0.00    -0.200 F 
ATOM     94  F   UNL A   1      47.036  26.877  37.237  1.00  0.00    -0.200 F 
ENDBRANCH  61  84
ENDBRANCH  35  36
ENDBRANCH  27  30
ENDBRANCH  25  26
ENDBRANCH   1  25
TORSDOF 12
ENDMDL
MODEL 3
REMARK VINA RESULT:     -13.8      1.574      2.442
REMARK SMILES CC(=O)Nc1cccc(-c2cc(F)ccc2C(=O)NCCCNC(=O)c2ccc(-c3c4nc(c(-c5c(F)c(F)c(F)c(F)c5F)c5ccc([nH]5)c(-c5c(F)c(F)c(F)c(F)c5F)c5nc(c(-c6c(F)c(F)c(F)c(F)c6F)c6ccc3[nH]6)C=C5)C=C4)cc2)c1
REMARK SMILES IDX 21 1 20 2 19 3 17 4 18 5 16 7 10 8 11 9 12 10 15 11 13 12
REMARK SMILES IDX 14 13 9 14 5 15 6 16 89 17 7 18 8 19 4 20 1 21 2 22 3 23
REMARK SMILES IDX 22 25 23 26 24 27 25 29 26 30 27 31 88 32 28 33 87 34 29 35
REMARK SMILES IDX 30 36 31 37 81 38 32 39 86 40 80 41 82 42 33 43 85 44 79 45
REMARK SMILES IDX 78 46 34 48 66 49 46 50 65 51 47 52 50 53 64 54 83 55 48 56
REMARK SMILES IDX 49 57 63 59 84 60 51 61 35 62 36 63 44 64 37 65 38 66 42 67
REMARK SMILES IDX 45 68 39 69 40 70 43 71 41 72 67 73 68 74 76 75 69 76 70 77
REMARK SMILES IDX 74 78 77 79 71 80 72 81 75 82 73 83 52 84 53 85 61 86 54 87
REMARK SMILES IDX 55 88 59 89 62 90 56 91 57 92 60 93 58 94
REMARK H PARENT 19 6 4 24 23 28 82 47 50 58
REMARK Flexibility Score: inf
ROOT
ATOM      1  C   UNL A   1      31.789  29.269  27.292  1.00  0.00     0.042 C 
ENDROOT
BRANCH   1   2
ATOM      2  C   UNL A   1      31.968  27.787  27.074  1.00  0.00     0.118 C 
BRANCH   2   3
ATOM      3  N   UNL A   1      30.823  26.957  26.875  1.00  0.00    -0.352 N 
ATOM      4  C   UNL A   1      30.523  26.178  25.780  1.00  0.00     0.251 C 
ATOM      5  O   UNL A   1      29.640  25.333  25.967  1.00  0.00    -0.269 OA
ATOM      6  H   UNL A   1      30.168  26.940  27.609  1.00  0.00     0.163 HD
BRANCH   4   7
ATOM      7  C   UNL A   1      31.074  26.326  24.369  1.00  0.00     0.047 A 
ATOM      8  C   UNL A   1      30.677  27.141  23.265  1.00  0.00    -0.003 A 
ATOM      9  C   UNL A   1      31.441  27.062  22.070  1.00  0.00     0.048 A 
ATOM     10  C   UNL A   1      32.545  26.229  21.949  1.00  0.00     0.123 A 
ATOM     11  C   UNL A   1      32.216  25.493  24.197  1.00  0.00     0.017 A 
ATOM     12  F   UNL A   1      33.223  26.191  20.796  1.00  0.00    -0.207 F 
ATOM     13  C   UNL A   1      32.943  25.441  23.007  1.00  0.00     0.040 A 
BRANCH   8  14
ATOM     14  C   UNL A   1      29.521  28.063  23.191  1.00  0.00    -0.015 A 
ATOM     15  C   UNL A   1      28.584  30.316  23.302  1.00  0.00     0.041 A 
ATOM     16  C   UNL A   1      27.309  29.769  23.498  1.00  0.00     0.026 A 
ATOM     17  C   UNL A   1      29.677  29.455  23.096  1.00  0.00     0.034 A 
ATOM     18  C   UNL A   1      27.115  28.391  23.474  1.00  0.00     0.003 A 
ATOM     19  C   UNL A   1      28.212  27.545  23.320  1.00  0.00     0.009 A 
BRANCH  15  20
ATOM     20  N   UNL A   1      28.720  31.694  23.553  1.00  0.00    -0.326 N 
ATOM     21  C   UNL A   1      28.112  32.678  21.354  1.00  0.00     0.114 C 
ATOM     22  C   UNL A   1      28.747  32.769  22.712  1.00  0.00     0.221 C 
ATOM     23  O   UNL A   1      29.261  33.823  23.090  1.00  0.00    -0.275 OA
ATOM     24  H   UNL A   1      28.814  31.925  24.506  1.00  0.00     0.169 HD
ENDBRANCH  15  20
ENDBRANCH   8  14
ENDBRANCH   4   7
ENDBRANCH   2   3
ENDBRANCH   1   2
BRANCH   1  25
ATOM     25  C   UNL A   1      32.405  30.165  26.228  1.00  0.00     0.118 C 
BRANCH  25  26
ATOM     26  N   UNL A   1      32.419  31.592  26.566  1.00  0.00    -0.352 N 
ATOM     27  C   UNL A   1      33.244  32.386  27.332  1.00  0.00     0.251 C 
ATOM     28  H   UNL A   1      31.676  32.092  26.157  1.00  0.00     0.163 HD
ATOM     29  O   UNL A   1      32.844  33.499  27.661  1.00  0.00    -0.269 OA
BRANCH  27  30
ATOM     30  C   UNL A   1      34.560  31.916  27.834  1.00  0.00     0.039 A 
ATOM     31  C   UNL A   1      35.612  32.834  27.959  1.00  0.00     0.014 A 
ATOM     32  C   UNL A   1      34.788  30.590  28.181  1.00  0.00     0.014 A 
ATOM     33  C   UNL A   1      36.820  32.448  28.553  1.00  0.00     0.010 A 
ATOM     34  C   UNL A   1      35.914  30.246  28.916  1.00  0.00     0.010 A 
ATOM     35  C   UNL A   1      36.949  31.170  29.112  1.00  0.00    -0.014 A 
BRANCH  35  36
ATOM     36  C   UNL A   1      38.139  30.749  29.897  1.00  0.00     0.031 A 
ATOM     37  C   UNL A   1      39.107  29.752  29.309  1.00  0.00     0.074 A 
ATOM     38  C   UNL A   1      38.277  31.156  31.175  1.00  0.00     0.049 A 
ATOM     39  N   UNL A   1      40.087  29.107  29.887  1.00  0.00    -0.248 NA
ATOM     40  C   UNL A   1      38.913  29.394  27.893  1.00  0.00     0.031 C 
ATOM     41  C   UNL A   1      37.379  32.074  31.878  1.00  0.00     0.029 A 
ATOM     42  N   UNL A   1      39.217  30.831  32.122  1.00  0.00    -0.354 N 
ATOM     43  C   UNL A   1      40.588  28.240  28.924  1.00  0.00     0.074 A 
ATOM     44  C   UNL A   1      39.772  28.398  27.742  1.00  0.00     0.031 C 
ATOM     45  C   UNL A   1      37.827  32.263  33.129  1.00  0.00     0.029 A 
ATOM     46  C   UNL A   1      39.008  31.434  33.339  1.00  0.00     0.049 A 
ATOM     47  H   UNL A   1      39.971  30.223  31.946  1.00  0.00     0.167 HD
ATOM     48  C   UNL A   1      41.650  27.404  29.009  1.00  0.00     0.037 A 
ATOM     49  C   UNL A   1      39.684  31.318  34.499  1.00  0.00     0.037 A 
ATOM     50  C   UNL A   1      42.497  27.302  30.167  1.00  0.00     0.049 A 
ATOM     51  C   UNL A   1      40.868  30.390  34.558  1.00  0.00     0.074 A 
ATOM     52  C   UNL A   1      43.657  26.565  30.324  1.00  0.00     0.029 A 
ATOM     53  N   UNL A   1      42.274  27.961  31.366  1.00  0.00    -0.354 N 
ATOM     54  N   UNL A   1      41.381  29.637  33.615  1.00  0.00    -0.248 NA
ATOM     55  C   UNL A   1      41.570  30.298  35.845  1.00  0.00     0.031 C 
ATOM     56  C   UNL A   1      44.105  26.733  31.637  1.00  0.00     0.029 A 
ATOM     57  C   UNL A   1      43.260  27.624  32.279  1.00  0.00     0.049 A 
ATOM     58  H   UNL A   1      41.527  28.577  31.544  1.00  0.00     0.167 HD
ATOM     59  C   UNL A   1      42.484  29.013  34.182  1.00  0.00     0.074 A 
ATOM     60  C   UNL A   1      42.577  29.490  35.546  1.00  0.00     0.031 C 
ATOM     61  C   UNL A   1      43.344  28.125  33.626  1.00  0.00     0.037 A 
BRANCH  48  62
ATOM     62  C   UNL A   1      41.966  26.538  27.824  1.00  0.00     0.064 A 
ATOM     63  C   UNL A   1      42.925  26.908  26.867  1.00  0.00     0.173 A 
ATOM     64  C   UNL A   1      41.342  25.289  27.673  1.00  0.00     0.173 A 
ATOM     65  F   UNL A   1      43.543  28.095  26.956  1.00  0.00    -0.203 F 
ATOM     66  C   UNL A   1      43.227  26.074  25.794  1.00  0.00     0.198 A 
ATOM     67  C   UNL A   1      41.671  24.443  26.618  1.00  0.00     0.198 A 
ATOM     68  F   UNL A   1      40.420  24.882  28.559  1.00  0.00    -0.203 F 
ATOM     69  F   UNL A   1      44.111  26.471  24.868  1.00  0.00    -0.200 F 
ATOM     70  C   UNL A   1      42.608  24.839  25.676  1.00  0.00     0.200 A 
ATOM     71  F   UNL A   1      41.084  23.243  26.514  1.00  0.00    -0.200 F 
ATOM     72  F   UNL A   1      42.912  24.030  24.651  1.00  0.00    -0.200 F 
ENDBRANCH  48  62
BRANCH  49  73
ATOM     73  C   UNL A   1      39.278  32.106  35.695  1.00  0.00     0.064 A 
ATOM     74  C   UNL A   1      38.401  31.562  36.644  1.00  0.00     0.173 A 
ATOM     75  C   UNL A   1      39.722  33.421  35.899  1.00  0.00     0.173 A 
ATOM     76  F   UNL A   1      37.933  30.315  36.487  1.00  0.00    -0.203 F 
ATOM     77  C   UNL A   1      37.955  32.314  37.730  1.00  0.00     0.198 A 
ATOM     78  C   UNL A   1      39.302  34.160  37.004  1.00  0.00     0.198 A 
ATOM     79  F   UNL A   1      40.569  33.988  35.027  1.00  0.00    -0.203 F 
ATOM     80  F   UNL A   1      37.066  31.790  38.585  1.00  0.00    -0.200 F 
ATOM     81  C   UNL A   1      38.408  33.611  37.911  1.00  0.00     0.200 A 
ATOM     82  F   UNL A   1      39.758  35.407  37.185  1.00  0.00    -0.200 F 
ATOM     83  F   UNL A   1      37.977  34.336  38.952  1.00  0.00    -0.200 F 
ENDBRANCH  49  73
BRANCH  61  84
ATOM     84  C   UNL A   1      44.489  27.652  34.474  1.00  0.00     0.064 A 
ATOM     85  C   UNL A   1      44.402  26.486  35.248  1.00  0.00     0.173 A 
ATOM     86  C   UNL A   1      45.703  28.356  34.478  1.00  0.00     0.173 A 
ATOM     87  F   UNL A   1      43.258  25.786  35.290  1.00  0.00    -0.203 F 
ATOM     88  C   UNL A   1      45.480  26.059  36.018  1.00  0.00     0.198 A 
ATOM     89  C   UNL A   1      46.790  27.905  35.220  1.00  0.00     0.198 A 
ATOM     90  F   UNL A   1      45.840  29.472  33.747  1.00  0.00    -0.203 F 
ATOM     91  F   UNL A   1      45.357  24.973  36.795  1.00  0.00    -0.200 F 
ATOM     92  C   UNL A   1      46.674  26.763  35.997  1.00  0.00     0.200 A 
ATOM     93  F   UNL A   1      47.949  28.577  35.182  1.00  0.00    -0.200 F 
ATOM     94  F   UNL A   1      47.714  26.345  36.732  1.00  0.00    -0.200 F 
ENDBRANCH  61  84
ENDBRANCH  35  36
ENDBRANCH  27  30
ENDBRANCH  25  26
ENDBRANCH   1  25
TORSDOF 12
ENDMDL
