MODEL 1
REMARK VINA RESULT:     -11.9      0.000      0.000
REMARK SMILES C[NH2+][C@@]1(C(=O)NCCCNC(=O)c2ccc(-c3c4nc(c(-c5c(F)c(F)c(F)c(F)c5F)c5ccc([nH]5)c(-c5c(F)c(F)c(F)c(F)c5F)c5nc(c(-c6c(F)c(F)c(F)c(F)c6F)c6ccc3[nH]6)C=C5)C=C4)cc2)CC[C@H](SC2CCOCC2)C1
REMARK SMILES IDX 8 1 7 2 6 3 4 4 5 5 3 7 76 8 86 9 77 10 78 11 2 12 1 13
REMARK SMILES IDX 79 16 80 17 81 18 85 19 82 20 84 21 83 22 9 23 10 24 11 25
REMARK SMILES IDX 12 27 13 28 14 29 75 30 15 31 74 32 16 33 17 34 18 35 68 36
REMARK SMILES IDX 19 37 73 38 67 39 69 40 20 41 72 42 66 43 65 44 21 46 53 47
REMARK SMILES IDX 33 48 52 49 34 50 37 51 51 52 70 53 35 54 36 55 50 57 71 58
REMARK SMILES IDX 38 59 22 60 23 61 31 62 24 63 25 64 29 65 32 66 26 67 27 68
REMARK SMILES IDX 30 69 28 70 54 71 55 72 63 73 56 74 57 75 61 76 64 77 58 78
REMARK SMILES IDX 59 79 62 80 60 81 39 82 40 83 48 84 41 85 42 86 46 87 49 88
REMARK SMILES IDX 43 89 44 90 47 91 45 92
REMARK H PARENT 6 6 2 14 2 15 10 26 69 45 37 56
REMARK Flexibility Score: inf
ROOT
ATOM      1  C   UNL A   1      31.255  32.442  26.496  1.00  0.00     0.042 C 
ENDROOT
BRANCH   1   2
ATOM      2  C   UNL A   1      31.126  30.924  26.449  1.00  0.00     0.118 C 
BRANCH   2   3
ATOM      3  N   UNL A   1      31.826  30.366  25.322  1.00  0.00    -0.351 N 
ATOM      4  C   UNL A   1      32.735  29.359  25.237  1.00  0.00     0.281 C 
ATOM      5  O   UNL A   1      33.477  29.467  24.250  1.00  0.00    -0.268 OA
ATOM      6  H   UNL A   1      31.607  30.788  24.460  1.00  0.00     0.163 HD
BRANCH   4   7
ATOM      7  C   UNL A   1      32.864  28.152  26.271  1.00  0.00     0.176 C 
ATOM      8  C   UNL A   1      33.821  27.012  25.890  1.00  0.00     0.080 C 
ATOM      9  C   UNL A   1      31.508  27.456  26.509  1.00  0.00     0.093 C 
ATOM     10  C   UNL A   1      32.988  25.813  25.441  1.00  0.00     0.022 C 
ATOM     11  C   UNL A   1      31.552  26.022  25.911  1.00  0.00     0.054 C 
BRANCH   7  12
ATOM     12  N   UNL A   1      33.310  28.712  27.591  1.00  0.00    -0.336 N 
ATOM     13  C   UNL A   1      34.567  29.457  27.551  1.00  0.00     0.331 C 
ATOM     14  H   UNL A   1      32.581  29.339  27.931  1.00  0.00     0.346 HD
ATOM     15  H   UNL A   1      33.472  27.911  28.203  1.00  0.00     0.346 HD
ENDBRANCH   7  12
BRANCH  11  16
ATOM     16  S   UNL A   1      30.087  25.887  24.795  1.00  0.00    -0.155 SA
BRANCH  16  17
ATOM     17  C   UNL A   1      29.843  27.424  23.817  1.00  0.00     0.051 C 
ATOM     18  C   UNL A   1      28.389  27.634  23.399  1.00  0.00     0.043 C 
ATOM     19  C   UNL A   1      30.780  27.763  22.664  1.00  0.00     0.043 C 
ATOM     20  C   UNL A   1      28.228  29.049  22.843  1.00  0.00     0.161 C 
ATOM     21  C   UNL A   1      30.499  29.177  22.170  1.00  0.00     0.161 C 
ATOM     22  O   UNL A   1      29.134  29.287  21.767  1.00  0.00    -0.381 OA
ENDBRANCH  16  17
ENDBRANCH  11  16
ENDBRANCH   4   7
ENDBRANCH   2   3
ENDBRANCH   1   2
BRANCH   1  23
ATOM     23  C   UNL A   1      32.585  32.892  27.072  1.00  0.00     0.118 C 
BRANCH  23  24
ATOM     24  N   UNL A   1      32.507  34.257  27.583  1.00  0.00    -0.352 N 
ATOM     25  C   UNL A   1      33.084  34.873  28.667  1.00  0.00     0.251 C 
ATOM     26  H   UNL A   1      31.930  34.850  27.048  1.00  0.00     0.163 HD
ATOM     27  O   UNL A   1      32.601  35.934  29.056  1.00  0.00    -0.269 OA
BRANCH  25  28
ATOM     28  C   UNL A   1      34.251  34.301  29.387  1.00  0.00     0.039 A 
ATOM     29  C   UNL A   1      35.539  34.562  28.899  1.00  0.00     0.014 A 
ATOM     30  C   UNL A   1      34.111  33.437  30.471  1.00  0.00     0.014 A 
ATOM     31  C   UNL A   1      36.663  34.001  29.518  1.00  0.00     0.010 A 
ATOM     32  C   UNL A   1      35.230  32.983  31.166  1.00  0.00     0.010 A 
ATOM     33  C   UNL A   1      36.520  33.231  30.682  1.00  0.00    -0.014 A 
BRANCH  33  34
ATOM     34  C   UNL A   1      37.684  32.627  31.387  1.00  0.00     0.031 A 
ATOM     35  C   UNL A   1      38.434  31.480  30.755  1.00  0.00     0.074 A 
ATOM     36  C   UNL A   1      38.012  33.039  32.626  1.00  0.00     0.049 A 
ATOM     37  N   UNL A   1      39.365  30.712  31.265  1.00  0.00    -0.248 NA
ATOM     38  C   UNL A   1      38.056  31.121  29.378  1.00  0.00     0.031 C 
ATOM     39  C   UNL A   1      37.340  34.104  33.372  1.00  0.00     0.029 A 
ATOM     40  N   UNL A   1      38.988  32.597  33.486  1.00  0.00    -0.354 N 
ATOM     41  C   UNL A   1      39.642  29.756  30.294  1.00  0.00     0.074 A 
ATOM     42  C   UNL A   1      38.749  30.010  29.186  1.00  0.00     0.031 C 
ATOM     43  C   UNL A   1      37.937  34.250  34.565  1.00  0.00     0.029 A 
ATOM     44  C   UNL A   1      39.002  33.261  34.689  1.00  0.00     0.049 A 
ATOM     45  H   UNL A   1      39.616  31.874  33.262  1.00  0.00     0.167 HD
ATOM     46  C   UNL A   1      40.573  28.772  30.314  1.00  0.00     0.037 A 
ATOM     47  C   UNL A   1      39.779  33.082  35.774  1.00  0.00     0.037 A 
ATOM     48  C   UNL A   1      41.504  28.564  31.390  1.00  0.00     0.049 A 
ATOM     49  C   UNL A   1      40.831  32.007  35.757  1.00  0.00     0.074 A 
ATOM     50  C   UNL A   1      42.542  27.652  31.470  1.00  0.00     0.029 A 
ATOM     51  N   UNL A   1      41.516  29.290  32.571  1.00  0.00    -0.354 N 
ATOM     52  N   UNL A   1      41.120  31.146  34.812  1.00  0.00    -0.248 NA
ATOM     53  C   UNL A   1      41.667  31.880  36.959  1.00  0.00     0.031 C 
ATOM     54  C   UNL A   1      43.160  27.802  32.717  1.00  0.00     0.029 A 
ATOM     55  C   UNL A   1      42.535  28.837  33.393  1.00  0.00     0.049 A 
ATOM     56  H   UNL A   1      40.893  30.019  32.793  1.00  0.00     0.167 HD
ATOM     57  C   UNL A   1      42.186  30.397  35.290  1.00  0.00     0.074 A 
ATOM     58  C   UNL A   1      42.502  30.914  36.606  1.00  0.00     0.031 C 
ATOM     59  C   UNL A   1      42.843  29.373  34.694  1.00  0.00     0.037 A 
BRANCH  46  60
ATOM     60  C   UNL A   1      40.637  27.850  29.128  1.00  0.00     0.064 A 
ATOM     61  C   UNL A   1      41.527  28.071  28.067  1.00  0.00     0.173 A 
ATOM     62  C   UNL A   1      39.816  26.713  29.067  1.00  0.00     0.173 A 
ATOM     63  F   UNL A   1      42.327  29.148  28.070  1.00  0.00    -0.203 F 
ATOM     64  C   UNL A   1      41.567  27.212  26.971  1.00  0.00     0.198 A 
ATOM     65  C   UNL A   1      39.882  25.837  27.985  1.00  0.00     0.198 A 
ATOM     66  F   UNL A   1      38.951  26.447  30.058  1.00  0.00    -0.203 F 
ATOM     67  F   UNL A   1      42.384  27.478  25.943  1.00  0.00    -0.200 F 
ATOM     68  C   UNL A   1      40.750  26.093  26.934  1.00  0.00     0.200 A 
ATOM     69  F   UNL A   1      39.101  24.749  27.958  1.00  0.00    -0.200 F 
ATOM     70  F   UNL A   1      40.793  25.265  25.881  1.00  0.00    -0.200 F 
ENDBRANCH  46  60
BRANCH  47  71
ATOM     71  C   UNL A   1      39.614  33.967  36.957  1.00  0.00     0.064 A 
ATOM     72  C   UNL A   1      38.817  33.572  38.040  1.00  0.00     0.173 A 
ATOM     73  C   UNL A   1      40.250  35.214  37.035  1.00  0.00     0.173 A 
ATOM     74  F   UNL A   1      38.173  32.396  38.001  1.00  0.00    -0.203 F 
ATOM     75  C   UNL A   1      38.646  34.397  39.148  1.00  0.00     0.198 A 
ATOM     76  C   UNL A   1      40.101  36.029  38.156  1.00  0.00     0.198 A 
ATOM     77  F   UNL A   1      41.029  35.635  36.029  1.00  0.00    -0.203 F 
ATOM     78  F   UNL A   1      37.844  34.012  40.150  1.00  0.00    -0.200 F 
ATOM     79  C   UNL A   1      39.293  35.623  39.208  1.00  0.00     0.200 A 
ATOM     80  F   UNL A   1      40.739  37.204  38.218  1.00  0.00    -0.200 F 
ATOM     81  F   UNL A   1      39.134  36.415  40.277  1.00  0.00    -0.200 F 
ENDBRANCH  47  71
BRANCH  59  82
ATOM     82  C   UNL A   1      43.996  28.769  35.441  1.00  0.00     0.064 A 
ATOM     83  C   UNL A   1      45.306  29.241  35.278  1.00  0.00     0.173 A 
ATOM     84  C   UNL A   1      43.779  27.731  36.360  1.00  0.00     0.173 A 
ATOM     85  F   UNL A   1      45.566  30.221  34.400  1.00  0.00    -0.203 F 
ATOM     86  C   UNL A   1      46.361  28.681  35.994  1.00  0.00     0.198 A 
ATOM     87  C   UNL A   1      44.831  27.194  37.094  1.00  0.00     0.198 A 
ATOM     88  F   UNL A   1      42.542  27.249  36.556  1.00  0.00    -0.203 F 
ATOM     89  F   UNL A   1      47.612  29.118  35.792  1.00  0.00    -0.200 F 
ATOM     90  C   UNL A   1      46.122  27.664  36.906  1.00  0.00     0.200 A 
ATOM     91  F   UNL A   1      44.596  26.219  37.985  1.00  0.00    -0.200 F 
ATOM     92  F   UNL A   1      47.137  27.132  37.600  1.00  0.00    -0.200 F 
ENDBRANCH  59  82
ENDBRANCH  33  34
ENDBRANCH  25  28
ENDBRANCH  23  24
ENDBRANCH   1  23
TORSDOF 13
ENDMDL
MODEL 2
REMARK VINA RESULT:     -11.8      1.343      2.067
REMARK SMILES C[NH2+][C@@]1(C(=O)NCCCNC(=O)c2ccc(-c3c4nc(c(-c5c(F)c(F)c(F)c(F)c5F)c5ccc([nH]5)c(-c5c(F)c(F)c(F)c(F)c5F)c5nc(c(-c6c(F)c(F)c(F)c(F)c6F)c6ccc3[nH]6)C=C5)C=C4)cc2)CC[C@H](SC2CCOCC2)C1
REMARK SMILES IDX 8 1 7 2 6 3 4 4 5 5 3 7 76 8 86 9 77 10 78 11 2 12 1 13
REMARK SMILES IDX 79 16 80 17 81 18 85 19 82 20 84 21 83 22 9 23 10 24 11 25
REMARK SMILES IDX 12 27 13 28 14 29 75 30 15 31 74 32 16 33 17 34 18 35 68 36
REMARK SMILES IDX 19 37 73 38 67 39 69 40 20 41 72 42 66 43 65 44 21 46 53 47
REMARK SMILES IDX 33 48 52 49 34 50 37 51 51 52 70 53 35 54 36 55 50 57 71 58
REMARK SMILES IDX 38 59 22 60 23 61 31 62 24 63 25 64 29 65 32 66 26 67 27 68
REMARK SMILES IDX 30 69 28 70 54 71 55 72 63 73 56 74 57 75 61 76 64 77 58 78
REMARK SMILES IDX 59 79 62 80 60 81 39 82 40 83 48 84 41 85 42 86 46 87 49 88
REMARK SMILES IDX 43 89 44 90 47 91 45 92
REMARK H PARENT 6 6 2 14 2 15 10 26 69 45 37 56
REMARK Flexibility Score: inf
ROOT
ATOM      1  C   UNL A   1      31.027  32.118  26.119  1.00  0.00     0.042 C 
ENDROOT
BRANCH   1   2
ATOM      2  C   UNL A   1      31.095  30.733  25.487  1.00  0.00     0.118 C 
BRANCH   2   3
ATOM      3  N   UNL A   1      31.718  29.779  26.365  1.00  0.00    -0.351 N 
ATOM      4  C   UNL A   1      31.976  28.453  26.214  1.00  0.00     0.281 C 
ATOM      5  O   UNL A   1      32.056  27.856  27.297  1.00  0.00    -0.268 OA
ATOM      6  H   UNL A   1      32.011  30.153  27.227  1.00  0.00     0.163 HD
BRANCH   4   7
ATOM      7  C   UNL A   1      32.164  27.709  24.816  1.00  0.00     0.176 C 
ATOM      8  C   UNL A   1      32.867  28.496  23.701  1.00  0.00     0.080 C 
ATOM      9  C   UNL A   1      30.809  27.294  24.203  1.00  0.00     0.093 C 
ATOM     10  C   UNL A   1      31.813  28.949  22.692  1.00  0.00     0.022 C 
ATOM     11  C   UNL A   1      30.545  28.134  22.922  1.00  0.00     0.054 C 
BRANCH   7  12
ATOM     12  N   UNL A   1      32.942  26.448  25.058  1.00  0.00    -0.336 N 
ATOM     13  C   UNL A   1      33.684  25.950  23.901  1.00  0.00     0.331 C 
ATOM     14  H   UNL A   1      33.608  26.625  25.809  1.00  0.00     0.346 HD
ATOM     15  H   UNL A   1      32.256  25.727  25.288  1.00  0.00     0.346 HD
ENDBRANCH   7  12
BRANCH  11  16
ATOM     16  S   UNL A   1      28.875  28.890  23.139  1.00  0.00    -0.155 SA
BRANCH  16  17
ATOM     17  C   UNL A   1      28.791  30.563  22.382  1.00  0.00     0.051 C 
ATOM     18  C   UNL A   1      28.445  31.652  23.395  1.00  0.00     0.043 C 
ATOM     19  C   UNL A   1      28.028  30.785  21.082  1.00  0.00     0.043 C 
ATOM     20  C   UNL A   1      28.668  33.022  22.753  1.00  0.00     0.161 C 
ATOM     21  C   UNL A   1      28.298  32.192  20.561  1.00  0.00     0.161 C 
ATOM     22  O   UNL A   1      27.919  33.154  21.545  1.00  0.00    -0.381 OA
ENDBRANCH  16  17
ENDBRANCH  11  16
ENDBRANCH   4   7
ENDBRANCH   2   3
ENDBRANCH   1   2
BRANCH   1  23
ATOM     23  C   UNL A   1      32.233  32.416  26.991  1.00  0.00     0.118 C 
BRANCH  23  24
ATOM     24  N   UNL A   1      32.275  33.823  27.376  1.00  0.00    -0.352 N 
ATOM     25  C   UNL A   1      32.955  34.491  28.364  1.00  0.00     0.251 C 
ATOM     26  H   UNL A   1      31.707  34.405  26.820  1.00  0.00     0.163 HD
ATOM     27  O   UNL A   1      32.567  35.614  28.678  1.00  0.00    -0.269 OA
BRANCH  25  28
ATOM     28  C   UNL A   1      34.124  33.905  29.071  1.00  0.00     0.039 A 
ATOM     29  C   UNL A   1      35.386  34.489  28.885  1.00  0.00     0.014 A 
ATOM     30  C   UNL A   1      34.031  32.743  29.833  1.00  0.00     0.014 A 
ATOM     31  C   UNL A   1      36.521  33.937  29.492  1.00  0.00     0.010 A 
ATOM     32  C   UNL A   1      35.134  32.270  30.541  1.00  0.00     0.010 A 
ATOM     33  C   UNL A   1      36.400  32.839  30.356  1.00  0.00    -0.014 A 
BRANCH  33  34
ATOM     34  C   UNL A   1      37.573  32.227  31.038  1.00  0.00     0.031 A 
ATOM     35  C   UNL A   1      38.382  31.163  30.336  1.00  0.00     0.074 A 
ATOM     36  C   UNL A   1      37.860  32.552  32.313  1.00  0.00     0.049 A 
ATOM     37  N   UNL A   1      39.333  30.394  30.806  1.00  0.00    -0.248 NA
ATOM     38  C   UNL A   1      38.046  30.899  28.928  1.00  0.00     0.031 C 
ATOM     39  C   UNL A   1      37.130  33.528  33.124  1.00  0.00     0.029 A 
ATOM     40  N   UNL A   1      38.835  32.083  33.158  1.00  0.00    -0.354 N 
ATOM     41  C   UNL A   1      39.667  29.529  29.770  1.00  0.00     0.074 A 
ATOM     42  C   UNL A   1      38.787  29.834  28.665  1.00  0.00     0.031 C 
ATOM     43  C   UNL A   1      37.697  33.603  34.338  1.00  0.00     0.029 A 
ATOM     44  C   UNL A   1      38.799  32.649  34.409  1.00  0.00     0.049 A 
ATOM     45  H   UNL A   1      39.497  31.404  32.893  1.00  0.00     0.167 HD
ATOM     46  C   UNL A   1      40.637  28.584  29.734  1.00  0.00     0.037 A 
ATOM     47  C   UNL A   1      39.561  32.416  35.494  1.00  0.00     0.037 A 
ATOM     48  C   UNL A   1      41.555  28.328  30.812  1.00  0.00     0.049 A 
ATOM     49  C   UNL A   1      40.656  31.388  35.417  1.00  0.00     0.074 A 
ATOM     50  C   UNL A   1      42.627  27.454  30.845  1.00  0.00     0.029 A 
ATOM     51  N   UNL A   1      41.514  28.959  32.047  1.00  0.00    -0.354 N 
ATOM     52  N   UNL A   1      40.998  30.616  34.415  1.00  0.00    -0.248 NA
ATOM     53  C   UNL A   1      41.473  31.200  36.625  1.00  0.00     0.031 C 
ATOM     54  C   UNL A   1      43.214  27.529  32.113  1.00  0.00     0.029 A 
ATOM     55  C   UNL A   1      42.534  28.482  32.854  1.00  0.00     0.049 A 
ATOM     56  H   UNL A   1      40.857  29.643  32.310  1.00  0.00     0.167 HD
ATOM     57  C   UNL A   1      42.084  29.874  34.858  1.00  0.00     0.074 A 
ATOM     58  C   UNL A   1      42.353  30.297  36.217  1.00  0.00     0.031 C 
ATOM     59  C   UNL A   1      42.795  28.926  34.199  1.00  0.00     0.037 A 
BRANCH  46  60
ATOM     60  C   UNL A   1      40.762  27.761  28.483  1.00  0.00     0.064 A 
ATOM     61  C   UNL A   1      40.080  26.546  28.325  1.00  0.00     0.173 A 
ATOM     62  C   UNL A   1      41.555  28.209  27.413  1.00  0.00     0.173 A 
ATOM     63  F   UNL A   1      39.317  26.067  29.319  1.00  0.00    -0.203 F 
ATOM     64  C   UNL A   1      40.215  25.791  27.162  1.00  0.00     0.198 A 
ATOM     65  C   UNL A   1      41.661  27.468  26.239  1.00  0.00     0.198 A 
ATOM     66  F   UNL A   1      42.223  29.369  27.506  1.00  0.00    -0.203 F 
ATOM     67  F   UNL A   1      39.599  24.605  27.060  1.00  0.00    -0.200 F 
ATOM     68  C   UNL A   1      41.000  26.255  26.118  1.00  0.00     0.200 A 
ATOM     69  F   UNL A   1      42.409  27.926  25.225  1.00  0.00    -0.200 F 
ATOM     70  F   UNL A   1      41.125  25.530  24.998  1.00  0.00    -0.200 F 
ENDBRANCH  46  60
BRANCH  47  71
ATOM     71  C   UNL A   1      39.337  33.198  36.738  1.00  0.00     0.064 A 
ATOM     72  C   UNL A   1      38.449  32.740  37.721  1.00  0.00     0.173 A 
ATOM     73  C   UNL A   1      40.005  34.408  36.975  1.00  0.00     0.173 A 
ATOM     74  F   UNL A   1      37.773  31.597  37.529  1.00  0.00    -0.203 F 
ATOM     75  C   UNL A   1      38.222  33.469  38.885  1.00  0.00     0.198 A 
ATOM     76  C   UNL A   1      39.798  35.125  38.153  1.00  0.00     0.198 A 
ATOM     77  F   UNL A   1      40.870  34.887  36.070  1.00  0.00    -0.203 F 
ATOM     78  F   UNL A   1      37.336  33.028  39.788  1.00  0.00    -0.200 F 
ATOM     79  C   UNL A   1      38.902  34.659  39.103  1.00  0.00     0.200 A 
ATOM     80  F   UNL A   1      40.468  36.265  38.367  1.00  0.00    -0.200 F 
ATOM     81  F   UNL A   1      38.689  35.358  40.226  1.00  0.00    -0.200 F 
ENDBRANCH  47  71
BRANCH  59  82
ATOM     82  C   UNL A   1      43.956  28.311  34.923  1.00  0.00     0.064 A 
ATOM     83  C   UNL A   1      45.230  28.895  34.899  1.00  0.00     0.173 A 
ATOM     84  C   UNL A   1      43.780  27.144  35.681  1.00  0.00     0.173 A 
ATOM     85  F   UNL A   1      45.452  30.003  34.176  1.00  0.00    -0.203 F 
ATOM     86  C   UNL A   1      46.292  28.320  35.592  1.00  0.00     0.198 A 
ATOM     87  C   UNL A   1      44.836  26.588  36.396  1.00  0.00     0.198 A 
ATOM     88  F   UNL A   1      42.578  26.551  35.740  1.00  0.00    -0.203 F 
ATOM     89  F   UNL A   1      47.512  28.870  35.522  1.00  0.00    -0.200 F 
ATOM     90  C   UNL A   1      46.092  27.173  36.346  1.00  0.00     0.200 A 
ATOM     91  F   UNL A   1      44.639  25.486  37.133  1.00  0.00    -0.200 F 
ATOM     92  F   UNL A   1      47.114  26.626  37.018  1.00  0.00    -0.200 F 
ENDBRANCH  59  82
ENDBRANCH  33  34
ENDBRANCH  25  28
ENDBRANCH  23  24
ENDBRANCH   1  23
TORSDOF 13
ENDMDL
MODEL 3
REMARK VINA RESULT:     -11.7      1.332      2.098
REMARK SMILES C[NH2+][C@@]1(C(=O)NCCCNC(=O)c2ccc(-c3c4nc(c(-c5c(F)c(F)c(F)c(F)c5F)c5ccc([nH]5)c(-c5c(F)c(F)c(F)c(F)c5F)c5nc(c(-c6c(F)c(F)c(F)c(F)c6F)c6ccc3[nH]6)C=C5)C=C4)cc2)CC[C@H](SC2CCOCC2)C1
REMARK SMILES IDX 8 1 7 2 6 3 4 4 5 5 3 7 76 8 86 9 77 10 78 11 2 12 1 13
REMARK SMILES IDX 79 16 80 17 81 18 85 19 82 20 84 21 83 22 9 23 10 24 11 25
REMARK SMILES IDX 12 27 13 28 14 29 75 30 15 31 74 32 16 33 17 34 18 35 68 36
REMARK SMILES IDX 19 37 73 38 67 39 69 40 20 41 72 42 66 43 65 44 21 46 53 47
REMARK SMILES IDX 33 48 52 49 34 50 37 51 51 52 70 53 35 54 36 55 50 57 71 58
REMARK SMILES IDX 38 59 22 60 23 61 31 62 24 63 25 64 29 65 32 66 26 67 27 68
REMARK SMILES IDX 30 69 28 70 54 71 55 72 63 73 56 74 57 75 61 76 64 77 58 78
REMARK SMILES IDX 59 79 62 80 60 81 39 82 40 83 48 84 41 85 42 86 46 87 49 88
REMARK SMILES IDX 43 89 44 90 47 91 45 92
REMARK H PARENT 6 6 2 14 2 15 10 26 69 45 37 56
REMARK Flexibility Score: inf
ROOT
ATOM      1  C   UNL A   1      31.097  31.939  26.132  1.00  0.00     0.042 C 
ENDROOT
BRANCH   1   2
ATOM      2  C   UNL A   1      31.315  30.612  25.414  1.00  0.00     0.118 C 
BRANCH   2   3
ATOM      3  N   UNL A   1      31.630  29.555  26.337  1.00  0.00    -0.351 N 
ATOM      4  C   UNL A   1      31.602  28.202  26.198  1.00  0.00     0.281 C 
ATOM      5  O   UNL A   1      31.449  27.615  27.279  1.00  0.00    -0.268 OA
ATOM      6  H   UNL A   1      31.919  29.864  27.225  1.00  0.00     0.163 HD
BRANCH   4   7
ATOM      7  C   UNL A   1      31.748  27.419  24.817  1.00  0.00     0.176 C 
ATOM      8  C   UNL A   1      32.507  28.136  23.691  1.00  0.00     0.080 C 
ATOM      9  C   UNL A   1      30.372  27.081  24.204  1.00  0.00     0.093 C 
ATOM     10  C   UNL A   1      31.490  28.636  22.666  1.00  0.00     0.022 C 
ATOM     11  C   UNL A   1      30.170  27.910  22.904  1.00  0.00     0.054 C 
BRANCH   7  12
ATOM     12  N   UNL A   1      32.440  26.115  25.090  1.00  0.00    -0.336 N 
ATOM     13  C   UNL A   1      32.132  25.045  24.143  1.00  0.00     0.331 C 
ATOM     14  H   UNL A   1      33.446  26.279  25.066  1.00  0.00     0.346 HD
ATOM     15  H   UNL A   1      32.105  25.796  26.000  1.00  0.00     0.346 HD
ENDBRANCH   7  12
BRANCH  11  16
ATOM     16  S   UNL A   1      28.552  28.777  23.095  1.00  0.00    -0.155 SA
BRANCH  16  17
ATOM     17  C   UNL A   1      28.616  30.479  22.402  1.00  0.00     0.051 C 
ATOM     18  C   UNL A   1      28.326  31.554  23.448  1.00  0.00     0.043 C 
ATOM     19  C   UNL A   1      27.907  30.807  21.093  1.00  0.00     0.043 C 
ATOM     20  C   UNL A   1      28.670  32.924  22.864  1.00  0.00     0.161 C 
ATOM     21  C   UNL A   1      28.297  32.207  20.634  1.00  0.00     0.161 C 
ATOM     22  O   UNL A   1      27.966  33.159  21.645  1.00  0.00    -0.381 OA
ENDBRANCH  16  17
ENDBRANCH  11  16
ENDBRANCH   4   7
ENDBRANCH   2   3
ENDBRANCH   1   2
BRANCH   1  23
ATOM     23  C   UNL A   1      32.208  32.254  27.116  1.00  0.00     0.118 C 
BRANCH  23  24
ATOM     24  N   UNL A   1      32.271  33.683  27.406  1.00  0.00    -0.352 N 
ATOM     25  C   UNL A   1      32.989  34.410  28.324  1.00  0.00     0.251 C 
ATOM     26  H   UNL A   1      31.686  34.231  26.833  1.00  0.00     0.163 HD
ATOM     27  O   UNL A   1      32.617  35.554  28.577  1.00  0.00    -0.269 OA
BRANCH  25  28
ATOM     28  C   UNL A   1      34.179  33.863  29.026  1.00  0.00     0.039 A 
ATOM     29  C   UNL A   1      35.437  34.417  28.752  1.00  0.00     0.014 A 
ATOM     30  C   UNL A   1      34.105  32.759  29.873  1.00  0.00     0.014 A 
ATOM     31  C   UNL A   1      36.590  33.898  29.353  1.00  0.00     0.010 A 
ATOM     32  C   UNL A   1      35.230  32.325  30.571  1.00  0.00     0.010 A 
ATOM     33  C   UNL A   1      36.493  32.866  30.298  1.00  0.00    -0.014 A 
BRANCH  33  34
ATOM     34  C   UNL A   1      37.687  32.291  30.978  1.00  0.00     0.031 A 
ATOM     35  C   UNL A   1      38.505  31.226  30.290  1.00  0.00     0.074 A 
ATOM     36  C   UNL A   1      37.984  32.651  32.241  1.00  0.00     0.049 A 
ATOM     37  N   UNL A   1      39.476  30.486  30.764  1.00  0.00    -0.248 NA
ATOM     38  C   UNL A   1      38.155  30.924  28.892  1.00  0.00     0.031 C 
ATOM     39  C   UNL A   1      37.247  33.632  33.039  1.00  0.00     0.029 A 
ATOM     40  N   UNL A   1      38.979  32.219  33.083  1.00  0.00    -0.354 N 
ATOM     41  C   UNL A   1      39.813  29.604  29.744  1.00  0.00     0.074 A 
ATOM     42  C   UNL A   1      38.913  29.867  28.643  1.00  0.00     0.031 C 
ATOM     43  C   UNL A   1      37.829  33.746  34.244  1.00  0.00     0.029 A 
ATOM     44  C   UNL A   1      38.948  32.814  34.321  1.00  0.00     0.049 A 
ATOM     45  H   UNL A   1      39.650  31.547  32.824  1.00  0.00     0.167 HD
ATOM     46  C   UNL A   1      40.800  28.676  29.716  1.00  0.00     0.037 A 
ATOM     47  C   UNL A   1      39.729  32.620  35.401  1.00  0.00     0.037 A 
ATOM     48  C   UNL A   1      41.736  28.461  30.787  1.00  0.00     0.049 A 
ATOM     49  C   UNL A   1      40.842  31.610  35.333  1.00  0.00     0.074 A 
ATOM     50  C   UNL A   1      42.825  27.608  30.824  1.00  0.00     0.029 A 
ATOM     51  N   UNL A   1      41.700  29.120  32.007  1.00  0.00    -0.354 N 
ATOM     52  N   UNL A   1      41.185  30.821  34.344  1.00  0.00    -0.248 NA
ATOM     53  C   UNL A   1      41.678  31.465  36.533  1.00  0.00     0.031 C 
ATOM     54  C   UNL A   1      43.427  27.723  32.082  1.00  0.00     0.029 A 
ATOM     55  C   UNL A   1      42.739  28.681  32.811  1.00  0.00     0.049 A 
ATOM     56  H   UNL A   1      41.034  29.798  32.263  1.00  0.00     0.167 HD
ATOM     57  C   UNL A   1      42.290  30.110  34.788  1.00  0.00     0.074 A 
ATOM     58  C   UNL A   1      42.569  30.569  36.133  1.00  0.00     0.031 C 
ATOM     59  C   UNL A   1      43.010  29.160  34.142  1.00  0.00     0.037 A 
BRANCH  46  60
ATOM     60  C   UNL A   1      40.923  27.827  28.482  1.00  0.00     0.064 A 
ATOM     61  C   UNL A   1      41.717  28.217  27.393  1.00  0.00     0.173 A 
ATOM     62  C   UNL A   1      40.261  26.591  28.399  1.00  0.00     0.173 A 
ATOM     63  F   UNL A   1      42.363  29.392  27.415  1.00  0.00    -0.203 F 
ATOM     64  C   UNL A   1      41.812  27.422  26.252  1.00  0.00     0.198 A 
ATOM     65  C   UNL A   1      40.386  25.784  27.271  1.00  0.00     0.198 A 
ATOM     66  F   UNL A   1      39.495  26.164  29.415  1.00  0.00    -0.203 F 
ATOM     67  F   UNL A   1      42.530  27.845  25.202  1.00  0.00    -0.200 F 
ATOM     68  C   UNL A   1      41.153  26.204  26.195  1.00  0.00     0.200 A 
ATOM     69  F   UNL A   1      39.759  24.601  27.223  1.00  0.00    -0.200 F 
ATOM     70  F   UNL A   1      41.250  25.439  25.099  1.00  0.00    -0.200 F 
ENDBRANCH  46  60
BRANCH  47  71
ATOM     71  C   UNL A   1      39.508  33.426  36.630  1.00  0.00     0.064 A 
ATOM     72  C   UNL A   1      40.093  34.692  36.770  1.00  0.00     0.173 A 
ATOM     73  C   UNL A   1      38.706  32.957  37.681  1.00  0.00     0.173 A 
ATOM     74  F   UNL A   1      40.883  35.173  35.799  1.00  0.00    -0.203 F 
ATOM     75  C   UNL A   1      39.902  35.451  37.921  1.00  0.00     0.198 A 
ATOM     76  C   UNL A   1      38.493  33.730  38.821  1.00  0.00     0.198 A 
ATOM     77  F   UNL A   1      38.118  31.756  37.593  1.00  0.00    -0.203 F 
ATOM     78  F   UNL A   1      40.508  36.640  38.045  1.00  0.00    -0.200 F 
ATOM     79  C   UNL A   1      39.097  34.973  38.944  1.00  0.00     0.200 A 
ATOM     80  F   UNL A   1      37.702  33.271  39.800  1.00  0.00    -0.200 F 
ATOM     81  F   UNL A   1      38.907  35.706  40.049  1.00  0.00    -0.200 F 
ENDBRANCH  47  71
BRANCH  59  82
ATOM     82  C   UNL A   1      44.192  28.583  34.863  1.00  0.00     0.064 A 
ATOM     83  C   UNL A   1      45.461  29.174  34.787  1.00  0.00     0.173 A 
ATOM     84  C   UNL A   1      44.042  27.446  35.672  1.00  0.00     0.173 A 
ATOM     85  F   UNL A   1      45.657  30.253  34.014  1.00  0.00    -0.203 F 
ATOM     86  C   UNL A   1      46.542  28.636  35.479  1.00  0.00     0.198 A 
ATOM     87  C   UNL A   1      45.119  26.928  36.384  1.00  0.00     0.198 A 
ATOM     88  F   UNL A   1      42.846  26.848  35.783  1.00  0.00    -0.203 F 
ATOM     89  F   UNL A   1      47.756  29.191  35.358  1.00  0.00    -0.200 F 
ATOM     90  C   UNL A   1      46.368  27.519  36.282  1.00  0.00     0.200 A 
ATOM     91  F   UNL A   1      44.946  25.855  37.171  1.00  0.00    -0.200 F 
ATOM     92  F   UNL A   1      47.409  27.007  36.953  1.00  0.00    -0.200 F 
ENDBRANCH  59  82
ENDBRANCH  33  34
ENDBRANCH  25  28
ENDBRANCH  23  24
ENDBRANCH   1  23
TORSDOF 13
ENDMDL
