MODEL 1
REMARK VINA RESULT:     -12.3      0.000      0.000
REMARK SMILES CC(C)(C)OC(=O)N1CC(Cc2ccc(C(=O)NCCCNC(=O)c3ccc(-c4c5nc(c(-c6c(F)c(F)c(F)c(F)c6F)c6ccc([nH]6)c(-c6c(F)c(F)c(F)c(F)c6F)c6nc(c(-c7c(F)c(F)c(F)c(F)c7F)c7ccc4[nH]7)C=C6)C=C5)cc3)cc2)C1
REMARK SMILES IDX 19 1 18 2 16 3 17 4 15 6 12 7 13 8 89 9 14 10 88 11 11 12
REMARK SMILES IDX 10 13 6 14 7 15 8 16 9 17 90 18 5 19 2 20 1 21 3 22 4 23
REMARK SMILES IDX 20 24 21 25 22 26 23 27 24 29 25 30 26 31 87 32 27 33 86 34
REMARK SMILES IDX 28 35 29 36 30 37 80 38 31 39 85 40 79 41 81 42 32 43 84 44
REMARK SMILES IDX 78 45 77 46 33 48 65 49 45 50 64 51 46 52 49 53 63 54 82 55
REMARK SMILES IDX 47 56 48 57 62 59 83 60 50 61 34 62 35 63 43 64 36 65 37 66
REMARK SMILES IDX 41 67 44 68 38 69 39 70 42 71 40 72 66 73 67 74 75 75 68 76
REMARK SMILES IDX 69 77 73 78 76 79 70 80 71 81 74 82 72 83 51 84 52 85 60 86
REMARK SMILES IDX 53 87 54 88 58 89 61 90 55 91 56 92 59 93 57 94
REMARK H PARENT 18 5 22 28 81 47 49 58
REMARK Flexibility Score: inf
ROOT
ATOM      1  C   UNL A   1      37.398  20.856  24.624  1.00  0.00     0.118 C 
ENDROOT
BRANCH   1   2
ATOM      2  N   UNL A   1      37.998  22.039  25.218  1.00  0.00    -0.352 N 
ATOM      3  C   UNL A   1      37.474  23.282  25.476  1.00  0.00     0.251 C 
ATOM      4  O   UNL A   1      38.144  24.079  26.130  1.00  0.00    -0.269 OA
ATOM      5  H   UNL A   1      38.941  21.931  25.481  1.00  0.00     0.163 HD
BRANCH   3   6
ATOM      6  C   UNL A   1      36.116  23.675  25.026  1.00  0.00     0.039 A 
ATOM      7  C   UNL A   1      33.523  24.483  24.287  1.00  0.00    -0.048 A 
ATOM      8  C   UNL A   1      33.911  24.503  25.631  1.00  0.00     0.004 A 
ATOM      9  C   UNL A   1      34.454  24.087  23.316  1.00  0.00     0.004 A 
ATOM     10  C   UNL A   1      35.203  24.107  25.996  1.00  0.00     0.014 A 
ATOM     11  C   UNL A   1      35.746  23.700  23.681  1.00  0.00     0.014 A 
BRANCH   7  12
ATOM     12  C   UNL A   1      32.131  24.887  23.870  1.00  0.00     0.042 C 
BRANCH  12  13
ATOM     13  C   UNL A   1      32.081  26.384  23.600  1.00  0.00     0.033 C 
ATOM     14  C   UNL A   1      30.455  29.287  23.717  1.00  0.00     0.410 C 
ATOM     15  O   UNL A   1      30.708  30.062  24.629  1.00  0.00    -0.224 OA
ATOM     16  N   UNL A   1      30.826  27.981  23.735  1.00  0.00    -0.307 N 
ATOM     17  C   UNL A   1      31.499  27.218  24.760  1.00  0.00     0.128 C 
ATOM     18  C   UNL A   1      30.925  26.947  22.728  1.00  0.00     0.128 C 
BRANCH  14  19
ATOM     19  O   UNL A   1      29.771  29.597  22.587  1.00  0.00    -0.444 OA
BRANCH  19  20
ATOM     20  C   UNL A   1      28.392  30.052  22.652  1.00  0.00     0.106 C 
ATOM     21  C   UNL A   1      28.028  30.425  21.207  1.00  0.00     0.056 C 
ATOM     22  C   UNL A   1      28.313  31.303  23.532  1.00  0.00     0.056 C 
ATOM     23  C   UNL A   1      27.407  28.971  23.122  1.00  0.00     0.056 C 
ENDBRANCH  19  20
ENDBRANCH  14  19
ENDBRANCH  12  13
ENDBRANCH   7  12
ENDBRANCH   3   6
ENDBRANCH   1   2
BRANCH   1  24
ATOM     24  C   UNL A   1      38.232  19.602  24.885  1.00  0.00     0.042 C 
BRANCH  24  25
ATOM     25  C   UNL A   1      39.114  19.685  26.130  1.00  0.00     0.118 C 
BRANCH  25  26
ATOM     26  N   UNL A   1      40.303  18.855  26.024  1.00  0.00    -0.352 N 
ATOM     27  C   UNL A   1      41.630  19.205  26.023  1.00  0.00     0.251 C 
ATOM     28  H   UNL A   1      40.129  17.889  25.938  1.00  0.00     0.163 HD
ATOM     29  O   UNL A   1      42.473  18.359  25.739  1.00  0.00    -0.269 OA
BRANCH  27  30
ATOM     30  C   UNL A   1      42.066  20.585  26.346  1.00  0.00     0.039 A 
ATOM     31  C   UNL A   1      42.313  21.468  25.288  1.00  0.00     0.014 A 
ATOM     32  C   UNL A   1      42.310  20.995  27.661  1.00  0.00     0.014 A 
ATOM     33  C   UNL A   1      42.764  22.765  25.545  1.00  0.00     0.010 A 
ATOM     34  C   UNL A   1      42.714  22.307  27.921  1.00  0.00     0.010 A 
ATOM     35  C   UNL A   1      42.954  23.201  26.866  1.00  0.00    -0.014 A 
BRANCH  35  36
ATOM     36  C   UNL A   1      43.421  24.581  27.151  1.00  0.00     0.031 A 
ATOM     37  C   UNL A   1      42.476  25.599  27.723  1.00  0.00     0.074 A 
ATOM     38  C   UNL A   1      44.688  24.930  26.858  1.00  0.00     0.049 A 
ATOM     39  N   UNL A   1      42.687  26.865  27.994  1.00  0.00    -0.248 NA
ATOM     40  C   UNL A   1      41.108  25.144  28.009  1.00  0.00     0.031 C 
ATOM     41  C   UNL A   1      45.693  24.046  26.267  1.00  0.00     0.029 A 
ATOM     42  N   UNL A   1      45.343  26.126  27.010  1.00  0.00    -0.354 N 
ATOM     43  C   UNL A   1      41.477  27.357  28.464  1.00  0.00     0.074 A 
ATOM     44  C   UNL A   1      40.527  26.265  28.412  1.00  0.00     0.031 C 
ATOM     45  C   UNL A   1      46.841  24.725  26.119  1.00  0.00     0.029 A 
ATOM     46  C   UNL A   1      46.647  26.097  26.580  1.00  0.00     0.049 A 
ATOM     47  H   UNL A   1      44.919  26.929  27.389  1.00  0.00     0.167 HD
ATOM     48  C   UNL A   1      41.188  28.602  28.912  1.00  0.00     0.037 A 
ATOM     49  C   UNL A   1      47.579  27.068  26.560  1.00  0.00     0.037 A 
ATOM     50  C   UNL A   1      42.138  29.680  29.000  1.00  0.00     0.049 A 
ATOM     51  C   UNL A   1      47.239  28.434  27.084  1.00  0.00     0.074 A 
ATOM     52  C   UNL A   1      41.953  30.957  29.502  1.00  0.00     0.029 A 
ATOM     53  N   UNL A   1      43.456  29.604  28.577  1.00  0.00    -0.354 N 
ATOM     54  N   UNL A   1      46.106  28.873  27.575  1.00  0.00    -0.248 NA
ATOM     55  C   UNL A   1      48.312  29.440  27.056  1.00  0.00     0.031 C 
ATOM     56  C   UNL A   1      43.153  31.663  29.357  1.00  0.00     0.029 A 
ATOM     57  C   UNL A   1      44.092  30.816  28.793  1.00  0.00     0.049 A 
ATOM     58  H   UNL A   1      43.877  28.807  28.182  1.00  0.00     0.167 HD
ATOM     59  C   UNL A   1      46.332  30.195  27.930  1.00  0.00     0.074 A 
ATOM     60  C   UNL A   1      47.714  30.486  27.611  1.00  0.00     0.031 C 
ATOM     61  C   UNL A   1      45.469  31.088  28.472  1.00  0.00     0.037 A 
BRANCH  48  62
ATOM     62  C   UNL A   1      39.779  28.868  29.350  1.00  0.00     0.064 A 
ATOM     63  C   UNL A   1      39.370  28.651  30.674  1.00  0.00     0.173 A 
ATOM     64  C   UNL A   1      38.838  29.380  28.445  1.00  0.00     0.173 A 
ATOM     65  F   UNL A   1      40.232  28.151  31.573  1.00  0.00    -0.203 F 
ATOM     66  C   UNL A   1      38.062  28.915  31.070  1.00  0.00     0.198 A 
ATOM     67  C   UNL A   1      37.536  29.665  28.850  1.00  0.00     0.198 A 
ATOM     68  F   UNL A   1      39.181  29.609  27.168  1.00  0.00    -0.203 F 
ATOM     69  F   UNL A   1      37.682  28.664  32.331  1.00  0.00    -0.200 F 
ATOM     70  C   UNL A   1      37.149  29.427  30.161  1.00  0.00     0.200 A 
ATOM     71  F   UNL A   1      36.657  30.166  27.973  1.00  0.00    -0.200 F 
ATOM     72  F   UNL A   1      35.891  29.685  30.545  1.00  0.00    -0.200 F 
ENDBRANCH  48  62
BRANCH  49  73
ATOM     73  C   UNL A   1      48.939  26.770  26.046  1.00  0.00     0.064 A 
ATOM     74  C   UNL A   1      49.923  26.240  26.891  1.00  0.00     0.173 A 
ATOM     75  C   UNL A   1      49.277  27.000  24.706  1.00  0.00     0.173 A 
ATOM     76  F   UNL A   1      49.648  26.025  28.186  1.00  0.00    -0.203 F 
ATOM     77  C   UNL A   1      51.202  25.961  26.416  1.00  0.00     0.198 A 
ATOM     78  C   UNL A   1      50.552  26.702  24.227  1.00  0.00     0.198 A 
ATOM     79  F   UNL A   1      48.367  27.502  23.859  1.00  0.00    -0.203 F 
ATOM     80  F   UNL A   1      52.136  25.486  27.251  1.00  0.00    -0.200 F 
ATOM     81  C   UNL A   1      51.514  26.187  25.083  1.00  0.00     0.200 A 
ATOM     82  F   UNL A   1      50.846  26.912  22.937  1.00  0.00    -0.200 F 
ATOM     83  F   UNL A   1      52.744  25.915  24.626  1.00  0.00    -0.200 F 
ENDBRANCH  49  73
BRANCH  61  84
ATOM     84  C   UNL A   1      45.999  32.458  28.769  1.00  0.00     0.064 A 
ATOM     85  C   UNL A   1      45.917  33.493  27.827  1.00  0.00     0.173 A 
ATOM     86  C   UNL A   1      46.567  32.745  30.019  1.00  0.00     0.173 A 
ATOM     87  F   UNL A   1      45.398  33.258  26.612  1.00  0.00    -0.203 F 
ATOM     88  C   UNL A   1      46.402  34.764  28.120  1.00  0.00     0.198 A 
ATOM     89  C   UNL A   1      47.031  34.023  30.316  1.00  0.00     0.198 A 
ATOM     90  F   UNL A   1      46.665  31.787  30.954  1.00  0.00    -0.203 F 
ATOM     91  F   UNL A   1      46.346  35.730  27.192  1.00  0.00    -0.200 F 
ATOM     92  C   UNL A   1      46.952  35.031  29.365  1.00  0.00     0.200 A 
ATOM     93  F   UNL A   1      47.557  34.281  31.521  1.00  0.00    -0.200 F 
ATOM     94  F   UNL A   1      47.415  36.256  29.646  1.00  0.00    -0.200 F 
ENDBRANCH  61  84
ENDBRANCH  35  36
ENDBRANCH  27  30
ENDBRANCH  25  26
ENDBRANCH  24  25
ENDBRANCH   1  24
TORSDOF 14
ENDMDL
MODEL 2
REMARK VINA RESULT:     -12.3      4.868     10.473
REMARK SMILES CC(C)(C)OC(=O)N1CC(Cc2ccc(C(=O)NCCCNC(=O)c3ccc(-c4c5nc(c(-c6c(F)c(F)c(F)c(F)c6F)c6ccc([nH]6)c(-c6c(F)c(F)c(F)c(F)c6F)c6nc(c(-c7c(F)c(F)c(F)c(F)c7F)c7ccc4[nH]7)C=C6)C=C5)cc3)cc2)C1
REMARK SMILES IDX 19 1 18 2 16 3 17 4 15 6 12 7 13 8 89 9 14 10 88 11 11 12
REMARK SMILES IDX 10 13 6 14 7 15 8 16 9 17 90 18 5 19 2 20 1 21 3 22 4 23
REMARK SMILES IDX 20 24 21 25 22 26 23 27 24 29 25 30 26 31 87 32 27 33 86 34
REMARK SMILES IDX 28 35 29 36 30 37 80 38 31 39 85 40 79 41 81 42 32 43 84 44
REMARK SMILES IDX 78 45 77 46 33 48 65 49 45 50 64 51 46 52 49 53 63 54 82 55
REMARK SMILES IDX 47 56 48 57 62 59 83 60 50 61 34 62 35 63 43 64 36 65 37 66
REMARK SMILES IDX 41 67 44 68 38 69 39 70 42 71 40 72 66 73 67 74 75 75 68 76
REMARK SMILES IDX 69 77 73 78 76 79 70 80 71 81 74 82 72 83 51 84 52 85 60 86
REMARK SMILES IDX 53 87 54 88 58 89 61 90 55 91 56 92 59 93 57 94
REMARK H PARENT 18 5 22 28 81 47 49 58
REMARK Flexibility Score: inf
ROOT
ATOM      1  C   UNL A   1      34.901  34.166  30.182  1.00  0.00     0.118 C 
ENDROOT
BRANCH   1   2
ATOM      2  N   UNL A   1      34.030  33.683  31.241  1.00  0.00    -0.352 N 
ATOM      3  C   UNL A   1      34.320  33.126  32.462  1.00  0.00     0.251 C 
ATOM      4  O   UNL A   1      33.399  32.932  33.254  1.00  0.00    -0.269 OA
ATOM      5  H   UNL A   1      33.068  33.770  31.049  1.00  0.00     0.163 HD
BRANCH   3   6
ATOM      6  C   UNL A   1      35.707  32.790  32.867  1.00  0.00     0.039 A 
ATOM      7  C   UNL A   1      38.334  32.252  33.722  1.00  0.00    -0.048 A 
ATOM      8  C   UNL A   1      37.749  33.495  33.982  1.00  0.00     0.004 A 
ATOM      9  C   UNL A   1      37.581  31.270  33.061  1.00  0.00     0.004 A 
ATOM     10  C   UNL A   1      36.441  33.759  33.562  1.00  0.00     0.014 A 
ATOM     11  C   UNL A   1      36.272  31.532  32.650  1.00  0.00     0.014 A 
BRANCH   7  12
ATOM     12  C   UNL A   1      39.749  31.949  34.148  1.00  0.00     0.042 C 
BRANCH  12  13
ATOM     13  C   UNL A   1      39.865  30.495  34.581  1.00  0.00     0.033 C 
ATOM     14  C   UNL A   1      41.703  27.945  35.678  1.00  0.00     0.410 C 
ATOM     15  O   UNL A   1      41.679  27.679  36.872  1.00  0.00    -0.224 OA
ATOM     16  N   UNL A   1      41.241  29.119  35.175  1.00  0.00    -0.307 N 
ATOM     17  C   UNL A   1      40.709  30.278  35.853  1.00  0.00     0.128 C 
ATOM     18  C   UNL A   1      40.882  29.577  33.851  1.00  0.00     0.128 C 
BRANCH  14  19
ATOM     19  O   UNL A   1      42.192  27.140  34.702  1.00  0.00    -0.444 OA
BRANCH  19  20
ATOM     20  C   UNL A   1      43.625  27.004  34.497  1.00  0.00     0.106 C 
ATOM     21  C   UNL A   1      43.774  26.509  33.050  1.00  0.00     0.056 C 
ATOM     22  C   UNL A   1      44.172  25.940  35.453  1.00  0.00     0.056 C 
ATOM     23  C   UNL A   1      44.396  28.325  34.626  1.00  0.00     0.056 C 
ENDBRANCH  19  20
ENDBRANCH  14  19
ENDBRANCH  12  13
ENDBRANCH   7  12
ENDBRANCH   3   6
ENDBRANCH   1   2
BRANCH   1  24
ATOM     24  C   UNL A   1      35.495  33.020  29.364  1.00  0.00     0.042 C 
BRANCH  24  25
ATOM     25  C   UNL A   1      34.868  32.850  27.981  1.00  0.00     0.118 C 
BRANCH  25  26
ATOM     26  N   UNL A   1      34.107  31.616  27.865  1.00  0.00    -0.352 N 
ATOM     27  C   UNL A   1      34.534  30.312  27.834  1.00  0.00     0.251 C 
ATOM     28  H   UNL A   1      33.132  31.734  27.799  1.00  0.00     0.163 HD
ATOM     29  O   UNL A   1      33.734  29.426  27.547  1.00  0.00    -0.269 OA
BRANCH  27  30
ATOM     30  C   UNL A   1      35.942  29.952  28.125  1.00  0.00     0.039 A 
ATOM     31  C   UNL A   1      36.258  29.490  29.408  1.00  0.00     0.014 A 
ATOM     32  C   UNL A   1      36.963  30.137  27.187  1.00  0.00     0.014 A 
ATOM     33  C   UNL A   1      37.579  29.178  29.738  1.00  0.00     0.010 A 
ATOM     34  C   UNL A   1      38.276  29.779  27.500  1.00  0.00     0.010 A 
ATOM     35  C   UNL A   1      38.598  29.305  28.782  1.00  0.00    -0.014 A 
BRANCH  35  36
ATOM     36  C   UNL A   1      40.003  28.964  29.118  1.00  0.00     0.031 A 
ATOM     37  C   UNL A   1      40.850  29.924  29.905  1.00  0.00     0.074 A 
ATOM     38  C   UNL A   1      40.532  27.807  28.679  1.00  0.00     0.049 A 
ATOM     39  N   UNL A   1      42.110  29.823  30.254  1.00  0.00    -0.248 NA
ATOM     40  C   UNL A   1      40.204  31.170  30.343  1.00  0.00     0.031 C 
ATOM     41  C   UNL A   1      39.827  26.807  27.876  1.00  0.00     0.029 A 
ATOM     42  N   UNL A   1      41.789  27.280  28.840  1.00  0.00    -0.354 N 
ATOM     43  C   UNL A   1      42.409  30.997  30.932  1.00  0.00     0.074 A 
ATOM     44  C   UNL A   1      41.211  31.809  30.920  1.00  0.00     0.031 C 
ATOM     45  C   UNL A   1      40.657  25.781  27.625  1.00  0.00     0.029 A 
ATOM     46  C   UNL A   1      41.957  26.062  28.228  1.00  0.00     0.049 A 
ATOM     47  H   UNL A   1      42.502  27.732  29.345  1.00  0.00     0.167 HD
ATOM     48  C   UNL A   1      43.573  31.357  31.524  1.00  0.00     0.037 A 
ATOM     49  C   UNL A   1      43.039  25.264  28.160  1.00  0.00     0.037 A 
ATOM     50  C   UNL A   1      44.755  30.538  31.570  1.00  0.00     0.049 A 
ATOM     51  C   UNL A   1      44.311  25.677  28.845  1.00  0.00     0.074 A 
ATOM     52  C   UNL A   1      45.959  30.792  32.202  1.00  0.00     0.029 A 
ATOM     53  N   UNL A   1      44.878  29.300  30.958  1.00  0.00    -0.354 N 
ATOM     54  N   UNL A   1      44.565  26.765  29.529  1.00  0.00    -0.248 NA
ATOM     55  C   UNL A   1      45.445  24.746  28.753  1.00  0.00     0.031 C 
ATOM     56  C   UNL A   1      46.822  29.719  31.951  1.00  0.00     0.029 A 
ATOM     57  C   UNL A   1      46.144  28.784  31.187  1.00  0.00     0.049 A 
ATOM     58  H   UNL A   1      44.171  28.853  30.439  1.00  0.00     0.167 HD
ATOM     59  C   UNL A   1      45.877  26.645  29.963  1.00  0.00     0.074 A 
ATOM     60  C   UNL A   1      46.365  25.371  29.477  1.00  0.00     0.031 C 
ATOM     61  C   UNL A   1      46.612  27.514  30.698  1.00  0.00     0.037 A 
BRANCH  48  62
ATOM     62  C   UNL A   1      43.624  32.705  32.179  1.00  0.00     0.064 A 
ATOM     63  C   UNL A   1      43.431  32.856  33.560  1.00  0.00     0.173 A 
ATOM     64  C   UNL A   1      43.907  33.853  31.425  1.00  0.00     0.173 A 
ATOM     65  F   UNL A   1      43.146  31.788  34.322  1.00  0.00    -0.203 F 
ATOM     66  C   UNL A   1      43.495  34.111  34.158  1.00  0.00     0.198 A 
ATOM     67  C   UNL A   1      43.993  35.104  32.029  1.00  0.00     0.198 A 
ATOM     68  F   UNL A   1      44.105  33.760  30.101  1.00  0.00    -0.203 F 
ATOM     69  F   UNL A   1      43.268  34.237  35.473  1.00  0.00    -0.200 F 
ATOM     70  C   UNL A   1      43.782  35.232  33.395  1.00  0.00     0.200 A 
ATOM     71  F   UNL A   1      44.278  36.185  31.292  1.00  0.00    -0.200 F 
ATOM     72  F   UNL A   1      43.848  36.440  33.972  1.00  0.00    -0.200 F 
ENDBRANCH  48  62
BRANCH  49  73
ATOM     73  C   UNL A   1      42.955  23.973  27.434  1.00  0.00     0.064 A 
ATOM     74  C   UNL A   1      43.303  23.889  26.079  1.00  0.00     0.173 A 
ATOM     75  C   UNL A   1      42.535  22.801  28.078  1.00  0.00     0.173 A 
ATOM     76  F   UNL A   1      43.689  24.991  25.419  1.00  0.00    -0.203 F 
ATOM     77  C   UNL A   1      43.223  22.681  25.391  1.00  0.00     0.198 A 
ATOM     78  C   UNL A   1      42.474  21.589  27.394  1.00  0.00     0.198 A 
ATOM     79  F   UNL A   1      42.195  22.832  29.375  1.00  0.00    -0.203 F 
ATOM     80  F   UNL A   1      43.530  22.633  24.088  1.00  0.00    -0.200 F 
ATOM     81  C   UNL A   1      42.814  21.531  26.050  1.00  0.00     0.200 A 
ATOM     82  F   UNL A   1      42.089  20.478  28.036  1.00  0.00    -0.200 F 
ATOM     83  F   UNL A   1      42.742  20.368  25.388  1.00  0.00    -0.200 F 
ENDBRANCH  49  73
BRANCH  61  84
ATOM     84  C   UNL A   1      48.015  27.108  31.036  1.00  0.00     0.064 A 
ATOM     85  C   UNL A   1      49.096  27.475  30.222  1.00  0.00     0.173 A 
ATOM     86  C   UNL A   1      48.282  26.372  32.199  1.00  0.00     0.173 A 
ATOM     87  F   UNL A   1      48.886  28.163  29.091  1.00  0.00    -0.203 F 
ATOM     88  C   UNL A   1      50.396  27.103  30.554  1.00  0.00     0.198 A 
ATOM     89  C   UNL A   1      49.585  26.020  32.538  1.00  0.00     0.198 A 
ATOM     90  F   UNL A   1      47.280  26.000  33.009  1.00  0.00    -0.203 F 
ATOM     91  F   UNL A   1      51.412  27.432  29.744  1.00  0.00    -0.200 F 
ATOM     92  C   UNL A   1      50.641  26.382  31.714  1.00  0.00     0.200 A 
ATOM     93  F   UNL A   1      49.821  25.328  33.662  1.00  0.00    -0.200 F 
ATOM     94  F   UNL A   1      51.893  26.028  32.032  1.00  0.00    -0.200 F 
ENDBRANCH  61  84
ENDBRANCH  35  36
ENDBRANCH  27  30
ENDBRANCH  25  26
ENDBRANCH  24  25
ENDBRANCH   1  24
TORSDOF 14
ENDMDL
MODEL 3
REMARK VINA RESULT:     -12.2      4.673     10.753
REMARK SMILES CC(C)(C)OC(=O)N1CC(Cc2ccc(C(=O)NCCCNC(=O)c3ccc(-c4c5nc(c(-c6c(F)c(F)c(F)c(F)c6F)c6ccc([nH]6)c(-c6c(F)c(F)c(F)c(F)c6F)c6nc(c(-c7c(F)c(F)c(F)c(F)c7F)c7ccc4[nH]7)C=C6)C=C5)cc3)cc2)C1
REMARK SMILES IDX 19 1 18 2 16 3 17 4 15 6 12 7 13 8 89 9 14 10 88 11 11 12
REMARK SMILES IDX 10 13 6 14 7 15 8 16 9 17 90 18 5 19 2 20 1 21 3 22 4 23
REMARK SMILES IDX 20 24 21 25 22 26 23 27 24 29 25 30 26 31 87 32 27 33 86 34
REMARK SMILES IDX 28 35 29 36 30 37 80 38 31 39 85 40 79 41 81 42 32 43 84 44
REMARK SMILES IDX 78 45 77 46 33 48 65 49 45 50 64 51 46 52 49 53 63 54 82 55
REMARK SMILES IDX 47 56 48 57 62 59 83 60 50 61 34 62 35 63 43 64 36 65 37 66
REMARK SMILES IDX 41 67 44 68 38 69 39 70 42 71 40 72 66 73 67 74 75 75 68 76
REMARK SMILES IDX 69 77 73 78 76 79 70 80 71 81 74 82 72 83 51 84 52 85 60 86
REMARK SMILES IDX 53 87 54 88 58 89 61 90 55 91 56 92 59 93 57 94
REMARK H PARENT 18 5 22 28 81 47 49 58
REMARK Flexibility Score: inf
ROOT
ATOM      1  C   UNL A   1      43.080  21.357  26.217  1.00  0.00     0.118 C 
ENDROOT
BRANCH   1   2
ATOM      2  N   UNL A   1      43.474  21.592  24.837  1.00  0.00    -0.352 N 
ATOM      3  C   UNL A   1      44.161  22.632  24.261  1.00  0.00     0.251 C 
ATOM      4  O   UNL A   1      44.505  22.529  23.085  1.00  0.00    -0.269 OA
ATOM      5  H   UNL A   1      43.200  20.885  24.209  1.00  0.00     0.163 HD
BRANCH   3   6
ATOM      6  C   UNL A   1      44.532  23.850  25.021  1.00  0.00     0.039 A 
ATOM      7  C   UNL A   1      45.364  26.132  26.444  1.00  0.00    -0.048 A 
ATOM      8  C   UNL A   1      46.256  25.079  26.218  1.00  0.00     0.004 A 
ATOM      9  C   UNL A   1      44.064  26.046  25.923  1.00  0.00     0.004 A 
ATOM     10  C   UNL A   1      45.843  23.948  25.505  1.00  0.00     0.014 A 
ATOM     11  C   UNL A   1      43.655  24.921  25.205  1.00  0.00     0.014 A 
BRANCH   7  12
ATOM     12  C   UNL A   1      45.779  27.354  27.225  1.00  0.00     0.042 C 
BRANCH  12  13
ATOM     13  C   UNL A   1      45.178  28.604  26.598  1.00  0.00     0.033 C 
ATOM     14  C   UNL A   1      44.974  31.921  26.393  1.00  0.00     0.410 C 
ATOM     15  O   UNL A   1      45.589  32.490  25.502  1.00  0.00    -0.224 OA
ATOM     16  N   UNL A   1      45.217  30.633  26.750  1.00  0.00    -0.307 N 
ATOM     17  C   UNL A   1      46.208  29.702  26.263  1.00  0.00     0.128 C 
ATOM     18  C   UNL A   1      44.492  29.647  27.521  1.00  0.00     0.128 C 
BRANCH  14  19
ATOM     19  O   UNL A   1      43.995  32.474  27.152  1.00  0.00    -0.444 OA
BRANCH  19  20
ATOM     20  C   UNL A   1      44.320  33.371  28.249  1.00  0.00     0.106 C 
ATOM     21  C   UNL A   1      43.083  33.350  29.159  1.00  0.00     0.056 C 
ATOM     22  C   UNL A   1      44.520  34.788  27.701  1.00  0.00     0.056 C 
ATOM     23  C   UNL A   1      45.527  32.917  29.083  1.00  0.00     0.056 C 
ENDBRANCH  19  20
ENDBRANCH  14  19
ENDBRANCH  12  13
ENDBRANCH   7  12
ENDBRANCH   3   6
ENDBRANCH   1   2
BRANCH   1  24
ATOM     24  C   UNL A   1      41.656  20.811  26.319  1.00  0.00     0.042 C 
BRANCH  24  25
ATOM     25  C   UNL A   1      40.683  21.736  27.049  1.00  0.00     0.118 C 
BRANCH  25  26
ATOM     26  N   UNL A   1      39.569  22.143  26.209  1.00  0.00    -0.352 N 
ATOM     27  C   UNL A   1      38.874  23.326  26.172  1.00  0.00     0.251 C 
ATOM     28  H   UNL A   1      39.265  21.463  25.565  1.00  0.00     0.163 HD
ATOM     29  O   UNL A   1      37.844  23.395  25.506  1.00  0.00    -0.269 OA
BRANCH  27  30
ATOM     30  C   UNL A   1      39.331  24.516  26.928  1.00  0.00     0.039 A 
ATOM     31  C   UNL A   1      38.910  24.661  28.255  1.00  0.00     0.014 A 
ATOM     32  C   UNL A   1      40.095  25.523  26.330  1.00  0.00     0.014 A 
ATOM     33  C   UNL A   1      39.284  25.788  28.992  1.00  0.00     0.010 A 
ATOM     34  C   UNL A   1      40.510  26.626  27.081  1.00  0.00     0.010 A 
ATOM     35  C   UNL A   1      40.100  26.773  28.416  1.00  0.00    -0.014 A 
BRANCH  35  36
ATOM     36  C   UNL A   1      40.514  27.968  29.194  1.00  0.00     0.031 A 
ATOM     37  C   UNL A   1      41.895  28.052  29.780  1.00  0.00     0.074 A 
ATOM     38  C   UNL A   1      39.632  28.962  29.408  1.00  0.00     0.049 A 
ATOM     39  N   UNL A   1      42.422  28.992  30.527  1.00  0.00    -0.248 NA
ATOM     40  C   UNL A   1      42.798  26.924  29.509  1.00  0.00     0.031 C 
ATOM     41  C   UNL A   1      38.252  28.986  28.925  1.00  0.00     0.029 A 
ATOM     42  N   UNL A   1      39.765  30.142  30.096  1.00  0.00    -0.354 N 
ATOM     43  C   UNL A   1      43.707  28.559  30.828  1.00  0.00     0.074 A 
ATOM     44  C   UNL A   1      43.871  27.259  30.211  1.00  0.00     0.031 C 
ATOM     45  C   UNL A   1      37.668  30.129  29.319  1.00  0.00     0.029 A 
ATOM     46  C   UNL A   1      38.624  30.906  30.102  1.00  0.00     0.049 A 
ATOM     47  H   UNL A   1      40.599  30.415  30.543  1.00  0.00     0.167 HD
ATOM     48  C   UNL A   1      44.667  29.194  31.541  1.00  0.00     0.037 A 
ATOM     49  C   UNL A   1      38.378  32.098  30.677  1.00  0.00     0.037 A 
ATOM     50  C   UNL A   1      44.521  30.501  32.125  1.00  0.00     0.049 A 
ATOM     51  C   UNL A   1      39.468  32.792  31.444  1.00  0.00     0.074 A 
ATOM     52  C   UNL A   1      45.461  31.252  32.810  1.00  0.00     0.029 A 
ATOM     53  N   UNL A   1      43.357  31.254  32.090  1.00  0.00    -0.354 N 
ATOM     54  N   UNL A   1      40.695  32.397  31.677  1.00  0.00    -0.248 NA
ATOM     55  C   UNL A   1      39.139  34.103  32.023  1.00  0.00     0.031 C 
ATOM     56  C   UNL A   1      44.857  32.449  33.213  1.00  0.00     0.029 A 
ATOM     57  C   UNL A   1      43.551  32.455  32.753  1.00  0.00     0.049 A 
ATOM     58  H   UNL A   1      42.517  30.976  31.658  1.00  0.00     0.167 HD
ATOM     59  C   UNL A   1      41.289  33.413  32.411  1.00  0.00     0.074 A 
ATOM     60  C   UNL A   1      40.294  34.450  32.576  1.00  0.00     0.031 C 
ATOM     61  C   UNL A   1      42.549  33.478  32.906  1.00  0.00     0.037 A 
BRANCH  48  62
ATOM     62  C   UNL A   1      45.972  28.481  31.727  1.00  0.00     0.064 A 
ATOM     63  C   UNL A   1      47.025  28.629  30.812  1.00  0.00     0.173 A 
ATOM     64  C   UNL A   1      46.187  27.672  32.853  1.00  0.00     0.173 A 
ATOM     65  F   UNL A   1      46.863  29.384  29.715  1.00  0.00    -0.203 F 
ATOM     66  C   UNL A   1      48.237  27.972  31.005  1.00  0.00     0.198 A 
ATOM     67  C   UNL A   1      47.408  27.035  33.054  1.00  0.00     0.198 A 
ATOM     68  F   UNL A   1      45.213  27.503  33.760  1.00  0.00    -0.203 F 
ATOM     69  F   UNL A   1      49.216  28.097  30.098  1.00  0.00    -0.200 F 
ATOM     70  C   UNL A   1      48.430  27.181  32.127  1.00  0.00     0.200 A 
ATOM     71  F   UNL A   1      47.596  26.277  34.143  1.00  0.00    -0.200 F 
ATOM     72  F   UNL A   1      49.599  26.553  32.314  1.00  0.00    -0.200 F 
ENDBRANCH  48  62
BRANCH  49  73
ATOM     73  C   UNL A   1      37.043  32.726  30.523  1.00  0.00     0.064 A 
ATOM     74  C   UNL A   1      36.723  33.455  29.370  1.00  0.00     0.173 A 
ATOM     75  C   UNL A   1      36.061  32.602  31.516  1.00  0.00     0.173 A 
ATOM     76  F   UNL A   1      37.640  33.617  28.405  1.00  0.00    -0.203 F 
ATOM     77  C   UNL A   1      35.472  34.050  29.221  1.00  0.00     0.198 A 
ATOM     78  C   UNL A   1      34.803  33.181  31.357  1.00  0.00     0.198 A 
ATOM     79  F   UNL A   1      36.321  31.910  32.635  1.00  0.00    -0.203 F 
ATOM     80  F   UNL A   1      35.201  34.770  28.124  1.00  0.00    -0.200 F 
ATOM     81  C   UNL A   1      34.511  33.907  30.212  1.00  0.00     0.200 A 
ATOM     82  F   UNL A   1      33.875  33.033  32.312  1.00  0.00    -0.200 F 
ATOM     83  F   UNL A   1      33.307  34.476  30.066  1.00  0.00    -0.200 F 
ENDBRANCH  49  73
BRANCH  61  84
ATOM     84  C   UNL A   1      42.926  34.719  33.657  1.00  0.00     0.064 A 
ATOM     85  C   UNL A   1      43.368  35.870  32.989  1.00  0.00     0.173 A 
ATOM     86  C   UNL A   1      42.812  34.768  35.054  1.00  0.00     0.173 A 
ATOM     87  F   UNL A   1      43.509  35.862  31.654  1.00  0.00    -0.203 F 
ATOM     88  C   UNL A   1      43.702  37.021  33.696  1.00  0.00     0.198 A 
ATOM     89  C   UNL A   1      43.127  35.928  35.756  1.00  0.00     0.198 A 
ATOM     90  F   UNL A   1      42.390  33.693  35.736  1.00  0.00    -0.203 F 
ATOM     91  F   UNL A   1      44.158  38.098  33.042  1.00  0.00    -0.200 F 
ATOM     92  C   UNL A   1      43.575  37.052  35.077  1.00  0.00     0.200 A 
ATOM     93  F   UNL A   1      42.999  35.958  37.089  1.00  0.00    -0.200 F 
ATOM     94  F   UNL A   1      43.894  38.162  35.755  1.00  0.00    -0.200 F 
ENDBRANCH  61  84
ENDBRANCH  35  36
ENDBRANCH  27  30
ENDBRANCH  25  26
ENDBRANCH  24  25
ENDBRANCH   1  24
TORSDOF 14
ENDMDL
