MODEL 1
REMARK VINA RESULT:     -10.9      0.000      0.000
REMARK SMILES CCC(CC)N(CC(C)C)C(=O)N1CC[C@@H](C(=O)NCCCNC(=O)c2ccc(-c3c4nc(c(-c5c(F)c(F)c(F)c(F)c5F)c5ccc([nH]5)c(-c5c(F)c(F)c(F)c(F)c5F)c5nc(c(-c6c(F)c(F)c(F)c(F)c6F)c6ccc3[nH]6)C=C5)C=C4)cc2)[C@@H]1C
REMARK SMILES IDX 20 1 19 2 17 3 18 4 16 6 13 7 14 8 89 9 15 10 90 11 11 12
REMARK SMILES IDX 12 13 6 14 3 15 2 16 1 17 4 18 5 19 7 20 8 21 9 22 10 23
REMARK SMILES IDX 21 24 22 25 23 26 24 27 25 29 26 30 27 31 88 32 28 33 87 34
REMARK SMILES IDX 29 35 30 36 31 37 81 38 32 39 86 40 80 41 82 42 33 43 85 44
REMARK SMILES IDX 79 45 78 46 34 48 66 49 46 50 65 51 47 52 50 53 64 54 83 55
REMARK SMILES IDX 48 56 49 57 63 59 84 60 51 61 35 62 36 63 44 64 37 65 38 66
REMARK SMILES IDX 42 67 45 68 39 69 40 70 43 71 41 72 67 73 68 74 76 75 69 76
REMARK SMILES IDX 70 77 74 78 77 79 71 80 72 81 75 82 73 83 52 84 53 85 61 86
REMARK SMILES IDX 54 87 55 88 59 89 62 90 56 91 57 92 60 93 58 94
REMARK H PARENT 19 5 23 28 82 47 50 58
REMARK Flexibility Score: inf
ROOT
ATOM      1  C   UNL A   1      36.744  20.133  24.991  1.00  0.00     0.117 C 
ENDROOT
BRANCH   1   2
ATOM      2  N   UNL A   1      36.902  21.505  25.450  1.00  0.00    -0.356 N 
ATOM      3  C   UNL A   1      36.017  22.474  25.794  1.00  0.00     0.225 C 
ATOM      4  O   UNL A   1      36.503  23.574  26.084  1.00  0.00    -0.275 OA
ATOM      5  H   UNL A   1      37.842  21.787  25.527  1.00  0.00     0.163 HD
BRANCH   3   6
ATOM      6  C   UNL A   1      34.503  22.303  25.817  1.00  0.00     0.102 C 
ATOM      7  N   UNL A   1      32.958  24.113  25.835  1.00  0.00    -0.321 N 
ATOM      8  C   UNL A   1      32.633  23.315  24.665  1.00  0.00     0.122 C 
ATOM      9  C   UNL A   1      33.789  23.308  26.738  1.00  0.00     0.096 C 
ATOM     10  C   UNL A   1      33.810  22.379  24.458  1.00  0.00     0.037 C 
ATOM     11  C   UNL A   1      32.910  22.571  27.758  1.00  0.00     0.032 C 
BRANCH   7  12
ATOM     12  C   UNL A   1      32.131  25.184  26.117  1.00  0.00     0.320 C 
ATOM     13  O   UNL A   1      31.075  24.954  26.712  1.00  0.00    -0.248 OA
BRANCH  12  14
ATOM     14  N   UNL A   1      32.433  26.460  25.646  1.00  0.00    -0.321 N 
BRANCH  14  15
ATOM     15  C   UNL A   1      31.873  26.901  24.330  1.00  0.00     0.086 C 
BRANCH  15  16
ATOM     16  C   UNL A   1      30.618  27.798  24.472  1.00  0.00     0.022 C 
ATOM     17  C   UNL A   1      30.706  29.109  23.702  1.00  0.00     0.006 C 
ENDBRANCH  15  16
BRANCH  15  18
ATOM     18  C   UNL A   1      32.933  27.395  23.327  1.00  0.00     0.022 C 
ATOM     19  C   UNL A   1      33.601  26.343  22.461  1.00  0.00     0.006 C 
ENDBRANCH  15  18
ENDBRANCH  14  15
BRANCH  14  20
ATOM     20  C   UNL A   1      33.535  27.282  26.138  1.00  0.00     0.124 C 
BRANCH  20  21
ATOM     21  C   UNL A   1      33.162  28.449  27.076  1.00  0.00     0.002 C 
ATOM     22  C   UNL A   1      33.174  29.824  26.411  1.00  0.00     0.009 C 
ATOM     23  C   UNL A   1      31.770  28.198  27.669  1.00  0.00     0.009 C 
ENDBRANCH  20  21
ENDBRANCH  14  20
ENDBRANCH  12  14
ENDBRANCH   7  12
ENDBRANCH   3   6
ENDBRANCH   1   2
BRANCH   1  24
ATOM     24  C   UNL A   1      38.087  19.411  24.906  1.00  0.00     0.042 C 
BRANCH  24  25
ATOM     25  C   UNL A   1      39.202  20.004  25.754  1.00  0.00     0.118 C 
BRANCH  25  26
ATOM     26  N   UNL A   1      40.346  19.122  25.883  1.00  0.00    -0.352 N 
ATOM     27  C   UNL A   1      41.678  19.362  26.113  1.00  0.00     0.251 C 
ATOM     28  H   UNL A   1      40.124  18.168  25.787  1.00  0.00     0.163 HD
ATOM     29  O   UNL A   1      42.458  18.416  26.009  1.00  0.00    -0.269 OA
BRANCH  27  30
ATOM     30  C   UNL A   1      42.224  20.703  26.461  1.00  0.00     0.039 A 
ATOM     31  C   UNL A   1      42.252  21.063  27.816  1.00  0.00     0.014 A 
ATOM     32  C   UNL A   1      42.598  21.656  25.512  1.00  0.00     0.014 A 
ATOM     33  C   UNL A   1      42.671  22.338  28.212  1.00  0.00     0.010 A 
ATOM     34  C   UNL A   1      43.104  22.899  25.910  1.00  0.00     0.010 A 
ATOM     35  C   UNL A   1      43.122  23.268  27.263  1.00  0.00    -0.014 A 
BRANCH  35  36
ATOM     36  C   UNL A   1      43.546  24.638  27.664  1.00  0.00     0.031 A 
ATOM     37  C   UNL A   1      42.515  25.685  28.008  1.00  0.00     0.074 A 
ATOM     38  C   UNL A   1      44.854  24.963  27.699  1.00  0.00     0.049 A 
ATOM     39  N   UNL A   1      42.682  26.950  28.310  1.00  0.00    -0.248 NA
ATOM     40  C   UNL A   1      41.107  25.258  27.987  1.00  0.00     0.031 C 
ATOM     41  C   UNL A   1      45.959  24.061  27.375  1.00  0.00     0.029 A 
ATOM     42  N   UNL A   1      45.476  26.145  28.024  1.00  0.00    -0.354 N 
ATOM     43  C   UNL A   1      41.406  27.468  28.497  1.00  0.00     0.074 A 
ATOM     44  C   UNL A   1      40.472  26.396  28.225  1.00  0.00     0.031 C 
ATOM     45  C   UNL A   1      47.122  24.712  27.543  1.00  0.00     0.029 A 
ATOM     46  C   UNL A   1      46.846  26.087  27.949  1.00  0.00     0.049 A 
ATOM     47  H   UNL A   1      44.984  26.957  28.286  1.00  0.00     0.167 HD
ATOM     48  C   UNL A   1      41.041  28.714  28.883  1.00  0.00     0.037 A 
ATOM     49  C   UNL A   1      47.775  27.035  28.177  1.00  0.00     0.037 A 
ATOM     50  C   UNL A   1      41.962  29.776  29.193  1.00  0.00     0.049 A 
ATOM     51  C   UNL A   1      47.343  28.415  28.598  1.00  0.00     0.074 A 
ATOM     52  C   UNL A   1      41.686  31.063  29.625  1.00  0.00     0.029 A 
ATOM     53  N   UNL A   1      43.342  29.670  29.116  1.00  0.00    -0.354 N 
ATOM     54  N   UNL A   1      46.135  28.879  28.799  1.00  0.00    -0.248 NA
ATOM     55  C   UNL A   1      48.410  29.401  28.828  1.00  0.00     0.031 C 
ATOM     56  C   UNL A   1      42.897  31.744  29.781  1.00  0.00     0.029 A 
ATOM     57  C   UNL A   1      43.929  30.870  29.484  1.00  0.00     0.049 A 
ATOM     58  H   UNL A   1      43.833  28.862  28.840  1.00  0.00     0.167 HD
ATOM     59  C   UNL A   1      46.296  30.196  29.209  1.00  0.00     0.074 A 
ATOM     60  C   UNL A   1      47.720  30.455  29.238  1.00  0.00     0.031 C 
ATOM     61  C   UNL A   1      45.348  31.109  29.530  1.00  0.00     0.037 A 
BRANCH  48  62
ATOM     62  C   UNL A   1      39.572  28.999  29.007  1.00  0.00     0.064 A 
ATOM     63  C   UNL A   1      38.800  29.357  27.891  1.00  0.00     0.173 A 
ATOM     64  C   UNL A   1      38.920  28.870  30.243  1.00  0.00     0.173 A 
ATOM     65  F   UNL A   1      39.378  29.504  26.690  1.00  0.00    -0.203 F 
ATOM     66  C   UNL A   1      37.435  29.603  28.014  1.00  0.00     0.198 A 
ATOM     67  C   UNL A   1      37.550  29.090  30.356  1.00  0.00     0.198 A 
ATOM     68  F   UNL A   1      39.611  28.523  31.339  1.00  0.00    -0.203 F 
ATOM     69  F   UNL A   1      36.726  29.988  26.943  1.00  0.00    -0.200 F 
ATOM     70  C   UNL A   1      36.809  29.463  29.244  1.00  0.00     0.200 A 
ATOM     71  F   UNL A   1      36.945  28.943  31.543  1.00  0.00    -0.200 F 
ATOM     72  F   UNL A   1      35.495  29.693  29.359  1.00  0.00    -0.200 F 
ENDBRANCH  48  62
BRANCH  49  73
ATOM     73  C   UNL A   1      49.219  26.710  28.038  1.00  0.00     0.064 A 
ATOM     74  C   UNL A   1      49.828  26.674  26.776  1.00  0.00     0.173 A 
ATOM     75  C   UNL A   1      50.012  26.409  29.155  1.00  0.00     0.173 A 
ATOM     76  F   UNL A   1      49.103  26.931  25.677  1.00  0.00    -0.203 F 
ATOM     77  C   UNL A   1      51.169  26.328  26.633  1.00  0.00     0.198 A 
ATOM     78  C   UNL A   1      51.360  26.090  29.013  1.00  0.00     0.198 A 
ATOM     79  F   UNL A   1      49.477  26.433  30.384  1.00  0.00    -0.203 F 
ATOM     80  F   UNL A   1      51.713  26.255  25.410  1.00  0.00    -0.200 F 
ATOM     81  C   UNL A   1      51.936  26.041  27.751  1.00  0.00     0.200 A 
ATOM     82  F   UNL A   1      52.101  25.823  30.098  1.00  0.00    -0.200 F 
ATOM     83  F   UNL A   1      53.226  25.708  27.614  1.00  0.00    -0.200 F 
ENDBRANCH  49  73
BRANCH  61  84
ATOM     84  C   UNL A   1      45.817  32.458  29.987  1.00  0.00     0.064 A 
ATOM     85  C   UNL A   1      45.999  33.517  29.088  1.00  0.00     0.173 A 
ATOM     86  C   UNL A   1      46.054  32.702  31.348  1.00  0.00     0.173 A 
ATOM     87  F   UNL A   1      45.800  33.329  27.774  1.00  0.00    -0.203 F 
ATOM     88  C   UNL A   1      46.423  34.767  29.530  1.00  0.00     0.198 A 
ATOM     89  C   UNL A   1      46.454  33.960  31.791  1.00  0.00     0.198 A 
ATOM     90  F   UNL A   1      45.889  31.722  32.250  1.00  0.00    -0.203 F 
ATOM     91  F   UNL A   1      46.633  35.753  28.647  1.00  0.00    -0.200 F 
ATOM     92  C   UNL A   1      46.645  34.989  30.882  1.00  0.00     0.200 A 
ATOM     93  F   UNL A   1      46.659  34.175  33.098  1.00  0.00    -0.200 F 
ATOM     94  F   UNL A   1      47.050  36.193  31.307  1.00  0.00    -0.200 F 
ENDBRANCH  61  84
ENDBRANCH  35  36
ENDBRANCH  27  30
ENDBRANCH  25  26
ENDBRANCH  24  25
ENDBRANCH   1  24
TORSDOF 17
ENDMDL
MODEL 2
REMARK VINA RESULT:     -10.8      0.527      2.053
REMARK SMILES CCC(CC)N(CC(C)C)C(=O)N1CC[C@@H](C(=O)NCCCNC(=O)c2ccc(-c3c4nc(c(-c5c(F)c(F)c(F)c(F)c5F)c5ccc([nH]5)c(-c5c(F)c(F)c(F)c(F)c5F)c5nc(c(-c6c(F)c(F)c(F)c(F)c6F)c6ccc3[nH]6)C=C5)C=C4)cc2)[C@@H]1C
REMARK SMILES IDX 20 1 19 2 17 3 18 4 16 6 13 7 14 8 89 9 15 10 90 11 11 12
REMARK SMILES IDX 12 13 6 14 3 15 2 16 1 17 4 18 5 19 7 20 8 21 9 22 10 23
REMARK SMILES IDX 21 24 22 25 23 26 24 27 25 29 26 30 27 31 88 32 28 33 87 34
REMARK SMILES IDX 29 35 30 36 31 37 81 38 32 39 86 40 80 41 82 42 33 43 85 44
REMARK SMILES IDX 79 45 78 46 34 48 66 49 46 50 65 51 47 52 50 53 64 54 83 55
REMARK SMILES IDX 48 56 49 57 63 59 84 60 51 61 35 62 36 63 44 64 37 65 38 66
REMARK SMILES IDX 42 67 45 68 39 69 40 70 43 71 41 72 67 73 68 74 76 75 69 76
REMARK SMILES IDX 70 77 74 78 77 79 71 80 72 81 75 82 73 83 52 84 53 85 61 86
REMARK SMILES IDX 54 87 55 88 59 89 62 90 56 91 57 92 60 93 58 94
REMARK H PARENT 19 5 23 28 82 47 50 58
REMARK Flexibility Score: inf
ROOT
ATOM      1  C   UNL A   1      36.780  19.919  24.990  1.00  0.00     0.117 C 
ENDROOT
BRANCH   1   2
ATOM      2  N   UNL A   1      36.832  21.344  25.283  1.00  0.00    -0.356 N 
ATOM      3  C   UNL A   1      35.900  22.239  25.698  1.00  0.00     0.225 C 
ATOM      4  O   UNL A   1      36.279  23.413  25.788  1.00  0.00    -0.275 OA
ATOM      5  H   UNL A   1      37.725  21.739  25.155  1.00  0.00     0.163 HD
BRANCH   3   6
ATOM      6  C   UNL A   1      34.451  21.899  26.022  1.00  0.00     0.102 C 
ATOM      7  N   UNL A   1      32.697  23.505  26.122  1.00  0.00    -0.321 N 
ATOM      8  C   UNL A   1      32.291  22.522  25.132  1.00  0.00     0.122 C 
ATOM      9  C   UNL A   1      33.773  22.932  26.940  1.00  0.00     0.096 C 
ATOM     10  C   UNL A   1      33.532  21.708  24.817  1.00  0.00     0.037 C 
ATOM     11  C   UNL A   1      33.191  22.246  28.183  1.00  0.00     0.032 C 
BRANCH   7  12
ATOM     12  C   UNL A   1      31.790  24.502  26.430  1.00  0.00     0.320 C 
ATOM     13  O   UNL A   1      30.840  24.210  27.161  1.00  0.00    -0.248 OA
BRANCH  12  14
ATOM     14  N   UNL A   1      31.892  25.762  25.842  1.00  0.00    -0.321 N 
BRANCH  14  15
ATOM     15  C   UNL A   1      33.245  26.374  25.662  1.00  0.00     0.086 C 
BRANCH  15  16
ATOM     16  C   UNL A   1      33.639  26.552  24.175  1.00  0.00     0.022 C 
ATOM     17  C   UNL A   1      34.069  25.261  23.492  1.00  0.00     0.006 C 
ENDBRANCH  15  16
BRANCH  15  18
ATOM     18  C   UNL A   1      33.515  27.588  26.572  1.00  0.00     0.022 C 
ATOM     19  C   UNL A   1      33.741  28.922  25.885  1.00  0.00     0.006 C 
ENDBRANCH  15  18
ENDBRANCH  14  15
BRANCH  14  20
ATOM     20  C   UNL A   1      30.782  26.702  25.709  1.00  0.00     0.124 C 
BRANCH  20  21
ATOM     21  C   UNL A   1      29.977  26.641  24.395  1.00  0.00     0.002 C 
ATOM     22  C   UNL A   1      30.248  27.795  23.432  1.00  0.00     0.009 C 
ATOM     23  C   UNL A   1      30.276  25.318  23.678  1.00  0.00     0.009 C 
ENDBRANCH  20  21
ENDBRANCH  14  20
ENDBRANCH  12  14
ENDBRANCH   7  12
ENDBRANCH   3   6
ENDBRANCH   1   2
BRANCH   1  24
ATOM     24  C   UNL A   1      38.179  19.330  24.821  1.00  0.00     0.042 C 
BRANCH  24  25
ATOM     25  C   UNL A   1      39.240  19.884  25.760  1.00  0.00     0.118 C 
BRANCH  25  26
ATOM     26  N   UNL A   1      40.385  19.006  25.903  1.00  0.00    -0.352 N 
ATOM     27  C   UNL A   1      41.715  19.250  26.140  1.00  0.00     0.251 C 
ATOM     28  H   UNL A   1      40.165  18.050  25.813  1.00  0.00     0.163 HD
ATOM     29  O   UNL A   1      42.498  18.305  26.048  1.00  0.00    -0.269 OA
BRANCH  27  30
ATOM     30  C   UNL A   1      42.256  20.595  26.481  1.00  0.00     0.039 A 
ATOM     31  C   UNL A   1      42.222  20.988  27.826  1.00  0.00     0.014 A 
ATOM     32  C   UNL A   1      42.683  21.521  25.527  1.00  0.00     0.014 A 
ATOM     33  C   UNL A   1      42.634  22.269  28.211  1.00  0.00     0.010 A 
ATOM     34  C   UNL A   1      43.181  22.769  25.919  1.00  0.00     0.010 A 
ATOM     35  C   UNL A   1      43.137  23.171  27.262  1.00  0.00    -0.014 A 
BRANCH  35  36
ATOM     36  C   UNL A   1      43.555  24.548  27.649  1.00  0.00     0.031 A 
ATOM     37  C   UNL A   1      42.519  25.591  27.988  1.00  0.00     0.074 A 
ATOM     38  C   UNL A   1      44.861  24.881  27.677  1.00  0.00     0.049 A 
ATOM     39  N   UNL A   1      42.678  26.859  28.278  1.00  0.00    -0.248 NA
ATOM     40  C   UNL A   1      41.114  25.156  27.977  1.00  0.00     0.031 C 
ATOM     41  C   UNL A   1      45.970  23.983  27.356  1.00  0.00     0.029 A 
ATOM     42  N   UNL A   1      45.477  26.070  27.989  1.00  0.00    -0.354 N 
ATOM     43  C   UNL A   1      41.400  27.371  28.466  1.00  0.00     0.074 A 
ATOM     44  C   UNL A   1      40.472  26.291  28.208  1.00  0.00     0.031 C 
ATOM     45  C   UNL A   1      47.130  24.643  27.513  1.00  0.00     0.029 A 
ATOM     46  C   UNL A   1      46.847  26.019  27.909  1.00  0.00     0.049 A 
ATOM     47  H   UNL A   1      44.981  26.881  28.246  1.00  0.00     0.167 HD
ATOM     48  C   UNL A   1      41.029  28.619  28.843  1.00  0.00     0.037 A 
ATOM     49  C   UNL A   1      47.771  26.976  28.125  1.00  0.00     0.037 A 
ATOM     50  C   UNL A   1      41.945  29.689  29.140  1.00  0.00     0.049 A 
ATOM     51  C   UNL A   1      47.332  28.356  28.535  1.00  0.00     0.074 A 
ATOM     52  C   UNL A   1      41.662  30.977  29.562  1.00  0.00     0.029 A 
ATOM     53  N   UNL A   1      43.325  29.591  29.058  1.00  0.00    -0.354 N 
ATOM     54  N   UNL A   1      46.121  28.814  28.737  1.00  0.00    -0.248 NA
ATOM     55  C   UNL A   1      48.393  29.350  28.753  1.00  0.00     0.031 C 
ATOM     56  C   UNL A   1      42.869  31.667  29.708  1.00  0.00     0.029 A 
ATOM     57  C   UNL A   1      43.906  30.797  29.414  1.00  0.00     0.049 A 
ATOM     58  H   UNL A   1      43.820  28.783  28.788  1.00  0.00     0.167 HD
ATOM     59  C   UNL A   1      46.276  30.135  29.135  1.00  0.00     0.074 A 
ATOM     60  C   UNL A   1      47.698  30.404  29.157  1.00  0.00     0.031 C 
ATOM     61  C   UNL A   1      45.324  31.045  29.452  1.00  0.00     0.037 A 
BRANCH  48  62
ATOM     62  C   UNL A   1      39.559  28.895  28.970  1.00  0.00     0.064 A 
ATOM     63  C   UNL A   1      38.895  28.774  30.201  1.00  0.00     0.173 A 
ATOM     64  C   UNL A   1      38.815  29.328  27.862  1.00  0.00     0.173 A 
ATOM     65  F   UNL A   1      39.560  28.353  31.287  1.00  0.00    -0.203 F 
ATOM     66  C   UNL A   1      37.534  29.049  30.310  1.00  0.00     0.198 A 
ATOM     67  C   UNL A   1      37.460  29.629  27.982  1.00  0.00     0.198 A 
ATOM     68  F   UNL A   1      39.403  29.468  26.665  1.00  0.00    -0.203 F 
ATOM     69  F   UNL A   1      36.911  28.882  31.486  1.00  0.00    -0.200 F 
ATOM     70  C   UNL A   1      36.819  29.483  29.204  1.00  0.00     0.200 A 
ATOM     71  F   UNL A   1      36.773  30.059  26.915  1.00  0.00    -0.200 F 
ATOM     72  F   UNL A   1      35.512  29.753  29.312  1.00  0.00    -0.200 F 
ENDBRANCH  48  62
BRANCH  49  73
ATOM     73  C   UNL A   1      49.216  26.658  27.983  1.00  0.00     0.064 A 
ATOM     74  C   UNL A   1      49.807  26.558  26.716  1.00  0.00     0.173 A 
ATOM     75  C   UNL A   1      50.028  26.429  29.103  1.00  0.00     0.173 A 
ATOM     76  F   UNL A   1      49.064  26.745  25.615  1.00  0.00    -0.203 F 
ATOM     77  C   UNL A   1      51.150  26.219  26.573  1.00  0.00     0.198 A 
ATOM     78  C   UNL A   1      51.378  26.116  28.959  1.00  0.00     0.198 A 
ATOM     79  F   UNL A   1      49.511  26.515  30.337  1.00  0.00    -0.203 F 
ATOM     80  F   UNL A   1      51.678  26.083  25.348  1.00  0.00    -0.200 F 
ATOM     81  C   UNL A   1      51.936  26.002  27.694  1.00  0.00     0.200 A 
ATOM     82  F   UNL A   1      52.137  25.918  30.046  1.00  0.00    -0.200 F 
ATOM     83  F   UNL A   1      53.227  25.676  27.557  1.00  0.00    -0.200 F 
ENDBRANCH  49  73
BRANCH  61  84
ATOM     84  C   UNL A   1      45.786  32.401  29.896  1.00  0.00     0.064 A 
ATOM     85  C   UNL A   1      46.069  32.679  31.240  1.00  0.00     0.173 A 
ATOM     86  C   UNL A   1      45.979  33.427  28.958  1.00  0.00     0.173 A 
ATOM     87  F   UNL A   1      45.884  31.735  32.177  1.00  0.00    -0.203 F 
ATOM     88  C   UNL A   1      46.508  33.940  31.634  1.00  0.00     0.198 A 
ATOM     89  C   UNL A   1      46.442  34.679  29.351  1.00  0.00     0.198 A 
ATOM     90  F   UNL A   1      45.727  33.210  27.657  1.00  0.00    -0.203 F 
ATOM     91  F   UNL A   1      46.732  34.195  32.931  1.00  0.00    -0.200 F 
ATOM     92  C   UNL A   1      46.700  34.936  30.688  1.00  0.00     0.200 A 
ATOM     93  F   UNL A   1      46.637  35.638  28.435  1.00  0.00    -0.200 F 
ATOM     94  F   UNL A   1      47.126  36.149  31.068  1.00  0.00    -0.200 F 
ENDBRANCH  61  84
ENDBRANCH  35  36
ENDBRANCH  27  30
ENDBRANCH  25  26
ENDBRANCH  24  25
ENDBRANCH   1  24
TORSDOF 17
ENDMDL
MODEL 3
REMARK VINA RESULT:     -10.8      4.404      9.799
REMARK SMILES CCC(CC)N(CC(C)C)C(=O)N1CC[C@@H](C(=O)NCCCNC(=O)c2ccc(-c3c4nc(c(-c5c(F)c(F)c(F)c(F)c5F)c5ccc([nH]5)c(-c5c(F)c(F)c(F)c(F)c5F)c5nc(c(-c6c(F)c(F)c(F)c(F)c6F)c6ccc3[nH]6)C=C5)C=C4)cc2)[C@@H]1C
REMARK SMILES IDX 20 1 19 2 17 3 18 4 16 6 13 7 14 8 89 9 15 10 90 11 11 12
REMARK SMILES IDX 12 13 6 14 3 15 2 16 1 17 4 18 5 19 7 20 8 21 9 22 10 23
REMARK SMILES IDX 21 24 22 25 23 26 24 27 25 29 26 30 27 31 88 32 28 33 87 34
REMARK SMILES IDX 29 35 30 36 31 37 81 38 32 39 86 40 80 41 82 42 33 43 85 44
REMARK SMILES IDX 79 45 78 46 34 48 66 49 46 50 65 51 47 52 50 53 64 54 83 55
REMARK SMILES IDX 48 56 49 57 63 59 84 60 51 61 35 62 36 63 44 64 37 65 38 66
REMARK SMILES IDX 42 67 45 68 39 69 40 70 43 71 41 72 67 73 68 74 76 75 69 76
REMARK SMILES IDX 70 77 74 78 77 79 71 80 72 81 75 82 73 83 52 84 53 85 61 86
REMARK SMILES IDX 54 87 55 88 59 89 62 90 56 91 57 92 60 93 58 94
REMARK H PARENT 19 5 23 28 82 47 50 58
REMARK Flexibility Score: inf
ROOT
ATOM      1  C   UNL A   1      32.339  27.367  26.684  1.00  0.00     0.117 C 
ENDROOT
BRANCH   1   2
ATOM      2  N   UNL A   1      31.324  26.338  26.865  1.00  0.00    -0.356 N 
ATOM      3  C   UNL A   1      30.865  25.340  26.069  1.00  0.00     0.225 C 
ATOM      4  O   UNL A   1      29.928  24.673  26.524  1.00  0.00    -0.275 OA
ATOM      5  H   UNL A   1      30.882  26.374  27.744  1.00  0.00     0.163 HD
BRANCH   3   6
ATOM      6  C   UNL A   1      31.398  25.020  24.679  1.00  0.00     0.102 C 
ATOM      7  N   UNL A   1      32.976  23.298  24.221  1.00  0.00    -0.321 N 
ATOM      8  C   UNL A   1      31.808  23.005  23.407  1.00  0.00     0.122 C 
ATOM      9  C   UNL A   1      32.903  24.696  24.662  1.00  0.00     0.096 C 
ATOM     10  C   UNL A   1      30.692  23.881  23.947  1.00  0.00     0.037 C 
ATOM     11  C   UNL A   1      33.638  25.608  23.671  1.00  0.00     0.032 C 
BRANCH   7  12
ATOM     12  C   UNL A   1      34.078  22.480  24.059  1.00  0.00     0.320 C 
ATOM     13  O   UNL A   1      34.754  22.623  23.037  1.00  0.00    -0.248 OA
BRANCH  12  14
ATOM     14  N   UNL A   1      34.347  21.460  24.968  1.00  0.00    -0.321 N 
BRANCH  14  15
ATOM     15  C   UNL A   1      35.031  21.794  26.256  1.00  0.00     0.086 C 
BRANCH  15  16
ATOM     16  C   UNL A   1      35.844  23.112  26.189  1.00  0.00     0.022 C 
ATOM     17  C   UNL A   1      37.276  22.929  25.705  1.00  0.00     0.006 C 
ENDBRANCH  15  16
BRANCH  15  18
ATOM     18  C   UNL A   1      34.145  21.623  27.505  1.00  0.00     0.022 C 
ATOM     19  C   UNL A   1      33.162  22.738  27.807  1.00  0.00     0.006 C 
ENDBRANCH  15  18
ENDBRANCH  14  15
BRANCH  14  20
ATOM     20  C   UNL A   1      34.349  20.038  24.637  1.00  0.00     0.124 C 
BRANCH  20  21
ATOM     21  C   UNL A   1      32.974  19.343  24.556  1.00  0.00     0.002 C 
ATOM     22  C   UNL A   1      32.377  19.281  23.152  1.00  0.00     0.009 C 
ATOM     23  C   UNL A   1      33.094  17.916  25.107  1.00  0.00     0.009 C 
ENDBRANCH  20  21
ENDBRANCH  14  20
ENDBRANCH  12  14
ENDBRANCH   7  12
ENDBRANCH   3   6
ENDBRANCH   1   2
BRANCH   1  24
ATOM     24  C   UNL A   1      31.861  28.465  25.735  1.00  0.00     0.042 C 
BRANCH  24  25
ATOM     25  C   UNL A   1      32.891  29.534  25.404  1.00  0.00     0.118 C 
BRANCH  25  26
ATOM     26  N   UNL A   1      32.540  30.840  25.928  1.00  0.00    -0.352 N 
ATOM     27  C   UNL A   1      33.081  31.614  26.924  1.00  0.00     0.251 C 
ATOM     28  H   UNL A   1      31.763  31.251  25.482  1.00  0.00     0.163 HD
ATOM     29  O   UNL A   1      32.466  32.624  27.266  1.00  0.00    -0.269 OA
BRANCH  27  30
ATOM     30  C   UNL A   1      34.356  31.285  27.620  1.00  0.00     0.039 A 
ATOM     31  C   UNL A   1      34.501  29.988  28.133  1.00  0.00     0.014 A 
ATOM     32  C   UNL A   1      35.355  32.223  27.888  1.00  0.00     0.014 A 
ATOM     33  C   UNL A   1      35.635  29.631  28.873  1.00  0.00     0.010 A 
ATOM     34  C   UNL A   1      36.530  31.844  28.547  1.00  0.00     0.010 A 
ATOM     35  C   UNL A   1      36.674  30.551  29.073  1.00  0.00    -0.014 A 
BRANCH  35  36
ATOM     36  C   UNL A   1      37.876  30.198  29.880  1.00  0.00     0.031 A 
ATOM     37  C   UNL A   1      38.922  29.266  29.320  1.00  0.00     0.074 A 
ATOM     38  C   UNL A   1      38.027  30.688  31.127  1.00  0.00     0.049 A 
ATOM     39  N   UNL A   1      39.999  28.784  29.891  1.00  0.00    -0.248 NA
ATOM     40  C   UNL A   1      38.719  28.796  27.941  1.00  0.00     0.031 C 
ATOM     41  C   UNL A   1      37.090  31.583  31.804  1.00  0.00     0.029 A 
ATOM     42  N   UNL A   1      39.029  30.500  32.049  1.00  0.00    -0.354 N 
ATOM     43  C   UNL A   1      40.586  27.946  28.951  1.00  0.00     0.074 A 
ATOM     44  C   UNL A   1      39.722  27.944  27.791  1.00  0.00     0.031 C 
ATOM     45  C   UNL A   1      37.572  31.888  33.020  1.00  0.00     0.029 A 
ATOM     46  C   UNL A   1      38.832  31.181  33.225  1.00  0.00     0.049 A 
ATOM     47  H   UNL A   1      39.815  29.930  31.880  1.00  0.00     0.167 HD
ATOM     48  C   UNL A   1      41.752  27.258  29.033  1.00  0.00     0.037 A 
ATOM     49  C   UNL A   1      39.581  31.227  34.344  1.00  0.00     0.037 A 
ATOM     50  C   UNL A   1      42.638  27.284  30.167  1.00  0.00     0.049 A 
ATOM     51  C   UNL A   1      40.867  30.448  34.413  1.00  0.00     0.074 A 
ATOM     52  C   UNL A   1      43.856  26.645  30.328  1.00  0.00     0.029 A 
ATOM     53  N   UNL A   1      42.405  27.997  31.333  1.00  0.00    -0.354 N 
ATOM     54  N   UNL A   1      41.422  29.685  33.503  1.00  0.00    -0.248 NA
ATOM     55  C   UNL A   1      41.633  30.543  35.664  1.00  0.00     0.031 C 
ATOM     56  C   UNL A   1      44.347  26.950  31.601  1.00  0.00     0.029 A 
ATOM     57  C   UNL A   1      43.454  27.808  32.219  1.00  0.00     0.049 A 
ATOM     58  H   UNL A   1      41.613  28.556  31.506  1.00  0.00     0.167 HD
ATOM     59  C   UNL A   1      42.613  29.236  34.059  1.00  0.00     0.074 A 
ATOM     60  C   UNL A   1      42.707  29.820  35.380  1.00  0.00     0.031 C 
ATOM     61  C   UNL A   1      43.545  28.412  33.523  1.00  0.00     0.037 A 
BRANCH  48  62
ATOM     62  C   UNL A   1      42.147  26.422  27.850  1.00  0.00     0.064 A 
ATOM     63  C   UNL A   1      41.613  25.140  27.650  1.00  0.00     0.173 A 
ATOM     64  C   UNL A   1      43.033  26.923  26.885  1.00  0.00     0.173 A 
ATOM     65  F   UNL A   1      40.770  24.612  28.550  1.00  0.00    -0.203 F 
ATOM     66  C   UNL A   1      41.974  24.379  26.540  1.00  0.00     0.198 A 
ATOM     67  C   UNL A   1      43.370  26.171  25.762  1.00  0.00     0.198 A 
ATOM     68  F   UNL A   1      43.565  28.146  27.025  1.00  0.00    -0.203 F 
ATOM     69  F   UNL A   1      41.487  23.139  26.393  1.00  0.00    -0.200 F 
ATOM     70  C   UNL A   1      42.846  24.898  25.594  1.00  0.00     0.200 A 
ATOM     71  F   UNL A   1      44.203  26.677  24.843  1.00  0.00    -0.200 F 
ATOM     72  F   UNL A   1      43.187  24.167  24.525  1.00  0.00    -0.200 F 
ENDBRANCH  48  62
BRANCH  49  73
ATOM     73  C   UNL A   1      39.149  32.065  35.493  1.00  0.00     0.064 A 
ATOM     74  C   UNL A   1      38.394  31.514  36.538  1.00  0.00     0.173 A 
ATOM     75  C   UNL A   1      39.460  33.430  35.561  1.00  0.00     0.173 A 
ATOM     76  F   UNL A   1      38.051  30.218  36.504  1.00  0.00    -0.203 F 
ATOM     77  C   UNL A   1      37.948  32.301  37.596  1.00  0.00     0.198 A 
ATOM     78  C   UNL A   1      39.037  34.211  36.635  1.00  0.00     0.198 A 
ATOM     79  F   UNL A   1      40.183  34.004  34.588  1.00  0.00    -0.203 F 
ATOM     80  F   UNL A   1      37.187  31.759  38.558  1.00  0.00    -0.200 F 
ATOM     81  C   UNL A   1      38.273  33.648  37.647  1.00  0.00     0.200 A 
ATOM     82  F   UNL A   1      39.363  35.510  36.685  1.00  0.00    -0.200 F 
ATOM     83  F   UNL A   1      37.845  34.405  38.665  1.00  0.00    -0.200 F 
ENDBRANCH  49  73
BRANCH  61  84
ATOM     84  C   UNL A   1      44.769  28.129  34.341  1.00  0.00     0.064 A 
ATOM     85  C   UNL A   1      44.837  27.028  35.207  1.00  0.00     0.173 A 
ATOM     86  C   UNL A   1      45.901  28.951  34.232  1.00  0.00     0.173 A 
ATOM     87  F   UNL A   1      43.775  26.222  35.358  1.00  0.00    -0.203 F 
ATOM     88  C   UNL A   1      45.986  26.773  35.951  1.00  0.00     0.198 A 
ATOM     89  C   UNL A   1      47.057  28.679  34.959  1.00  0.00     0.198 A 
ATOM     90  F   UNL A   1      45.888  30.014  33.413  1.00  0.00    -0.203 F 
ATOM     91  F   UNL A   1      46.013  25.741  36.805  1.00  0.00    -0.200 F 
ATOM     92  C   UNL A   1      47.096  27.595  35.822  1.00  0.00     0.200 A 
ATOM     93  F   UNL A   1      48.132  29.468  34.825  1.00  0.00    -0.200 F 
ATOM     94  F   UNL A   1      48.202  27.346  36.536  1.00  0.00    -0.200 F 
ENDBRANCH  61  84
ENDBRANCH  35  36
ENDBRANCH  27  30
ENDBRANCH  25  26
ENDBRANCH  24  25
ENDBRANCH   1  24
TORSDOF 17
ENDMDL
