MODEL 1
REMARK VINA RESULT:     -12.2      0.000      0.000
REMARK SMILES CC[C@@H]1CCc2c(sc(NC(=O)COCC(=O)NCCCNC(=O)c3ccc(-c4c5nc(c(-c6c(F)c(F)c(F)c(F)c6F)c6ccc([nH]6)c(-c6c(F)c(F)c(F)c(F)c6F)c6nc(c(-c7c(F)c(F)c(F)c(F)c7F)c7ccc4[nH]7)C=C6)C=C5)cc3)c2C(N)=O)C1
REMARK SMILES IDX 16 1 17 2 18 3 15 5 14 6 13 7 11 8 10 9 12 11 9 12 3 13 4 14
REMARK SMILES IDX 92 15 5 16 7 17 6 18 8 19 88 20 2 21 1 22 89 23 90 24 91 25
REMARK SMILES IDX 19 28 20 29 21 30 22 31 23 32 24 34 25 35 26 36 87 37 27 38
REMARK SMILES IDX 86 39 28 40 29 41 30 42 80 43 31 44 85 45 79 46 81 47 32 48
REMARK SMILES IDX 84 49 78 50 77 51 33 53 65 54 45 55 64 56 46 57 49 58 63 59
REMARK SMILES IDX 82 60 47 61 48 62 62 64 83 65 50 66 34 67 35 68 43 69 36 70
REMARK SMILES IDX 37 71 41 72 44 73 38 74 39 75 42 76 40 77 66 78 67 79 75 80
REMARK SMILES IDX 68 81 69 82 73 83 76 84 70 85 71 86 74 87 72 88 51 89 52 90
REMARK SMILES IDX 60 91 53 92 54 93 58 94 61 95 55 96 56 97 59 98 57 99
REMARK H PARENT 18 4 10 10 90 26 90 27 22 33 81 52 49 63
REMARK Flexibility Score: inf
ROOT
ATOM      1  C   UNL A   1      33.390  29.324  26.284  1.00  0.00     0.246 C 
ATOM      2  O   UNL A   1      34.192  28.794  27.055  1.00  0.00    -0.272 OA
ATOM      3  N   UNL A   1      32.455  30.178  26.796  1.00  0.00    -0.354 N 
ATOM      4  H   UNL A   1      32.499  30.330  27.768  1.00  0.00     0.163 HD
ENDROOT
BRANCH   1   5
ATOM      5  C   UNL A   1      33.419  29.045  24.777  1.00  0.00     0.260 C 
BRANCH   5   6
ATOM      6  O   UNL A   1      32.834  27.798  24.424  1.00  0.00    -0.362 OA
BRANCH   6   7
ATOM      7  C   UNL A   1      31.468  27.918  24.069  1.00  0.00     0.261 C 
BRANCH   7   8
ATOM      8  C   UNL A   1      31.016  27.013  22.930  1.00  0.00     0.251 C 
ATOM      9  N   UNL A   1      31.092  25.657  22.957  1.00  0.00    -0.315 N 
ATOM     10  H   UNL A   1      30.672  25.236  22.173  1.00  0.00     0.170 HD
ATOM     11  O   UNL A   1      30.533  27.521  21.909  1.00  0.00    -0.272 OA
BRANCH   9  12
ATOM     12  C   UNL A   1      31.625  24.739  23.834  1.00  0.00     0.108 A 
ATOM     13  C   UNL A   1      33.918  20.756  25.530  1.00  0.00    -0.006 C 
ATOM     14  C   UNL A   1      33.770  21.631  26.796  1.00  0.00     0.009 C 
ATOM     15  C   UNL A   1      34.037  21.655  24.273  1.00  0.00     0.050 C 
ATOM     16  C   UNL A   1      32.520  22.523  26.762  1.00  0.00     0.038 C 
ATOM     17  C   UNL A   1      33.054  22.789  24.317  1.00  0.00     0.011 A 
ATOM     18  C   UNL A   1      32.367  23.217  25.435  1.00  0.00    -0.019 A 
ATOM     19  S   UNL A   1      32.738  23.755  22.967  1.00  0.00    -0.122 S 
ATOM     20  C   UNL A   1      31.564  24.399  25.169  1.00  0.00     0.077 A 
BRANCH  13  21
ATOM     21  C   UNL A   1      32.787  19.720  25.351  1.00  0.00     0.000 C 
ATOM     22  C   UNL A   1      32.632  19.229  23.918  1.00  0.00     0.004 C 
ENDBRANCH  13  21
BRANCH  20  23
ATOM     23  C   UNL A   1      30.884  25.092  26.259  1.00  0.00     0.251 C 
ATOM     24  N   UNL A   1      29.513  24.895  26.270  1.00  0.00    -0.365 N 
ATOM     25  O   UNL A   1      31.403  25.881  26.999  1.00  0.00    -0.269 OA
ATOM     26  H   UNL A   1      29.105  24.243  25.656  1.00  0.00     0.159 HD
ATOM     27  H   UNL A   1      28.946  25.407  26.892  1.00  0.00     0.159 HD
ENDBRANCH  20  23
ENDBRANCH   9  12
ENDBRANCH   7   8
ENDBRANCH   6   7
ENDBRANCH   5   6
ENDBRANCH   1   5
BRANCH   3  28
ATOM     28  C   UNL A   1      31.401  30.891  26.095  1.00  0.00     0.117 C 
BRANCH  28  29
ATOM     29  C   UNL A   1      31.277  32.345  26.538  1.00  0.00     0.042 C 
BRANCH  29  30
ATOM     30  C   UNL A   1      32.513  32.947  27.202  1.00  0.00     0.118 C 
BRANCH  30  31
ATOM     31  N   UNL A   1      32.319  34.299  27.701  1.00  0.00    -0.352 N 
ATOM     32  C   UNL A   1      33.001  35.018  28.652  1.00  0.00     0.251 C 
ATOM     33  H   UNL A   1      31.569  34.783  27.285  1.00  0.00     0.163 HD
ATOM     34  O   UNL A   1      32.589  36.134  28.961  1.00  0.00    -0.269 OA
BRANCH  32  35
ATOM     35  C   UNL A   1      34.198  34.475  29.336  1.00  0.00     0.039 A 
ATOM     36  C   UNL A   1      34.019  33.848  30.576  1.00  0.00     0.014 A 
ATOM     37  C   UNL A   1      35.489  34.618  28.819  1.00  0.00     0.014 A 
ATOM     38  C   UNL A   1      35.112  33.306  31.258  1.00  0.00     0.010 A 
ATOM     39  C   UNL A   1      36.574  34.029  29.473  1.00  0.00     0.010 A 
ATOM     40  C   UNL A   1      36.395  33.364  30.695  1.00  0.00    -0.014 A 
BRANCH  40  41
ATOM     41  C   UNL A   1      37.554  32.718  31.363  1.00  0.00     0.031 A 
ATOM     42  C   UNL A   1      38.271  31.571  30.711  1.00  0.00     0.074 A 
ATOM     43  C   UNL A   1      37.917  33.120  32.596  1.00  0.00     0.049 A 
ATOM     44  N   UNL A   1      39.236  30.822  31.184  1.00  0.00    -0.248 NA
ATOM     45  C   UNL A   1      37.830  31.200  29.359  1.00  0.00     0.031 C 
ATOM     46  C   UNL A   1      37.275  34.189  33.360  1.00  0.00     0.029 A 
ATOM     47  N   UNL A   1      38.904  32.659  33.432  1.00  0.00    -0.354 N 
ATOM     48  C   UNL A   1      39.492  29.874  30.205  1.00  0.00     0.074 A 
ATOM     49  C   UNL A   1      38.574  30.130  29.116  1.00  0.00     0.031 C 
ATOM     50  C   UNL A   1      37.887  34.308  34.549  1.00  0.00     0.029 A 
ATOM     51  C   UNL A   1      38.945  33.305  34.642  1.00  0.00     0.049 A 
ATOM     52  H   UNL A   1      39.523  31.933  33.187  1.00  0.00     0.167 HD
ATOM     53  C   UNL A   1      40.416  28.883  30.211  1.00  0.00     0.037 A 
ATOM     54  C   UNL A   1      39.739  33.107  35.711  1.00  0.00     0.037 A 
ATOM     55  C   UNL A   1      41.368  28.656  31.266  1.00  0.00     0.049 A 
ATOM     56  C   UNL A   1      40.790  32.036  35.671  1.00  0.00     0.074 A 
ATOM     57  C   UNL A   1      42.403  27.737  31.312  1.00  0.00     0.029 A 
ATOM     58  N   UNL A   1      41.407  29.361  32.458  1.00  0.00    -0.354 N 
ATOM     59  N   UNL A   1      41.057  31.179  34.717  1.00  0.00    -0.248 NA
ATOM     60  C   UNL A   1      41.648  31.903  36.857  1.00  0.00     0.031 C 
ATOM     61  C   UNL A   1      43.054  27.870  32.545  1.00  0.00     0.029 A 
ATOM     62  C   UNL A   1      42.436  28.887  33.254  1.00  0.00     0.049 A 
ATOM     63  H   UNL A   1      40.791  30.090  32.704  1.00  0.00     0.167 HD
ATOM     64  C   UNL A   1      42.119  30.416  35.179  1.00  0.00     0.074 A 
ATOM     65  C   UNL A   1      42.455  30.914  36.497  1.00  0.00     0.031 C 
ATOM     66  C   UNL A   1      42.756  29.390  34.564  1.00  0.00     0.037 A 
BRANCH  53  67
ATOM     67  C   UNL A   1      40.442  27.960  29.033  1.00  0.00     0.064 A 
ATOM     68  C   UNL A   1      39.661  26.796  28.996  1.00  0.00     0.173 A 
ATOM     69  C   UNL A   1      41.234  28.264  27.914  1.00  0.00     0.173 A 
ATOM     70  F   UNL A   1      38.900  26.460  30.048  1.00  0.00    -0.203 F 
ATOM     71  C   UNL A   1      39.686  25.957  27.886  1.00  0.00     0.198 A 
ATOM     72  C   UNL A   1      41.242  27.432  26.798  1.00  0.00     0.198 A 
ATOM     73  F   UNL A   1      41.995  29.369  27.904  1.00  0.00    -0.203 F 
ATOM     74  F   UNL A   1      38.956  24.831  27.882  1.00  0.00    -0.200 F 
ATOM     75  C   UNL A   1      40.472  26.277  26.787  1.00  0.00     0.200 A 
ATOM     76  F   UNL A   1      41.997  27.744  25.737  1.00  0.00    -0.200 F 
ATOM     77  F   UNL A   1      40.492  25.469  25.718  1.00  0.00    -0.200 F 
ENDBRANCH  53  67
BRANCH  54  78
ATOM     78  C   UNL A   1      39.573  33.962  36.910  1.00  0.00     0.064 A 
ATOM     79  C   UNL A   1      38.791  33.534  37.991  1.00  0.00     0.173 A 
ATOM     80  C   UNL A   1      40.207  35.208  37.006  1.00  0.00     0.173 A 
ATOM     81  F   UNL A   1      38.150  32.358  37.930  1.00  0.00    -0.203 F 
ATOM     82  C   UNL A   1      38.644  34.327  39.127  1.00  0.00     0.198 A 
ATOM     83  C   UNL A   1      40.074  35.993  38.148  1.00  0.00     0.198 A 
ATOM     84  F   UNL A   1      40.966  35.656  35.994  1.00  0.00    -0.203 F 
ATOM     85  F   UNL A   1      37.873  33.908  40.139  1.00  0.00    -0.200 F 
ATOM     86  C   UNL A   1      39.290  35.553  39.206  1.00  0.00     0.200 A 
ATOM     87  F   UNL A   1      40.703  37.174  38.225  1.00  0.00    -0.200 F 
ATOM     88  F   UNL A   1      39.153  36.314  40.301  1.00  0.00    -0.200 F 
ENDBRANCH  54  78
BRANCH  66  89
ATOM     89  C   UNL A   1      43.886  28.746  35.305  1.00  0.00     0.064 A 
ATOM     90  C   UNL A   1      45.204  29.199  35.154  1.00  0.00     0.173 A 
ATOM     91  C   UNL A   1      43.644  27.693  36.199  1.00  0.00     0.173 A 
ATOM     92  F   UNL A   1      45.483  30.193  34.296  1.00  0.00    -0.203 F 
ATOM     93  C   UNL A   1      46.245  28.612  35.866  1.00  0.00     0.198 A 
ATOM     94  C   UNL A   1      44.686  27.118  36.921  1.00  0.00     0.198 A 
ATOM     95  F   UNL A   1      42.398  27.227  36.374  1.00  0.00    -0.203 F 
ATOM     96  F   UNL A   1      47.503  29.042  35.689  1.00  0.00    -0.200 F 
ATOM     97  C   UNL A   1      45.984  27.577  36.753  1.00  0.00     0.200 A 
ATOM     98  F   UNL A   1      44.434  26.119  37.779  1.00  0.00    -0.200 F 
ATOM     99  F   UNL A   1      46.988  27.014  37.440  1.00  0.00    -0.200 F 
ENDBRANCH  66  89
ENDBRANCH  40  41
ENDBRANCH  32  35
ENDBRANCH  30  31
ENDBRANCH  29  30
ENDBRANCH  28  29
ENDBRANCH   3  28
TORSDOF 16
ENDMDL
MODEL 2
REMARK VINA RESULT:     -12.1      5.674     11.194
REMARK SMILES CC[C@@H]1CCc2c(sc(NC(=O)COCC(=O)NCCCNC(=O)c3ccc(-c4c5nc(c(-c6c(F)c(F)c(F)c(F)c6F)c6ccc([nH]6)c(-c6c(F)c(F)c(F)c(F)c6F)c6nc(c(-c7c(F)c(F)c(F)c(F)c7F)c7ccc4[nH]7)C=C6)C=C5)cc3)c2C(N)=O)C1
REMARK SMILES IDX 16 1 17 2 18 3 15 5 14 6 13 7 11 8 10 9 12 11 9 12 3 13 4 14
REMARK SMILES IDX 92 15 5 16 7 17 6 18 8 19 88 20 2 21 1 22 89 23 90 24 91 25
REMARK SMILES IDX 19 28 20 29 21 30 22 31 23 32 24 34 25 35 26 36 87 37 27 38
REMARK SMILES IDX 86 39 28 40 29 41 30 42 80 43 31 44 85 45 79 46 81 47 32 48
REMARK SMILES IDX 84 49 78 50 77 51 33 53 65 54 45 55 64 56 46 57 49 58 63 59
REMARK SMILES IDX 82 60 47 61 48 62 62 64 83 65 50 66 34 67 35 68 43 69 36 70
REMARK SMILES IDX 37 71 41 72 44 73 38 74 39 75 42 76 40 77 66 78 67 79 75 80
REMARK SMILES IDX 68 81 69 82 73 83 76 84 70 85 71 86 74 87 72 88 51 89 52 90
REMARK SMILES IDX 60 91 53 92 54 93 58 94 61 95 55 96 56 97 59 98 57 99
REMARK H PARENT 18 4 10 10 90 26 90 27 22 33 81 52 49 63
REMARK Flexibility Score: inf
ROOT
ATOM      1  C   UNL A   1      34.004  20.295  25.091  1.00  0.00     0.246 C 
ATOM      2  O   UNL A   1      33.054  19.511  25.084  1.00  0.00    -0.272 OA
ATOM      3  N   UNL A   1      35.270  19.792  24.988  1.00  0.00    -0.354 N 
ATOM      4  H   UNL A   1      35.337  18.815  24.894  1.00  0.00     0.163 HD
ENDROOT
BRANCH   1   5
ATOM      5  C   UNL A   1      33.796  21.809  25.214  1.00  0.00     0.260 C 
BRANCH   5   6
ATOM      6  O   UNL A   1      33.694  22.467  23.959  1.00  0.00    -0.362 OA
BRANCH   6   7
ATOM      7  C   UNL A   1      34.694  23.454  23.777  1.00  0.00     0.261 C 
BRANCH   7   8
ATOM      8  C   UNL A   1      34.959  24.335  24.991  1.00  0.00     0.251 C 
ATOM      9  N   UNL A   1      34.149  25.351  25.386  1.00  0.00    -0.315 N 
ATOM     10  H   UNL A   1      34.430  25.751  26.241  1.00  0.00     0.170 HD
ATOM     11  O   UNL A   1      35.963  24.124  25.685  1.00  0.00    -0.272 OA
BRANCH   9  12
ATOM     12  C   UNL A   1      33.025  25.947  24.862  1.00  0.00     0.108 A 
ATOM     13  C   UNL A   1      30.125  29.252  22.699  1.00  0.00    -0.006 C 
ATOM     14  C   UNL A   1      29.233  27.991  22.747  1.00  0.00     0.009 C 
ATOM     15  C   UNL A   1      31.616  28.843  22.591  1.00  0.00     0.050 C 
ATOM     16  C   UNL A   1      29.539  27.087  23.950  1.00  0.00     0.038 C 
ATOM     17  C   UNL A   1      31.939  27.703  23.513  1.00  0.00     0.011 A 
ATOM     18  C   UNL A   1      31.018  26.878  24.127  1.00  0.00    -0.019 A 
ATOM     19  S   UNL A   1      33.530  27.235  23.839  1.00  0.00    -0.122 S 
ATOM     20  C   UNL A   1      31.653  25.808  24.881  1.00  0.00     0.077 A 
BRANCH  13  21
ATOM     21  C   UNL A   1      29.912  30.214  23.888  1.00  0.00     0.000 C 
ATOM     22  C   UNL A   1      28.887  31.306  23.612  1.00  0.00     0.004 C 
ENDBRANCH  13  21
BRANCH  20  23
ATOM     23  C   UNL A   1      30.849  24.746  25.475  1.00  0.00     0.251 C 
ATOM     24  N   UNL A   1      30.668  23.655  24.640  1.00  0.00    -0.365 N 
ATOM     25  O   UNL A   1      30.261  24.832  26.518  1.00  0.00    -0.269 OA
ATOM     26  H   UNL A   1      31.160  23.601  23.789  1.00  0.00     0.159 HD
ATOM     27  H   UNL A   1      30.049  22.934  24.898  1.00  0.00     0.159 HD
ENDBRANCH  20  23
ENDBRANCH   9  12
ENDBRANCH   7   8
ENDBRANCH   6   7
ENDBRANCH   5   6
ENDBRANCH   1   5
BRANCH   3  28
ATOM     28  C   UNL A   1      36.532  20.511  25.001  1.00  0.00     0.117 C 
BRANCH  28  29
ATOM     29  C   UNL A   1      37.741  19.581  25.004  1.00  0.00     0.042 C 
BRANCH  29  30
ATOM     30  C   UNL A   1      38.959  20.074  25.780  1.00  0.00     0.118 C 
BRANCH  30  31
ATOM     31  N   UNL A   1      40.053  19.118  25.837  1.00  0.00    -0.352 N 
ATOM     32  C   UNL A   1      41.393  19.291  26.078  1.00  0.00     0.251 C 
ATOM     33  H   UNL A   1      39.786  18.183  25.673  1.00  0.00     0.163 HD
ATOM     34  O   UNL A   1      42.143  18.321  25.992  1.00  0.00    -0.269 OA
BRANCH  32  35
ATOM     35  C   UNL A   1      41.965  20.618  26.410  1.00  0.00     0.039 A 
ATOM     36  C   UNL A   1      42.279  21.481  25.352  1.00  0.00     0.014 A 
ATOM     37  C   UNL A   1      42.250  21.007  27.722  1.00  0.00     0.014 A 
ATOM     38  C   UNL A   1      42.808  22.750  25.609  1.00  0.00     0.010 A 
ATOM     39  C   UNL A   1      42.727  22.294  27.982  1.00  0.00     0.010 A 
ATOM     40  C   UNL A   1      43.005  23.179  26.929  1.00  0.00    -0.014 A 
BRANCH  40  41
ATOM     41  C   UNL A   1      43.483  24.553  27.224  1.00  0.00     0.031 A 
ATOM     42  C   UNL A   1      42.540  25.595  27.752  1.00  0.00     0.074 A 
ATOM     43  C   UNL A   1      44.759  24.886  26.946  1.00  0.00     0.049 A 
ATOM     44  N   UNL A   1      42.753  26.868  27.974  1.00  0.00    -0.248 NA
ATOM     45  C   UNL A   1      41.169  25.154  28.048  1.00  0.00     0.031 C 
ATOM     46  C   UNL A   1      45.765  23.983  26.386  1.00  0.00     0.029 A 
ATOM     47  N   UNL A   1      45.420  26.082  27.077  1.00  0.00    -0.354 N 
ATOM     48  C   UNL A   1      41.538  27.385  28.401  1.00  0.00     0.074 A 
ATOM     49  C   UNL A   1      40.588  26.294  28.394  1.00  0.00     0.031 C 
ATOM     50  C   UNL A   1      46.917  24.654  26.227  1.00  0.00     0.029 A 
ATOM     51  C   UNL A   1      46.722  26.039  26.648  1.00  0.00     0.049 A 
ATOM     52  H   UNL A   1      44.999  26.893  27.444  1.00  0.00     0.167 HD
ATOM     53  C   UNL A   1      41.245  28.655  28.771  1.00  0.00     0.037 A 
ATOM     54  C   UNL A   1      47.655  27.008  26.589  1.00  0.00     0.037 A 
ATOM     55  C   UNL A   1      42.197  29.732  28.832  1.00  0.00     0.049 A 
ATOM     56  C   UNL A   1      47.318  28.396  27.056  1.00  0.00     0.074 A 
ATOM     57  C   UNL A   1      42.010  31.026  29.288  1.00  0.00     0.029 A 
ATOM     58  N   UNL A   1      43.520  29.638  28.430  1.00  0.00    -0.354 N 
ATOM     59  N   UNL A   1      46.180  28.859  27.507  1.00  0.00    -0.248 NA
ATOM     60  C   UNL A   1      48.397  29.393  27.003  1.00  0.00     0.031 C 
ATOM     61  C   UNL A   1      43.215  31.723  29.140  1.00  0.00     0.029 A 
ATOM     62  C   UNL A   1      44.156  30.855  28.611  1.00  0.00     0.049 A 
ATOM     63  H   UNL A   1      43.944  28.827  28.067  1.00  0.00     0.167 HD
ATOM     64  C   UNL A   1      46.405  30.196  27.804  1.00  0.00     0.074 A 
ATOM     65  C   UNL A   1      47.792  30.469  27.490  1.00  0.00     0.031 C 
ATOM     66  C   UNL A   1      45.536  31.113  28.291  1.00  0.00     0.037 A 
BRANCH  53  67
ATOM     67  C   UNL A   1      39.826  28.953  29.142  1.00  0.00     0.064 A 
ATOM     68  C   UNL A   1      39.376  28.845  30.466  1.00  0.00     0.173 A 
ATOM     69  C   UNL A   1      38.915  29.384  28.165  1.00  0.00     0.173 A 
ATOM     70  F   UNL A   1      40.209  28.423  31.429  1.00  0.00    -0.203 F 
ATOM     71  C   UNL A   1      38.057  29.140  30.797  1.00  0.00     0.198 A 
ATOM     72  C   UNL A   1      37.602  29.697  28.503  1.00  0.00     0.198 A 
ATOM     73  F   UNL A   1      39.301  29.505  26.886  1.00  0.00    -0.203 F 
ATOM     74  F   UNL A   1      37.638  29.000  32.063  1.00  0.00    -0.200 F 
ATOM     75  C   UNL A   1      37.173  29.570  29.817  1.00  0.00     0.200 A 
ATOM     76  F   UNL A   1      36.750  30.117  27.557  1.00  0.00    -0.200 F 
ATOM     77  F   UNL A   1      35.903  29.857  30.138  1.00  0.00    -0.200 F 
ENDBRANCH  53  67
BRANCH  54  78
ATOM     78  C   UNL A   1      49.008  26.688  26.078  1.00  0.00     0.064 A 
ATOM     79  C   UNL A   1      49.359  26.976  24.752  1.00  0.00     0.173 A 
ATOM     80  C   UNL A   1      49.979  26.111  26.907  1.00  0.00     0.173 A 
ATOM     81  F   UNL A   1      48.452  27.509  23.921  1.00  0.00    -0.203 F 
ATOM     82  C   UNL A   1      50.634  26.691  24.271  1.00  0.00     0.198 A 
ATOM     83  C   UNL A   1      51.259  25.841  26.431  1.00  0.00     0.198 A 
ATOM     84  F   UNL A   1      49.686  25.820  28.184  1.00  0.00    -0.203 F 
ATOM     85  F   UNL A   1      50.941  26.953  22.993  1.00  0.00    -0.200 F 
ATOM     86  C   UNL A   1      51.584  26.129  25.112  1.00  0.00     0.200 A 
ATOM     87  F   UNL A   1      52.177  25.304  27.246  1.00  0.00    -0.200 F 
ATOM     88  F   UNL A   1      52.814  25.860  24.650  1.00  0.00    -0.200 F 
ENDBRANCH  54  78
BRANCH  66  89
ATOM     89  C   UNL A   1      46.061  32.495  28.524  1.00  0.00     0.064 A 
ATOM     90  C   UNL A   1      45.932  33.493  27.548  1.00  0.00     0.173 A 
ATOM     91  C   UNL A   1      46.664  32.833  29.744  1.00  0.00     0.173 A 
ATOM     92  F   UNL A   1      45.376  33.209  26.360  1.00  0.00    -0.203 F 
ATOM     93  C   UNL A   1      46.399  34.783  27.783  1.00  0.00     0.198 A 
ATOM     94  C   UNL A   1      47.116  34.128  29.981  1.00  0.00     0.198 A 
ATOM     95  F   UNL A   1      46.809  31.909  30.705  1.00  0.00    -0.203 F 
ATOM     96  F   UNL A   1      46.290  35.718  26.827  1.00  0.00    -0.200 F 
ATOM     97  C   UNL A   1      46.985  35.100  29.000  1.00  0.00     0.200 A 
ATOM     98  F   UNL A   1      47.681  34.435  31.157  1.00  0.00    -0.200 F 
ATOM     99  F   UNL A   1      47.432  36.344  29.225  1.00  0.00    -0.200 F 
ENDBRANCH  66  89
ENDBRANCH  40  41
ENDBRANCH  32  35
ENDBRANCH  30  31
ENDBRANCH  29  30
ENDBRANCH  28  29
ENDBRANCH   3  28
TORSDOF 16
ENDMDL
MODEL 3
REMARK VINA RESULT:     -12.0      5.828     11.242
REMARK SMILES CC[C@@H]1CCc2c(sc(NC(=O)COCC(=O)NCCCNC(=O)c3ccc(-c4c5nc(c(-c6c(F)c(F)c(F)c(F)c6F)c6ccc([nH]6)c(-c6c(F)c(F)c(F)c(F)c6F)c6nc(c(-c7c(F)c(F)c(F)c(F)c7F)c7ccc4[nH]7)C=C6)C=C5)cc3)c2C(N)=O)C1
REMARK SMILES IDX 16 1 17 2 18 3 15 5 14 6 13 7 11 8 10 9 12 11 9 12 3 13 4 14
REMARK SMILES IDX 92 15 5 16 7 17 6 18 8 19 88 20 2 21 1 22 89 23 90 24 91 25
REMARK SMILES IDX 19 28 20 29 21 30 22 31 23 32 24 34 25 35 26 36 87 37 27 38
REMARK SMILES IDX 86 39 28 40 29 41 30 42 80 43 31 44 85 45 79 46 81 47 32 48
REMARK SMILES IDX 84 49 78 50 77 51 33 53 65 54 45 55 64 56 46 57 49 58 63 59
REMARK SMILES IDX 82 60 47 61 48 62 62 64 83 65 50 66 34 67 35 68 43 69 36 70
REMARK SMILES IDX 37 71 41 72 44 73 38 74 39 75 42 76 40 77 66 78 67 79 75 80
REMARK SMILES IDX 68 81 69 82 73 83 76 84 70 85 71 86 74 87 72 88 51 89 52 90
REMARK SMILES IDX 60 91 53 92 54 93 58 94 61 95 55 96 56 97 59 98 57 99
REMARK H PARENT 18 4 10 10 90 26 90 27 22 33 81 52 49 63
REMARK Flexibility Score: inf
ROOT
ATOM      1  C   UNL A   1      36.817  22.641  25.779  1.00  0.00     0.246 C 
ATOM      2  O   UNL A   1      37.336  23.720  26.069  1.00  0.00    -0.272 OA
ATOM      3  N   UNL A   1      37.580  21.693  25.158  1.00  0.00    -0.354 N 
ATOM      4  H   UNL A   1      38.521  21.936  25.000  1.00  0.00     0.163 HD
ENDROOT
BRANCH   1   5
ATOM      5  C   UNL A   1      35.346  22.346  26.094  1.00  0.00     0.260 C 
BRANCH   5   6
ATOM      6  O   UNL A   1      34.496  22.447  24.959  1.00  0.00    -0.362 OA
BRANCH   6   7
ATOM      7  C   UNL A   1      33.547  21.398  24.892  1.00  0.00     0.261 C 
BRANCH   7   8
ATOM      8  C   UNL A   1      32.451  21.584  23.850  1.00  0.00     0.251 C 
ATOM      9  N   UNL A   1      31.767  22.742  23.663  1.00  0.00    -0.315 N 
ATOM     10  H   UNL A   1      31.161  22.705  22.888  1.00  0.00     0.170 HD
ATOM     11  O   UNL A   1      32.157  20.639  23.105  1.00  0.00    -0.272 OA
BRANCH   9  12
ATOM     12  C   UNL A   1      31.728  23.955  24.313  1.00  0.00     0.108 A 
ATOM     13  C   UNL A   1      32.462  28.697  25.301  1.00  0.00    -0.006 C 
ATOM     14  C   UNL A   1      31.403  28.288  26.350  1.00  0.00     0.009 C 
ATOM     15  C   UNL A   1      32.297  27.842  24.019  1.00  0.00     0.050 C 
ATOM     16  C   UNL A   1      31.519  26.816  26.773  1.00  0.00     0.038 C 
ATOM     17  C   UNL A   1      32.058  26.398  24.351  1.00  0.00     0.011 A 
ATOM     18  C   UNL A   1      31.684  25.907  25.586  1.00  0.00    -0.019 A 
ATOM     19  S   UNL A   1      32.136  25.183  23.180  1.00  0.00    -0.122 S 
ATOM     20  C   UNL A   1      31.436  24.474  25.557  1.00  0.00     0.077 A 
BRANCH  13  21
ATOM     21  C   UNL A   1      33.915  28.623  25.819  1.00  0.00     0.000 C 
ATOM     22  C   UNL A   1      34.111  29.274  27.181  1.00  0.00     0.004 C 
ENDBRANCH  13  21
BRANCH  20  23
ATOM     23  C   UNL A   1      30.887  23.795  26.726  1.00  0.00     0.251 C 
ATOM     24  N   UNL A   1      29.520  23.971  26.876  1.00  0.00    -0.365 N 
ATOM     25  O   UNL A   1      31.540  23.257  27.577  1.00  0.00    -0.269 OA
ATOM     26  H   UNL A   1      29.001  24.414  26.167  1.00  0.00     0.159 HD
ATOM     27  H   UNL A   1      29.069  23.652  27.691  1.00  0.00     0.159 HD
ENDBRANCH  20  23
ENDBRANCH   9  12
ENDBRANCH   7   8
ENDBRANCH   6   7
ENDBRANCH   5   6
ENDBRANCH   1   5
BRANCH   3  28
ATOM     28  C   UNL A   1      37.185  20.373  24.700  1.00  0.00     0.117 C 
BRANCH  28  29
ATOM     29  C   UNL A   1      38.242  19.310  24.983  1.00  0.00     0.042 C 
BRANCH  29  30
ATOM     30  C   UNL A   1      39.386  19.735  25.899  1.00  0.00     0.118 C 
BRANCH  30  31
ATOM     31  N   UNL A   1      40.523  18.828  25.889  1.00  0.00    -0.352 N 
ATOM     32  C   UNL A   1      41.863  19.057  26.075  1.00  0.00     0.251 C 
ATOM     33  H   UNL A   1      40.290  17.885  25.719  1.00  0.00     0.163 HD
ATOM     34  O   UNL A   1      42.651  18.123  25.937  1.00  0.00    -0.269 OA
BRANCH  32  35
ATOM     35  C   UNL A   1      42.391  20.402  26.407  1.00  0.00     0.039 A 
ATOM     36  C   UNL A   1      42.970  21.153  25.376  1.00  0.00     0.014 A 
ATOM     37  C   UNL A   1      42.381  20.914  27.707  1.00  0.00     0.014 A 
ATOM     38  C   UNL A   1      43.470  22.434  25.630  1.00  0.00     0.010 A 
ATOM     39  C   UNL A   1      42.830  22.214  27.952  1.00  0.00     0.010 A 
ATOM     40  C   UNL A   1      43.374  22.987  26.915  1.00  0.00    -0.014 A 
BRANCH  40  41
ATOM     41  C   UNL A   1      43.820  24.378  27.185  1.00  0.00     0.031 A 
ATOM     42  C   UNL A   1      42.851  25.409  27.685  1.00  0.00     0.074 A 
ATOM     43  C   UNL A   1      45.090  24.732  26.909  1.00  0.00     0.049 A 
ATOM     44  N   UNL A   1      43.035  26.691  27.882  1.00  0.00    -0.248 NA
ATOM     45  C   UNL A   1      41.487  24.945  27.981  1.00  0.00     0.031 C 
ATOM     46  C   UNL A   1      46.119  23.840  26.374  1.00  0.00     0.029 A 
ATOM     47  N   UNL A   1      45.724  25.945  27.020  1.00  0.00    -0.354 N 
ATOM     48  C   UNL A   1      41.806  27.190  28.290  1.00  0.00     0.074 A 
ATOM     49  C   UNL A   1      40.879  26.078  28.300  1.00  0.00     0.031 C 
ATOM     50  C   UNL A   1      47.258  24.533  26.210  1.00  0.00     0.029 A 
ATOM     51  C   UNL A   1      47.030  25.922  26.600  1.00  0.00     0.049 A 
ATOM     52  H   UNL A   1      45.284  26.754  27.368  1.00  0.00     0.167 HD
ATOM     53  C   UNL A   1      41.483  28.460  28.633  1.00  0.00     0.037 A 
ATOM     54  C   UNL A   1      47.942  26.909  26.528  1.00  0.00     0.037 A 
ATOM     55  C   UNL A   1      42.411  29.558  28.678  1.00  0.00     0.049 A 
ATOM     56  C   UNL A   1      47.572  28.298  26.964  1.00  0.00     0.074 A 
ATOM     57  C   UNL A   1      42.192  30.858  29.107  1.00  0.00     0.029 A 
ATOM     58  N   UNL A   1      43.739  29.485  28.287  1.00  0.00    -0.354 N 
ATOM     59  N   UNL A   1      46.421  28.746  27.398  1.00  0.00    -0.248 NA
ATOM     60  C   UNL A   1      48.629  29.318  26.898  1.00  0.00     0.031 C 
ATOM     61  C   UNL A   1      43.384  31.577  28.952  1.00  0.00     0.029 A 
ATOM     62  C   UNL A   1      44.347  30.719  28.448  1.00  0.00     0.049 A 
ATOM     63  H   UNL A   1      44.183  28.676  27.943  1.00  0.00     0.167 HD
ATOM     64  C   UNL A   1      46.615  30.093  27.669  1.00  0.00     0.074 A 
ATOM     65  C   UNL A   1      47.998  30.390  27.359  1.00  0.00     0.031 C 
ATOM     66  C   UNL A   1      45.723  31.001  28.132  1.00  0.00     0.037 A 
BRANCH  53  67
ATOM     67  C   UNL A   1      40.055  28.734  28.988  1.00  0.00     0.064 A 
ATOM     68  C   UNL A   1      39.582  28.574  30.298  1.00  0.00     0.173 A 
ATOM     69  C   UNL A   1      39.159  29.196  28.011  1.00  0.00     0.173 A 
ATOM     70  F   UNL A   1      40.400  28.123  31.261  1.00  0.00    -0.203 F 
ATOM     71  C   UNL A   1      38.255  28.849  30.616  1.00  0.00     0.198 A 
ATOM     72  C   UNL A   1      37.837  29.487  28.335  1.00  0.00     0.198 A 
ATOM     73  F   UNL A   1      39.568  29.367  26.744  1.00  0.00    -0.203 F 
ATOM     74  F   UNL A   1      37.813  28.659  31.868  1.00  0.00    -0.200 F 
ATOM     75  C   UNL A   1      37.385  29.309  29.636  1.00  0.00     0.200 A 
ATOM     76  F   UNL A   1      37.000  29.935  27.391  1.00  0.00    -0.200 F 
ATOM     77  F   UNL A   1      36.108  29.575  29.944  1.00  0.00    -0.200 F 
ENDBRANCH  53  67
BRANCH  54  78
ATOM     78  C   UNL A   1      49.305  26.609  26.033  1.00  0.00     0.064 A 
ATOM     79  C   UNL A   1      49.650  26.846  24.696  1.00  0.00     0.173 A 
ATOM     80  C   UNL A   1      50.292  26.100  26.888  1.00  0.00     0.173 A 
ATOM     81  F   UNL A   1      48.728  27.312  23.840  1.00  0.00    -0.203 F 
ATOM     82  C   UNL A   1      50.934  26.580  24.228  1.00  0.00     0.198 A 
ATOM     83  C   UNL A   1      51.581  25.849  26.425  1.00  0.00     0.198 A 
ATOM     84  F   UNL A   1      50.006  25.858  28.177  1.00  0.00    -0.203 F 
ATOM     85  F   UNL A   1      51.235  26.793  22.940  1.00  0.00    -0.200 F 
ATOM     86  C   UNL A   1      51.900  26.086  25.095  1.00  0.00     0.200 A 
ATOM     87  F   UNL A   1      52.514  25.378  27.264  1.00  0.00    -0.200 F 
ATOM     88  F   UNL A   1      53.138  25.834  24.646  1.00  0.00    -0.200 F 
ENDBRANCH  54  78
BRANCH  66  89
ATOM     89  C   UNL A   1      46.216  32.398  28.340  1.00  0.00     0.064 A 
ATOM     90  C   UNL A   1      46.796  32.789  29.555  1.00  0.00     0.173 A 
ATOM     91  C   UNL A   1      46.144  33.342  27.305  1.00  0.00     0.173 A 
ATOM     92  F   UNL A   1      46.870  31.924  30.578  1.00  0.00    -0.203 F 
ATOM     93  C   UNL A   1      47.277  34.083  29.731  1.00  0.00     0.198 A 
ATOM     94  C   UNL A   1      46.639  34.631  27.479  1.00  0.00     0.198 A 
ATOM     95  F   UNL A   1      45.597  33.011  26.126  1.00  0.00    -0.203 F 
ATOM     96  F   UNL A   1      47.804  34.447  30.909  1.00  0.00    -0.200 F 
ATOM     97  C   UNL A   1      47.203  35.000  28.692  1.00  0.00     0.200 A 
ATOM     98  F   UNL A   1      46.570  35.516  26.475  1.00  0.00    -0.200 F 
ATOM     99  F   UNL A   1      47.669  36.246  28.862  1.00  0.00    -0.200 F 
ENDBRANCH  66  89
ENDBRANCH  40  41
ENDBRANCH  32  35
ENDBRANCH  30  31
ENDBRANCH  29  30
ENDBRANCH  28  29
ENDBRANCH   3  28
TORSDOF 16
ENDMDL
