MODEL 1
REMARK VINA RESULT:     -12.4      0.000      0.000
REMARK SMILES C[C@@H](C(=O)NCCCNC(=O)c1ccc(-c2c3nc(c(-c4c(F)c(F)c(F)c(F)c4F)c4ccc([nH]4)c(-c4c(F)c(F)c(F)c(F)c4F)c4nc(c(-c5c(F)c(F)c(F)c(F)c5F)c5ccc2[nH]5)C=C4)C=C3)cc1)c1ccc(-c2cccc(OC(=O)NCCC3CCCCC3)c2)c(F)c1
REMARK SMILES IDX 1 1 2 2 3 3 4 4 5 5 6 7 7 8 8 9 9 10 10 11 11 13 12 14 13 15
REMARK SMILES IDX 74 16 14 17 73 18 15 19 16 20 17 21 67 22 18 23 72 24 66 25
REMARK SMILES IDX 68 26 19 27 71 28 65 29 64 30 20 32 52 33 32 34 51 35 33 36
REMARK SMILES IDX 36 37 50 38 69 39 34 40 35 41 49 43 70 44 37 45 21 46 22 47
REMARK SMILES IDX 30 48 23 49 24 50 28 51 31 52 25 53 26 54 29 55 27 56 53 57
REMARK SMILES IDX 54 58 62 59 55 60 56 61 60 62 63 63 57 64 58 65 61 66 59 67
REMARK SMILES IDX 38 68 39 69 47 70 40 71 41 72 45 73 48 74 42 75 43 76 46 77
REMARK SMILES IDX 44 78 75 79 76 80 99 81 77 82 97 83 78 84 98 85 79 86 80 87
REMARK SMILES IDX 96 88 81 89 83 90 82 91 84 92 85 93 86 94 87 95 88 97 89 98
REMARK SMILES IDX 90 99 91 100 95 101 92 102 94 103 93 104
REMARK H PARENT 5 6 9 12 68 31 36 42 87 96
REMARK Flexibility Score: inf
ROOT
ATOM      1  C   UNL A   1      32.862  23.322  26.818  1.00  0.00     0.023 C 
ATOM      2  C   UNL A   1      33.557  24.163  25.741  1.00  0.00     0.105 C 
ENDROOT
BRANCH   2   3
ATOM      3  C   UNL A   1      33.280  23.629  24.326  1.00  0.00     0.227 C 
ATOM      4  O   UNL A   1      32.147  23.404  23.897  1.00  0.00    -0.274 OA
ATOM      5  N   UNL A   1      34.316  23.409  23.466  1.00  0.00    -0.356 N 
ATOM      6  H   UNL A   1      34.051  23.220  22.536  1.00  0.00     0.163 HD
BRANCH   5   7
ATOM      7  C   UNL A   1      35.743  23.408  23.710  1.00  0.00     0.117 C 
BRANCH   7   8
ATOM      8  C   UNL A   1      36.211  22.048  24.221  1.00  0.00     0.042 C 
BRANCH   8   9
ATOM      9  C   UNL A   1      36.736  22.077  25.653  1.00  0.00     0.118 C 
BRANCH   9  10
ATOM     10  N   UNL A   1      37.776  21.085  25.882  1.00  0.00    -0.352 N 
ATOM     11  C   UNL A   1      39.104  21.251  26.184  1.00  0.00     0.251 C 
ATOM     12  H   UNL A   1      37.480  20.149  25.807  1.00  0.00     0.163 HD
ATOM     13  O   UNL A   1      39.864  20.288  26.124  1.00  0.00    -0.269 OA
BRANCH  11  14
ATOM     14  C   UNL A   1      39.629  22.579  26.565  1.00  0.00     0.039 A 
ATOM     15  C   UNL A   1      40.622  22.652  27.545  1.00  0.00     0.014 A 
ATOM     16  C   UNL A   1      39.127  23.749  25.990  1.00  0.00     0.014 A 
ATOM     17  C   UNL A   1      41.153  23.892  27.903  1.00  0.00     0.010 A 
ATOM     18  C   UNL A   1      39.715  24.977  26.286  1.00  0.00     0.010 A 
ATOM     19  C   UNL A   1      40.730  25.062  27.250  1.00  0.00    -0.014 A 
BRANCH  19  20
ATOM     20  C   UNL A   1      41.343  26.379  27.562  1.00  0.00     0.031 A 
ATOM     21  C   UNL A   1      42.757  26.677  27.147  1.00  0.00     0.074 A 
ATOM     22  C   UNL A   1      40.642  27.285  28.270  1.00  0.00     0.049 A 
ATOM     23  N   UNL A   1      43.480  27.743  27.375  1.00  0.00    -0.248 NA
ATOM     24  C   UNL A   1      43.461  25.625  26.396  1.00  0.00     0.031 C 
ATOM     25  C   UNL A   1      39.278  27.098  28.767  1.00  0.00     0.029 A 
ATOM     26  N   UNL A   1      40.983  28.543  28.703  1.00  0.00    -0.354 N 
ATOM     27  C   UNL A   1      44.721  27.488  26.809  1.00  0.00     0.074 A 
ATOM     28  C   UNL A   1      44.675  26.144  26.277  1.00  0.00     0.031 C 
ATOM     29  C   UNL A   1      38.889  28.208  29.413  1.00  0.00     0.029 A 
ATOM     30  C   UNL A   1      39.990  29.167  29.417  1.00  0.00     0.049 A 
ATOM     31  H   UNL A   1      41.858  28.958  28.519  1.00  0.00     0.167 HD
ATOM     32  C   UNL A   1      45.796  28.309  26.720  1.00  0.00     0.037 A 
ATOM     33  C   UNL A   1      39.971  30.373  30.016  1.00  0.00     0.037 A 
ATOM     34  C   UNL A   1      45.833  29.652  27.240  1.00  0.00     0.049 A 
ATOM     35  C   UNL A   1      41.188  31.254  29.927  1.00  0.00     0.074 A 
ATOM     36  C   UNL A   1      46.852  30.583  27.152  1.00  0.00     0.029 A 
ATOM     37  N   UNL A   1      44.806  30.250  27.958  1.00  0.00    -0.354 N 
ATOM     38  N   UNL A   1      42.331  31.031  29.325  1.00  0.00    -0.248 NA
ATOM     39  C   UNL A   1      41.109  32.559  30.598  1.00  0.00     0.031 C 
ATOM     40  C   UNL A   1      46.468  31.721  27.869  1.00  0.00     0.029 A 
ATOM     41  C   UNL A   1      45.182  31.527  28.346  1.00  0.00     0.049 A 
ATOM     42  H   UNL A   1      43.941  29.830  28.161  1.00  0.00     0.167 HD
ATOM     43  C   UNL A   1      43.094  32.175  29.518  1.00  0.00     0.074 A 
ATOM     44  C   UNL A   1      42.276  33.097  30.278  1.00  0.00     0.031 C 
ATOM     45  C   UNL A   1      44.358  32.437  29.101  1.00  0.00     0.037 A 
BRANCH  32  46
ATOM     46  C   UNL A   1      47.025  27.774  26.039  1.00  0.00     0.064 A 
ATOM     47  C   UNL A   1      47.153  27.770  24.641  1.00  0.00     0.173 A 
ATOM     48  C   UNL A   1      48.104  27.289  26.794  1.00  0.00     0.173 A 
ATOM     49  F   UNL A   1      46.150  28.215  23.869  1.00  0.00    -0.203 F 
ATOM     50  C   UNL A   1      48.296  27.266  24.025  1.00  0.00     0.198 A 
ATOM     51  C   UNL A   1      49.260  26.819  26.177  1.00  0.00     0.198 A 
ATOM     52  F   UNL A   1      48.040  27.277  28.134  1.00  0.00    -0.203 F 
ATOM     53  F   UNL A   1      48.369  27.217  22.687  1.00  0.00    -0.200 F 
ATOM     54  C   UNL A   1      49.351  26.798  24.794  1.00  0.00     0.200 A 
ATOM     55  F   UNL A   1      50.285  26.383  26.922  1.00  0.00    -0.200 F 
ATOM     56  F   UNL A   1      50.454  26.319  24.200  1.00  0.00    -0.200 F 
ENDBRANCH  32  46
BRANCH  33  57
ATOM     57  C   UNL A   1      38.753  30.824  30.740  1.00  0.00     0.064 A 
ATOM     58  C   UNL A   1      38.647  30.682  32.130  1.00  0.00     0.173 A 
ATOM     59  C   UNL A   1      37.670  31.402  30.059  1.00  0.00     0.173 A 
ATOM     60  F   UNL A   1      39.646  30.118  32.823  1.00  0.00    -0.203 F 
ATOM     61  C   UNL A   1      37.496  31.079  32.809  1.00  0.00     0.198 A 
ATOM     62  C   UNL A   1      36.534  31.829  30.744  1.00  0.00     0.198 A 
ATOM     63  F   UNL A   1      37.722  31.566  28.729  1.00  0.00    -0.203 F 
ATOM     64  F   UNL A   1      37.402  30.885  34.132  1.00  0.00    -0.200 F 
ATOM     65  C   UNL A   1      36.445  31.657  32.116  1.00  0.00     0.200 A 
ATOM     66  F   UNL A   1      35.528  32.404  30.072  1.00  0.00    -0.200 F 
ATOM     67  F   UNL A   1      35.341  32.045  32.771  1.00  0.00    -0.200 F 
ENDBRANCH  33  57
BRANCH  45  68
ATOM     68  C   UNL A   1      44.925  33.792  29.426  1.00  0.00     0.064 A 
ATOM     69  C   UNL A   1      45.668  34.022  30.592  1.00  0.00     0.173 A 
ATOM     70  C   UNL A   1      44.752  34.863  28.536  1.00  0.00     0.173 A 
ATOM     71  F   UNL A   1      45.850  33.036  31.484  1.00  0.00    -0.203 F 
ATOM     72  C   UNL A   1      46.192  35.283  30.871  1.00  0.00     0.198 A 
ATOM     73  C   UNL A   1      45.307  36.113  28.800  1.00  0.00     0.198 A 
ATOM     74  F   UNL A   1      44.055  34.696  27.402  1.00  0.00    -0.203 F 
ATOM     75  F   UNL A   1      46.850  35.494  32.018  1.00  0.00    -0.200 F 
ATOM     76  C   UNL A   1      46.018  36.323  29.971  1.00  0.00     0.200 A 
ATOM     77  F   UNL A   1      45.154  37.111  27.920  1.00  0.00    -0.200 F 
ATOM     78  F   UNL A   1      46.530  37.534  30.235  1.00  0.00    -0.200 F 
ENDBRANCH  45  68
ENDBRANCH  19  20
ENDBRANCH  11  14
ENDBRANCH   9  10
ENDBRANCH   8   9
ENDBRANCH   7   8
ENDBRANCH   5   7
ENDBRANCH   2   3
BRANCH   2  79
ATOM     79  C   UNL A   1      33.190  25.638  25.858  1.00  0.00    -0.033 A 
ATOM     80  C   UNL A   1      32.126  26.078  26.659  1.00  0.00     0.005 A 
ATOM     81  C   UNL A   1      33.890  26.587  25.100  1.00  0.00     0.044 A 
ATOM     82  C   UNL A   1      31.789  27.431  26.725  1.00  0.00     0.012 A 
ATOM     83  C   UNL A   1      33.539  27.936  25.164  1.00  0.00     0.131 A 
ATOM     84  C   UNL A   1      32.488  28.385  25.974  1.00  0.00     0.018 A 
ATOM     85  F   UNL A   1      34.233  28.803  24.410  1.00  0.00    -0.206 F 
BRANCH  84  86
ATOM     86  C   UNL A   1      32.046  29.785  25.974  1.00  0.00    -0.012 A 
ATOM     87  C   UNL A   1      32.595  30.734  26.850  1.00  0.00     0.009 A 
ATOM     88  C   UNL A   1      30.991  30.177  25.136  1.00  0.00     0.056 A 
ATOM     89  C   UNL A   1      32.095  32.038  26.894  1.00  0.00     0.004 A 
ATOM     90  C   UNL A   1      30.471  31.465  25.202  1.00  0.00     0.133 A 
ATOM     91  C   UNL A   1      31.028  32.403  26.074  1.00  0.00     0.047 A 
BRANCH  90  92
ATOM     92  O   UNL A   1      29.367  31.916  24.437  1.00  0.00    -0.410 OA
BRANCH  92  93
ATOM     93  C   UNL A   1      29.450  32.847  23.405  1.00  0.00     0.412 C 
ATOM     94  O   UNL A   1      29.766  34.029  23.502  1.00  0.00    -0.224 OA
ATOM     95  N   UNL A   1      29.165  32.335  22.175  1.00  0.00    -0.321 N 
ATOM     96  H   UNL A   1      29.237  32.961  21.419  1.00  0.00     0.167 HD
BRANCH  95  97
ATOM     97  C   UNL A   1      28.771  30.984  21.844  1.00  0.00     0.119 C 
BRANCH  97  98
ATOM     98  C   UNL A   1      29.990  30.079  21.660  1.00  0.00     0.025 C 
BRANCH  98  99
ATOM     99  C   UNL A   1      29.750  28.600  22.035  1.00  0.00    -0.009 C 
ATOM    100  C   UNL A   1      31.044  27.904  22.492  1.00  0.00     0.003 C 
ATOM    101  C   UNL A   1      28.669  28.506  23.125  1.00  0.00     0.003 C 
ATOM    102  C   UNL A   1      30.794  26.469  22.951  1.00  0.00     0.000 C 
ATOM    103  C   UNL A   1      28.425  27.063  23.558  1.00  0.00     0.000 C 
ATOM    104  C   UNL A   1      29.713  26.398  24.025  1.00  0.00     0.000 C 
ENDBRANCH  98  99
ENDBRANCH  97  98
ENDBRANCH  95  97
ENDBRANCH  92  93
ENDBRANCH  90  92
ENDBRANCH  84  86
ENDBRANCH   2  79
TORSDOF 17
ENDMDL
MODEL 2
REMARK VINA RESULT:     -12.3      4.785     11.767
REMARK SMILES C[C@@H](C(=O)NCCCNC(=O)c1ccc(-c2c3nc(c(-c4c(F)c(F)c(F)c(F)c4F)c4ccc([nH]4)c(-c4c(F)c(F)c(F)c(F)c4F)c4nc(c(-c5c(F)c(F)c(F)c(F)c5F)c5ccc2[nH]5)C=C4)C=C3)cc1)c1ccc(-c2cccc(OC(=O)NCCC3CCCCC3)c2)c(F)c1
REMARK SMILES IDX 1 1 2 2 3 3 4 4 5 5 6 7 7 8 8 9 9 10 10 11 11 13 12 14 13 15
REMARK SMILES IDX 74 16 14 17 73 18 15 19 16 20 17 21 67 22 18 23 72 24 66 25
REMARK SMILES IDX 68 26 19 27 71 28 65 29 64 30 20 32 52 33 32 34 51 35 33 36
REMARK SMILES IDX 36 37 50 38 69 39 34 40 35 41 49 43 70 44 37 45 21 46 22 47
REMARK SMILES IDX 30 48 23 49 24 50 28 51 31 52 25 53 26 54 29 55 27 56 53 57
REMARK SMILES IDX 54 58 62 59 55 60 56 61 60 62 63 63 57 64 58 65 61 66 59 67
REMARK SMILES IDX 38 68 39 69 47 70 40 71 41 72 45 73 48 74 42 75 43 76 46 77
REMARK SMILES IDX 44 78 75 79 76 80 99 81 77 82 97 83 78 84 98 85 79 86 80 87
REMARK SMILES IDX 96 88 81 89 83 90 82 91 84 92 85 93 86 94 87 95 88 97 89 98
REMARK SMILES IDX 90 99 91 100 95 101 92 102 94 103 93 104
REMARK H PARENT 5 6 9 12 68 31 36 42 87 96
REMARK Flexibility Score: inf
ROOT
ATOM      1  C   UNL A   1      36.031  33.838  35.233  1.00  0.00     0.023 C 
ATOM      2  C   UNL A   1      36.362  33.261  33.853  1.00  0.00     0.105 C 
ENDROOT
BRANCH   2   3
ATOM      3  C   UNL A   1      36.614  34.365  32.813  1.00  0.00     0.227 C 
ATOM      4  O   UNL A   1      37.515  35.200  32.917  1.00  0.00    -0.274 OA
ATOM      5  N   UNL A   1      35.839  34.437  31.692  1.00  0.00    -0.356 N 
ATOM      6  H   UNL A   1      36.160  35.065  31.005  1.00  0.00     0.163 HD
BRANCH   5   7
ATOM      7  C   UNL A   1      34.619  33.732  31.359  1.00  0.00     0.117 C 
BRANCH   7   8
ATOM      8  C   UNL A   1      34.918  32.465  30.562  1.00  0.00     0.042 C 
BRANCH   8   9
ATOM      9  C   UNL A   1      34.725  32.626  29.058  1.00  0.00     0.118 C 
BRANCH   9  10
ATOM     10  N   UNL A   1      34.027  31.495  28.465  1.00  0.00    -0.352 N 
ATOM     11  C   UNL A   1      34.516  30.301  27.999  1.00  0.00     0.251 C 
ATOM     12  H   UNL A   1      33.052  31.604  28.386  1.00  0.00     0.163 HD
ATOM     13  O   UNL A   1      33.789  29.567  27.335  1.00  0.00    -0.269 OA
BRANCH  11  14
ATOM     14  C   UNL A   1      35.912  29.901  28.273  1.00  0.00     0.039 A 
ATOM     15  C   UNL A   1      36.868  30.069  27.267  1.00  0.00     0.014 A 
ATOM     16  C   UNL A   1      36.277  29.333  29.495  1.00  0.00     0.014 A 
ATOM     17  C   UNL A   1      38.198  29.723  27.510  1.00  0.00     0.010 A 
ATOM     18  C   UNL A   1      37.617  29.067  29.766  1.00  0.00     0.010 A 
ATOM     19  C   UNL A   1      38.591  29.254  28.774  1.00  0.00    -0.014 A 
BRANCH  19  20
ATOM     20  C   UNL A   1      40.015  28.959  29.074  1.00  0.00     0.031 A 
ATOM     21  C   UNL A   1      40.863  29.964  29.802  1.00  0.00     0.074 A 
ATOM     22  C   UNL A   1      40.560  27.806  28.639  1.00  0.00     0.049 A 
ATOM     23  N   UNL A   1      42.136  29.912  30.105  1.00  0.00    -0.248 NA
ATOM     24  C   UNL A   1      40.198  31.207  30.224  1.00  0.00     0.031 C 
ATOM     25  C   UNL A   1      39.853  26.770  27.885  1.00  0.00     0.029 A 
ATOM     26  N   UNL A   1      41.837  27.316  28.760  1.00  0.00    -0.354 N 
ATOM     27  C   UNL A   1      42.424  31.111  30.740  1.00  0.00     0.074 A 
ATOM     28  C   UNL A   1      41.211  31.899  30.727  1.00  0.00     0.031 C 
ATOM     29  C   UNL A   1      40.696  25.756  27.634  1.00  0.00     0.029 A 
ATOM     30  C   UNL A   1      42.014  26.089  28.167  1.00  0.00     0.049 A 
ATOM     31  H   UNL A   1      42.557  27.798  29.228  1.00  0.00     0.167 HD
ATOM     32  C   UNL A   1      43.590  31.512  31.304  1.00  0.00     0.037 A 
ATOM     33  C   UNL A   1      43.116  25.324  28.056  1.00  0.00     0.037 A 
ATOM     34  C   UNL A   1      44.793  30.719  31.325  1.00  0.00     0.049 A 
ATOM     35  C   UNL A   1      44.406  25.805  28.666  1.00  0.00     0.074 A 
ATOM     36  C   UNL A   1      46.007  31.010  31.918  1.00  0.00     0.029 A 
ATOM     37  N   UNL A   1      44.933  29.480  30.713  1.00  0.00    -0.354 N 
ATOM     38  N   UNL A   1      44.648  26.909  29.328  1.00  0.00    -0.248 NA
ATOM     39  C   UNL A   1      45.574  24.928  28.515  1.00  0.00     0.031 C 
ATOM     40  C   UNL A   1      46.902  29.979  31.613  1.00  0.00     0.029 A 
ATOM     41  C   UNL A   1      46.226  29.011  30.888  1.00  0.00     0.049 A 
ATOM     42  H   UNL A   1      44.221  29.007  30.226  1.00  0.00     0.167 HD
ATOM     43  C   UNL A   1      45.985  26.847  29.699  1.00  0.00     0.074 A 
ATOM     44  C   UNL A   1      46.496  25.586  29.203  1.00  0.00     0.031 C 
ATOM     45  C   UNL A   1      46.722  27.752  30.391  1.00  0.00     0.037 A 
BRANCH  32  46
ATOM     46  C   UNL A   1      43.623  32.874  31.939  1.00  0.00     0.064 A 
ATOM     47  C   UNL A   1      44.001  34.018  31.219  1.00  0.00     0.173 A 
ATOM     48  C   UNL A   1      43.240  33.044  33.279  1.00  0.00     0.173 A 
ATOM     49  F   UNL A   1      44.384  33.913  29.937  1.00  0.00    -0.203 F 
ATOM     50  C   UNL A   1      44.031  35.271  31.825  1.00  0.00     0.198 A 
ATOM     51  C   UNL A   1      43.237  34.304  33.871  1.00  0.00     0.198 A 
ATOM     52  F   UNL A   1      42.862  31.987  34.014  1.00  0.00    -0.203 F 
ATOM     53  F   UNL A   1      44.453  36.339  31.132  1.00  0.00    -0.200 F 
ATOM     54  C   UNL A   1      43.642  35.415  33.148  1.00  0.00     0.200 A 
ATOM     55  F   UNL A   1      42.844  34.442  35.146  1.00  0.00    -0.200 F 
ATOM     56  F   UNL A   1      43.666  36.622  33.728  1.00  0.00    -0.200 F 
ENDBRANCH  32  46
BRANCH  33  57
ATOM     57  C   UNL A   1      43.044  24.017  27.353  1.00  0.00     0.064 A 
ATOM     58  C   UNL A   1      43.394  23.906  26.000  1.00  0.00     0.173 A 
ATOM     59  C   UNL A   1      42.624  22.853  28.015  1.00  0.00     0.173 A 
ATOM     60  F   UNL A   1      43.784  24.993  25.319  1.00  0.00    -0.203 F 
ATOM     61  C   UNL A   1      43.303  22.687  25.330  1.00  0.00     0.198 A 
ATOM     62  C   UNL A   1      42.565  21.628  27.352  1.00  0.00     0.198 A 
ATOM     63  F   UNL A   1      42.283  22.902  29.311  1.00  0.00    -0.203 F 
ATOM     64  F   UNL A   1      43.596  22.621  24.024  1.00  0.00    -0.200 F 
ATOM     65  C   UNL A   1      42.895  21.549  26.008  1.00  0.00     0.200 A 
ATOM     66  F   UNL A   1      42.188  20.528  28.016  1.00  0.00    -0.200 F 
ATOM     67  F   UNL A   1      42.815  20.376  25.365  1.00  0.00    -0.200 F 
ENDBRANCH  33  57
BRANCH  45  68
ATOM     68  C   UNL A   1      48.153  27.397  30.684  1.00  0.00     0.064 A 
ATOM     69  C   UNL A   1      49.166  27.557  29.728  1.00  0.00     0.173 A 
ATOM     70  C   UNL A   1      48.519  26.925  31.954  1.00  0.00     0.173 A 
ATOM     71  F   UNL A   1      48.869  27.991  28.494  1.00  0.00    -0.203 F 
ATOM     72  C   UNL A   1      50.488  27.230  30.023  1.00  0.00     0.198 A 
ATOM     73  C   UNL A   1      49.846  26.633  32.257  1.00  0.00     0.198 A 
ATOM     74  F   UNL A   1      47.590  26.760  32.909  1.00  0.00    -0.203 F 
ATOM     75  F   UNL A   1      51.430  27.338  29.077  1.00  0.00    -0.200 F 
ATOM     76  C   UNL A   1      50.828  26.777  31.289  1.00  0.00     0.200 A 
ATOM     77  F   UNL A   1      50.174  26.213  33.487  1.00  0.00    -0.200 F 
ATOM     78  F   UNL A   1      52.101  26.471  31.575  1.00  0.00    -0.200 F 
ENDBRANCH  45  68
ENDBRANCH  19  20
ENDBRANCH  11  14
ENDBRANCH   9  10
ENDBRANCH   8   9
ENDBRANCH   7   8
ENDBRANCH   5   7
ENDBRANCH   2   3
BRANCH   2  79
ATOM     79  C   UNL A   1      37.531  32.284  33.918  1.00  0.00    -0.033 A 
ATOM     80  C   UNL A   1      37.541  31.088  33.186  1.00  0.00     0.005 A 
ATOM     81  C   UNL A   1      38.606  32.549  34.777  1.00  0.00     0.044 A 
ATOM     82  C   UNL A   1      38.608  30.194  33.285  1.00  0.00     0.012 A 
ATOM     83  C   UNL A   1      39.663  31.644  34.879  1.00  0.00     0.131 A 
ATOM     84  C   UNL A   1      39.688  30.455  34.139  1.00  0.00     0.018 A 
ATOM     85  F   UNL A   1      40.663  31.937  35.725  1.00  0.00    -0.206 F 
BRANCH  84  86
ATOM     86  C   UNL A   1      40.744  29.450  34.311  1.00  0.00    -0.012 A 
ATOM     87  C   UNL A   1      41.483  28.960  33.223  1.00  0.00     0.009 A 
ATOM     88  C   UNL A   1      40.977  28.901  35.581  1.00  0.00     0.056 A 
ATOM     89  C   UNL A   1      42.420  27.939  33.399  1.00  0.00     0.004 A 
ATOM     90  C   UNL A   1      41.885  27.862  35.752  1.00  0.00     0.133 A 
ATOM     91  C   UNL A   1      42.618  27.385  34.663  1.00  0.00     0.047 A 
BRANCH  90  92
ATOM     92  O   UNL A   1      42.125  27.213  36.988  1.00  0.00    -0.410 OA
BRANCH  92  93
ATOM     93  C   UNL A   1      41.636  25.953  37.326  1.00  0.00     0.412 C 
ATOM     94  O   UNL A   1      40.468  25.652  37.550  1.00  0.00    -0.224 OA
ATOM     95  N   UNL A   1      42.593  24.984  37.374  1.00  0.00    -0.321 N 
ATOM     96  H   UNL A   1      42.278  24.076  37.587  1.00  0.00     0.167 HD
BRANCH  95  97
ATOM     97  C   UNL A   1      44.013  25.125  37.150  1.00  0.00     0.119 C 
BRANCH  97  98
ATOM     98  C   UNL A   1      44.651  23.788  36.771  1.00  0.00     0.025 C 
BRANCH  98  99
ATOM     99  C   UNL A   1      44.822  23.569  35.251  1.00  0.00    -0.009 C 
ATOM    100  C   UNL A   1      43.522  23.080  34.590  1.00  0.00     0.003 C 
ATOM    101  C   UNL A   1      45.315  24.866  34.589  1.00  0.00     0.003 C 
ATOM    102  C   UNL A   1      43.661  22.951  33.074  1.00  0.00     0.000 C 
ATOM    103  C   UNL A   1      45.461  24.710  33.078  1.00  0.00     0.000 C 
ATOM    104  C   UNL A   1      44.159  24.245  32.438  1.00  0.00     0.000 C 
ENDBRANCH  98  99
ENDBRANCH  97  98
ENDBRANCH  95  97
ENDBRANCH  92  93
ENDBRANCH  90  92
ENDBRANCH  84  86
ENDBRANCH   2  79
TORSDOF 17
ENDMDL
MODEL 3
REMARK VINA RESULT:     -12.2      3.559      6.090
REMARK SMILES C[C@@H](C(=O)NCCCNC(=O)c1ccc(-c2c3nc(c(-c4c(F)c(F)c(F)c(F)c4F)c4ccc([nH]4)c(-c4c(F)c(F)c(F)c(F)c4F)c4nc(c(-c5c(F)c(F)c(F)c(F)c5F)c5ccc2[nH]5)C=C4)C=C3)cc1)c1ccc(-c2cccc(OC(=O)NCCC3CCCCC3)c2)c(F)c1
REMARK SMILES IDX 1 1 2 2 3 3 4 4 5 5 6 7 7 8 8 9 9 10 10 11 11 13 12 14 13 15
REMARK SMILES IDX 74 16 14 17 73 18 15 19 16 20 17 21 67 22 18 23 72 24 66 25
REMARK SMILES IDX 68 26 19 27 71 28 65 29 64 30 20 32 52 33 32 34 51 35 33 36
REMARK SMILES IDX 36 37 50 38 69 39 34 40 35 41 49 43 70 44 37 45 21 46 22 47
REMARK SMILES IDX 30 48 23 49 24 50 28 51 31 52 25 53 26 54 29 55 27 56 53 57
REMARK SMILES IDX 54 58 62 59 55 60 56 61 60 62 63 63 57 64 58 65 61 66 59 67
REMARK SMILES IDX 38 68 39 69 47 70 40 71 41 72 45 73 48 74 42 75 43 76 46 77
REMARK SMILES IDX 44 78 75 79 76 80 99 81 77 82 97 83 78 84 98 85 79 86 80 87
REMARK SMILES IDX 96 88 81 89 83 90 82 91 84 92 85 93 86 94 87 95 88 97 89 98
REMARK SMILES IDX 90 99 91 100 95 101 92 102 94 103 93 104
REMARK H PARENT 5 6 9 12 68 31 36 42 87 96
REMARK Flexibility Score: inf
ROOT
ATOM      1  C   UNL A   1      41.830  22.559  25.814  1.00  0.00     0.023 C 
ATOM      2  C   UNL A   1      40.781  21.456  25.988  1.00  0.00     0.105 C 
ENDROOT
BRANCH   2   3
ATOM      3  C   UNL A   1      41.005  20.646  27.276  1.00  0.00     0.227 C 
ATOM      4  O   UNL A   1      40.719  21.066  28.399  1.00  0.00    -0.274 OA
ATOM      5  N   UNL A   1      41.518  19.384  27.207  1.00  0.00    -0.356 N 
ATOM      6  H   UNL A   1      41.484  18.874  28.049  1.00  0.00     0.163 HD
BRANCH   5   7
ATOM      7  C   UNL A   1      42.105  18.678  26.086  1.00  0.00     0.117 C 
BRANCH   7   8
ATOM      8  C   UNL A   1      43.341  17.894  26.519  1.00  0.00     0.042 C 
BRANCH   8   9
ATOM      9  C   UNL A   1      44.657  18.560  26.133  1.00  0.00     0.118 C 
BRANCH   9  10
ATOM     10  N   UNL A   1      44.851  18.610  24.692  1.00  0.00    -0.352 N 
ATOM     11  C   UNL A   1      44.894  19.687  23.843  1.00  0.00     0.251 C 
ATOM     12  H   UNL A   1      44.969  17.734  24.259  1.00  0.00     0.163 HD
ATOM     13  O   UNL A   1      44.850  19.504  22.630  1.00  0.00    -0.269 OA
BRANCH  11  14
ATOM     14  C   UNL A   1      44.977  21.063  24.377  1.00  0.00     0.039 A 
ATOM     15  C   UNL A   1      45.436  21.249  25.684  1.00  0.00     0.014 A 
ATOM     16  C   UNL A   1      44.574  22.161  23.615  1.00  0.00     0.014 A 
ATOM     17  C   UNL A   1      45.548  22.540  26.202  1.00  0.00     0.010 A 
ATOM     18  C   UNL A   1      44.765  23.452  24.101  1.00  0.00     0.010 A 
ATOM     19  C   UNL A   1      45.248  23.655  25.402  1.00  0.00    -0.014 A 
BRANCH  19  20
ATOM     20  C   UNL A   1      45.440  25.038  25.911  1.00  0.00     0.031 A 
ATOM     21  C   UNL A   1      46.799  25.679  25.878  1.00  0.00     0.074 A 
ATOM     22  C   UNL A   1      44.398  25.694  26.456  1.00  0.00     0.049 A 
ATOM     23  N   UNL A   1      47.175  26.851  26.324  1.00  0.00    -0.248 NA
ATOM     24  C   UNL A   1      47.889  24.886  25.287  1.00  0.00     0.031 C 
ATOM     25  C   UNL A   1      43.040  25.164  26.585  1.00  0.00     0.029 A 
ATOM     26  N   UNL A   1      44.318  26.948  27.011  1.00  0.00    -0.354 N 
ATOM     27  C   UNL A   1      48.538  26.931  26.079  1.00  0.00     0.074 A 
ATOM     28  C   UNL A   1      48.939  25.668  25.499  1.00  0.00     0.031 C 
ATOM     29  C   UNL A   1      42.257  26.092  27.156  1.00  0.00     0.029 A 
ATOM     30  C   UNL A   1      43.066  27.265  27.476  1.00  0.00     0.049 A 
ATOM     31  H   UNL A   1      45.087  27.560  27.070  1.00  0.00     0.167 HD
ATOM     32  C   UNL A   1      49.377  27.973  26.297  1.00  0.00     0.037 A 
ATOM     33  C   UNL A   1      42.621  28.372  28.100  1.00  0.00     0.037 A 
ATOM     34  C   UNL A   1      48.971  29.234  26.863  1.00  0.00     0.049 A 
ATOM     35  C   UNL A   1      43.580  29.504  28.356  1.00  0.00     0.074 A 
ATOM     36  C   UNL A   1      49.731  30.370  27.072  1.00  0.00     0.029 A 
ATOM     37  N   UNL A   1      47.692  29.519  27.323  1.00  0.00    -0.354 N 
ATOM     38  N   UNL A   1      44.851  29.598  28.052  1.00  0.00    -0.248 NA
ATOM     39  C   UNL A   1      43.038  30.687  29.037  1.00  0.00     0.031 C 
ATOM     40  C   UNL A   1      48.930  31.320  27.715  1.00  0.00     0.029 A 
ATOM     41  C   UNL A   1      47.652  30.802  27.844  1.00  0.00     0.049 A 
ATOM     42  H   UNL A   1      46.928  28.900  27.285  1.00  0.00     0.167 HD
ATOM     43  C   UNL A   1      45.254  30.857  28.477  1.00  0.00     0.074 A 
ATOM     44  C   UNL A   1      44.085  31.498  29.043  1.00  0.00     0.031 C 
ATOM     45  C   UNL A   1      46.481  31.431  28.403  1.00  0.00     0.037 A 
BRANCH  32  46
ATOM     46  C   UNL A   1      50.823  27.791  25.926  1.00  0.00     0.064 A 
ATOM     47  C   UNL A   1      51.788  27.417  26.874  1.00  0.00     0.173 A 
ATOM     48  C   UNL A   1      51.244  27.961  24.598  1.00  0.00     0.173 A 
ATOM     49  F   UNL A   1      51.443  27.248  28.159  1.00  0.00    -0.203 F 
ATOM     50  C   UNL A   1      53.124  27.257  26.515  1.00  0.00     0.198 A 
ATOM     51  C   UNL A   1      52.574  27.765  24.235  1.00  0.00     0.198 A 
ATOM     52  F   UNL A   1      50.363  28.311  23.648  1.00  0.00    -0.203 F 
ATOM     53  F   UNL A   1      54.037  26.958  27.450  1.00  0.00    -0.200 F 
ATOM     54  C   UNL A   1      53.515  27.424  25.195  1.00  0.00     0.200 A 
ATOM     55  F   UNL A   1      52.946  27.911  22.956  1.00  0.00    -0.200 F 
ATOM     56  F   UNL A   1      54.799  27.264  24.849  1.00  0.00    -0.200 F 
ENDBRANCH  32  46
BRANCH  33  57
ATOM     57  C   UNL A   1      41.196  28.471  28.510  1.00  0.00     0.064 A 
ATOM     58  C   UNL A   1      40.229  28.989  27.639  1.00  0.00     0.173 A 
ATOM     59  C   UNL A   1      40.770  28.054  29.781  1.00  0.00     0.173 A 
ATOM     60  F   UNL A   1      40.588  29.419  26.420  1.00  0.00    -0.203 F 
ATOM     61  C   UNL A   1      38.896  29.108  28.029  1.00  0.00     0.198 A 
ATOM     62  C   UNL A   1      39.432  28.143  30.158  1.00  0.00     0.198 A 
ATOM     63  F   UNL A   1      41.653  27.545  30.653  1.00  0.00    -0.203 F 
ATOM     64  F   UNL A   1      38.002  29.654  27.192  1.00  0.00    -0.200 F 
ATOM     65  C   UNL A   1      38.498  28.679  29.285  1.00  0.00     0.200 A 
ATOM     66  F   UNL A   1      39.049  27.709  31.367  1.00  0.00    -0.200 F 
ATOM     67  F   UNL A   1      37.215  28.788  29.657  1.00  0.00    -0.200 F 
ENDBRANCH  33  57
BRANCH  45  68
ATOM     68  C   UNL A   1      46.617  32.838  28.915  1.00  0.00     0.064 A 
ATOM     69  C   UNL A   1      46.384  33.950  28.092  1.00  0.00     0.173 A 
ATOM     70  C   UNL A   1      46.949  33.074  30.258  1.00  0.00     0.173 A 
ATOM     71  F   UNL A   1      46.078  33.781  26.797  1.00  0.00    -0.203 F 
ATOM     72  C   UNL A   1      46.508  35.246  28.588  1.00  0.00     0.198 A 
ATOM     73  C   UNL A   1      47.037  34.370  30.759  1.00  0.00     0.198 A 
ATOM     74  F   UNL A   1      47.175  32.046  31.090  1.00  0.00    -0.203 F 
ATOM     75  F   UNL A   1      46.336  36.293  27.770  1.00  0.00    -0.200 F 
ATOM     76  C   UNL A   1      46.825  35.454  29.922  1.00  0.00     0.200 A 
ATOM     77  F   UNL A   1      47.326  34.568  32.052  1.00  0.00    -0.200 F 
ATOM     78  F   UNL A   1      46.936  36.702  30.400  1.00  0.00    -0.200 F 
ENDBRANCH  45  68
ENDBRANCH  19  20
ENDBRANCH  11  14
ENDBRANCH   9  10
ENDBRANCH   8   9
ENDBRANCH   7   8
ENDBRANCH   5   7
ENDBRANCH   2   3
BRANCH   2  79
ATOM     79  C   UNL A   1      39.363  22.015  25.926  1.00  0.00    -0.033 A 
ATOM     80  C   UNL A   1      39.042  23.283  26.432  1.00  0.00     0.005 A 
ATOM     81  C   UNL A   1      38.330  21.224  25.405  1.00  0.00     0.044 A 
ATOM     82  C   UNL A   1      37.731  23.761  26.392  1.00  0.00     0.012 A 
ATOM     83  C   UNL A   1      37.021  21.706  25.379  1.00  0.00     0.131 A 
ATOM     84  C   UNL A   1      36.694  22.978  25.868  1.00  0.00     0.018 A 
ATOM     85  F   UNL A   1      36.065  20.905  24.882  1.00  0.00    -0.206 F 
BRANCH  84  86
ATOM     86  C   UNL A   1      35.309  23.456  25.938  1.00  0.00    -0.012 A 
ATOM     87  C   UNL A   1      34.455  23.097  26.993  1.00  0.00     0.009 A 
ATOM     88  C   UNL A   1      34.790  24.228  24.888  1.00  0.00     0.056 A 
ATOM     89  C   UNL A   1      33.114  23.491  26.990  1.00  0.00     0.004 A 
ATOM     90  C   UNL A   1      33.448  24.592  24.867  1.00  0.00     0.133 A 
ATOM     91  C   UNL A   1      32.608  24.234  25.924  1.00  0.00     0.047 A 
BRANCH  90  92
ATOM     92  O   UNL A   1      32.836  25.313  23.813  1.00  0.00    -0.410 OA
BRANCH  92  93
ATOM     93  C   UNL A   1      33.092  25.100  22.460  1.00  0.00     0.412 C 
ATOM     94  O   UNL A   1      33.728  25.829  21.706  1.00  0.00    -0.224 OA
ATOM     95  N   UNL A   1      32.581  23.932  21.979  1.00  0.00    -0.321 N 
ATOM     96  H   UNL A   1      32.763  23.738  21.031  1.00  0.00     0.167 HD
BRANCH  95  97
ATOM     97  C   UNL A   1      31.805  22.942  22.690  1.00  0.00     0.119 C 
BRANCH  97  98
ATOM     98  C   UNL A   1      32.111  21.530  22.187  1.00  0.00     0.025 C 
BRANCH  98  99
ATOM     99  C   UNL A   1      32.077  20.440  23.281  1.00  0.00    -0.009 C 
ATOM    100  C   UNL A   1      32.416  19.049  22.719  1.00  0.00     0.003 C 
ATOM    101  C   UNL A   1      33.039  20.815  24.421  1.00  0.00     0.003 C 
ATOM    102  C   UNL A   1      32.475  17.985  23.814  1.00  0.00     0.000 C 
ATOM    103  C   UNL A   1      33.070  19.746  25.510  1.00  0.00     0.000 C 
ATOM    104  C   UNL A   1      33.427  18.380  24.938  1.00  0.00     0.000 C 
ENDBRANCH  98  99
ENDBRANCH  97  98
ENDBRANCH  95  97
ENDBRANCH  92  93
ENDBRANCH  90  92
ENDBRANCH  84  86
ENDBRANCH   2  79
TORSDOF 17
ENDMDL
