MODEL 1
REMARK VINA RESULT:     -12.9      0.000      0.000
REMARK SMILES O=C(CN(c1ccccc1)[C@@H]1CCO[C@]2(CCSC2)C1)NCCCNC(=O)c1ccc(-c2c3nc(c(-c4c(F)c(F)c(F)c(F)c4F)c4ccc([nH]4)c(-c4c(F)c(F)c(F)c(F)c4F)c4nc(c(-c5c(F)c(F)c(F)c(F)c5F)c5ccc2[nH]5)C=C4)C=C3)cc1
REMARK SMILES IDX 23 1 22 2 21 3 1 4 2 5 3 7 4 8 5 9 6 10 10 11 7 12 9 13 8 14
REMARK SMILES IDX 11 15 12 16 20 17 13 18 15 19 14 20 16 21 19 22 17 23 18 24
REMARK SMILES IDX 24 25 25 26 26 27 27 29 28 30 29 31 90 32 30 33 89 34 31 35
REMARK SMILES IDX 32 36 33 37 83 38 34 39 88 40 82 41 84 42 35 43 87 44 81 45
REMARK SMILES IDX 80 46 36 48 68 49 48 50 67 51 49 52 52 53 66 54 85 55 50 56
REMARK SMILES IDX 51 57 65 59 86 60 53 61 37 62 38 63 46 64 39 65 40 66 44 67
REMARK SMILES IDX 47 68 41 69 42 70 45 71 43 72 69 73 70 74 78 75 71 76 72 77
REMARK SMILES IDX 76 78 79 79 73 80 74 81 77 82 75 83 54 84 55 85 63 86 56 87
REMARK SMILES IDX 57 88 61 89 64 90 58 91 59 92 62 93 60 94
REMARK H PARENT 21 6 25 28 84 47 52 58
REMARK Flexibility Score: inf
ROOT
ATOM      1  C   UNL A   1      31.626  31.812  26.799  1.00  0.00     0.042 C 
ENDROOT
BRANCH   1   2
ATOM      2  C   UNL A   1      31.849  30.312  26.929  1.00  0.00     0.117 C 
BRANCH   2   3
ATOM      3  N   UNL A   1      31.583  29.611  25.694  1.00  0.00    -0.354 N 
ATOM      4  O   UNL A   1      33.522  28.386  25.717  1.00  0.00    -0.273 OA
ATOM      5  C   UNL A   1      32.446  28.664  25.194  1.00  0.00     0.239 C 
ATOM      6  H   UNL A   1      30.760  29.819  25.196  1.00  0.00     0.163 HD
BRANCH   5   7
ATOM      7  C   UNL A   1      31.986  28.025  23.889  1.00  0.00     0.216 C 
BRANCH   7   8
ATOM      8  N   UNL A   1      30.556  27.636  23.871  1.00  0.00    -0.359 N 
BRANCH   8   9
ATOM      9  C   UNL A   1      29.699  28.490  23.161  1.00  0.00     0.037 A 
ATOM     10  C   UNL A   1      28.306  28.382  23.275  1.00  0.00     0.026 A 
ATOM     11  C   UNL A   1      30.200  29.486  22.303  1.00  0.00     0.026 A 
ATOM     12  C   UNL A   1      27.449  29.239  22.576  1.00  0.00     0.002 A 
ATOM     13  C   UNL A   1      29.349  30.339  21.596  1.00  0.00     0.002 A 
ATOM     14  C   UNL A   1      27.971  30.218  21.736  1.00  0.00     0.000 A 
ENDBRANCH   8   9
BRANCH   8  15
ATOM     15  C   UNL A   1      30.027  26.286  24.225  1.00  0.00     0.088 C 
ATOM     16  C   UNL A   1      29.942  25.948  25.712  1.00  0.00     0.053 C 
ATOM     17  C   UNL A   1      30.706  25.119  23.472  1.00  0.00     0.061 C 
ATOM     18  C   UNL A   1      31.270  25.485  26.272  1.00  0.00     0.163 C 
ATOM     19  C   UNL A   1      31.946  24.507  24.165  1.00  0.00     0.080 C 
ATOM     20  O   UNL A   1      31.721  24.337  25.573  1.00  0.00    -0.374 OA
ATOM     21  C   UNL A   1      33.257  25.261  23.892  1.00  0.00     0.047 C 
ATOM     22  C   UNL A   1      32.241  23.086  23.639  1.00  0.00     0.105 C 
ATOM     23  C   UNL A   1      33.719  24.967  22.473  1.00  0.00     0.072 C 
ATOM     24  S   UNL A   1      33.239  23.258  22.139  1.00  0.00    -0.159 SA
ENDBRANCH   8  15
ENDBRANCH   7   8
ENDBRANCH   5   7
ENDBRANCH   2   3
ENDBRANCH   1   2
BRANCH   1  25
ATOM     25  C   UNL A   1      32.821  32.642  27.250  1.00  0.00     0.118 C 
BRANCH  25  26
ATOM     26  N   UNL A   1      32.460  34.012  27.594  1.00  0.00    -0.352 N 
ATOM     27  C   UNL A   1      32.978  34.833  28.563  1.00  0.00     0.251 C 
ATOM     28  H   UNL A   1      31.739  34.406  27.050  1.00  0.00     0.163 HD
ATOM     29  O   UNL A   1      32.446  35.910  28.815  1.00  0.00    -0.269 OA
BRANCH  27  30
ATOM     30  C   UNL A   1      34.166  34.401  29.323  1.00  0.00     0.039 A 
ATOM     31  C   UNL A   1      33.991  33.771  30.557  1.00  0.00     0.014 A 
ATOM     32  C   UNL A   1      35.449  34.596  28.805  1.00  0.00     0.014 A 
ATOM     33  C   UNL A   1      35.099  33.261  31.236  1.00  0.00     0.010 A 
ATOM     34  C   UNL A   1      36.543  34.024  29.445  1.00  0.00     0.010 A 
ATOM     35  C   UNL A   1      36.378  33.346  30.663  1.00  0.00    -0.014 A 
BRANCH  35  36
ATOM     36  C   UNL A   1      37.563  32.727  31.306  1.00  0.00     0.031 A 
ATOM     37  C   UNL A   1      38.266  31.583  30.634  1.00  0.00     0.074 A 
ATOM     38  C   UNL A   1      37.943  33.130  32.533  1.00  0.00     0.049 A 
ATOM     39  N   UNL A   1      39.223  30.814  31.090  1.00  0.00    -0.248 NA
ATOM     40  C   UNL A   1      37.812  31.237  29.279  1.00  0.00     0.031 C 
ATOM     41  C   UNL A   1      37.316  34.206  33.304  1.00  0.00     0.029 A 
ATOM     42  N   UNL A   1      38.935  32.665  33.361  1.00  0.00    -0.354 N 
ATOM     43  C   UNL A   1      39.466  29.882  30.090  1.00  0.00     0.074 A 
ATOM     44  C   UNL A   1      38.528  30.152  29.021  1.00  0.00     0.031 C 
ATOM     45  C   UNL A   1      37.944  34.325  34.484  1.00  0.00     0.029 A 
ATOM     46  C   UNL A   1      38.985  33.307  34.575  1.00  0.00     0.049 A 
ATOM     47  H   UNL A   1      39.552  31.940  33.108  1.00  0.00     0.167 HD
ATOM     48  C   UNL A   1      40.399  28.903  30.060  1.00  0.00     0.037 A 
ATOM     49  C   UNL A   1      39.771  33.084  35.646  1.00  0.00     0.037 A 
ATOM     50  C   UNL A   1      41.348  28.659  31.114  1.00  0.00     0.049 A 
ATOM     51  C   UNL A   1      40.793  31.981  35.592  1.00  0.00     0.074 A 
ATOM     52  C   UNL A   1      42.372  27.729  31.154  1.00  0.00     0.029 A 
ATOM     53  N   UNL A   1      41.387  29.349  32.317  1.00  0.00    -0.354 N 
ATOM     54  N   UNL A   1      41.053  31.143  34.619  1.00  0.00    -0.248 NA
ATOM     55  C   UNL A   1      41.631  31.794  36.785  1.00  0.00     0.031 C 
ATOM     56  C   UNL A   1      43.004  27.828  32.398  1.00  0.00     0.029 A 
ATOM     57  C   UNL A   1      42.405  28.853  33.113  1.00  0.00     0.049 A 
ATOM     58  H   UNL A   1      40.780  30.084  32.567  1.00  0.00     0.167 HD
ATOM     59  C   UNL A   1      42.105  30.354  35.066  1.00  0.00     0.074 A 
ATOM     60  C   UNL A   1      42.438  30.816  36.397  1.00  0.00     0.031 C 
ATOM     61  C   UNL A   1      42.737  29.339  34.428  1.00  0.00     0.037 A 
BRANCH  48  62
ATOM     62  C   UNL A   1      40.443  28.021  28.848  1.00  0.00     0.064 A 
ATOM     63  C   UNL A   1      41.214  28.351  27.723  1.00  0.00     0.173 A 
ATOM     64  C   UNL A   1      39.734  26.810  28.823  1.00  0.00     0.173 A 
ATOM     65  F   UNL A   1      41.901  29.504  27.692  1.00  0.00    -0.203 F 
ATOM     66  C   UNL A   1      41.252  27.518  26.609  1.00  0.00     0.198 A 
ATOM     67  C   UNL A   1      39.799  25.963  27.719  1.00  0.00     0.198 A 
ATOM     68  F   UNL A   1      38.986  26.442  29.874  1.00  0.00    -0.203 F 
ATOM     69  F   UNL A   1      41.957  27.879  25.528  1.00  0.00    -0.200 F 
ATOM     70  C   UNL A   1      40.551  26.322  26.611  1.00  0.00     0.200 A 
ATOM     71  F   UNL A   1      39.131  24.801  27.727  1.00  0.00    -0.200 F 
ATOM     72  F   UNL A   1      40.594  25.516  25.541  1.00  0.00    -0.200 F 
ENDBRANCH  48  62
BRANCH  49  73
ATOM     73  C   UNL A   1      39.631  33.934  36.857  1.00  0.00     0.064 A 
ATOM     74  C   UNL A   1      38.829  33.525  37.932  1.00  0.00     0.173 A 
ATOM     75  C   UNL A   1      40.290  35.167  36.968  1.00  0.00     0.173 A 
ATOM     76  F   UNL A   1      38.163  32.364  37.864  1.00  0.00    -0.203 F 
ATOM     77  C   UNL A   1      38.677  34.325  39.062  1.00  0.00     0.198 A 
ATOM     78  C   UNL A   1      40.159  35.954  38.110  1.00  0.00     0.198 A 
ATOM     79  F   UNL A   1      41.072  35.602  35.969  1.00  0.00    -0.203 F 
ATOM     80  F   UNL A   1      37.868  33.930  40.056  1.00  0.00    -0.200 F 
ATOM     81  C   UNL A   1      39.346  35.537  39.153  1.00  0.00     0.200 A 
ATOM     82  F   UNL A   1      40.818  37.118  38.200  1.00  0.00    -0.200 F 
ATOM     83  F   UNL A   1      39.202  36.304  40.242  1.00  0.00    -0.200 F 
ENDBRANCH  49  73
BRANCH  61  84
ATOM     84  C   UNL A   1      43.890  28.689  35.134  1.00  0.00     0.064 A 
ATOM     85  C   UNL A   1      43.715  27.559  35.946  1.00  0.00     0.173 A 
ATOM     86  C   UNL A   1      45.196  29.163  34.939  1.00  0.00     0.173 A 
ATOM     87  F   UNL A   1      42.484  27.077  36.175  1.00  0.00    -0.203 F 
ATOM     88  C   UNL A   1      44.805  26.937  36.548  1.00  0.00     0.198 A 
ATOM     89  C   UNL A   1      46.286  28.522  35.520  1.00  0.00     0.198 A 
ATOM     90  F   UNL A   1      45.416  30.238  34.166  1.00  0.00    -0.203 F 
ATOM     91  F   UNL A   1      44.612  25.879  37.348  1.00  0.00    -0.200 F 
ATOM     92  C   UNL A   1      46.089  27.412  36.327  1.00  0.00     0.200 A 
ATOM     93  F   UNL A   1      47.526  28.975  35.293  1.00  0.00    -0.200 F 
ATOM     94  F   UNL A   1      47.139  26.802  36.895  1.00  0.00    -0.200 F 
ENDBRANCH  61  84
ENDBRANCH  35  36
ENDBRANCH  27  30
ENDBRANCH  25  26
ENDBRANCH   1  25
TORSDOF 13
ENDMDL
MODEL 2
REMARK VINA RESULT:     -12.8      0.127      2.008
REMARK SMILES O=C(CN(c1ccccc1)[C@@H]1CCO[C@]2(CCSC2)C1)NCCCNC(=O)c1ccc(-c2c3nc(c(-c4c(F)c(F)c(F)c(F)c4F)c4ccc([nH]4)c(-c4c(F)c(F)c(F)c(F)c4F)c4nc(c(-c5c(F)c(F)c(F)c(F)c5F)c5ccc2[nH]5)C=C4)C=C3)cc1
REMARK SMILES IDX 23 1 22 2 21 3 1 4 2 5 3 7 4 8 5 9 6 10 10 11 7 12 9 13 8 14
REMARK SMILES IDX 11 15 12 16 20 17 13 18 15 19 14 20 16 21 19 22 17 23 18 24
REMARK SMILES IDX 24 25 25 26 26 27 27 29 28 30 29 31 90 32 30 33 89 34 31 35
REMARK SMILES IDX 32 36 33 37 83 38 34 39 88 40 82 41 84 42 35 43 87 44 81 45
REMARK SMILES IDX 80 46 36 48 68 49 48 50 67 51 49 52 52 53 66 54 85 55 50 56
REMARK SMILES IDX 51 57 65 59 86 60 53 61 37 62 38 63 46 64 39 65 40 66 44 67
REMARK SMILES IDX 47 68 41 69 42 70 45 71 43 72 69 73 70 74 78 75 71 76 72 77
REMARK SMILES IDX 76 78 79 79 73 80 74 81 77 82 75 83 54 84 55 85 63 86 56 87
REMARK SMILES IDX 57 88 61 89 64 90 58 91 59 92 62 93 60 94
REMARK H PARENT 21 6 25 28 84 47 52 58
REMARK Flexibility Score: inf
ROOT
ATOM      1  C   UNL A   1      31.671  31.830  26.776  1.00  0.00     0.042 C 
ENDROOT
BRANCH   1   2
ATOM      2  C   UNL A   1      31.889  30.330  26.911  1.00  0.00     0.117 C 
BRANCH   2   3
ATOM      3  N   UNL A   1      31.618  29.626  25.679  1.00  0.00    -0.354 N 
ATOM      4  O   UNL A   1      33.494  28.309  25.764  1.00  0.00    -0.273 OA
ATOM      5  C   UNL A   1      32.445  28.631  25.212  1.00  0.00     0.239 C 
ATOM      6  H   UNL A   1      30.817  29.866  25.159  1.00  0.00     0.163 HD
BRANCH   5   7
ATOM      7  C   UNL A   1      31.984  27.996  23.904  1.00  0.00     0.216 C 
BRANCH   7   8
ATOM      8  N   UNL A   1      30.552  27.612  23.884  1.00  0.00    -0.359 N 
BRANCH   8   9
ATOM      9  C   UNL A   1      29.699  28.472  23.176  1.00  0.00     0.037 A 
ATOM     10  C   UNL A   1      30.209  29.466  22.329  1.00  0.00     0.026 A 
ATOM     11  C   UNL A   1      28.301  28.377  23.290  1.00  0.00     0.026 A 
ATOM     12  C   UNL A   1      29.361  30.319  21.614  1.00  0.00     0.002 A 
ATOM     13  C   UNL A   1      27.449  29.232  22.585  1.00  0.00     0.002 A 
ATOM     14  C   UNL A   1      27.981  30.202  21.742  1.00  0.00     0.000 A 
ENDBRANCH   8   9
BRANCH   8  15
ATOM     15  C   UNL A   1      30.019  26.263  24.233  1.00  0.00     0.088 C 
ATOM     16  C   UNL A   1      29.928  25.921  25.718  1.00  0.00     0.053 C 
ATOM     17  C   UNL A   1      30.698  25.096  23.479  1.00  0.00     0.061 C 
ATOM     18  C   UNL A   1      31.252  25.453  26.283  1.00  0.00     0.163 C 
ATOM     19  C   UNL A   1      31.935  24.480  24.175  1.00  0.00     0.080 C 
ATOM     20  O   UNL A   1      31.704  24.306  25.582  1.00  0.00    -0.374 OA
ATOM     21  C   UNL A   1      33.248  25.231  23.910  1.00  0.00     0.047 C 
ATOM     22  C   UNL A   1      32.227  23.059  23.647  1.00  0.00     0.105 C 
ATOM     23  C   UNL A   1      33.715  24.940  22.492  1.00  0.00     0.072 C 
ATOM     24  S   UNL A   1      33.232  23.233  22.151  1.00  0.00    -0.159 SA
ENDBRANCH   8  15
ENDBRANCH   7   8
ENDBRANCH   5   7
ENDBRANCH   2   3
ENDBRANCH   1   2
BRANCH   1  25
ATOM     25  C   UNL A   1      32.854  32.660  27.259  1.00  0.00     0.118 C 
BRANCH  25  26
ATOM     26  N   UNL A   1      32.484  34.027  27.602  1.00  0.00    -0.352 N 
ATOM     27  C   UNL A   1      32.994  34.850  28.573  1.00  0.00     0.251 C 
ATOM     28  H   UNL A   1      31.761  34.416  27.058  1.00  0.00     0.163 HD
ATOM     29  O   UNL A   1      32.454  35.924  28.825  1.00  0.00    -0.269 OA
BRANCH  27  30
ATOM     30  C   UNL A   1      34.184  34.426  29.336  1.00  0.00     0.039 A 
ATOM     31  C   UNL A   1      34.010  33.803  30.574  1.00  0.00     0.014 A 
ATOM     32  C   UNL A   1      35.466  34.619  28.815  1.00  0.00     0.014 A 
ATOM     33  C   UNL A   1      35.120  33.300  31.255  1.00  0.00     0.010 A 
ATOM     34  C   UNL A   1      36.561  34.054  29.458  1.00  0.00     0.010 A 
ATOM     35  C   UNL A   1      36.398  33.383  30.681  1.00  0.00    -0.014 A 
BRANCH  35  36
ATOM     36  C   UNL A   1      37.585  32.771  31.327  1.00  0.00     0.031 A 
ATOM     37  C   UNL A   1      38.301  31.636  30.653  1.00  0.00     0.074 A 
ATOM     38  C   UNL A   1      37.955  33.171  32.558  1.00  0.00     0.049 A 
ATOM     39  N   UNL A   1      39.261  30.873  31.110  1.00  0.00    -0.248 NA
ATOM     40  C   UNL A   1      37.857  31.293  29.293  1.00  0.00     0.031 C 
ATOM     41  C   UNL A   1      37.315  34.237  33.331  1.00  0.00     0.029 A 
ATOM     42  N   UNL A   1      38.946  32.710  33.389  1.00  0.00    -0.354 N 
ATOM     43  C   UNL A   1      39.517  29.948  30.107  1.00  0.00     0.074 A 
ATOM     44  C   UNL A   1      38.583  30.216  29.034  1.00  0.00     0.031 C 
ATOM     45  C   UNL A   1      37.936  34.356  34.515  1.00  0.00     0.029 A 
ATOM     46  C   UNL A   1      38.985  33.345  34.606  1.00  0.00     0.049 A 
ATOM     47  H   UNL A   1      39.571  31.991  33.136  1.00  0.00     0.167 HD
ATOM     48  C   UNL A   1      40.459  28.977  30.077  1.00  0.00     0.037 A 
ATOM     49  C   UNL A   1      39.766  33.123  35.681  1.00  0.00     0.037 A 
ATOM     50  C   UNL A   1      41.404  28.735  31.134  1.00  0.00     0.049 A 
ATOM     51  C   UNL A   1      40.798  32.029  35.626  1.00  0.00     0.074 A 
ATOM     52  C   UNL A   1      42.436  27.813  31.175  1.00  0.00     0.029 A 
ATOM     53  N   UNL A   1      41.431  29.419  32.341  1.00  0.00    -0.354 N 
ATOM     54  N   UNL A   1      41.070  31.198  34.650  1.00  0.00    -0.248 NA
ATOM     55  C   UNL A   1      41.631  31.842  36.823  1.00  0.00     0.031 C 
ATOM     56  C   UNL A   1      43.060  27.911  32.423  1.00  0.00     0.029 A 
ATOM     57  C   UNL A   1      42.449  28.927  33.140  1.00  0.00     0.049 A 
ATOM     58  H   UNL A   1      40.817  30.147  32.592  1.00  0.00     0.167 HD
ATOM     59  C   UNL A   1      42.126  30.415  35.099  1.00  0.00     0.074 A 
ATOM     60  C   UNL A   1      42.448  30.873  36.434  1.00  0.00     0.031 C 
ATOM     61  C   UNL A   1      42.770  29.409  34.460  1.00  0.00     0.037 A 
BRANCH  48  62
ATOM     62  C   UNL A   1      40.516  28.101  28.860  1.00  0.00     0.064 A 
ATOM     63  C   UNL A   1      39.793  26.901  28.782  1.00  0.00     0.173 A 
ATOM     64  C   UNL A   1      41.274  28.482  27.743  1.00  0.00     0.173 A 
ATOM     65  F   UNL A   1      39.062  26.485  29.827  1.00  0.00    -0.203 F 
ATOM     66  C   UNL A   1      39.848  26.103  27.642  1.00  0.00     0.198 A 
ATOM     67  C   UNL A   1      41.303  27.698  26.593  1.00  0.00     0.198 A 
ATOM     68  F   UNL A   1      41.980  29.623  27.762  1.00  0.00    -0.203 F 
ATOM     69  F   UNL A   1      39.187  24.938  27.611  1.00  0.00    -0.200 F 
ATOM     70  C   UNL A   1      40.597  26.505  26.547  1.00  0.00     0.200 A 
ATOM     71  F   UNL A   1      42.016  28.094  25.530  1.00  0.00    -0.200 F 
ATOM     72  F   UNL A   1      40.643  25.740  25.448  1.00  0.00    -0.200 F 
ENDBRANCH  48  62
BRANCH  49  73
ATOM     73  C   UNL A   1      39.613  33.966  36.896  1.00  0.00     0.064 A 
ATOM     74  C   UNL A   1      40.267  35.201  37.000  1.00  0.00     0.173 A 
ATOM     75  C   UNL A   1      38.815  33.558  37.974  1.00  0.00     0.173 A 
ATOM     76  F   UNL A   1      41.057  35.624  36.002  1.00  0.00    -0.203 F 
ATOM     77  C   UNL A   1      40.145  35.987  38.143  1.00  0.00     0.198 A 
ATOM     78  C   UNL A   1      38.671  34.357  39.107  1.00  0.00     0.198 A 
ATOM     79  F   UNL A   1      38.165  32.386  37.923  1.00  0.00    -0.203 F 
ATOM     80  F   UNL A   1      40.817  37.144  38.233  1.00  0.00    -0.200 F 
ATOM     81  C   UNL A   1      39.342  35.568  39.193  1.00  0.00     0.200 A 
ATOM     82  F   UNL A   1      37.884  33.954  40.114  1.00  0.00    -0.200 F 
ATOM     83  F   UNL A   1      39.222  36.326  40.292  1.00  0.00    -0.200 F 
ENDBRANCH  49  73
BRANCH  61  84
ATOM     84  C   UNL A   1      43.924  28.765  35.169  1.00  0.00     0.064 A 
ATOM     85  C   UNL A   1      45.224  29.284  35.084  1.00  0.00     0.173 A 
ATOM     86  C   UNL A   1      43.712  27.653  35.998  1.00  0.00     0.173 A 
ATOM     87  F   UNL A   1      45.480  30.336  34.292  1.00  0.00    -0.203 F 
ATOM     88  C   UNL A   1      46.272  28.704  35.794  1.00  0.00     0.198 A 
ATOM     89  C   UNL A   1      44.756  27.093  36.728  1.00  0.00     0.198 A 
ATOM     90  F   UNL A   1      42.484  27.123  36.117  1.00  0.00    -0.203 F 
ATOM     91  F   UNL A   1      47.513  29.194  35.672  1.00  0.00    -0.200 F 
ATOM     92  C   UNL A   1      46.036  27.617  36.622  1.00  0.00     0.200 A 
ATOM     93  F   UNL A   1      44.522  26.052  37.538  1.00  0.00    -0.200 F 
ATOM     94  F   UNL A   1      47.043  27.070  37.316  1.00  0.00    -0.200 F 
ENDBRANCH  61  84
ENDBRANCH  35  36
ENDBRANCH  27  30
ENDBRANCH  25  26
ENDBRANCH   1  25
TORSDOF 13
ENDMDL
MODEL 3
REMARK VINA RESULT:     -12.8      0.164      1.592
REMARK SMILES O=C(CN(c1ccccc1)[C@@H]1CCO[C@]2(CCSC2)C1)NCCCNC(=O)c1ccc(-c2c3nc(c(-c4c(F)c(F)c(F)c(F)c4F)c4ccc([nH]4)c(-c4c(F)c(F)c(F)c(F)c4F)c4nc(c(-c5c(F)c(F)c(F)c(F)c5F)c5ccc2[nH]5)C=C4)C=C3)cc1
REMARK SMILES IDX 23 1 22 2 21 3 1 4 2 5 3 7 4 8 5 9 6 10 10 11 7 12 9 13 8 14
REMARK SMILES IDX 11 15 12 16 20 17 13 18 15 19 14 20 16 21 19 22 17 23 18 24
REMARK SMILES IDX 24 25 25 26 26 27 27 29 28 30 29 31 90 32 30 33 89 34 31 35
REMARK SMILES IDX 32 36 33 37 83 38 34 39 88 40 82 41 84 42 35 43 87 44 81 45
REMARK SMILES IDX 80 46 36 48 68 49 48 50 67 51 49 52 52 53 66 54 85 55 50 56
REMARK SMILES IDX 51 57 65 59 86 60 53 61 37 62 38 63 46 64 39 65 40 66 44 67
REMARK SMILES IDX 47 68 41 69 42 70 45 71 43 72 69 73 70 74 78 75 71 76 72 77
REMARK SMILES IDX 76 78 79 79 73 80 74 81 77 82 75 83 54 84 55 85 63 86 56 87
REMARK SMILES IDX 57 88 61 89 64 90 58 91 59 92 62 93 60 94
REMARK H PARENT 21 6 25 28 84 47 52 58
REMARK Flexibility Score: inf
ROOT
ATOM      1  C   UNL A   1      31.698  31.657  26.716  1.00  0.00     0.042 C 
ENDROOT
BRANCH   1   2
ATOM      2  C   UNL A   1      31.877  30.156  26.891  1.00  0.00     0.117 C 
BRANCH   2   3
ATOM      3  N   UNL A   1      31.586  29.427  25.679  1.00  0.00    -0.354 N 
ATOM      4  O   UNL A   1      33.696  28.564  25.431  1.00  0.00    -0.273 OA
ATOM      5  C   UNL A   1      32.531  28.650  25.050  1.00  0.00     0.239 C 
ATOM      6  H   UNL A   1      30.683  29.489  25.290  1.00  0.00     0.163 HD
BRANCH   5   7
ATOM      7  C   UNL A   1      32.029  27.947  23.794  1.00  0.00     0.216 C 
BRANCH   7   8
ATOM      8  N   UNL A   1      30.592  27.588  23.828  1.00  0.00    -0.359 N 
BRANCH   8   9
ATOM      9  C   UNL A   1      29.729  28.455  23.141  1.00  0.00     0.037 A 
ATOM     10  C   UNL A   1      28.338  28.362  23.288  1.00  0.00     0.026 A 
ATOM     11  C   UNL A   1      30.222  29.448  22.277  1.00  0.00     0.026 A 
ATOM     12  C   UNL A   1      27.475  29.232  22.613  1.00  0.00     0.002 A 
ATOM     13  C   UNL A   1      29.364  30.315  21.593  1.00  0.00     0.002 A 
ATOM     14  C   UNL A   1      27.988  30.209  21.765  1.00  0.00     0.000 A 
ENDBRANCH   8   9
BRANCH   8  15
ATOM     15  C   UNL A   1      30.048  26.251  24.210  1.00  0.00     0.088 C 
ATOM     16  C   UNL A   1      29.961  25.945  25.703  1.00  0.00     0.053 C 
ATOM     17  C   UNL A   1      30.713  25.062  23.480  1.00  0.00     0.061 C 
ATOM     18  C   UNL A   1      31.284  25.478  26.272  1.00  0.00     0.163 C 
ATOM     19  C   UNL A   1      31.947  24.450  24.184  1.00  0.00     0.080 C 
ATOM     20  O   UNL A   1      31.722  24.311  25.595  1.00  0.00    -0.374 OA
ATOM     21  C   UNL A   1      33.266  25.183  23.895  1.00  0.00     0.047 C 
ATOM     22  C   UNL A   1      32.224  23.015  23.687  1.00  0.00     0.105 C 
ATOM     23  C   UNL A   1      33.723  24.855  22.481  1.00  0.00     0.072 C 
ATOM     24  S   UNL A   1      33.223  23.145  22.183  1.00  0.00    -0.159 SA
ENDBRANCH   8  15
ENDBRANCH   7   8
ENDBRANCH   5   7
ENDBRANCH   2   3
ENDBRANCH   1   2
BRANCH   1  25
ATOM     25  C   UNL A   1      32.877  32.471  27.234  1.00  0.00     0.118 C 
BRANCH  25  26
ATOM     26  N   UNL A   1      32.519  33.849  27.548  1.00  0.00    -0.352 N 
ATOM     27  C   UNL A   1      33.037  34.688  28.501  1.00  0.00     0.251 C 
ATOM     28  H   UNL A   1      31.800  34.233  26.996  1.00  0.00     0.163 HD
ATOM     29  O   UNL A   1      32.507  35.772  28.730  1.00  0.00    -0.269 OA
BRANCH  27  30
ATOM     30  C   UNL A   1      34.224  34.270  29.272  1.00  0.00     0.039 A 
ATOM     31  C   UNL A   1      34.046  33.541  30.450  1.00  0.00     0.014 A 
ATOM     32  C   UNL A   1      35.509  34.575  28.816  1.00  0.00     0.014 A 
ATOM     33  C   UNL A   1      35.161  33.046  31.130  1.00  0.00     0.010 A 
ATOM     34  C   UNL A   1      36.614  34.021  29.453  1.00  0.00     0.010 A 
ATOM     35  C   UNL A   1      36.450  33.246  30.612  1.00  0.00    -0.014 A 
BRANCH  35  36
ATOM     36  C   UNL A   1      37.648  32.650  31.252  1.00  0.00     0.031 A 
ATOM     37  C   UNL A   1      38.371  31.519  30.579  1.00  0.00     0.074 A 
ATOM     38  C   UNL A   1      38.024  33.060  32.479  1.00  0.00     0.049 A 
ATOM     39  N   UNL A   1      39.343  30.769  31.032  1.00  0.00    -0.248 NA
ATOM     40  C   UNL A   1      37.920  31.164  29.224  1.00  0.00     0.031 C 
ATOM     41  C   UNL A   1      37.378  34.124  33.250  1.00  0.00     0.029 A 
ATOM     42  N   UNL A   1      39.027  32.615  33.304  1.00  0.00    -0.354 N 
ATOM     43  C   UNL A   1      39.601  29.841  30.032  1.00  0.00     0.074 A 
ATOM     44  C   UNL A   1      38.656  30.093  28.965  1.00  0.00     0.031 C 
ATOM     45  C   UNL A   1      38.007  34.256  34.429  1.00  0.00     0.029 A 
ATOM     46  C   UNL A   1      39.068  33.257  34.517  1.00  0.00     0.049 A 
ATOM     47  H   UNL A   1      39.656  31.901  33.049  1.00  0.00     0.167 HD
ATOM     48  C   UNL A   1      40.553  28.880  29.999  1.00  0.00     0.037 A 
ATOM     49  C   UNL A   1      39.860  33.050  35.587  1.00  0.00     0.037 A 
ATOM     50  C   UNL A   1      41.509  28.654  31.051  1.00  0.00     0.049 A 
ATOM     51  C   UNL A   1      40.903  31.966  35.529  1.00  0.00     0.074 A 
ATOM     52  C   UNL A   1      42.551  27.743  31.088  1.00  0.00     0.029 A 
ATOM     53  N   UNL A   1      41.537  29.345  32.253  1.00  0.00    -0.354 N 
ATOM     54  N   UNL A   1      41.176  31.133  34.556  1.00  0.00    -0.248 NA
ATOM     55  C   UNL A   1      41.748  31.795  36.720  1.00  0.00     0.031 C 
ATOM     56  C   UNL A   1      43.184  27.855  32.330  1.00  0.00     0.029 A 
ATOM     57  C   UNL A   1      42.568  28.868  33.047  1.00  0.00     0.049 A 
ATOM     58  H   UNL A   1      40.918  30.068  32.505  1.00  0.00     0.167 HD
ATOM     59  C   UNL A   1      42.244  30.364  35.000  1.00  0.00     0.074 A 
ATOM     60  C   UNL A   1      42.572  30.832  36.330  1.00  0.00     0.031 C 
ATOM     61  C   UNL A   1      42.893  29.361  34.361  1.00  0.00     0.037 A 
BRANCH  48  62
ATOM     62  C   UNL A   1      40.610  27.998  28.787  1.00  0.00     0.064 A 
ATOM     63  C   UNL A   1      39.884  26.800  28.714  1.00  0.00     0.173 A 
ATOM     64  C   UNL A   1      41.370  28.373  27.669  1.00  0.00     0.173 A 
ATOM     65  F   UNL A   1      39.150  26.390  29.760  1.00  0.00    -0.203 F 
ATOM     66  C   UNL A   1      39.939  25.996  27.578  1.00  0.00     0.198 A 
ATOM     67  C   UNL A   1      41.398  27.582  26.523  1.00  0.00     0.198 A 
ATOM     68  F   UNL A   1      42.079  29.512  27.683  1.00  0.00    -0.203 F 
ATOM     69  F   UNL A   1      39.275  24.832  27.551  1.00  0.00    -0.200 F 
ATOM     70  C   UNL A   1      40.690  26.391  26.482  1.00  0.00     0.200 A 
ATOM     71  F   UNL A   1      42.114  27.972  25.459  1.00  0.00    -0.200 F 
ATOM     72  F   UNL A   1      40.736  25.621  25.386  1.00  0.00    -0.200 F 
ENDBRANCH  48  62
BRANCH  49  73
ATOM     73  C   UNL A   1      39.707  33.897  36.798  1.00  0.00     0.064 A 
ATOM     74  C   UNL A   1      38.902  33.481  37.867  1.00  0.00     0.173 A 
ATOM     75  C   UNL A   1      40.358  35.134  36.914  1.00  0.00     0.173 A 
ATOM     76  F   UNL A   1      38.244  32.315  37.794  1.00  0.00    -0.203 F 
ATOM     77  C   UNL A   1      38.738  34.278  38.998  1.00  0.00     0.198 A 
ATOM     78  C   UNL A   1      40.214  35.919  38.056  1.00  0.00     0.198 A 
ATOM     79  F   UNL A   1      41.142  35.576  35.920  1.00  0.00    -0.203 F 
ATOM     80  F   UNL A   1      37.927  33.876  39.986  1.00  0.00    -0.200 F 
ATOM     81  C   UNL A   1      39.398  35.494  39.094  1.00  0.00     0.200 A 
ATOM     82  F   UNL A   1      40.865  37.087  38.151  1.00  0.00    -0.200 F 
ATOM     83  F   UNL A   1      39.242  36.259  40.183  1.00  0.00    -0.200 F 
ENDBRANCH  49  73
BRANCH  61  84
ATOM     84  C   UNL A   1      44.061  28.733  35.064  1.00  0.00     0.064 A 
ATOM     85  C   UNL A   1      45.357  29.255  34.953  1.00  0.00     0.173 A 
ATOM     86  C   UNL A   1      43.864  27.635  35.915  1.00  0.00     0.173 A 
ATOM     87  F   UNL A   1      45.598  30.295  34.140  1.00  0.00    -0.203 F 
ATOM     88  C   UNL A   1      46.417  28.691  35.658  1.00  0.00     0.198 A 
ATOM     89  C   UNL A   1      44.921  27.091  36.639  1.00  0.00     0.198 A 
ATOM     90  F   UNL A   1      42.641  27.102  36.060  1.00  0.00    -0.203 F 
ATOM     91  F   UNL A   1      47.654  29.184  35.510  1.00  0.00    -0.200 F 
ATOM     92  C   UNL A   1      46.197  27.617  36.506  1.00  0.00     0.200 A 
ATOM     93  F   UNL A   1      44.702  26.062  37.469  1.00  0.00    -0.200 F 
ATOM     94  F   UNL A   1      47.216  27.085  37.196  1.00  0.00    -0.200 F 
ENDBRANCH  61  84
ENDBRANCH  35  36
ENDBRANCH  27  30
ENDBRANCH  25  26
ENDBRANCH   1  25
TORSDOF 13
ENDMDL
