MODEL 1
REMARK VINA RESULT:     -12.1      0.000      0.000
REMARK SMILES O=C(NCCCNC(=O)[C@]1(C2CCCC2)CCOc2ccccc21)c1ccc(-c2c3nc(c(-c4c(F)c(F)c(F)c(F)c4F)c4ccc([nH]4)c(-c4c(F)c(F)c(F)c(F)c4F)c4nc(c(-c5c(F)c(F)c(F)c(F)c5F)c5ccc2[nH]5)C=C4)C=C3)cc1
REMARK SMILES IDX 4 1 3 2 1 3 2 4 25 6 26 7 87 8 27 9 86 10 28 11 29 12 30 13
REMARK SMILES IDX 80 14 31 15 85 16 79 17 81 18 32 19 84 20 78 21 77 22 33 24
REMARK SMILES IDX 65 25 45 26 64 27 46 28 49 29 63 30 82 31 47 32 48 33 62 35
REMARK SMILES IDX 83 36 50 37 34 38 35 39 43 40 36 41 37 42 41 43 44 44 38 45
REMARK SMILES IDX 39 46 42 47 40 48 66 49 67 50 75 51 68 52 69 53 73 54 76 55
REMARK SMILES IDX 70 56 71 57 74 58 72 59 51 60 52 61 60 62 53 63 54 64 58 65
REMARK SMILES IDX 61 66 55 67 56 68 59 69 57 70 5 71 6 72 7 73 8 74 9 76 10 77
REMARK SMILES IDX 16 78 24 79 17 80 19 81 23 82 18 83 20 84 22 85 21 86 11 87
REMARK SMILES IDX 12 88 15 89 13 90 14 91
REMARK H PARENT 3 5 81 23 49 34 7 75
REMARK Flexibility Score: inf
ROOT
ATOM      1  C   UNL A   1      36.600  23.614  25.878  1.00  0.00     0.118 C 
ENDROOT
BRANCH   1   2
ATOM      2  N   UNL A   1      37.657  22.632  26.081  1.00  0.00    -0.352 N 
ATOM      3  O   UNL A   1      39.780  21.912  26.295  1.00  0.00    -0.269 OA
ATOM      4  C   UNL A   1      38.970  22.821  26.437  1.00  0.00     0.251 C 
ATOM      5  H   UNL A   1      37.389  21.693  25.944  1.00  0.00     0.163 HD
BRANCH   4   6
ATOM      6  C   UNL A   1      39.410  24.124  26.983  1.00  0.00     0.039 A 
ATOM      7  C   UNL A   1      39.248  24.419  28.338  1.00  0.00     0.014 A 
ATOM      8  C   UNL A   1      40.035  25.047  26.138  1.00  0.00     0.014 A 
ATOM      9  C   UNL A   1      39.566  25.683  28.817  1.00  0.00     0.010 A 
ATOM     10  C   UNL A   1      40.457  26.278  26.647  1.00  0.00     0.010 A 
ATOM     11  C   UNL A   1      40.204  26.615  27.985  1.00  0.00    -0.014 A 
BRANCH  11  12
ATOM     12  C   UNL A   1      40.669  27.899  28.568  1.00  0.00     0.031 A 
ATOM     13  C   UNL A   1      42.123  28.149  28.847  1.00  0.00     0.074 A 
ATOM     14  C   UNL A   1      39.754  28.854  28.825  1.00  0.00     0.049 A 
ATOM     15  N   UNL A   1      42.695  29.218  29.342  1.00  0.00    -0.248 NA
ATOM     16  C   UNL A   1      43.055  27.056  28.542  1.00  0.00     0.031 C 
ATOM     17  C   UNL A   1      38.313  28.718  28.603  1.00  0.00     0.029 A 
ATOM     18  N   UNL A   1      39.896  30.131  29.304  1.00  0.00    -0.354 N 
ATOM     19  C   UNL A   1      44.048  28.919  29.430  1.00  0.00     0.074 A 
ATOM     20  C   UNL A   1      44.208  27.558  28.963  1.00  0.00     0.031 C 
ATOM     21  C   UNL A   1      37.711  29.881  28.890  1.00  0.00     0.029 A 
ATOM     22  C   UNL A   1      38.710  30.818  29.385  1.00  0.00     0.049 A 
ATOM     23  H   UNL A   1      40.763  30.517  29.566  1.00  0.00     0.167 HD
ATOM     24  C   UNL A   1      45.061  29.713  29.858  1.00  0.00     0.037 A 
ATOM     25  C   UNL A   1      38.451  32.062  29.824  1.00  0.00     0.037 A 
ATOM     26  C   UNL A   1      44.889  31.071  30.310  1.00  0.00     0.049 A 
ATOM     27  C   UNL A   1      39.587  32.908  30.320  1.00  0.00     0.074 A 
ATOM     28  C   UNL A   1      45.855  31.971  30.726  1.00  0.00     0.029 A 
ATOM     29  N   UNL A   1      43.667  31.722  30.415  1.00  0.00    -0.354 N 
ATOM     30  N   UNL A   1      40.867  32.628  30.367  1.00  0.00    -0.248 NA
ATOM     31  C   UNL A   1      39.243  34.241  30.829  1.00  0.00     0.031 C 
ATOM     32  C   UNL A   1      45.212  33.146  31.134  1.00  0.00     0.029 A 
ATOM     33  C   UNL A   1      43.851  33.002  30.915  1.00  0.00     0.049 A 
ATOM     34  H   UNL A   1      42.797  31.332  30.169  1.00  0.00     0.167 HD
ATOM     35  C   UNL A   1      41.485  33.754  30.889  1.00  0.00     0.074 A 
ATOM     36  C   UNL A   1      40.439  34.728  31.128  1.00  0.00     0.031 C 
ATOM     37  C   UNL A   1      42.800  33.960  31.147  1.00  0.00     0.037 A 
BRANCH  24  38
ATOM     38  C   UNL A   1      46.441  29.119  29.886  1.00  0.00     0.064 A 
ATOM     39  C   UNL A   1      46.949  28.469  31.021  1.00  0.00     0.173 A 
ATOM     40  C   UNL A   1      47.265  29.187  28.751  1.00  0.00     0.173 A 
ATOM     41  F   UNL A   1      46.209  28.384  32.137  1.00  0.00    -0.203 F 
ATOM     42  C   UNL A   1      48.238  27.943  31.031  1.00  0.00     0.198 A 
ATOM     43  C   UNL A   1      48.543  28.633  28.754  1.00  0.00     0.198 A 
ATOM     44  F   UNL A   1      46.830  29.791  27.635  1.00  0.00    -0.203 F 
ATOM     45  F   UNL A   1      48.722  27.378  32.147  1.00  0.00    -0.200 F 
ATOM     46  C   UNL A   1      49.033  28.021  29.897  1.00  0.00     0.200 A 
ATOM     47  F   UNL A   1      49.302  28.697  27.652  1.00  0.00    -0.200 F 
ATOM     48  F   UNL A   1      50.274  27.515  29.909  1.00  0.00    -0.200 F 
ENDBRANCH  24  38
BRANCH  25  49
ATOM     49  C   UNL A   1      37.057  32.573  29.802  1.00  0.00     0.064 A 
ATOM     50  C   UNL A   1      36.209  32.397  30.904  1.00  0.00     0.173 A 
ATOM     51  C   UNL A   1      36.556  33.277  28.697  1.00  0.00     0.173 A 
ATOM     52  F   UNL A   1      36.639  31.716  31.976  1.00  0.00    -0.203 F 
ATOM     53  C   UNL A   1      34.911  32.901  30.898  1.00  0.00     0.198 A 
ATOM     54  C   UNL A   1      35.268  33.806  28.704  1.00  0.00     0.198 A 
ATOM     55  F   UNL A   1      37.331  33.479  27.621  1.00  0.00    -0.203 F 
ATOM     56  F   UNL A   1      34.110  32.692  31.951  1.00  0.00    -0.200 F 
ATOM     57  C   UNL A   1      34.445  33.613  29.803  1.00  0.00     0.200 A 
ATOM     58  F   UNL A   1      34.829  34.511  27.653  1.00  0.00    -0.200 F 
ATOM     59  F   UNL A   1      33.200  34.110  29.805  1.00  0.00    -0.200 F 
ENDBRANCH  25  49
BRANCH  37  60
ATOM     60  C   UNL A   1      43.183  35.309  31.683  1.00  0.00     0.064 A 
ATOM     61  C   UNL A   1      43.124  35.603  33.054  1.00  0.00     0.173 A 
ATOM     62  C   UNL A   1      43.637  36.313  30.814  1.00  0.00     0.173 A 
ATOM     63  F   UNL A   1      42.679  34.685  33.923  1.00  0.00    -0.203 F 
ATOM     64  C   UNL A   1      43.478  36.864  33.530  1.00  0.00     0.198 A 
ATOM     65  C   UNL A   1      44.021  37.561  31.298  1.00  0.00     0.198 A 
ATOM     66  F   UNL A   1      43.716  36.081  29.496  1.00  0.00    -0.203 F 
ATOM     67  F   UNL A   1      43.362  37.140  34.837  1.00  0.00    -0.200 F 
ATOM     68  C   UNL A   1      43.933  37.838  32.654  1.00  0.00     0.200 A 
ATOM     69  F   UNL A   1      44.472  38.495  30.451  1.00  0.00    -0.200 F 
ATOM     70  F   UNL A   1      44.277  39.048  33.114  1.00  0.00    -0.200 F 
ENDBRANCH  37  60
ENDBRANCH  11  12
ENDBRANCH   4   6
ENDBRANCH   1   2
BRANCH   1  71
ATOM     71  C   UNL A   1      36.412  23.933  24.405  1.00  0.00     0.042 C 
BRANCH  71  72
ATOM     72  C   UNL A   1      35.381  23.034  23.744  1.00  0.00     0.117 C 
BRANCH  72  73
ATOM     73  N   UNL A   1      34.281  23.785  23.146  1.00  0.00    -0.355 N 
ATOM     74  C   UNL A   1      33.092  24.301  23.568  1.00  0.00     0.231 C 
ATOM     75  H   UNL A   1      34.438  23.966  22.191  1.00  0.00     0.163 HD
ATOM     76  O   UNL A   1      32.468  24.875  22.664  1.00  0.00    -0.274 OA
BRANCH  74  77
ATOM     77  C   UNL A   1      32.512  24.213  25.037  1.00  0.00     0.084 C 
ATOM     78  C   UNL A   1      30.974  23.987  24.862  1.00  0.00     0.064 C 
ATOM     79  C   UNL A   1      32.662  25.579  25.750  1.00  0.00     0.010 A 
ATOM     80  C   UNL A   1      30.165  24.332  26.096  1.00  0.00     0.231 C 
ATOM     81  C   UNL A   1      31.576  26.195  26.396  1.00  0.00     0.123 A 
ATOM     82  C   UNL A   1      33.855  26.327  25.712  1.00  0.00     0.009 A 
ATOM     83  O   UNL A   1      30.310  25.689  26.475  1.00  0.00    -0.493 OA
ATOM     84  C   UNL A   1      31.689  27.472  26.968  1.00  0.00     0.047 A 
ATOM     85  C   UNL A   1      33.971  27.601  26.280  1.00  0.00     0.001 A 
ATOM     86  C   UNL A   1      32.884  28.176  26.912  1.00  0.00     0.004 A 
BRANCH  77  87
ATOM     87  C   UNL A   1      33.188  23.007  25.779  1.00  0.00     0.009 C 
ATOM     88  C   UNL A   1      33.254  22.942  27.307  1.00  0.00     0.005 C 
ATOM     89  C   UNL A   1      32.575  21.622  25.491  1.00  0.00     0.005 C 
ATOM     90  C   UNL A   1      33.848  21.552  27.562  1.00  0.00     0.000 C 
ATOM     91  C   UNL A   1      33.351  20.678  26.408  1.00  0.00     0.000 C 
ENDBRANCH  77  87
ENDBRANCH  74  77
ENDBRANCH  72  73
ENDBRANCH  71  72
ENDBRANCH   1  71
TORSDOF 11
ENDMDL
MODEL 2
REMARK VINA RESULT:     -12.1      0.115      1.615
REMARK SMILES O=C(NCCCNC(=O)[C@]1(C2CCCC2)CCOc2ccccc21)c1ccc(-c2c3nc(c(-c4c(F)c(F)c(F)c(F)c4F)c4ccc([nH]4)c(-c4c(F)c(F)c(F)c(F)c4F)c4nc(c(-c5c(F)c(F)c(F)c(F)c5F)c5ccc2[nH]5)C=C4)C=C3)cc1
REMARK SMILES IDX 4 1 3 2 1 3 2 4 25 6 26 7 87 8 27 9 86 10 28 11 29 12 30 13
REMARK SMILES IDX 80 14 31 15 85 16 79 17 81 18 32 19 84 20 78 21 77 22 33 24
REMARK SMILES IDX 65 25 45 26 64 27 46 28 49 29 63 30 82 31 47 32 48 33 62 35
REMARK SMILES IDX 83 36 50 37 34 38 35 39 43 40 36 41 37 42 41 43 44 44 38 45
REMARK SMILES IDX 39 46 42 47 40 48 66 49 67 50 75 51 68 52 69 53 73 54 76 55
REMARK SMILES IDX 70 56 71 57 74 58 72 59 51 60 52 61 60 62 53 63 54 64 58 65
REMARK SMILES IDX 61 66 55 67 56 68 59 69 57 70 5 71 6 72 7 73 8 74 9 76 10 77
REMARK SMILES IDX 16 78 24 79 17 80 19 81 23 82 18 83 20 84 22 85 21 86 11 87
REMARK SMILES IDX 12 88 15 89 13 90 14 91
REMARK H PARENT 3 5 81 23 49 34 7 75
REMARK Flexibility Score: inf
ROOT
ATOM      1  C   UNL A   1      36.715  23.719  25.535  1.00  0.00     0.118 C 
ENDROOT
BRANCH   1   2
ATOM      2  N   UNL A   1      37.692  22.696  25.883  1.00  0.00    -0.352 N 
ATOM      3  O   UNL A   1      39.739  21.886  26.356  1.00  0.00    -0.269 OA
ATOM      4  C   UNL A   1      38.964  22.836  26.380  1.00  0.00     0.251 C 
ATOM      5  H   UNL A   1      37.395  21.767  25.741  1.00  0.00     0.163 HD
BRANCH   4   6
ATOM      6  C   UNL A   1      39.405  24.134  26.937  1.00  0.00     0.039 A 
ATOM      7  C   UNL A   1      39.226  24.424  28.291  1.00  0.00     0.014 A 
ATOM      8  C   UNL A   1      40.047  25.056  26.105  1.00  0.00     0.014 A 
ATOM      9  C   UNL A   1      39.544  25.685  28.779  1.00  0.00     0.010 A 
ATOM     10  C   UNL A   1      40.470  26.283  26.625  1.00  0.00     0.010 A 
ATOM     11  C   UNL A   1      40.200  26.616  27.961  1.00  0.00    -0.014 A 
BRANCH  11  12
ATOM     12  C   UNL A   1      40.664  27.895  28.555  1.00  0.00     0.031 A 
ATOM     13  C   UNL A   1      42.117  28.139  28.847  1.00  0.00     0.074 A 
ATOM     14  C   UNL A   1      39.751  28.852  28.810  1.00  0.00     0.049 A 
ATOM     15  N   UNL A   1      42.688  29.202  29.354  1.00  0.00    -0.248 NA
ATOM     16  C   UNL A   1      43.048  27.044  28.543  1.00  0.00     0.031 C 
ATOM     17  C   UNL A   1      38.311  28.722  28.576  1.00  0.00     0.029 A 
ATOM     18  N   UNL A   1      39.893  30.125  29.299  1.00  0.00    -0.354 N 
ATOM     19  C   UNL A   1      44.040  28.898  29.451  1.00  0.00     0.074 A 
ATOM     20  C   UNL A   1      44.199  27.539  28.976  1.00  0.00     0.031 C 
ATOM     21  C   UNL A   1      37.711  29.885  28.865  1.00  0.00     0.029 A 
ATOM     22  C   UNL A   1      38.709  30.816  29.374  1.00  0.00     0.049 A 
ATOM     23  H   UNL A   1      40.759  30.506  29.570  1.00  0.00     0.167 HD
ATOM     24  C   UNL A   1      45.052  29.686  29.891  1.00  0.00     0.037 A 
ATOM     25  C   UNL A   1      38.450  32.058  29.819  1.00  0.00     0.037 A 
ATOM     26  C   UNL A   1      44.881  31.042  30.350  1.00  0.00     0.049 A 
ATOM     27  C   UNL A   1      39.585  32.897  30.329  1.00  0.00     0.074 A 
ATOM     28  C   UNL A   1      45.846  31.936  30.779  1.00  0.00     0.029 A 
ATOM     29  N   UNL A   1      43.660  31.696  30.449  1.00  0.00    -0.354 N 
ATOM     30  N   UNL A   1      40.863  32.612  30.384  1.00  0.00    -0.248 NA
ATOM     31  C   UNL A   1      39.241  34.228  30.843  1.00  0.00     0.031 C 
ATOM     32  C   UNL A   1      45.204  33.111  31.189  1.00  0.00     0.029 A 
ATOM     33  C   UNL A   1      43.844  32.973  30.959  1.00  0.00     0.049 A 
ATOM     34  H   UNL A   1      42.791  31.311  30.194  1.00  0.00     0.167 HD
ATOM     35  C   UNL A   1      41.481  33.733  30.918  1.00  0.00     0.074 A 
ATOM     36  C   UNL A   1      40.436  34.709  31.155  1.00  0.00     0.031 C 
ATOM     37  C   UNL A   1      42.795  33.933  31.188  1.00  0.00     0.037 A 
BRANCH  24  38
ATOM     38  C   UNL A   1      46.430  29.088  29.927  1.00  0.00     0.064 A 
ATOM     39  C   UNL A   1      47.303  29.165  28.831  1.00  0.00     0.173 A 
ATOM     40  C   UNL A   1      46.893  28.443  31.085  1.00  0.00     0.173 A 
ATOM     41  F   UNL A   1      46.909  29.761  27.695  1.00  0.00    -0.203 F 
ATOM     42  C   UNL A   1      48.569  28.587  28.878  1.00  0.00     0.198 A 
ATOM     43  C   UNL A   1      48.172  27.893  31.141  1.00  0.00     0.198 A 
ATOM     44  F   UNL A   1      46.105  28.346  32.166  1.00  0.00    -0.203 F 
ATOM     45  F   UNL A   1      49.362  28.622  27.798  1.00  0.00    -0.200 F 
ATOM     46  C   UNL A   1      49.005  27.956  30.034  1.00  0.00     0.200 A 
ATOM     47  F   UNL A   1      48.595  27.297  32.263  1.00  0.00    -0.200 F 
ATOM     48  F   UNL A   1      50.223  27.400  30.078  1.00  0.00    -0.200 F 
ENDBRANCH  24  38
BRANCH  25  49
ATOM     49  C   UNL A   1      37.058  32.573  29.788  1.00  0.00     0.064 A 
ATOM     50  C   UNL A   1      36.195  32.377  30.875  1.00  0.00     0.173 A 
ATOM     51  C   UNL A   1      36.575  33.302  28.692  1.00  0.00     0.173 A 
ATOM     52  F   UNL A   1      36.608  31.673  31.939  1.00  0.00    -0.203 F 
ATOM     53  C   UNL A   1      34.898  32.885  30.862  1.00  0.00     0.198 A 
ATOM     54  C   UNL A   1      35.287  33.835  28.693  1.00  0.00     0.198 A 
ATOM     55  F   UNL A   1      37.365  33.524  27.631  1.00  0.00    -0.203 F 
ATOM     56  F   UNL A   1      34.082  32.657  31.900  1.00  0.00    -0.200 F 
ATOM     57  C   UNL A   1      34.449  33.622  29.776  1.00  0.00     0.200 A 
ATOM     58  F   UNL A   1      34.865  34.563  27.651  1.00  0.00    -0.200 F 
ATOM     59  F   UNL A   1      33.206  34.123  29.772  1.00  0.00    -0.200 F 
ENDBRANCH  25  49
BRANCH  37  60
ATOM     60  C   UNL A   1      43.178  35.278  31.736  1.00  0.00     0.064 A 
ATOM     61  C   UNL A   1      43.615  36.318  30.901  1.00  0.00     0.173 A 
ATOM     62  C   UNL A   1      43.086  35.533  33.112  1.00  0.00     0.173 A 
ATOM     63  F   UNL A   1      43.739  36.119  29.581  1.00  0.00    -0.203 F 
ATOM     64  C   UNL A   1      43.972  37.556  31.430  1.00  0.00     0.198 A 
ATOM     65  C   UNL A   1      43.412  36.782  33.633  1.00  0.00     0.198 A 
ATOM     66  F   UNL A   1      42.670  34.574  33.952  1.00  0.00    -0.203 F 
ATOM     67  F   UNL A   1      44.439  38.518  30.621  1.00  0.00    -0.200 F 
ATOM     68  C   UNL A   1      43.864  37.789  32.793  1.00  0.00     0.200 A 
ATOM     69  F   UNL A   1      43.295  37.009  34.948  1.00  0.00    -0.200 F 
ATOM     70  F   UNL A   1      44.204  38.982  33.300  1.00  0.00    -0.200 F 
ENDBRANCH  37  60
ENDBRANCH  11  12
ENDBRANCH   4   6
ENDBRANCH   1   2
BRANCH   1  71
ATOM     71  C   UNL A   1      36.481  23.779  24.036  1.00  0.00     0.042 C 
BRANCH  71  72
ATOM     72  C   UNL A   1      35.278  22.958  23.602  1.00  0.00     0.117 C 
BRANCH  72  73
ATOM     73  N   UNL A   1      34.200  23.781  23.063  1.00  0.00    -0.355 N 
ATOM     74  C   UNL A   1      33.060  24.355  23.543  1.00  0.00     0.231 C 
ATOM     75  H   UNL A   1      34.328  23.970  22.106  1.00  0.00     0.163 HD
ATOM     76  O   UNL A   1      32.435  24.981  22.675  1.00  0.00    -0.274 OA
BRANCH  74  77
ATOM     77  C   UNL A   1      32.537  24.272  25.033  1.00  0.00     0.084 C 
ATOM     78  C   UNL A   1      30.994  24.046  24.918  1.00  0.00     0.064 C 
ATOM     79  C   UNL A   1      32.712  25.641  25.735  1.00  0.00     0.010 A 
ATOM     80  C   UNL A   1      30.231  24.394  26.180  1.00  0.00     0.231 C 
ATOM     81  C   UNL A   1      31.651  26.259  26.419  1.00  0.00     0.123 A 
ATOM     82  C   UNL A   1      33.902  26.390  25.649  1.00  0.00     0.009 A 
ATOM     83  O   UNL A   1      30.390  25.753  26.548  1.00  0.00    -0.493 OA
ATOM     84  C   UNL A   1      31.785  27.539  26.982  1.00  0.00     0.047 A 
ATOM     85  C   UNL A   1      34.039  27.666  26.207  1.00  0.00     0.001 A 
ATOM     86  C   UNL A   1      32.977  28.244  26.878  1.00  0.00     0.004 A 
BRANCH  77  87
ATOM     87  C   UNL A   1      33.241  23.070  25.753  1.00  0.00     0.009 C 
ATOM     88  C   UNL A   1      33.444  23.053  27.271  1.00  0.00     0.005 C 
ATOM     89  C   UNL A   1      32.563  21.697  25.571  1.00  0.00     0.005 C 
ATOM     90  C   UNL A   1      34.017  21.653  27.521  1.00  0.00     0.000 C 
ATOM     91  C   UNL A   1      33.391  20.759  26.447  1.00  0.00     0.000 C 
ENDBRANCH  77  87
ENDBRANCH  74  77
ENDBRANCH  72  73
ENDBRANCH  71  72
ENDBRANCH   1  71
TORSDOF 11
ENDMDL
MODEL 3
REMARK VINA RESULT:     -12.0      3.452      8.608
REMARK SMILES O=C(NCCCNC(=O)[C@]1(C2CCCC2)CCOc2ccccc21)c1ccc(-c2c3nc(c(-c4c(F)c(F)c(F)c(F)c4F)c4ccc([nH]4)c(-c4c(F)c(F)c(F)c(F)c4F)c4nc(c(-c5c(F)c(F)c(F)c(F)c5F)c5ccc2[nH]5)C=C4)C=C3)cc1
REMARK SMILES IDX 4 1 3 2 1 3 2 4 25 6 26 7 87 8 27 9 86 10 28 11 29 12 30 13
REMARK SMILES IDX 80 14 31 15 85 16 79 17 81 18 32 19 84 20 78 21 77 22 33 24
REMARK SMILES IDX 65 25 45 26 64 27 46 28 49 29 63 30 82 31 47 32 48 33 62 35
REMARK SMILES IDX 83 36 50 37 34 38 35 39 43 40 36 41 37 42 41 43 44 44 38 45
REMARK SMILES IDX 39 46 42 47 40 48 66 49 67 50 75 51 68 52 69 53 73 54 76 55
REMARK SMILES IDX 70 56 71 57 74 58 72 59 51 60 52 61 60 62 53 63 54 64 58 65
REMARK SMILES IDX 61 66 55 67 56 68 59 69 57 70 5 71 6 72 7 73 8 74 9 76 10 77
REMARK SMILES IDX 16 78 24 79 17 80 19 81 23 82 18 83 20 84 22 85 21 86 11 87
REMARK SMILES IDX 12 88 15 89 13 90 14 91
REMARK H PARENT 3 5 81 23 49 34 7 75
REMARK Flexibility Score: inf
ROOT
ATOM      1  C   UNL A   1      34.028  28.713  26.002  1.00  0.00     0.118 C 
ENDROOT
BRANCH   1   2
ATOM      2  N   UNL A   1      33.778  30.057  26.504  1.00  0.00    -0.352 N 
ATOM      3  O   UNL A   1      33.905  31.758  27.974  1.00  0.00    -0.269 OA
ATOM      4  C   UNL A   1      34.420  30.751  27.500  1.00  0.00     0.251 C 
ATOM      5  H   UNL A   1      33.040  30.539  26.063  1.00  0.00     0.163 HD
BRANCH   4   6
ATOM      6  C   UNL A   1      35.728  30.282  28.008  1.00  0.00     0.039 A 
ATOM      7  C   UNL A   1      36.888  30.453  27.251  1.00  0.00     0.014 A 
ATOM      8  C   UNL A   1      35.803  29.703  29.279  1.00  0.00     0.014 A 
ATOM      9  C   UNL A   1      38.089  29.913  27.690  1.00  0.00     0.010 A 
ATOM     10  C   UNL A   1      37.035  29.260  29.768  1.00  0.00     0.010 A 
ATOM     11  C   UNL A   1      38.184  29.340  28.966  1.00  0.00    -0.014 A 
BRANCH  11  12
ATOM     12  C   UNL A   1      39.515  28.912  29.466  1.00  0.00     0.031 A 
ATOM     13  C   UNL A   1      40.247  29.700  30.514  1.00  0.00     0.074 A 
ATOM     14  C   UNL A   1      40.050  27.778  28.972  1.00  0.00     0.049 A 
ATOM     15  N   UNL A   1      41.409  29.457  31.065  1.00  0.00    -0.248 NA
ATOM     16  C   UNL A   1      39.597  30.925  30.998  1.00  0.00     0.031 C 
ATOM     17  C   UNL A   1      39.434  26.937  27.944  1.00  0.00     0.029 A 
ATOM     18  N   UNL A   1      41.216  27.125  29.279  1.00  0.00    -0.354 N 
ATOM     19  C   UNL A   1      41.641  30.508  31.943  1.00  0.00     0.074 A 
ATOM     20  C   UNL A   1      40.510  31.406  31.830  1.00  0.00     0.031 C 
ATOM     21  C   UNL A   1      40.195  25.853  27.747  1.00  0.00     0.029 A 
ATOM     22  C   UNL A   1      41.388  25.958  28.577  1.00  0.00     0.049 A 
ATOM     23  H   UNL A   1      41.867  27.461  29.937  1.00  0.00     0.167 HD
ATOM     24  C   UNL A   1      42.699  30.700  32.768  1.00  0.00     0.037 A 
ATOM     25  C   UNL A   1      42.402  25.075  28.587  1.00  0.00     0.037 A 
ATOM     26  C   UNL A   1      43.814  29.791  32.880  1.00  0.00     0.049 A 
ATOM     27  C   UNL A   1      43.575  25.327  29.489  1.00  0.00     0.074 A 
ATOM     28  C   UNL A   1      44.915  29.874  33.714  1.00  0.00     0.029 A 
ATOM     29  N   UNL A   1      43.973  28.638  32.124  1.00  0.00    -0.354 N 
ATOM     30  N   UNL A   1      43.767  26.306  30.339  1.00  0.00    -0.248 NA
ATOM     31  C   UNL A   1      44.673  24.356  29.429  1.00  0.00     0.031 C 
ATOM     32  C   UNL A   1      45.766  28.801  33.425  1.00  0.00     0.029 A 
ATOM     33  C   UNL A   1      45.167  28.015  32.453  1.00  0.00     0.049 A 
ATOM     34  H   UNL A   1      43.331  28.309  31.454  1.00  0.00     0.167 HD
ATOM     35  C   UNL A   1      44.997  26.059  30.932  1.00  0.00     0.074 A 
ATOM     36  C   UNL A   1      45.497  24.828  30.354  1.00  0.00     0.031 C 
ATOM     37  C   UNL A   1      45.651  26.788  31.869  1.00  0.00     0.037 A 
BRANCH  24  38
ATOM     38  C   UNL A   1      42.716  31.956  33.594  1.00  0.00     0.064 A 
ATOM     39  C   UNL A   1      42.154  32.009  34.879  1.00  0.00     0.173 A 
ATOM     40  C   UNL A   1      43.322  33.121  33.098  1.00  0.00     0.173 A 
ATOM     41  F   UNL A   1      41.553  30.927  35.398  1.00  0.00    -0.203 F 
ATOM     42  C   UNL A   1      42.164  33.189  35.619  1.00  0.00     0.198 A 
ATOM     43  C   UNL A   1      43.357  34.291  33.853  1.00  0.00     0.198 A 
ATOM     44  F   UNL A   1      43.881  33.127  31.879  1.00  0.00    -0.203 F 
ATOM     45  F   UNL A   1      41.569  33.231  36.819  1.00  0.00    -0.200 F 
ATOM     46  C   UNL A   1      42.769  34.327  35.108  1.00  0.00     0.200 A 
ATOM     47  F   UNL A   1      43.956  35.386  33.363  1.00  0.00    -0.200 F 
ATOM     48  F   UNL A   1      42.777  35.462  35.821  1.00  0.00    -0.200 F 
ENDBRANCH  24  38
BRANCH  25  49
ATOM     49  C   UNL A   1      42.336  23.872  27.719  1.00  0.00     0.064 A 
ATOM     50  C   UNL A   1      42.734  23.932  26.377  1.00  0.00     0.173 A 
ATOM     51  C   UNL A   1      41.911  22.633  28.221  1.00  0.00     0.173 A 
ATOM     52  F   UNL A   1      43.133  25.098  25.849  1.00  0.00    -0.203 F 
ATOM     53  C   UNL A   1      42.703  22.798  25.568  1.00  0.00     0.198 A 
ATOM     54  C   UNL A   1      41.909  21.494  27.419  1.00  0.00     0.198 A 
ATOM     55  F   UNL A   1      41.528  22.522  29.501  1.00  0.00    -0.203 F 
ATOM     56  F   UNL A   1      43.059  22.889  24.279  1.00  0.00    -0.200 F 
ATOM     57  C   UNL A   1      42.299  21.579  26.092  1.00  0.00     0.200 A 
ATOM     58  F   UNL A   1      41.538  20.315  27.935  1.00  0.00    -0.200 F 
ATOM     59  F   UNL A   1      42.284  20.487  25.315  1.00  0.00    -0.200 F 
ENDBRANCH  25  49
BRANCH  37  60
ATOM     60  C   UNL A   1      46.965  26.248  32.355  1.00  0.00     0.064 A 
ATOM     61  C   UNL A   1      47.039  25.313  33.399  1.00  0.00     0.173 A 
ATOM     62  C   UNL A   1      48.164  26.656  31.752  1.00  0.00     0.173 A 
ATOM     63  F   UNL A   1      45.923  24.906  34.021  1.00  0.00    -0.203 F 
ATOM     64  C   UNL A   1      48.268  24.829  33.839  1.00  0.00     0.198 A 
ATOM     65  C   UNL A   1      49.389  26.145  32.173  1.00  0.00     0.198 A 
ATOM     66  F   UNL A   1      48.148  27.544  30.748  1.00  0.00    -0.203 F 
ATOM     67  F   UNL A   1      48.319  23.979  34.874  1.00  0.00    -0.200 F 
ATOM     68  C   UNL A   1      49.440  25.240  33.222  1.00  0.00     0.200 A 
ATOM     69  F   UNL A   1      50.518  26.534  31.567  1.00  0.00    -0.200 F 
ATOM     70  F   UNL A   1      50.622  24.770  33.644  1.00  0.00    -0.200 F 
ENDBRANCH  37  60
ENDBRANCH  11  12
ENDBRANCH   4   6
ENDBRANCH   1   2
BRANCH   1  71
ATOM     71  C   UNL A   1      33.367  27.660  26.876  1.00  0.00     0.042 C 
BRANCH  71  72
ATOM     72  C   UNL A   1      31.940  27.363  26.448  1.00  0.00     0.117 C 
BRANCH  72  73
ATOM     73  N   UNL A   1      31.487  26.044  26.876  1.00  0.00    -0.355 N 
ATOM     74  C   UNL A   1      31.508  24.779  26.368  1.00  0.00     0.231 C 
ATOM     75  H   UNL A   1      31.056  26.074  27.760  1.00  0.00     0.163 HD
ATOM     76  O   UNL A   1      30.977  23.949  27.120  1.00  0.00    -0.274 OA
BRANCH  74  77
ATOM     77  C   UNL A   1      32.126  24.348  24.978  1.00  0.00     0.084 C 
ATOM     78  C   UNL A   1      31.109  23.328  24.369  1.00  0.00     0.064 C 
ATOM     79  C   UNL A   1      33.437  23.556  25.202  1.00  0.00     0.010 A 
ATOM     80  C   UNL A   1      31.701  22.450  23.286  1.00  0.00     0.231 C 
ATOM     81  C   UNL A   1      33.658  22.309  24.590  1.00  0.00     0.123 A 
ATOM     82  C   UNL A   1      34.436  23.982  26.100  1.00  0.00     0.009 A 
ATOM     83  O   UNL A   1      32.786  21.670  23.757  1.00  0.00    -0.493 OA
ATOM     84  C   UNL A   1      34.809  21.552  24.861  1.00  0.00     0.047 A 
ATOM     85  C   UNL A   1      35.584  23.228  26.373  1.00  0.00     0.001 A 
ATOM     86  C   UNL A   1      35.773  22.008  25.750  1.00  0.00     0.004 A 
BRANCH  77  87
ATOM     87  C   UNL A   1      32.275  25.620  24.072  1.00  0.00     0.009 C 
ATOM     88  C   UNL A   1      33.416  25.753  23.060  1.00  0.00     0.005 C 
ATOM     89  C   UNL A   1      31.078  25.919  23.147  1.00  0.00     0.005 C 
ATOM     90  C   UNL A   1      33.067  27.053  22.324  1.00  0.00     0.000 C 
ATOM     91  C   UNL A   1      31.537  27.125  22.329  1.00  0.00     0.000 C 
ENDBRANCH  77  87
ENDBRANCH  74  77
ENDBRANCH  72  73
ENDBRANCH  71  72
ENDBRANCH   1  71
TORSDOF 11
ENDMDL
