MODEL 1
REMARK VINA RESULT:     -11.8      0.000      0.000
REMARK SMILES CC(C)CCOc1ccccc1-c1cc(C(=O)NCCCNC(=O)c2ccc(-c3c4nc(c(-c5c(F)c(F)c(F)c(F)c5F)c5ccc([nH]5)c(-c5c(F)c(F)c(F)c(F)c5F)c5nc(c(-c6c(F)c(F)c(F)c(F)c6F)c6ccc3[nH]6)C=C5)C=C4)cc2)no1
REMARK SMILES IDX 16 1 17 2 18 3 15 5 13 6 14 7 89 8 88 9 12 10 7 11 8 12 9 13
REMARK SMILES IDX 11 14 10 15 6 16 5 17 4 18 2 19 1 20 3 21 19 22 20 23 21 24
REMARK SMILES IDX 22 25 23 26 24 28 25 29 26 30 87 31 27 32 86 33 28 34 29 35
REMARK SMILES IDX 30 36 80 37 31 38 85 39 79 40 81 41 32 42 84 43 78 44 77 45
REMARK SMILES IDX 33 47 65 48 45 49 64 50 46 51 49 52 63 53 82 54 47 55 48 56
REMARK SMILES IDX 62 58 83 59 50 60 34 61 35 62 43 63 36 64 37 65 41 66 44 67
REMARK SMILES IDX 38 68 39 69 42 70 40 71 66 72 67 73 75 74 68 75 69 76 73 77
REMARK SMILES IDX 76 78 70 79 71 80 74 81 72 82 51 83 52 84 60 85 53 86 54 87
REMARK SMILES IDX 58 88 61 89 55 90 56 91 59 92 57 93
REMARK H PARENT 18 4 22 27 81 46 49 57
REMARK Flexibility Score: inf
ROOT
ATOM      1  C   UNL A   1      33.537  24.046  22.780  1.00  0.00     0.273 C 
ATOM      2  O   UNL A   1      33.120  24.287  21.648  1.00  0.00    -0.267 OA
ATOM      3  N   UNL A   1      34.323  22.917  22.919  1.00  0.00    -0.351 N 
ATOM      4  H   UNL A   1      34.304  22.325  22.133  1.00  0.00     0.163 HD
ENDROOT
BRANCH   1   5
ATOM      5  C   UNL A   1      33.177  24.879  23.940  1.00  0.00     0.171 A 
ATOM      6  C   UNL A   1      33.489  26.984  25.899  1.00  0.00     0.171 A 
ATOM      7  C   UNL A   1      34.061  26.404  24.495  1.00  0.00     0.088 A 
ATOM      8  O   UNL A   1      32.171  25.781  26.510  1.00  0.00    -0.355 OA
ATOM      9  N   UNL A   1      32.022  24.382  25.070  1.00  0.00    -0.074 NA
BRANCH   6  10
ATOM     10  C   UNL A   1      33.399  28.364  26.341  1.00  0.00     0.062 A 
ATOM     11  C   UNL A   1      32.301  29.129  25.872  1.00  0.00     0.130 A 
ATOM     12  C   UNL A   1      32.109  30.427  26.324  1.00  0.00     0.047 A 
ATOM     13  C   UNL A   1      33.011  30.968  27.240  1.00  0.00     0.004 A 
ATOM     14  C   UNL A   1      34.300  28.910  27.249  1.00  0.00     0.016 A 
ATOM     15  C   UNL A   1      34.108  30.220  27.687  1.00  0.00     0.001 A 
BRANCH  11  16
ATOM     16  O   UNL A   1      31.461  28.666  24.878  1.00  0.00    -0.493 OA
BRANCH  16  17
ATOM     17  C   UNL A   1      30.967  29.683  23.987  1.00  0.00     0.230 C 
BRANCH  17  18
ATOM     18  C   UNL A   1      30.114  29.097  22.832  1.00  0.00     0.044 C 
BRANCH  18  19
ATOM     19  C   UNL A   1      28.510  29.590  22.934  1.00  0.00    -0.014 C 
ATOM     20  C   UNL A   1      27.762  28.038  23.325  1.00  0.00     0.007 C 
ATOM     21  C   UNL A   1      27.486  31.543  23.466  1.00  0.00     0.007 C 
ENDBRANCH  18  19
ENDBRANCH  17  18
ENDBRANCH  16  17
ENDBRANCH  11  16
ENDBRANCH   6  10
ENDBRANCH   1   5
BRANCH   3  22
ATOM     22  C   UNL A   1      35.171  22.434  23.994  1.00  0.00     0.118 C 
BRANCH  22  23
ATOM     23  C   UNL A   1      36.378  23.324  24.270  1.00  0.00     0.042 C 
BRANCH  23  24
ATOM     24  C   UNL A   1      36.788  23.336  25.734  1.00  0.00     0.118 C 
BRANCH  24  25
ATOM     25  N   UNL A   1      37.912  22.443  25.994  1.00  0.00    -0.352 N 
ATOM     26  C   UNL A   1      39.193  22.716  26.397  1.00  0.00     0.251 C 
ATOM     27  H   UNL A   1      37.718  21.487  25.857  1.00  0.00     0.163 HD
ATOM     28  O   UNL A   1      40.050  21.841  26.326  1.00  0.00    -0.269 OA
BRANCH  26  29
ATOM     29  C   UNL A   1      39.542  24.053  26.913  1.00  0.00     0.039 A 
ATOM     30  C   UNL A   1      39.232  24.367  28.238  1.00  0.00     0.014 A 
ATOM     31  C   UNL A   1      40.137  25.007  26.085  1.00  0.00     0.014 A 
ATOM     32  C   UNL A   1      39.567  25.623  28.744  1.00  0.00     0.010 A 
ATOM     33  C   UNL A   1      40.560  26.218  26.617  1.00  0.00     0.010 A 
ATOM     34  C   UNL A   1      40.264  26.545  27.947  1.00  0.00    -0.014 A 
BRANCH  34  35
ATOM     35  C   UNL A   1      40.676  27.866  28.481  1.00  0.00     0.031 A 
ATOM     36  C   UNL A   1      42.117  28.120  28.828  1.00  0.00     0.074 A 
ATOM     37  C   UNL A   1      39.745  28.815  28.698  1.00  0.00     0.049 A 
ATOM     38  N   UNL A   1      42.665  29.182  29.363  1.00  0.00    -0.248 NA
ATOM     39  C   UNL A   1      43.068  27.028  28.563  1.00  0.00     0.031 C 
ATOM     40  C   UNL A   1      38.313  28.670  28.435  1.00  0.00     0.029 A 
ATOM     41  N   UNL A   1      39.863  30.088  29.195  1.00  0.00    -0.354 N 
ATOM     42  C   UNL A   1      44.013  28.883  29.500  1.00  0.00     0.074 A 
ATOM     43  C   UNL A   1      44.193  27.518  29.062  1.00  0.00     0.031 C 
ATOM     44  C   UNL A   1      37.690  29.818  28.741  1.00  0.00     0.029 A 
ATOM     45  C   UNL A   1      38.668  30.761  29.273  1.00  0.00     0.049 A 
ATOM     46  H   UNL A   1      40.723  30.481  29.470  1.00  0.00     0.167 HD
ATOM     47  C   UNL A   1      45.017  29.685  29.927  1.00  0.00     0.037 A 
ATOM     48  C   UNL A   1      38.393  31.994  29.739  1.00  0.00     0.037 A 
ATOM     49  C   UNL A   1      44.831  31.047  30.356  1.00  0.00     0.049 A 
ATOM     50  C   UNL A   1      39.523  32.844  30.258  1.00  0.00     0.074 A 
ATOM     51  C   UNL A   1      45.786  31.956  30.773  1.00  0.00     0.029 A 
ATOM     52  N   UNL A   1      43.605  31.691  30.430  1.00  0.00    -0.354 N 
ATOM     53  N   UNL A   1      40.805  32.574  30.323  1.00  0.00    -0.248 NA
ATOM     54  C   UNL A   1      39.168  34.177  30.763  1.00  0.00     0.031 C 
ATOM     55  C   UNL A   1      45.132  33.126  31.167  1.00  0.00     0.029 A 
ATOM     56  C   UNL A   1      43.776  32.977  30.916  1.00  0.00     0.049 A 
ATOM     57  H   UNL A   1      42.740  31.294  30.176  1.00  0.00     0.167 HD
ATOM     58  C   UNL A   1      41.411  33.714  30.834  1.00  0.00     0.074 A 
ATOM     59  C   UNL A   1      40.358  34.685  31.045  1.00  0.00     0.031 C 
ATOM     60  C   UNL A   1      42.720  33.939  31.104  1.00  0.00     0.037 A 
BRANCH  47  61
ATOM     61  C   UNL A   1      46.408  29.116  29.951  1.00  0.00     0.064 A 
ATOM     62  C   UNL A   1      47.271  29.233  28.851  1.00  0.00     0.173 A 
ATOM     63  C   UNL A   1      46.901  28.490  31.106  1.00  0.00     0.173 A 
ATOM     64  F   UNL A   1      46.849  29.813  27.718  1.00  0.00    -0.203 F 
ATOM     65  C   UNL A   1      48.565  28.720  28.896  1.00  0.00     0.198 A 
ATOM     66  C   UNL A   1      48.208  28.013  31.161  1.00  0.00     0.198 A 
ATOM     67  F   UNL A   1      46.121  28.355  32.189  1.00  0.00    -0.203 F 
ATOM     68  F   UNL A   1      49.353  28.798  27.815  1.00  0.00    -0.200 F 
ATOM     69  C   UNL A   1      49.035  28.121  30.054  1.00  0.00     0.200 A 
ATOM     70  F   UNL A   1      48.666  27.450  32.288  1.00  0.00    -0.200 F 
ATOM     71  F   UNL A   1      50.286  27.642  30.102  1.00  0.00    -0.200 F 
ENDBRANCH  47  61
BRANCH  48  72
ATOM     72  C   UNL A   1      36.996  32.507  29.735  1.00  0.00     0.064 A 
ATOM     73  C   UNL A   1      36.485  33.206  28.632  1.00  0.00     0.173 A 
ATOM     74  C   UNL A   1      36.157  32.351  30.850  1.00  0.00     0.173 A 
ATOM     75  F   UNL A   1      37.251  33.396  27.547  1.00  0.00    -0.203 F 
ATOM     76  C   UNL A   1      35.210  33.766  28.659  1.00  0.00     0.198 A 
ATOM     77  C   UNL A   1      34.866  32.876  30.860  1.00  0.00     0.198 A 
ATOM     78  F   UNL A   1      36.589  31.683  31.930  1.00  0.00    -0.203 F 
ATOM     79  F   UNL A   1      34.777  34.493  27.620  1.00  0.00    -0.200 F 
ATOM     80  C   UNL A   1      34.400  33.597  29.772  1.00  0.00     0.200 A 
ATOM     81  F   UNL A   1      34.080  32.691  31.930  1.00  0.00    -0.200 F 
ATOM     82  F   UNL A   1      33.176  34.141  29.801  1.00  0.00    -0.200 F 
ENDBRANCH  48  72
BRANCH  60  83
ATOM     83  C   UNL A   1      43.101  35.307  31.598  1.00  0.00     0.064 A 
ATOM     84  C   UNL A   1      43.041  35.653  32.956  1.00  0.00     0.173 A 
ATOM     85  C   UNL A   1      43.569  36.276  30.696  1.00  0.00     0.173 A 
ATOM     86  F   UNL A   1      42.592  34.769  33.859  1.00  0.00    -0.203 F 
ATOM     87  C   UNL A   1      43.399  36.928  33.387  1.00  0.00     0.198 A 
ATOM     88  C   UNL A   1      43.966  37.535  31.136  1.00  0.00     0.198 A 
ATOM     89  F   UNL A   1      43.656  35.997  29.387  1.00  0.00    -0.203 F 
ATOM     90  F   UNL A   1      43.271  37.256  34.680  1.00  0.00    -0.200 F 
ATOM     91  C   UNL A   1      43.870  37.864  32.478  1.00  0.00     0.200 A 
ATOM     92  F   UNL A   1      44.442  38.430  30.259  1.00  0.00    -0.200 F 
ATOM     93  F   UNL A   1      44.223  39.087  32.896  1.00  0.00    -0.200 F 
ENDBRANCH  60  83
ENDBRANCH  34  35
ENDBRANCH  26  29
ENDBRANCH  24  25
ENDBRANCH  23  24
ENDBRANCH  22  23
ENDBRANCH   3  22
TORSDOF 15
ENDMDL
MODEL 2
REMARK VINA RESULT:     -11.8      2.911      8.620
REMARK SMILES CC(C)CCOc1ccccc1-c1cc(C(=O)NCCCNC(=O)c2ccc(-c3c4nc(c(-c5c(F)c(F)c(F)c(F)c5F)c5ccc([nH]5)c(-c5c(F)c(F)c(F)c(F)c5F)c5nc(c(-c6c(F)c(F)c(F)c(F)c6F)c6ccc3[nH]6)C=C5)C=C4)cc2)no1
REMARK SMILES IDX 16 1 17 2 18 3 15 5 13 6 14 7 89 8 88 9 12 10 7 11 8 12 9 13
REMARK SMILES IDX 11 14 10 15 6 16 5 17 4 18 2 19 1 20 3 21 19 22 20 23 21 24
REMARK SMILES IDX 22 25 23 26 24 28 25 29 26 30 87 31 27 32 86 33 28 34 29 35
REMARK SMILES IDX 30 36 80 37 31 38 85 39 79 40 81 41 32 42 84 43 78 44 77 45
REMARK SMILES IDX 33 47 65 48 45 49 64 50 46 51 49 52 63 53 82 54 47 55 48 56
REMARK SMILES IDX 62 58 83 59 50 60 34 61 35 62 43 63 36 64 37 65 41 66 44 67
REMARK SMILES IDX 38 68 39 69 42 70 40 71 66 72 67 73 75 74 68 75 69 76 73 77
REMARK SMILES IDX 76 78 70 79 71 80 74 81 72 82 51 83 52 84 60 85 53 86 54 87
REMARK SMILES IDX 58 88 61 89 55 90 56 91 59 92 57 93
REMARK H PARENT 18 4 22 27 81 46 49 57
REMARK Flexibility Score: inf
ROOT
ATOM      1  C   UNL A   1      37.279  23.160  25.769  1.00  0.00     0.273 C 
ATOM      2  O   UNL A   1      38.010  24.024  26.250  1.00  0.00    -0.267 OA
ATOM      3  N   UNL A   1      37.900  22.165  25.037  1.00  0.00    -0.351 N 
ATOM      4  H   UNL A   1      38.839  22.365  24.819  1.00  0.00     0.163 HD
ENDROOT
BRANCH   1   5
ATOM      5  C   UNL A   1      35.814  23.204  25.916  1.00  0.00     0.171 A 
ATOM      6  C   UNL A   1      33.169  24.372  25.831  1.00  0.00     0.171 A 
ATOM      7  C   UNL A   1      34.712  24.587  25.376  1.00  0.00     0.088 A 
ATOM      8  O   UNL A   1      33.102  22.798  26.868  1.00  0.00    -0.355 OA
ATOM      9  N   UNL A   1      34.976  22.064  26.840  1.00  0.00    -0.074 NA
BRANCH   6  10
ATOM     10  C   UNL A   1      31.956  24.780  25.145  1.00  0.00     0.062 A 
ATOM     11  C   UNL A   1      31.182  25.806  25.744  1.00  0.00     0.130 A 
ATOM     12  C   UNL A   1      30.059  26.303  25.096  1.00  0.00     0.047 A 
ATOM     13  C   UNL A   1      29.702  25.777  23.855  1.00  0.00     0.004 A 
ATOM     14  C   UNL A   1      31.593  24.255  23.910  1.00  0.00     0.016 A 
ATOM     15  C   UNL A   1      30.454  24.749  23.273  1.00  0.00     0.001 A 
BRANCH  11  16
ATOM     16  O   UNL A   1      31.440  26.263  27.021  1.00  0.00    -0.493 OA
BRANCH  16  17
ATOM     17  C   UNL A   1      31.590  27.691  27.130  1.00  0.00     0.230 C 
BRANCH  17  18
ATOM     18  C   UNL A   1      32.896  28.203  26.472  1.00  0.00     0.044 C 
BRANCH  18  19
ATOM     19  C   UNL A   1      32.610  28.844  24.943  1.00  0.00    -0.014 C 
ATOM     20  C   UNL A   1      33.861  27.986  24.039  1.00  0.00     0.007 C 
ATOM     21  C   UNL A   1      30.779  29.678  23.896  1.00  0.00     0.007 C 
ENDBRANCH  18  19
ENDBRANCH  17  18
ENDBRANCH  16  17
ENDBRANCH  11  16
ENDBRANCH   6  10
ENDBRANCH   1   5
BRANCH   3  22
ATOM     22  C   UNL A   1      37.442  20.885  24.527  1.00  0.00     0.118 C 
BRANCH  22  23
ATOM     23  C   UNL A   1      38.366  19.722  24.868  1.00  0.00     0.042 C 
BRANCH  23  24
ATOM     24  C   UNL A   1      39.363  20.057  25.967  1.00  0.00     0.118 C 
BRANCH  24  25
ATOM     25  N   UNL A   1      40.498  19.140  25.971  1.00  0.00    -0.352 N 
ATOM     26  C   UNL A   1      41.843  19.386  26.071  1.00  0.00     0.251 C 
ATOM     27  H   UNL A   1      40.259  18.188  25.890  1.00  0.00     0.163 HD
ATOM     28  O   UNL A   1      42.643  18.492  25.814  1.00  0.00    -0.269 OA
BRANCH  26  29
ATOM     29  C   UNL A   1      42.328  20.716  26.483  1.00  0.00     0.039 A 
ATOM     30  C   UNL A   1      42.765  21.609  25.502  1.00  0.00     0.014 A 
ATOM     31  C   UNL A   1      42.388  21.070  27.833  1.00  0.00     0.014 A 
ATOM     32  C   UNL A   1      43.215  22.876  25.875  1.00  0.00     0.010 A 
ATOM     33  C   UNL A   1      42.740  22.364  28.194  1.00  0.00     0.010 A 
ATOM     34  C   UNL A   1      43.173  23.274  27.221  1.00  0.00    -0.014 A 
BRANCH  34  35
ATOM     35  C   UNL A   1      43.597  24.635  27.634  1.00  0.00     0.031 A 
ATOM     36  C   UNL A   1      42.564  25.679  27.955  1.00  0.00     0.074 A 
ATOM     37  C   UNL A   1      44.909  24.939  27.670  1.00  0.00     0.049 A 
ATOM     38  N   UNL A   1      42.730  26.938  28.273  1.00  0.00    -0.248 NA
ATOM     39  C   UNL A   1      41.153  25.263  27.887  1.00  0.00     0.031 C 
ATOM     40  C   UNL A   1      46.000  24.020  27.343  1.00  0.00     0.029 A 
ATOM     41  N   UNL A   1      45.547  26.109  27.993  1.00  0.00    -0.354 N 
ATOM     42  C   UNL A   1      41.454  27.458  28.436  1.00  0.00     0.074 A 
ATOM     43  C   UNL A   1      40.520  26.403  28.114  1.00  0.00     0.031 C 
ATOM     44  C   UNL A   1      47.172  24.650  27.514  1.00  0.00     0.029 A 
ATOM     45  C   UNL A   1      46.916  26.031  27.907  1.00  0.00     0.049 A 
ATOM     46  H   UNL A   1      45.070  26.928  28.260  1.00  0.00     0.167 HD
ATOM     47  C   UNL A   1      41.094  28.697  28.847  1.00  0.00     0.037 A 
ATOM     48  C   UNL A   1      47.856  26.974  28.108  1.00  0.00     0.037 A 
ATOM     49  C   UNL A   1      42.030  29.741  29.173  1.00  0.00     0.049 A 
ATOM     50  C   UNL A   1      47.422  28.359  28.512  1.00  0.00     0.074 A 
ATOM     51  C   UNL A   1      41.769  31.019  29.632  1.00  0.00     0.029 A 
ATOM     52  N   UNL A   1      43.409  29.627  29.066  1.00  0.00    -0.354 N 
ATOM     53  N   UNL A   1      46.214  28.822  28.726  1.00  0.00    -0.248 NA
ATOM     54  C   UNL A   1      48.486  29.353  28.709  1.00  0.00     0.031 C 
ATOM     55  C   UNL A   1      42.985  31.702  29.735  1.00  0.00     0.029 A 
ATOM     56  C   UNL A   1      44.010  30.823  29.421  1.00  0.00     0.049 A 
ATOM     57  H   UNL A   1      43.889  28.816  28.779  1.00  0.00     0.167 HD
ATOM     58  C   UNL A   1      46.375  30.143  29.123  1.00  0.00     0.074 A 
ATOM     59  C   UNL A   1      47.800  30.401  29.137  1.00  0.00     0.031 C 
ATOM     60  C   UNL A   1      45.431  31.061  29.447  1.00  0.00     0.037 A 
BRANCH  47  61
ATOM     61  C   UNL A   1      39.626  28.995  28.969  1.00  0.00     0.064 A 
ATOM     62  C   UNL A   1      38.855  29.372  27.859  1.00  0.00     0.173 A 
ATOM     63  C   UNL A   1      38.971  28.854  30.202  1.00  0.00     0.173 A 
ATOM     64  F   UNL A   1      39.431  29.531  26.658  1.00  0.00    -0.203 F 
ATOM     65  C   UNL A   1      37.491  29.623  27.983  1.00  0.00     0.198 A 
ATOM     66  C   UNL A   1      37.600  29.069  30.315  1.00  0.00     0.198 A 
ATOM     67  F   UNL A   1      39.657  28.492  31.296  1.00  0.00    -0.203 F 
ATOM     68  F   UNL A   1      36.787  30.032  26.919  1.00  0.00    -0.200 F 
ATOM     69  C   UNL A   1      36.863  29.461  29.208  1.00  0.00     0.200 A 
ATOM     70  F   UNL A   1      36.992  28.894  31.497  1.00  0.00    -0.200 F 
ATOM     71  F   UNL A   1      35.547  29.688  29.323  1.00  0.00    -0.200 F 
ENDBRANCH  47  61
BRANCH  48  72
ATOM     72  C   UNL A   1      49.299  26.650  27.938  1.00  0.00     0.064 A 
ATOM     73  C   UNL A   1      50.102  26.329  29.041  1.00  0.00     0.173 A 
ATOM     74  C   UNL A   1      49.915  26.697  26.678  1.00  0.00     0.173 A 
ATOM     75  F   UNL A   1      49.566  26.285  30.270  1.00  0.00    -0.203 F 
ATOM     76  C   UNL A   1      51.471  26.113  28.899  1.00  0.00     0.198 A 
ATOM     77  C   UNL A   1      51.276  26.440  26.530  1.00  0.00     0.198 A 
ATOM     78  F   UNL A   1      49.193  26.988  25.585  1.00  0.00    -0.203 F 
ATOM     79  F   UNL A   1      52.228  25.884  29.981  1.00  0.00    -0.200 F 
ATOM     80  C   UNL A   1      52.057  26.165  27.643  1.00  0.00     0.200 A 
ATOM     81  F   UNL A   1      51.833  26.470  25.311  1.00  0.00    -0.200 F 
ATOM     82  F   UNL A   1      53.374  25.964  27.506  1.00  0.00    -0.200 F 
ENDBRANCH  48  72
BRANCH  60  83
ATOM     83  C   UNL A   1      45.906  32.411  29.906  1.00  0.00     0.064 A 
ATOM     84  C   UNL A   1      46.093  33.478  29.015  1.00  0.00     0.173 A 
ATOM     85  C   UNL A   1      46.141  32.648  31.270  1.00  0.00     0.173 A 
ATOM     86  F   UNL A   1      45.893  33.303  27.700  1.00  0.00    -0.203 F 
ATOM     87  C   UNL A   1      46.535  34.719  29.467  1.00  0.00     0.198 A 
ATOM     88  C   UNL A   1      46.540  33.901  31.723  1.00  0.00     0.198 A 
ATOM     89  F   UNL A   1      45.968  31.667  32.168  1.00  0.00    -0.203 F 
ATOM     90  F   UNL A   1      46.770  35.704  28.589  1.00  0.00    -0.200 F 
ATOM     91  C   UNL A   1      46.749  34.932  30.821  1.00  0.00     0.200 A 
ATOM     92  F   UNL A   1      46.724  34.111  33.034  1.00  0.00    -0.200 F 
ATOM     93  F   UNL A   1      47.164  36.130  31.255  1.00  0.00    -0.200 F 
ENDBRANCH  60  83
ENDBRANCH  34  35
ENDBRANCH  26  29
ENDBRANCH  24  25
ENDBRANCH  23  24
ENDBRANCH  22  23
ENDBRANCH   3  22
TORSDOF 15
ENDMDL
MODEL 3
REMARK VINA RESULT:     -11.7      3.019      8.522
REMARK SMILES CC(C)CCOc1ccccc1-c1cc(C(=O)NCCCNC(=O)c2ccc(-c3c4nc(c(-c5c(F)c(F)c(F)c(F)c5F)c5ccc([nH]5)c(-c5c(F)c(F)c(F)c(F)c5F)c5nc(c(-c6c(F)c(F)c(F)c(F)c6F)c6ccc3[nH]6)C=C5)C=C4)cc2)no1
REMARK SMILES IDX 16 1 17 2 18 3 15 5 13 6 14 7 89 8 88 9 12 10 7 11 8 12 9 13
REMARK SMILES IDX 11 14 10 15 6 16 5 17 4 18 2 19 1 20 3 21 19 22 20 23 21 24
REMARK SMILES IDX 22 25 23 26 24 28 25 29 26 30 87 31 27 32 86 33 28 34 29 35
REMARK SMILES IDX 30 36 80 37 31 38 85 39 79 40 81 41 32 42 84 43 78 44 77 45
REMARK SMILES IDX 33 47 65 48 45 49 64 50 46 51 49 52 63 53 82 54 47 55 48 56
REMARK SMILES IDX 62 58 83 59 50 60 34 61 35 62 43 63 36 64 37 65 41 66 44 67
REMARK SMILES IDX 38 68 39 69 42 70 40 71 66 72 67 73 75 74 68 75 69 76 73 77
REMARK SMILES IDX 76 78 70 79 71 80 74 81 72 82 51 83 52 84 60 85 53 86 54 87
REMARK SMILES IDX 58 88 61 89 55 90 56 91 59 92 57 93
REMARK H PARENT 18 4 22 27 81 46 49 57
REMARK Flexibility Score: inf
ROOT
ATOM      1  C   UNL A   1      37.226  23.191  25.756  1.00  0.00     0.273 C 
ATOM      2  O   UNL A   1      37.979  24.055  26.203  1.00  0.00    -0.267 OA
ATOM      3  N   UNL A   1      37.817  22.178  25.025  1.00  0.00    -0.351 N 
ATOM      4  H   UNL A   1      38.752  22.363  24.779  1.00  0.00     0.163 HD
ENDROOT
BRANCH   1   5
ATOM      5  C   UNL A   1      35.766  23.254  25.940  1.00  0.00     0.171 A 
ATOM      6  C   UNL A   1      33.128  24.440  25.875  1.00  0.00     0.171 A 
ATOM      7  C   UNL A   1      34.660  24.621  25.370  1.00  0.00     0.088 A 
ATOM      8  O   UNL A   1      33.078  22.914  26.982  1.00  0.00    -0.355 OA
ATOM      9  N   UNL A   1      34.945  22.163  26.936  1.00  0.00    -0.074 NA
BRANCH   6  10
ATOM     10  C   UNL A   1      31.900  24.828  25.205  1.00  0.00     0.062 A 
ATOM     11  C   UNL A   1      31.119  25.843  25.813  1.00  0.00     0.130 A 
ATOM     12  C   UNL A   1      29.979  26.321  25.179  1.00  0.00     0.047 A 
ATOM     13  C   UNL A   1      29.613  25.787  23.944  1.00  0.00     0.004 A 
ATOM     14  C   UNL A   1      31.529  24.294  23.976  1.00  0.00     0.016 A 
ATOM     15  C   UNL A   1      30.374  24.769  23.354  1.00  0.00     0.001 A 
BRANCH  11  16
ATOM     16  O   UNL A   1      31.386  26.306  27.086  1.00  0.00    -0.493 OA
BRANCH  16  17
ATOM     17  C   UNL A   1      31.637  27.721  27.170  1.00  0.00     0.230 C 
BRANCH  17  18
ATOM     18  C   UNL A   1      32.921  28.143  26.410  1.00  0.00     0.044 C 
BRANCH  18  19
ATOM     19  C   UNL A   1      32.560  28.848  24.926  1.00  0.00    -0.014 C 
ATOM     20  C   UNL A   1      33.850  28.133  23.954  1.00  0.00     0.007 C 
ATOM     21  C   UNL A   1      30.655  29.607  23.958  1.00  0.00     0.007 C 
ENDBRANCH  18  19
ENDBRANCH  17  18
ENDBRANCH  16  17
ENDBRANCH  11  16
ENDBRANCH   6  10
ENDBRANCH   1   5
BRANCH   3  22
ATOM     22  C   UNL A   1      37.332  20.895  24.549  1.00  0.00     0.118 C 
BRANCH  22  23
ATOM     23  C   UNL A   1      38.243  19.725  24.901  1.00  0.00     0.042 C 
BRANCH  23  24
ATOM     24  C   UNL A   1      39.238  20.056  26.003  1.00  0.00     0.118 C 
BRANCH  24  25
ATOM     25  N   UNL A   1      40.368  19.134  26.013  1.00  0.00    -0.352 N 
ATOM     26  C   UNL A   1      41.716  19.376  26.068  1.00  0.00     0.251 C 
ATOM     27  H   UNL A   1      40.123  18.181  25.974  1.00  0.00     0.163 HD
ATOM     28  O   UNL A   1      42.506  18.469  25.824  1.00  0.00    -0.269 OA
BRANCH  26  29
ATOM     29  C   UNL A   1      42.217  20.718  26.417  1.00  0.00     0.039 A 
ATOM     30  C   UNL A   1      42.518  21.615  25.390  1.00  0.00     0.014 A 
ATOM     31  C   UNL A   1      42.427  21.080  27.750  1.00  0.00     0.014 A 
ATOM     32  C   UNL A   1      42.981  22.893  25.705  1.00  0.00     0.010 A 
ATOM     33  C   UNL A   1      42.791  22.383  28.064  1.00  0.00     0.010 A 
ATOM     34  C   UNL A   1      43.088  23.297  27.045  1.00  0.00    -0.014 A 
BRANCH  34  35
ATOM     35  C   UNL A   1      43.528  24.668  27.402  1.00  0.00     0.031 A 
ATOM     36  C   UNL A   1      42.530  25.667  27.918  1.00  0.00     0.074 A 
ATOM     37  C   UNL A   1      44.814  25.022  27.215  1.00  0.00     0.049 A 
ATOM     38  N   UNL A   1      42.704  26.928  28.225  1.00  0.00    -0.248 NA
ATOM     39  C   UNL A   1      41.145  25.198  28.089  1.00  0.00     0.031 C 
ATOM     40  C   UNL A   1      45.864  24.150  26.686  1.00  0.00     0.029 A 
ATOM     41  N   UNL A   1      45.457  26.213  27.442  1.00  0.00    -0.354 N 
ATOM     42  C   UNL A   1      41.458  27.397  28.617  1.00  0.00     0.074 A 
ATOM     43  C   UNL A   1      40.521  26.311  28.443  1.00  0.00     0.031 C 
ATOM     44  C   UNL A   1      47.025  24.823  26.661  1.00  0.00     0.029 A 
ATOM     45  C   UNL A   1      46.791  26.189  27.118  1.00  0.00     0.049 A 
ATOM     46  H   UNL A   1      45.004  27.009  27.803  1.00  0.00     0.167 HD
ATOM     47  C   UNL A   1      41.131  28.616  29.106  1.00  0.00     0.037 A 
ATOM     48  C   UNL A   1      47.717  27.165  27.168  1.00  0.00     0.037 A 
ATOM     49  C   UNL A   1      42.072  29.692  29.283  1.00  0.00     0.049 A 
ATOM     50  C   UNL A   1      47.311  28.527  27.667  1.00  0.00     0.074 A 
ATOM     51  C   UNL A   1      41.849  30.953  29.803  1.00  0.00     0.029 A 
ATOM     52  N   UNL A   1      43.413  29.633  28.935  1.00  0.00    -0.354 N 
ATOM     53  N   UNL A   1      46.142  28.941  28.097  1.00  0.00    -0.248 NA
ATOM     54  C   UNL A   1      48.356  29.559  27.693  1.00  0.00     0.031 C 
ATOM     55  C   UNL A   1      43.038  31.682  29.705  1.00  0.00     0.029 A 
ATOM     56  C   UNL A   1      44.024  30.847  29.201  1.00  0.00     0.049 A 
ATOM     57  H   UNL A   1      43.865  28.844  28.554  1.00  0.00     0.167 HD
ATOM     58  C   UNL A   1      46.323  30.263  28.483  1.00  0.00     0.074 A 
ATOM     59  C   UNL A   1      47.718  30.576  28.253  1.00  0.00     0.031 C 
ATOM     60  C   UNL A   1      45.418  31.139  28.984  1.00  0.00     0.037 A 
BRANCH  47  61
ATOM     61  C   UNL A   1      39.697  28.856  29.488  1.00  0.00     0.064 A 
ATOM     62  C   UNL A   1      39.233  28.624  30.792  1.00  0.00     0.173 A 
ATOM     63  C   UNL A   1      38.788  29.372  28.552  1.00  0.00     0.173 A 
ATOM     64  F   UNL A   1      40.056  28.123  31.724  1.00  0.00    -0.203 F 
ATOM     65  C   UNL A   1      37.907  28.873  31.137  1.00  0.00     0.198 A 
ATOM     66  C   UNL A   1      37.472  29.655  28.910  1.00  0.00     0.198 A 
ATOM     67  F   UNL A   1      39.178  29.616  27.292  1.00  0.00    -0.203 F 
ATOM     68  F   UNL A   1      37.474  28.595  32.374  1.00  0.00    -0.200 F 
ATOM     69  C   UNL A   1      37.031  29.398  30.199  1.00  0.00     0.200 A 
ATOM     70  F   UNL A   1      36.633  30.180  28.007  1.00  0.00    -0.200 F 
ATOM     71  F   UNL A   1      35.759  29.652  30.536  1.00  0.00    -0.200 F 
ENDBRANCH  47  61
BRANCH  48  72
ATOM     72  C   UNL A   1      49.119  26.899  26.744  1.00  0.00     0.064 A 
ATOM     73  C   UNL A   1      49.496  26.991  25.397  1.00  0.00     0.173 A 
ATOM     74  C   UNL A   1      50.100  26.505  27.667  1.00  0.00     0.173 A 
ATOM     75  F   UNL A   1      48.592  27.349  24.471  1.00  0.00    -0.203 F 
ATOM     76  C   UNL A   1      50.783  26.656  24.983  1.00  0.00     0.198 A 
ATOM     77  C   UNL A   1      51.399  26.211  27.258  1.00  0.00     0.198 A 
ATOM     78  F   UNL A   1      49.799  26.410  28.971  1.00  0.00    -0.203 F 
ATOM     79  F   UNL A   1      51.093  26.680  23.679  1.00  0.00    -0.200 F 
ATOM     80  C   UNL A   1      51.735  26.270  25.914  1.00  0.00     0.200 A 
ATOM     81  F   UNL A   1      52.320  25.859  28.165  1.00  0.00    -0.200 F 
ATOM     82  F   UNL A   1      52.972  25.942  25.516  1.00  0.00    -0.200 F 
ENDBRANCH  48  72
BRANCH  60  83
ATOM     83  C   UNL A   1      45.916  32.502  29.377  1.00  0.00     0.064 A 
ATOM     84  C   UNL A   1      46.428  32.768  30.655  1.00  0.00     0.173 A 
ATOM     85  C   UNL A   1      45.912  33.549  28.442  1.00  0.00     0.173 A 
ATOM     86  F   UNL A   1      46.444  31.806  31.590  1.00  0.00    -0.203 F 
ATOM     87  C   UNL A   1      46.881  34.040  30.994  1.00  0.00     0.198 A 
ATOM     88  C   UNL A   1      46.407  34.807  28.770  1.00  0.00     0.198 A 
ATOM     89  F   UNL A   1      45.444  33.349  27.201  1.00  0.00    -0.203 F 
ATOM     90  F   UNL A   1      47.305  34.288  32.241  1.00  0.00    -0.200 F 
ATOM     91  C   UNL A   1      46.880  35.056  30.049  1.00  0.00     0.200 A 
ATOM     92  F   UNL A   1      46.425  35.780  27.848  1.00  0.00    -0.200 F 
ATOM     93  F   UNL A   1      47.327  36.276  30.374  1.00  0.00    -0.200 F 
ENDBRANCH  60  83
ENDBRANCH  34  35
ENDBRANCH  26  29
ENDBRANCH  24  25
ENDBRANCH  23  24
ENDBRANCH  22  23
ENDBRANCH   3  22
TORSDOF 15
ENDMDL
