MODEL 1
REMARK VINA RESULT:     -12.8      0.000      0.000
REMARK SMILES O=C(NCCCNC(=O)[C@@H]1C[C@@H]2CC[C@H]1N2C(=O)c1ccncc1Cl)c1ccc(-c2c3nc(c(-c4c(F)c(F)c(F)c(F)c4F)c4ccc([nH]4)c(-c4c(F)c(F)c(F)c(F)c4F)c4nc(c(-c5c(F)c(F)c(F)c(F)c5F)c5ccc2[nH]5)C=C4)C=C3)cc1
REMARK SMILES IDX 5 1 4 2 3 3 1 4 2 5 26 7 27 8 88 9 28 10 87 11 29 12 30 13
REMARK SMILES IDX 31 14 81 15 32 16 86 17 80 18 82 19 33 20 85 21 79 22 78 23
REMARK SMILES IDX 34 25 66 26 46 27 65 28 47 29 50 30 64 31 83 32 48 33 49 34
REMARK SMILES IDX 63 36 84 37 51 38 35 39 36 40 44 41 37 42 38 43 42 44 45 45
REMARK SMILES IDX 39 46 40 47 43 48 41 49 67 50 68 51 76 52 69 53 70 54 74 55
REMARK SMILES IDX 77 56 71 57 72 58 75 59 73 60 52 61 53 62 61 63 54 64 55 65
REMARK SMILES IDX 59 66 62 67 56 68 57 69 60 70 58 71 6 72 7 73 8 74 9 76
REMARK SMILES IDX 10 77 11 78 15 79 12 80 14 81 16 82 13 83 17 84 18 85 19 86
REMARK SMILES IDX 20 87 24 88 21 89 23 90 25 91 22 92
REMARK H PARENT 3 6 82 24 50 35 7 75
REMARK Flexibility Score: inf
ROOT
ATOM      1  C   UNL A   1      31.395  32.288  26.501  1.00  0.00     0.042 C 
ENDROOT
BRANCH   1   2
ATOM      2  C   UNL A   1      32.623  32.820  27.234  1.00  0.00     0.118 C 
BRANCH   2   3
ATOM      3  N   UNL A   1      32.459  34.203  27.642  1.00  0.00    -0.352 N 
ATOM      4  O   UNL A   1      32.564  35.988  28.994  1.00  0.00    -0.269 OA
ATOM      5  C   UNL A   1      33.029  34.895  28.680  1.00  0.00     0.251 C 
ATOM      6  H   UNL A   1      31.841  34.728  27.084  1.00  0.00     0.163 HD
BRANCH   5   7
ATOM      7  C   UNL A   1      34.188  34.357  29.431  1.00  0.00     0.039 A 
ATOM      8  C   UNL A   1      34.028  33.613  30.604  1.00  0.00     0.014 A 
ATOM      9  C   UNL A   1      35.464  34.510  28.877  1.00  0.00     0.014 A 
ATOM     10  C   UNL A   1      35.144  33.092  31.262  1.00  0.00     0.010 A 
ATOM     11  C   UNL A   1      36.575  33.938  29.504  1.00  0.00     0.010 A 
ATOM     12  C   UNL A   1      36.424  33.231  30.707  1.00  0.00    -0.014 A 
BRANCH  12  13
ATOM     13  C   UNL A   1      37.597  32.571  31.333  1.00  0.00     0.031 A 
ATOM     14  C   UNL A   1      38.281  31.417  30.662  1.00  0.00     0.074 A 
ATOM     15  C   UNL A   1      38.009  32.984  32.547  1.00  0.00     0.049 A 
ATOM     16  N   UNL A   1      39.258  30.664  31.102  1.00  0.00    -0.248 NA
ATOM     17  C   UNL A   1      37.793  31.051  29.325  1.00  0.00     0.031 C 
ATOM     18  C   UNL A   1      37.409  34.079  33.311  1.00  0.00     0.029 A 
ATOM     19  N   UNL A   1      39.013  32.520  33.360  1.00  0.00    -0.354 N 
ATOM     20  C   UNL A   1      39.487  29.723  30.107  1.00  0.00     0.074 A 
ATOM     21  C   UNL A   1      38.536  29.987  29.049  1.00  0.00     0.031 C 
ATOM     22  C   UNL A   1      38.053  34.203  34.480  1.00  0.00     0.029 A 
ATOM     23  C   UNL A   1      39.078  33.167  34.570  1.00  0.00     0.049 A 
ATOM     24  H   UNL A   1      39.625  31.794  33.103  1.00  0.00     0.167 HD
ATOM     25  C   UNL A   1      40.413  28.734  30.082  1.00  0.00     0.037 A 
ATOM     26  C   UNL A   1      39.854  32.935  35.644  1.00  0.00     0.037 A 
ATOM     27  C   UNL A   1      41.367  28.485  31.132  1.00  0.00     0.049 A 
ATOM     28  C   UNL A   1      40.863  31.825  35.600  1.00  0.00     0.074 A 
ATOM     29  C   UNL A   1      42.385  27.548  31.169  1.00  0.00     0.029 A 
ATOM     30  N   UNL A   1      41.413  29.172  32.336  1.00  0.00    -0.354 N 
ATOM     31  N   UNL A   1      41.110  30.977  34.632  1.00  0.00    -0.248 NA
ATOM     32  C   UNL A   1      41.700  31.638  36.792  1.00  0.00     0.031 C 
ATOM     33  C   UNL A   1      43.019  27.639  32.413  1.00  0.00     0.029 A 
ATOM     34  C   UNL A   1      42.424  28.661  33.135  1.00  0.00     0.049 A 
ATOM     35  H   UNL A   1      40.815  29.914  32.586  1.00  0.00     0.167 HD
ATOM     36  C   UNL A   1      42.139  30.165  35.088  1.00  0.00     0.074 A 
ATOM     37  C   UNL A   1      42.477  30.629  36.419  1.00  0.00     0.031 C 
ATOM     38  C   UNL A   1      42.749  29.133  34.457  1.00  0.00     0.037 A 
BRANCH  25  39
ATOM     39  C   UNL A   1      40.424  27.829  28.885  1.00  0.00     0.064 A 
ATOM     40  C   UNL A   1      41.203  28.111  27.753  1.00  0.00     0.173 A 
ATOM     41  C   UNL A   1      39.662  26.650  28.881  1.00  0.00     0.173 A 
ATOM     42  F   UNL A   1      41.941  29.230  27.704  1.00  0.00    -0.203 F 
ATOM     43  C   UNL A   1      41.195  27.262  26.650  1.00  0.00     0.198 A 
ATOM     44  C   UNL A   1      39.675  25.792  27.786  1.00  0.00     0.198 A 
ATOM     45  F   UNL A   1      38.904  26.332  29.941  1.00  0.00    -0.203 F 
ATOM     46  F   UNL A   1      41.909  27.577  25.560  1.00  0.00    -0.200 F 
ATOM     47  C   UNL A   1      40.435  26.102  26.668  1.00  0.00     0.200 A 
ATOM     48  F   UNL A   1      38.948  24.666  27.808  1.00  0.00    -0.200 F 
ATOM     49  F   UNL A   1      40.426  25.287  25.603  1.00  0.00    -0.200 F 
ENDBRANCH  25  39
BRANCH  26  50
ATOM     50  C   UNL A   1      39.686  33.781  36.851  1.00  0.00     0.064 A 
ATOM     51  C   UNL A   1      40.312  35.029  36.952  1.00  0.00     0.173 A 
ATOM     52  C   UNL A   1      38.845  33.383  37.902  1.00  0.00     0.173 A 
ATOM     53  F   UNL A   1      41.138  35.443  35.981  1.00  0.00    -0.203 F 
ATOM     54  C   UNL A   1      40.102  35.850  38.058  1.00  0.00     0.198 A 
ATOM     55  C   UNL A   1      38.617  34.213  38.995  1.00  0.00     0.198 A 
ATOM     56  F   UNL A   1      38.218  32.198  37.847  1.00  0.00    -0.203 F 
ATOM     57  F   UNL A   1      40.725  37.034  38.139  1.00  0.00    -0.200 F 
ATOM     58  C   UNL A   1      39.246  35.447  39.073  1.00  0.00     0.200 A 
ATOM     59  F   UNL A   1      37.778  33.827  39.965  1.00  0.00    -0.200 F 
ATOM     60  F   UNL A   1      39.029  36.247  40.126  1.00  0.00    -0.200 F 
ENDBRANCH  26  50
BRANCH  38  61
ATOM     61  C   UNL A   1      43.862  28.443  35.185  1.00  0.00     0.064 A 
ATOM     62  C   UNL A   1      43.618  27.351  36.031  1.00  0.00     0.173 A 
ATOM     63  C   UNL A   1      45.194  28.836  34.983  1.00  0.00     0.173 A 
ATOM     64  F   UNL A   1      42.360  26.949  36.267  1.00  0.00    -0.203 F 
ATOM     65  C   UNL A   1      44.668  26.682  36.654  1.00  0.00     0.198 A 
ATOM     66  C   UNL A   1      46.242  28.152  35.591  1.00  0.00     0.198 A 
ATOM     67  F   UNL A   1      45.477  29.874  34.180  1.00  0.00    -0.203 F 
ATOM     68  F   UNL A   1      44.413  25.658  37.479  1.00  0.00    -0.200 F 
ATOM     69  C   UNL A   1      45.978  27.078  36.427  1.00  0.00     0.200 A 
ATOM     70  F   UNL A   1      47.508  28.530  35.363  1.00  0.00    -0.200 F 
ATOM     71  F   UNL A   1      46.988  26.425  37.018  1.00  0.00    -0.200 F 
ENDBRANCH  38  61
ENDBRANCH  12  13
ENDBRANCH   5   7
ENDBRANCH   2   3
ENDBRANCH   1   2
BRANCH   1  72
ATOM     72  C   UNL A   1      31.511  30.829  26.051  1.00  0.00     0.117 C 
BRANCH  72  73
ATOM     73  N   UNL A   1      32.506  30.107  26.821  1.00  0.00    -0.356 N 
ATOM     74  C   UNL A   1      33.307  29.057  26.524  1.00  0.00     0.225 C 
ATOM     75  H   UNL A   1      32.621  30.447  27.737  1.00  0.00     0.163 HD
ATOM     76  O   UNL A   1      34.031  28.656  27.443  1.00  0.00    -0.275 OA
BRANCH  74  77
ATOM     77  C   UNL A   1      33.437  28.443  25.136  1.00  0.00     0.103 C 
ATOM     78  C   UNL A   1      32.781  29.059  23.874  1.00  0.00     0.040 C 
ATOM     79  C   UNL A   1      32.829  27.008  25.130  1.00  0.00     0.098 C 
ATOM     80  C   UNL A   1      31.918  27.915  23.321  1.00  0.00     0.086 C 
ATOM     81  C   UNL A   1      31.329  27.086  25.498  1.00  0.00     0.028 C 
ATOM     82  N   UNL A   1      32.717  26.781  23.700  1.00  0.00    -0.332 N 
ATOM     83  C   UNL A   1      30.703  27.735  24.242  1.00  0.00     0.027 C 
BRANCH  82  84
ATOM     84  C   UNL A   1      33.240  25.861  22.839  1.00  0.00     0.256 C 
ATOM     85  O   UNL A   1      33.653  26.137  21.718  1.00  0.00    -0.269 OA
BRANCH  84  86
ATOM     86  C   UNL A   1      33.369  24.472  23.301  1.00  0.00     0.061 A 
ATOM     87  C   UNL A   1      34.662  23.980  23.493  1.00  0.00     0.035 A 
ATOM     88  C   UNL A   1      32.267  23.637  23.457  1.00  0.00     0.072 A 
ATOM     89  C   UNL A   1      34.801  22.662  23.882  1.00  0.00     0.112 A 
ATOM     90  C   UNL A   1      32.516  22.334  23.859  1.00  0.00     0.132 A 
ATOM     91  Cl  UNL A   1      30.648  24.115  23.127  1.00  0.00    -0.082 Cl
ATOM     92  N   UNL A   1      33.756  21.831  24.084  1.00  0.00    -0.263 NA
ENDBRANCH  84  86
ENDBRANCH  82  84
ENDBRANCH  74  77
ENDBRANCH  72  73
ENDBRANCH   1  72
TORSDOF 12
ENDMDL
MODEL 2
REMARK VINA RESULT:     -12.8      0.109      1.604
REMARK SMILES O=C(NCCCNC(=O)[C@@H]1C[C@@H]2CC[C@H]1N2C(=O)c1ccncc1Cl)c1ccc(-c2c3nc(c(-c4c(F)c(F)c(F)c(F)c4F)c4ccc([nH]4)c(-c4c(F)c(F)c(F)c(F)c4F)c4nc(c(-c5c(F)c(F)c(F)c(F)c5F)c5ccc2[nH]5)C=C4)C=C3)cc1
REMARK SMILES IDX 5 1 4 2 3 3 1 4 2 5 26 7 27 8 88 9 28 10 87 11 29 12 30 13
REMARK SMILES IDX 31 14 81 15 32 16 86 17 80 18 82 19 33 20 85 21 79 22 78 23
REMARK SMILES IDX 34 25 66 26 46 27 65 28 47 29 50 30 64 31 83 32 48 33 49 34
REMARK SMILES IDX 63 36 84 37 51 38 35 39 36 40 44 41 37 42 38 43 42 44 45 45
REMARK SMILES IDX 39 46 40 47 43 48 41 49 67 50 68 51 76 52 69 53 70 54 74 55
REMARK SMILES IDX 77 56 71 57 72 58 75 59 73 60 52 61 53 62 61 63 54 64 55 65
REMARK SMILES IDX 59 66 62 67 56 68 57 69 60 70 58 71 6 72 7 73 8 74 9 76
REMARK SMILES IDX 10 77 11 78 15 79 12 80 14 81 16 82 13 83 17 84 18 85 19 86
REMARK SMILES IDX 20 87 24 88 21 89 23 90 25 91 22 92
REMARK H PARENT 3 6 82 24 50 35 7 75
REMARK Flexibility Score: inf
ROOT
ATOM      1  C   UNL A   1      31.391  32.291  26.498  1.00  0.00     0.042 C 
ENDROOT
BRANCH   1   2
ATOM      2  C   UNL A   1      32.610  32.816  27.249  1.00  0.00     0.118 C 
BRANCH   2   3
ATOM      3  N   UNL A   1      32.454  34.203  27.643  1.00  0.00    -0.352 N 
ATOM      4  O   UNL A   1      32.570  36.002  28.976  1.00  0.00    -0.269 OA
ATOM      5  C   UNL A   1      33.029  34.904  28.672  1.00  0.00     0.251 C 
ATOM      6  H   UNL A   1      31.837  34.726  27.081  1.00  0.00     0.163 HD
BRANCH   5   7
ATOM      7  C   UNL A   1      34.188  34.369  29.425  1.00  0.00     0.039 A 
ATOM      8  C   UNL A   1      34.028  33.621  30.596  1.00  0.00     0.014 A 
ATOM      9  C   UNL A   1      35.465  34.528  28.875  1.00  0.00     0.014 A 
ATOM     10  C   UNL A   1      35.145  33.104  31.256  1.00  0.00     0.010 A 
ATOM     11  C   UNL A   1      36.577  33.959  29.504  1.00  0.00     0.010 A 
ATOM     12  C   UNL A   1      36.426  33.249  30.704  1.00  0.00    -0.014 A 
BRANCH  12  13
ATOM     13  C   UNL A   1      37.599  32.593  31.333  1.00  0.00     0.031 A 
ATOM     14  C   UNL A   1      38.288  31.441  30.663  1.00  0.00     0.074 A 
ATOM     15  C   UNL A   1      38.007  33.005  32.548  1.00  0.00     0.049 A 
ATOM     16  N   UNL A   1      39.266  30.691  31.103  1.00  0.00    -0.248 NA
ATOM     17  C   UNL A   1      37.805  31.075  29.323  1.00  0.00     0.031 C 
ATOM     18  C   UNL A   1      37.401  34.098  33.312  1.00  0.00     0.029 A 
ATOM     19  N   UNL A   1      39.010  32.544  33.364  1.00  0.00    -0.354 N 
ATOM     20  C   UNL A   1      39.502  29.752  30.109  1.00  0.00     0.074 A 
ATOM     21  C   UNL A   1      38.551  30.014  29.048  1.00  0.00     0.031 C 
ATOM     22  C   UNL A   1      38.042  34.222  34.483  1.00  0.00     0.029 A 
ATOM     23  C   UNL A   1      39.071  33.189  34.574  1.00  0.00     0.049 A 
ATOM     24  H   UNL A   1      39.625  31.820  33.106  1.00  0.00     0.167 HD
ATOM     25  C   UNL A   1      40.431  28.765  30.084  1.00  0.00     0.037 A 
ATOM     26  C   UNL A   1      39.844  32.959  35.650  1.00  0.00     0.037 A 
ATOM     27  C   UNL A   1      41.383  28.519  31.136  1.00  0.00     0.049 A 
ATOM     28  C   UNL A   1      40.858  31.852  35.606  1.00  0.00     0.074 A 
ATOM     29  C   UNL A   1      42.404  27.585  31.175  1.00  0.00     0.029 A 
ATOM     30  N   UNL A   1      41.424  29.205  32.341  1.00  0.00    -0.354 N 
ATOM     31  N   UNL A   1      41.110  31.006  34.639  1.00  0.00    -0.248 NA
ATOM     32  C   UNL A   1      41.693  31.666  36.801  1.00  0.00     0.031 C 
ATOM     33  C   UNL A   1      43.035  27.677  32.421  1.00  0.00     0.029 A 
ATOM     34  C   UNL A   1      42.435  28.696  33.142  1.00  0.00     0.049 A 
ATOM     35  H   UNL A   1      40.823  29.944  32.591  1.00  0.00     0.167 HD
ATOM     36  C   UNL A   1      42.140  30.197  35.096  1.00  0.00     0.074 A 
ATOM     37  C   UNL A   1      42.474  30.660  36.428  1.00  0.00     0.031 C 
ATOM     38  C   UNL A   1      42.755  29.168  34.465  1.00  0.00     0.037 A 
BRANCH  25  39
ATOM     39  C   UNL A   1      40.447  27.862  28.887  1.00  0.00     0.064 A 
ATOM     40  C   UNL A   1      39.679  26.689  28.837  1.00  0.00     0.173 A 
ATOM     41  C   UNL A   1      41.223  28.187  27.764  1.00  0.00     0.173 A 
ATOM     42  F   UNL A   1      38.929  26.329  29.889  1.00  0.00    -0.203 F 
ATOM     43  C   UNL A   1      39.712  25.860  27.719  1.00  0.00     0.198 A 
ATOM     44  C   UNL A   1      41.234  27.368  26.639  1.00  0.00     0.198 A 
ATOM     45  F   UNL A   1      41.971  29.301  27.758  1.00  0.00    -0.203 F 
ATOM     46  F   UNL A   1      39.008  24.719  27.713  1.00  0.00    -0.200 F 
ATOM     47  C   UNL A   1      40.485  26.201  26.619  1.00  0.00     0.200 A 
ATOM     48  F   UNL A   1      41.975  27.704  25.573  1.00  0.00    -0.200 F 
ATOM     49  F   UNL A   1      40.518  25.400  25.545  1.00  0.00    -0.200 F 
ENDBRANCH  25  39
BRANCH  26  50
ATOM     50  C   UNL A   1      39.671  33.803  36.858  1.00  0.00     0.064 A 
ATOM     51  C   UNL A   1      40.278  35.060  36.954  1.00  0.00     0.173 A 
ATOM     52  C   UNL A   1      38.842  33.392  37.913  1.00  0.00     0.173 A 
ATOM     53  F   UNL A   1      41.092  35.486  35.977  1.00  0.00    -0.203 F 
ATOM     54  C   UNL A   1      40.062  35.879  38.061  1.00  0.00     0.198 A 
ATOM     55  C   UNL A   1      38.608  34.220  39.007  1.00  0.00     0.198 A 
ATOM     56  F   UNL A   1      38.233  32.198  37.863  1.00  0.00    -0.203 F 
ATOM     57  F   UNL A   1      40.668  37.072  38.137  1.00  0.00    -0.200 F 
ATOM     58  C   UNL A   1      39.219  35.463  39.081  1.00  0.00     0.200 A 
ATOM     59  F   UNL A   1      37.782  33.821  39.983  1.00  0.00    -0.200 F 
ATOM     60  F   UNL A   1      38.996  36.260  40.135  1.00  0.00    -0.200 F 
ENDBRANCH  26  50
BRANCH  38  61
ATOM     61  C   UNL A   1      43.869  28.480  35.195  1.00  0.00     0.064 A 
ATOM     62  C   UNL A   1      45.185  28.963  35.144  1.00  0.00     0.173 A 
ATOM     63  C   UNL A   1      43.605  27.366  36.006  1.00  0.00     0.173 A 
ATOM     64  F   UNL A   1      45.487  30.016  34.370  1.00  0.00    -0.203 F 
ATOM     65  C   UNL A   1      46.199  28.349  35.874  1.00  0.00     0.198 A 
ATOM     66  C   UNL A   1      44.617  26.768  36.751  1.00  0.00     0.198 A 
ATOM     67  F   UNL A   1      42.361  26.871  36.088  1.00  0.00    -0.203 F 
ATOM     68  F   UNL A   1      47.454  28.809  35.792  1.00  0.00    -0.200 F 
ATOM     69  C   UNL A   1      45.912  27.258  36.682  1.00  0.00     0.200 A 
ATOM     70  F   UNL A   1      44.338  25.720  37.538  1.00  0.00    -0.200 F 
ATOM     71  F   UNL A   1      46.887  26.676  37.394  1.00  0.00    -0.200 F 
ENDBRANCH  38  61
ENDBRANCH  12  13
ENDBRANCH   5   7
ENDBRANCH   2   3
ENDBRANCH   1   2
BRANCH   1  72
ATOM     72  C   UNL A   1      31.510  30.835  26.039  1.00  0.00     0.117 C 
BRANCH  72  73
ATOM     73  N   UNL A   1      32.499  30.108  26.811  1.00  0.00    -0.356 N 
ATOM     74  C   UNL A   1      33.294  29.052  26.517  1.00  0.00     0.225 C 
ATOM     75  H   UNL A   1      32.614  30.447  27.727  1.00  0.00     0.163 HD
ATOM     76  O   UNL A   1      34.014  28.648  27.437  1.00  0.00    -0.275 OA
BRANCH  74  77
ATOM     77  C   UNL A   1      33.423  28.436  25.130  1.00  0.00     0.103 C 
ATOM     78  C   UNL A   1      32.754  29.042  23.870  1.00  0.00     0.040 C 
ATOM     79  C   UNL A   1      32.828  26.995  25.131  1.00  0.00     0.098 C 
ATOM     80  C   UNL A   1      31.900  27.888  23.324  1.00  0.00     0.086 C 
ATOM     81  C   UNL A   1      31.330  27.059  25.507  1.00  0.00     0.028 C 
ATOM     82  N   UNL A   1      32.711  26.763  23.702  1.00  0.00    -0.332 N 
ATOM     83  C   UNL A   1      30.691  27.698  24.252  1.00  0.00     0.027 C 
BRANCH  82  84
ATOM     84  C   UNL A   1      33.239  25.846  22.841  1.00  0.00     0.256 C 
ATOM     85  O   UNL A   1      33.652  26.125  21.720  1.00  0.00    -0.269 OA
BRANCH  84  86
ATOM     86  C   UNL A   1      33.373  24.457  23.301  1.00  0.00     0.061 A 
ATOM     87  C   UNL A   1      34.668  23.970  23.493  1.00  0.00     0.035 A 
ATOM     88  C   UNL A   1      32.274  23.618  23.456  1.00  0.00     0.072 A 
ATOM     89  C   UNL A   1      34.812  22.652  23.881  1.00  0.00     0.112 A 
ATOM     90  C   UNL A   1      32.529  22.316  23.857  1.00  0.00     0.132 A 
ATOM     91  Cl  UNL A   1      30.653  24.090  23.127  1.00  0.00    -0.082 Cl
ATOM     92  N   UNL A   1      33.770  21.817  24.083  1.00  0.00    -0.263 NA
ENDBRANCH  84  86
ENDBRANCH  82  84
ENDBRANCH  74  77
ENDBRANCH  72  73
ENDBRANCH   1  72
TORSDOF 12
ENDMDL
MODEL 3
REMARK VINA RESULT:     -12.8      0.215      1.616
REMARK SMILES O=C(NCCCNC(=O)[C@@H]1C[C@@H]2CC[C@H]1N2C(=O)c1ccncc1Cl)c1ccc(-c2c3nc(c(-c4c(F)c(F)c(F)c(F)c4F)c4ccc([nH]4)c(-c4c(F)c(F)c(F)c(F)c4F)c4nc(c(-c5c(F)c(F)c(F)c(F)c5F)c5ccc2[nH]5)C=C4)C=C3)cc1
REMARK SMILES IDX 5 1 4 2 3 3 1 4 2 5 26 7 27 8 88 9 28 10 87 11 29 12 30 13
REMARK SMILES IDX 31 14 81 15 32 16 86 17 80 18 82 19 33 20 85 21 79 22 78 23
REMARK SMILES IDX 34 25 66 26 46 27 65 28 47 29 50 30 64 31 83 32 48 33 49 34
REMARK SMILES IDX 63 36 84 37 51 38 35 39 36 40 44 41 37 42 38 43 42 44 45 45
REMARK SMILES IDX 39 46 40 47 43 48 41 49 67 50 68 51 76 52 69 53 70 54 74 55
REMARK SMILES IDX 77 56 71 57 72 58 75 59 73 60 52 61 53 62 61 63 54 64 55 65
REMARK SMILES IDX 59 66 62 67 56 68 57 69 60 70 58 71 6 72 7 73 8 74 9 76
REMARK SMILES IDX 10 77 11 78 15 79 12 80 14 81 16 82 13 83 17 84 18 85 19 86
REMARK SMILES IDX 20 87 24 88 21 89 23 90 25 91 22 92
REMARK H PARENT 3 6 82 24 50 35 7 75
REMARK Flexibility Score: inf
ROOT
ATOM      1  C   UNL A   1      31.401  32.277  26.483  1.00  0.00     0.042 C 
ENDROOT
BRANCH   1   2
ATOM      2  C   UNL A   1      32.599  32.810  27.263  1.00  0.00     0.118 C 
BRANCH   2   3
ATOM      3  N   UNL A   1      32.437  34.205  27.627  1.00  0.00    -0.352 N 
ATOM      4  O   UNL A   1      32.538  36.031  28.923  1.00  0.00    -0.269 OA
ATOM      5  C   UNL A   1      33.001  34.927  28.647  1.00  0.00     0.251 C 
ATOM      6  H   UNL A   1      31.826  34.715  27.048  1.00  0.00     0.163 HD
BRANCH   5   7
ATOM      7  C   UNL A   1      34.152  34.409  29.424  1.00  0.00     0.039 A 
ATOM      8  C   UNL A   1      33.981  33.711  30.623  1.00  0.00     0.014 A 
ATOM      9  C   UNL A   1      35.432  34.530  28.871  1.00  0.00     0.014 A 
ATOM     10  C   UNL A   1      35.089  33.207  31.307  1.00  0.00     0.010 A 
ATOM     11  C   UNL A   1      36.535  33.973  29.525  1.00  0.00     0.010 A 
ATOM     12  C   UNL A   1      36.373  33.314  30.753  1.00  0.00    -0.014 A 
BRANCH  12  13
ATOM     13  C   UNL A   1      37.538  32.669  31.410  1.00  0.00     0.031 A 
ATOM     14  C   UNL A   1      38.238  31.509  30.768  1.00  0.00     0.074 A 
ATOM     15  C   UNL A   1      37.925  33.101  32.625  1.00  0.00     0.049 A 
ATOM     16  N   UNL A   1      39.211  30.767  31.236  1.00  0.00    -0.248 NA
ATOM     17  C   UNL A   1      37.777  31.122  29.427  1.00  0.00     0.031 C 
ATOM     18  C   UNL A   1      37.306  34.204  33.362  1.00  0.00     0.029 A 
ATOM     19  N   UNL A   1      38.916  32.654  33.463  1.00  0.00    -0.354 N 
ATOM     20  C   UNL A   1      39.463  29.813  30.260  1.00  0.00     0.074 A 
ATOM     21  C   UNL A   1      38.529  30.058  29.180  1.00  0.00     0.031 C 
ATOM     22  C   UNL A   1      37.928  34.347  34.541  1.00  0.00     0.029 A 
ATOM     23  C   UNL A   1      38.956  33.318  34.664  1.00  0.00     0.049 A 
ATOM     24  H   UNL A   1      39.536  31.927  33.227  1.00  0.00     0.167 HD
ATOM     25  C   UNL A   1      40.394  28.828  30.265  1.00  0.00     0.037 A 
ATOM     26  C   UNL A   1      39.713  33.105  35.756  1.00  0.00     0.037 A 
ATOM     27  C   UNL A   1      41.329  28.599  31.336  1.00  0.00     0.049 A 
ATOM     28  C   UNL A   1      40.728  31.999  35.745  1.00  0.00     0.074 A 
ATOM     29  C   UNL A   1      42.351  27.668  31.405  1.00  0.00     0.029 A 
ATOM     30  N   UNL A   1      41.350  29.303  32.531  1.00  0.00    -0.354 N 
ATOM     31  N   UNL A   1      40.997  31.139  34.795  1.00  0.00    -0.248 NA
ATOM     32  C   UNL A   1      41.544  31.833  36.956  1.00  0.00     0.031 C 
ATOM     33  C   UNL A   1      42.961  27.779  32.659  1.00  0.00     0.029 A 
ATOM     34  C   UNL A   1      42.348  28.809  33.355  1.00  0.00     0.049 A 
ATOM     35  H   UNL A   1      40.744  30.045  32.759  1.00  0.00     0.167 HD
ATOM     36  C   UNL A   1      42.021  30.339  35.281  1.00  0.00     0.074 A 
ATOM     37  C   UNL A   1      42.333  30.823  36.611  1.00  0.00     0.031 C 
ATOM     38  C   UNL A   1      42.647  29.301  34.676  1.00  0.00     0.037 A 
BRANCH  25  39
ATOM     39  C   UNL A   1      40.430  27.906  29.082  1.00  0.00     0.064 A 
ATOM     40  C   UNL A   1      39.667  26.729  29.040  1.00  0.00     0.173 A 
ATOM     41  C   UNL A   1      41.221  28.217  27.965  1.00  0.00     0.173 A 
ATOM     42  F   UNL A   1      38.903  26.382  30.086  1.00  0.00    -0.203 F 
ATOM     43  C   UNL A   1      39.719  25.883  27.936  1.00  0.00     0.198 A 
ATOM     44  C   UNL A   1      41.250  27.381  26.853  1.00  0.00     0.198 A 
ATOM     45  F   UNL A   1      41.965  29.333  27.953  1.00  0.00    -0.203 F 
ATOM     46  F   UNL A   1      39.019  24.740  27.937  1.00  0.00    -0.200 F 
ATOM     47  C   UNL A   1      40.506  26.211  26.842  1.00  0.00     0.200 A 
ATOM     48  F   UNL A   1      42.005  27.703  25.793  1.00  0.00    -0.200 F 
ATOM     49  F   UNL A   1      40.557  25.393  25.781  1.00  0.00    -0.200 F 
ENDBRANCH  25  39
BRANCH  26  50
ATOM     50  C   UNL A   1      39.519  33.967  36.947  1.00  0.00     0.064 A 
ATOM     51  C   UNL A   1      38.731  33.545  38.024  1.00  0.00     0.173 A 
ATOM     52  C   UNL A   1      40.170  35.206  37.057  1.00  0.00     0.173 A 
ATOM     53  F   UNL A   1      38.076  32.377  37.956  1.00  0.00    -0.203 F 
ATOM     54  C   UNL A   1      38.601  34.328  39.170  1.00  0.00     0.198 A 
ATOM     55  C   UNL A   1      40.059  35.976  38.211  1.00  0.00     0.198 A 
ATOM     56  F   UNL A   1      40.942  35.649  36.054  1.00  0.00    -0.203 F 
ATOM     57  F   UNL A   1      37.828  33.909  40.181  1.00  0.00    -0.200 F 
ATOM     58  C   UNL A   1      39.274  35.537  39.267  1.00  0.00     0.200 A 
ATOM     59  F   UNL A   1      40.723  37.136  38.307  1.00  0.00    -0.200 F 
ATOM     60  F   UNL A   1      39.165  36.279  40.378  1.00  0.00    -0.200 F 
ENDBRANCH  26  50
BRANCH  38  61
ATOM     61  C   UNL A   1      43.750  28.626  35.434  1.00  0.00     0.064 A 
ATOM     62  C   UNL A   1      43.491  27.570  36.319  1.00  0.00     0.173 A 
ATOM     63  C   UNL A   1      45.087  28.997  35.222  1.00  0.00     0.173 A 
ATOM     64  F   UNL A   1      42.228  27.191  36.565  1.00  0.00    -0.203 F 
ATOM     65  C   UNL A   1      44.531  26.914  36.972  1.00  0.00     0.198 A 
ATOM     66  C   UNL A   1      46.125  28.326  35.860  1.00  0.00     0.198 A 
ATOM     67  F   UNL A   1      45.384  30.001  34.382  1.00  0.00    -0.203 F 
ATOM     68  F   UNL A   1      44.262  25.924  37.833  1.00  0.00    -0.200 F 
ATOM     69  C   UNL A   1      45.846  27.287  36.735  1.00  0.00     0.200 A 
ATOM     70  F   UNL A   1      47.396  28.680  35.623  1.00  0.00    -0.200 F 
ATOM     71  F   UNL A   1      46.847  26.646  37.354  1.00  0.00    -0.200 F 
ENDBRANCH  38  61
ENDBRANCH  12  13
ENDBRANCH   5   7
ENDBRANCH   2   3
ENDBRANCH   1   2
BRANCH   1  72
ATOM     72  C   UNL A   1      31.543  30.823  26.025  1.00  0.00     0.117 C 
BRANCH  72  73
ATOM     73  N   UNL A   1      32.558  30.118  26.781  1.00  0.00    -0.356 N 
ATOM     74  C   UNL A   1      33.363  29.072  26.479  1.00  0.00     0.225 C 
ATOM     75  H   UNL A   1      32.688  30.467  27.692  1.00  0.00     0.163 HD
ATOM     76  O   UNL A   1      34.109  28.687  27.387  1.00  0.00    -0.275 OA
BRANCH  74  77
ATOM     77  C   UNL A   1      33.472  28.445  25.095  1.00  0.00     0.103 C 
ATOM     78  C   UNL A   1      32.788  29.045  23.839  1.00  0.00     0.040 C 
ATOM     79  C   UNL A   1      32.872  27.007  25.114  1.00  0.00     0.098 C 
ATOM     80  C   UNL A   1      31.922  27.889  23.314  1.00  0.00     0.086 C 
ATOM     81  C   UNL A   1      31.379  27.078  25.509  1.00  0.00     0.028 C 
ATOM     82  N   UNL A   1      32.735  26.765  23.688  1.00  0.00    -0.332 N 
ATOM     83  C   UNL A   1      30.726  27.711  24.259  1.00  0.00     0.027 C 
BRANCH  82  84
ATOM     84  C   UNL A   1      33.248  25.839  22.827  1.00  0.00     0.256 C 
ATOM     85  O   UNL A   1      33.654  26.110  21.702  1.00  0.00    -0.269 OA
BRANCH  84  86
ATOM     86  C   UNL A   1      33.375  24.452  23.292  1.00  0.00     0.061 A 
ATOM     87  C   UNL A   1      34.667  23.957  23.483  1.00  0.00     0.035 A 
ATOM     88  C   UNL A   1      32.271  23.620  23.454  1.00  0.00     0.072 A 
ATOM     89  C   UNL A   1      34.804  22.640  23.875  1.00  0.00     0.112 A 
ATOM     90  C   UNL A   1      32.519  22.318  23.859  1.00  0.00     0.132 A 
ATOM     91  Cl  UNL A   1      30.652  24.101  23.127  1.00  0.00    -0.082 Cl
ATOM     92  N   UNL A   1      33.757  21.812  24.083  1.00  0.00    -0.263 NA
ENDBRANCH  84  86
ENDBRANCH  82  84
ENDBRANCH  74  77
ENDBRANCH  72  73
ENDBRANCH   1  72
TORSDOF 12
ENDMDL
