MODEL 1
REMARK VINA RESULT:     -13.3      0.000      0.000
REMARK SMILES O=C(NCCCNC(=O)c1ccc(N2C(=O)/C(=C/c3ccco3)SC2=S)cc1)c1ccc(-c2c3nc(c(-c4c(F)c(F)c(F)c(F)c4F)c4ccc([nH]4)c(-c4c(F)c(F)c(F)c(F)c4F)c4nc(c(-c5c(F)c(F)c(F)c(F)c5F)c5ccc2[nH]5)C=C4)C=C3)cc1
REMARK SMILES IDX 5 1 4 2 3 3 1 4 2 5 29 7 30 8 91 9 31 10 90 11 32 12 33 13
REMARK SMILES IDX 34 14 84 15 35 16 89 17 83 18 85 19 36 20 88 21 82 22 81 23
REMARK SMILES IDX 37 25 69 26 49 27 68 28 50 29 53 30 67 31 86 32 51 33 52 34
REMARK SMILES IDX 66 36 87 37 54 38 38 39 39 40 47 41 40 42 41 43 45 44 48 45
REMARK SMILES IDX 42 46 43 47 46 48 44 49 70 50 71 51 79 52 72 53 73 54 77 55
REMARK SMILES IDX 80 56 74 57 75 58 78 59 76 60 55 61 56 62 64 63 57 64 58 65
REMARK SMILES IDX 62 66 65 67 59 68 60 69 63 70 61 71 6 72 7 73 8 74 9 76
REMARK SMILES IDX 10 77 11 78 28 79 12 80 27 81 13 82 14 83 15 84 25 85 16 86
REMARK SMILES IDX 17 87 24 88 26 89 18 90 19 91 20 92 23 93 21 94 22 95
REMARK H PARENT 3 6 85 24 53 35 7 75
REMARK Flexibility Score: inf
ROOT
ATOM      1  C   UNL A   1      31.446  29.105  25.792  1.00  0.00     0.042 C 
ENDROOT
BRANCH   1   2
ATOM      2  C   UNL A   1      32.770  29.809  26.058  1.00  0.00     0.118 C 
BRANCH   2   3
ATOM      3  N   UNL A   1      32.604  31.221  26.374  1.00  0.00    -0.352 N 
ATOM      4  O   UNL A   1      32.847  33.146  27.511  1.00  0.00    -0.269 OA
ATOM      5  C   UNL A   1      33.275  32.022  27.262  1.00  0.00     0.251 C 
ATOM      6  H   UNL A   1      31.894  31.675  25.865  1.00  0.00     0.163 HD
BRANCH   5   7
ATOM      7  C   UNL A   1      34.496  31.538  27.942  1.00  0.00     0.039 A 
ATOM      8  C   UNL A   1      34.605  30.219  28.385  1.00  0.00     0.014 A 
ATOM      9  C   UNL A   1      35.573  32.417  28.102  1.00  0.00     0.014 A 
ATOM     10  C   UNL A   1      35.713  29.823  29.124  1.00  0.00     0.010 A 
ATOM     11  C   UNL A   1      36.728  31.990  28.764  1.00  0.00     0.010 A 
ATOM     12  C   UNL A   1      36.793  30.700  29.311  1.00  0.00    -0.014 A 
BRANCH  12  13
ATOM     13  C   UNL A   1      38.000  30.235  30.040  1.00  0.00     0.031 A 
ATOM     14  C   UNL A   1      38.272  30.687  31.446  1.00  0.00     0.074 A 
ATOM     15  C   UNL A   1      38.851  29.395  29.423  1.00  0.00     0.049 A 
ATOM     16  N   UNL A   1      39.292  30.410  32.221  1.00  0.00    -0.248 NA
ATOM     17  C   UNL A   1      37.275  31.573  32.064  1.00  0.00     0.031 C 
ATOM     18  C   UNL A   1      38.694  28.892  28.056  1.00  0.00     0.029 A 
ATOM     19  N   UNL A   1      40.012  28.811  29.860  1.00  0.00    -0.354 N 
ATOM     20  C   UNL A   1      39.072  31.103  33.403  1.00  0.00     0.074 A 
ATOM     21  C   UNL A   1      37.834  31.835  33.237  1.00  0.00     0.031 C 
ATOM     22  C   UNL A   1      39.701  28.053  27.779  1.00  0.00     0.029 A 
ATOM     23  C   UNL A   1      40.608  28.007  28.921  1.00  0.00     0.049 A 
ATOM     24  H   UNL A   1      40.383  28.955  30.761  1.00  0.00     0.167 HD
ATOM     25  C   UNL A   1      39.830  31.118  34.526  1.00  0.00     0.037 A 
ATOM     26  C   UNL A   1      41.768  27.328  28.962  1.00  0.00     0.037 A 
ATOM     27  C   UNL A   1      41.053  30.373  34.688  1.00  0.00     0.049 A 
ATOM     28  C   UNL A   1      42.604  27.384  30.207  1.00  0.00     0.074 A 
ATOM     29  C   UNL A   1      41.875  30.294  35.800  1.00  0.00     0.029 A 
ATOM     30  N   UNL A   1      41.634  29.583  33.707  1.00  0.00    -0.354 N 
ATOM     31  N   UNL A   1      42.371  28.019  31.330  1.00  0.00    -0.248 NA
ATOM     32  C   UNL A   1      43.866  26.633  30.191  1.00  0.00     0.031 C 
ATOM     33  C   UNL A   1      42.976  29.495  35.475  1.00  0.00     0.029 A 
ATOM     34  C   UNL A   1      42.815  29.031  34.179  1.00  0.00     0.049 A 
ATOM     35  H   UNL A   1      41.261  29.435  32.807  1.00  0.00     0.167 HD
ATOM     36  C   UNL A   1      43.443  27.728  32.161  1.00  0.00     0.074 A 
ATOM     37  C   UNL A   1      44.320  26.847  31.418  1.00  0.00     0.031 C 
ATOM     38  C   UNL A   1      43.675  28.153  33.428  1.00  0.00     0.037 A 
BRANCH  25  39
ATOM     39  C   UNL A   1      39.373  31.987  35.662  1.00  0.00     0.064 A 
ATOM     40  C   UNL A   1      39.811  33.313  35.802  1.00  0.00     0.173 A 
ATOM     41  C   UNL A   1      38.459  31.496  36.608  1.00  0.00     0.173 A 
ATOM     42  F   UNL A   1      40.693  33.828  34.933  1.00  0.00    -0.203 F 
ATOM     43  C   UNL A   1      39.373  34.105  36.862  1.00  0.00     0.198 A 
ATOM     44  C   UNL A   1      38.001  32.300  37.649  1.00  0.00     0.198 A 
ATOM     45  F   UNL A   1      38.002  30.238  36.518  1.00  0.00    -0.203 F 
ATOM     46  F   UNL A   1      39.843  35.352  37.003  1.00  0.00    -0.200 F 
ATOM     47  C   UNL A   1      38.465  33.600  37.781  1.00  0.00     0.200 A 
ATOM     48  F   UNL A   1      37.113  31.815  38.528  1.00  0.00    -0.200 F 
ATOM     49  F   UNL A   1      38.042  34.364  38.797  1.00  0.00    -0.200 F 
ENDBRANCH  25  39
BRANCH  26  50
ATOM     50  C   UNL A   1      42.197  26.541  27.778  1.00  0.00     0.064 A 
ATOM     51  C   UNL A   1      43.135  27.055  26.873  1.00  0.00     0.173 A 
ATOM     52  C   UNL A   1      41.702  25.249  27.545  1.00  0.00     0.173 A 
ATOM     53  F   UNL A   1      43.624  28.292  27.045  1.00  0.00    -0.203 F 
ATOM     54  C   UNL A   1      43.557  26.308  25.775  1.00  0.00     0.198 A 
ATOM     55  C   UNL A   1      42.145  24.493  26.463  1.00  0.00     0.198 A 
ATOM     56  F   UNL A   1      40.807  24.711  28.387  1.00  0.00    -0.203 F 
ATOM     57  F   UNL A   1      44.431  26.834  24.907  1.00  0.00    -0.200 F 
ATOM     58  C   UNL A   1      43.068  25.025  25.576  1.00  0.00     0.200 A 
ATOM     59  F   UNL A   1      41.684  23.247  26.286  1.00  0.00    -0.200 F 
ATOM     60  F   UNL A   1      43.484  24.303  24.527  1.00  0.00    -0.200 F 
ENDBRANCH  26  50
BRANCH  38  61
ATOM     61  C   UNL A   1      44.913  27.639  34.104  1.00  0.00     0.064 A 
ATOM     62  C   UNL A   1      46.124  28.346  34.061  1.00  0.00     0.173 A 
ATOM     63  C   UNL A   1      44.874  26.444  34.838  1.00  0.00     0.173 A 
ATOM     64  F   UNL A   1      46.216  29.486  33.358  1.00  0.00    -0.203 F 
ATOM     65  C   UNL A   1      47.257  27.862  34.708  1.00  0.00     0.198 A 
ATOM     66  C   UNL A   1      46.002  25.978  35.507  1.00  0.00     0.198 A 
ATOM     67  F   UNL A   1      43.739  25.734  34.913  1.00  0.00    -0.203 F 
ATOM     68  F   UNL A   1      48.415  28.530  34.616  1.00  0.00    -0.200 F 
ATOM     69  C   UNL A   1      47.193  26.683  35.436  1.00  0.00     0.200 A 
ATOM     70  F   UNL A   1      45.936  24.845  36.221  1.00  0.00    -0.200 F 
ATOM     71  F   UNL A   1      48.283  26.223  36.066  1.00  0.00    -0.200 F 
ENDBRANCH  38  61
ENDBRANCH  12  13
ENDBRANCH   5   7
ENDBRANCH   2   3
ENDBRANCH   1   2
BRANCH   1  72
ATOM     72  C   UNL A   1      31.260  28.666  24.346  1.00  0.00     0.118 C 
BRANCH  72  73
ATOM     73  N   UNL A   1      32.380  29.060  23.504  1.00  0.00    -0.352 N 
ATOM     74  C   UNL A   1      33.517  28.366  23.183  1.00  0.00     0.251 C 
ATOM     75  H   UNL A   1      32.311  29.959  23.108  1.00  0.00     0.163 HD
ATOM     76  O   UNL A   1      34.461  28.938  22.647  1.00  0.00    -0.269 OA
BRANCH  74  77
ATOM     77  C   UNL A   1      33.608  26.925  23.488  1.00  0.00     0.039 A 
ATOM     78  C   UNL A   1      33.529  26.004  22.445  1.00  0.00     0.016 A 
ATOM     79  C   UNL A   1      33.741  26.483  24.805  1.00  0.00     0.016 A 
ATOM     80  C   UNL A   1      33.647  24.639  22.719  1.00  0.00     0.027 A 
ATOM     81  C   UNL A   1      33.868  25.120  25.073  1.00  0.00     0.027 A 
ATOM     82  C   UNL A   1      33.815  24.177  24.036  1.00  0.00     0.051 A 
BRANCH  82  83
ATOM     83  N   UNL A   1      33.955  22.780  24.303  1.00  0.00    -0.261 N 
ATOM     84  C   UNL A   1      32.885  21.921  24.045  1.00  0.00     0.270 C 
ATOM     85  C   UNL A   1      35.105  22.191  24.817  1.00  0.00     0.152 C 
ATOM     86  O   UNL A   1      31.788  22.208  23.589  1.00  0.00    -0.268 OA
ATOM     87  C   UNL A   1      33.263  20.519  24.368  1.00  0.00     0.084 C 
ATOM     88  S   UNL A   1      34.882  20.449  24.927  1.00  0.00    -0.054 SA
ATOM     89  S   UNL A   1      36.511  22.884  25.405  1.00  0.00    -0.051 S 
ATOM     90  C   UNL A   1      32.407  19.507  24.175  1.00  0.00     0.068 C 
BRANCH  90  91
ATOM     91  C   UNL A   1      32.711  18.154  24.479  1.00  0.00     0.127 A 
ATOM     92  C   UNL A   1      33.430  17.213  23.749  1.00  0.00     0.050 A 
ATOM     93  O   UNL A   1      32.323  17.555  25.655  1.00  0.00    -0.465 OA
ATOM     94  C   UNL A   1      33.439  16.006  24.485  1.00  0.00     0.042 A 
ATOM     95  C   UNL A   1      32.743  16.267  25.636  1.00  0.00     0.195 A 
ENDBRANCH  90  91
ENDBRANCH  82  83
ENDBRANCH  74  77
ENDBRANCH  72  73
ENDBRANCH   1  72
TORSDOF 12
ENDMDL
MODEL 2
REMARK VINA RESULT:     -13.3      0.132      1.933
REMARK SMILES O=C(NCCCNC(=O)c1ccc(N2C(=O)/C(=C/c3ccco3)SC2=S)cc1)c1ccc(-c2c3nc(c(-c4c(F)c(F)c(F)c(F)c4F)c4ccc([nH]4)c(-c4c(F)c(F)c(F)c(F)c4F)c4nc(c(-c5c(F)c(F)c(F)c(F)c5F)c5ccc2[nH]5)C=C4)C=C3)cc1
REMARK SMILES IDX 5 1 4 2 3 3 1 4 2 5 29 7 30 8 91 9 31 10 90 11 32 12 33 13
REMARK SMILES IDX 34 14 84 15 35 16 89 17 83 18 85 19 36 20 88 21 82 22 81 23
REMARK SMILES IDX 37 25 69 26 49 27 68 28 50 29 53 30 67 31 86 32 51 33 52 34
REMARK SMILES IDX 66 36 87 37 54 38 38 39 39 40 47 41 40 42 41 43 45 44 48 45
REMARK SMILES IDX 42 46 43 47 46 48 44 49 70 50 71 51 79 52 72 53 73 54 77 55
REMARK SMILES IDX 80 56 74 57 75 58 78 59 76 60 55 61 56 62 64 63 57 64 58 65
REMARK SMILES IDX 62 66 65 67 59 68 60 69 63 70 61 71 6 72 7 73 8 74 9 76
REMARK SMILES IDX 10 77 11 78 28 79 12 80 27 81 13 82 14 83 15 84 25 85 16 86
REMARK SMILES IDX 17 87 24 88 26 89 18 90 19 91 20 92 23 93 21 94 22 95
REMARK H PARENT 3 6 85 24 53 35 7 75
REMARK Flexibility Score: inf
ROOT
ATOM      1  C   UNL A   1      31.562  29.058  25.771  1.00  0.00     0.042 C 
ENDROOT
BRANCH   1   2
ATOM      2  C   UNL A   1      32.885  29.779  25.989  1.00  0.00     0.118 C 
BRANCH   2   3
ATOM      3  N   UNL A   1      32.712  31.186  26.326  1.00  0.00    -0.352 N 
ATOM      4  O   UNL A   1      32.934  33.091  27.500  1.00  0.00    -0.269 OA
ATOM      5  C   UNL A   1      33.368  31.973  27.239  1.00  0.00     0.251 C 
ATOM      6  H   UNL A   1      32.009  31.648  25.815  1.00  0.00     0.163 HD
BRANCH   5   7
ATOM      7  C   UNL A   1      34.579  31.479  27.929  1.00  0.00     0.039 A 
ATOM      8  C   UNL A   1      34.649  30.177  28.428  1.00  0.00     0.014 A 
ATOM      9  C   UNL A   1      35.686  32.328  28.042  1.00  0.00     0.014 A 
ATOM     10  C   UNL A   1      35.751  29.777  29.175  1.00  0.00     0.010 A 
ATOM     11  C   UNL A   1      36.832  31.892  28.712  1.00  0.00     0.010 A 
ATOM     12  C   UNL A   1      36.860  30.625  29.315  1.00  0.00    -0.014 A 
BRANCH  12  13
ATOM     13  C   UNL A   1      38.059  30.154  30.054  1.00  0.00     0.031 A 
ATOM     14  C   UNL A   1      38.331  30.616  31.456  1.00  0.00     0.074 A 
ATOM     15  C   UNL A   1      38.902  29.297  29.448  1.00  0.00     0.049 A 
ATOM     16  N   UNL A   1      39.344  30.334  32.238  1.00  0.00    -0.248 NA
ATOM     17  C   UNL A   1      37.341  31.521  32.061  1.00  0.00     0.031 C 
ATOM     18  C   UNL A   1      38.744  28.782  28.086  1.00  0.00     0.029 A 
ATOM     19  N   UNL A   1      40.054  28.704  29.896  1.00  0.00    -0.354 N 
ATOM     20  C   UNL A   1      39.127  31.042  33.412  1.00  0.00     0.074 A 
ATOM     21  C   UNL A   1      37.899  31.788  33.234  1.00  0.00     0.031 C 
ATOM     22  C   UNL A   1      39.743  27.928  27.821  1.00  0.00     0.029 A 
ATOM     23  C   UNL A   1      40.644  27.883  28.968  1.00  0.00     0.049 A 
ATOM     24  H   UNL A   1      40.423  28.852  30.798  1.00  0.00     0.167 HD
ATOM     25  C   UNL A   1      39.881  31.059  34.538  1.00  0.00     0.037 A 
ATOM     26  C   UNL A   1      41.796  27.190  29.021  1.00  0.00     0.037 A 
ATOM     27  C   UNL A   1      41.094  30.301  34.713  1.00  0.00     0.049 A 
ATOM     28  C   UNL A   1      42.627  27.249  30.269  1.00  0.00     0.074 A 
ATOM     29  C   UNL A   1      41.910  30.223  35.829  1.00  0.00     0.029 A 
ATOM     30  N   UNL A   1      41.669  29.494  33.742  1.00  0.00    -0.354 N 
ATOM     31  N   UNL A   1      42.397  27.898  31.384  1.00  0.00    -0.248 NA
ATOM     32  C   UNL A   1      43.880  26.482  30.265  1.00  0.00     0.031 C 
ATOM     33  C   UNL A   1      43.003  29.407  35.516  1.00  0.00     0.029 A 
ATOM     34  C   UNL A   1      42.841  28.933  34.225  1.00  0.00     0.049 A 
ATOM     35  H   UNL A   1      41.299  29.342  32.842  1.00  0.00     0.167 HD
ATOM     36  C   UNL A   1      43.462  27.602  32.223  1.00  0.00     0.074 A 
ATOM     37  C   UNL A   1      44.331  26.703  31.492  1.00  0.00     0.031 C 
ATOM     38  C   UNL A   1      43.694  28.036  33.487  1.00  0.00     0.037 A 
BRANCH  25  39
ATOM     39  C   UNL A   1      39.430  31.945  35.664  1.00  0.00     0.064 A 
ATOM     40  C   UNL A   1      38.497  31.512  36.619  1.00  0.00     0.173 A 
ATOM     41  C   UNL A   1      39.963  33.235  35.808  1.00  0.00     0.173 A 
ATOM     42  F   UNL A   1      37.948  30.292  36.521  1.00  0.00    -0.203 F 
ATOM     43  C   UNL A   1      38.093  32.348  37.658  1.00  0.00     0.198 A 
ATOM     44  C   UNL A   1      39.580  34.057  36.866  1.00  0.00     0.198 A 
ATOM     45  F   UNL A   1      40.864  33.698  34.929  1.00  0.00    -0.203 F 
ATOM     46  F   UNL A   1      37.164  31.930  38.529  1.00  0.00    -0.200 F 
ATOM     47  C   UNL A   1      38.639  33.617  37.784  1.00  0.00     0.200 A 
ATOM     48  F   UNL A   1      40.118  35.278  36.993  1.00  0.00    -0.200 F 
ATOM     49  F   UNL A   1      38.252  34.418  38.786  1.00  0.00    -0.200 F 
ENDBRANCH  25  39
BRANCH  26  50
ATOM     50  C   UNL A   1      42.219  26.387  27.846  1.00  0.00     0.064 A 
ATOM     51  C   UNL A   1      41.705  25.102  27.629  1.00  0.00     0.173 A 
ATOM     52  C   UNL A   1      43.120  26.900  26.901  1.00  0.00     0.173 A 
ATOM     53  F   UNL A   1      40.854  24.562  28.514  1.00  0.00    -0.203 F 
ATOM     54  C   UNL A   1      42.083  24.357  26.513  1.00  0.00     0.198 A 
ATOM     55  C   UNL A   1      43.475  26.166  25.773  1.00  0.00     0.198 A 
ATOM     56  F   UNL A   1      43.635  28.128  27.062  1.00  0.00    -0.203 F 
ATOM     57  F   UNL A   1      41.601  23.118  26.344  1.00  0.00    -0.200 F 
ATOM     58  C   UNL A   1      42.960  24.893  25.582  1.00  0.00     0.200 A 
ATOM     59  F   UNL A   1      44.309  26.695  24.867  1.00  0.00    -0.200 F 
ATOM     60  F   UNL A   1      43.313  24.181  24.503  1.00  0.00    -0.200 F 
ENDBRANCH  26  50
BRANCH  38  61
ATOM     61  C   UNL A   1      44.923  27.515  34.173  1.00  0.00     0.064 A 
ATOM     62  C   UNL A   1      44.904  26.324  34.914  1.00  0.00     0.173 A 
ATOM     63  C   UNL A   1      46.144  28.197  34.052  1.00  0.00     0.173 A 
ATOM     64  F   UNL A   1      43.758  25.645  35.072  1.00  0.00    -0.203 F 
ATOM     65  C   UNL A   1      46.059  25.848  35.529  1.00  0.00     0.198 A 
ATOM     66  C   UNL A   1      47.301  27.702  34.645  1.00  0.00     0.198 A 
ATOM     67  F   UNL A   1      46.214  29.337  33.350  1.00  0.00    -0.203 F 
ATOM     68  F   UNL A   1      46.009  24.733  36.270  1.00  0.00    -0.200 F 
ATOM     69  C   UNL A   1      47.257  26.532  35.388  1.00  0.00     0.200 A 
ATOM     70  F   UNL A   1      48.461  28.358  34.498  1.00  0.00    -0.200 F 
ATOM     71  F   UNL A   1      48.368  26.068  35.975  1.00  0.00    -0.200 F 
ENDBRANCH  38  61
ENDBRANCH  12  13
ENDBRANCH   5   7
ENDBRANCH   2   3
ENDBRANCH   1   2
BRANCH   1  72
ATOM     72  C   UNL A   1      31.314  28.646  24.327  1.00  0.00     0.118 C 
BRANCH  72  73
ATOM     73  N   UNL A   1      32.413  29.025  23.451  1.00  0.00    -0.352 N 
ATOM     74  C   UNL A   1      33.540  28.322  23.111  1.00  0.00     0.251 C 
ATOM     75  H   UNL A   1      32.336  29.918  23.044  1.00  0.00     0.163 HD
ATOM     76  O   UNL A   1      34.471  28.883  22.543  1.00  0.00    -0.269 OA
BRANCH  74  77
ATOM     77  C   UNL A   1      33.634  26.886  23.435  1.00  0.00     0.039 A 
ATOM     78  C   UNL A   1      33.475  25.949  22.415  1.00  0.00     0.016 A 
ATOM     79  C   UNL A   1      33.849  26.464  24.747  1.00  0.00     0.016 A 
ATOM     80  C   UNL A   1      33.595  24.586  22.704  1.00  0.00     0.027 A 
ATOM     81  C   UNL A   1      33.977  25.103  25.030  1.00  0.00     0.027 A 
ATOM     82  C   UNL A   1      33.845  24.144  24.015  1.00  0.00     0.051 A 
BRANCH  82  83
ATOM     83  N   UNL A   1      33.986  22.750  24.296  1.00  0.00    -0.261 N 
ATOM     84  C   UNL A   1      32.915  21.888  24.050  1.00  0.00     0.270 C 
ATOM     85  C   UNL A   1      35.137  22.167  24.814  1.00  0.00     0.152 C 
ATOM     86  O   UNL A   1      31.817  22.170  23.594  1.00  0.00    -0.268 OA
ATOM     87  C   UNL A   1      33.295  20.489  24.387  1.00  0.00     0.084 C 
ATOM     88  S   UNL A   1      34.915  20.426  24.943  1.00  0.00    -0.054 SA
ATOM     89  S   UNL A   1      36.545  22.867  25.391  1.00  0.00    -0.051 S 
ATOM     90  C   UNL A   1      32.438  19.476  24.207  1.00  0.00     0.068 C 
BRANCH  90  91
ATOM     91  C   UNL A   1      32.744  18.126  24.525  1.00  0.00     0.127 A 
ATOM     92  C   UNL A   1      33.488  17.187  23.817  1.00  0.00     0.050 A 
ATOM     93  O   UNL A   1      32.330  17.529  25.692  1.00  0.00    -0.465 OA
ATOM     94  C   UNL A   1      33.485  15.983  24.557  1.00  0.00     0.042 A 
ATOM     95  C   UNL A   1      32.759  16.244  25.690  1.00  0.00     0.195 A 
ENDBRANCH  90  91
ENDBRANCH  82  83
ENDBRANCH  74  77
ENDBRANCH  72  73
ENDBRANCH   1  72
TORSDOF 12
ENDMDL
MODEL 3
REMARK VINA RESULT:     -13.3      1.099      7.324
REMARK SMILES O=C(NCCCNC(=O)c1ccc(N2C(=O)/C(=C/c3ccco3)SC2=S)cc1)c1ccc(-c2c3nc(c(-c4c(F)c(F)c(F)c(F)c4F)c4ccc([nH]4)c(-c4c(F)c(F)c(F)c(F)c4F)c4nc(c(-c5c(F)c(F)c(F)c(F)c5F)c5ccc2[nH]5)C=C4)C=C3)cc1
REMARK SMILES IDX 5 1 4 2 3 3 1 4 2 5 29 7 30 8 91 9 31 10 90 11 32 12 33 13
REMARK SMILES IDX 34 14 84 15 35 16 89 17 83 18 85 19 36 20 88 21 82 22 81 23
REMARK SMILES IDX 37 25 69 26 49 27 68 28 50 29 53 30 67 31 86 32 51 33 52 34
REMARK SMILES IDX 66 36 87 37 54 38 38 39 39 40 47 41 40 42 41 43 45 44 48 45
REMARK SMILES IDX 42 46 43 47 46 48 44 49 70 50 71 51 79 52 72 53 73 54 77 55
REMARK SMILES IDX 80 56 74 57 75 58 78 59 76 60 55 61 56 62 64 63 57 64 58 65
REMARK SMILES IDX 62 66 65 67 59 68 60 69 63 70 61 71 6 72 7 73 8 74 9 76
REMARK SMILES IDX 10 77 11 78 28 79 12 80 27 81 13 82 14 83 15 84 25 85 16 86
REMARK SMILES IDX 17 87 24 88 26 89 18 90 19 91 20 92 23 93 21 94 22 95
REMARK H PARENT 3 6 85 24 53 35 7 75
REMARK Flexibility Score: inf
ROOT
ATOM      1  C   UNL A   1      34.148  29.285  23.827  1.00  0.00     0.042 C 
ENDROOT
BRANCH   1   2
ATOM      2  C   UNL A   1      33.259  29.029  25.036  1.00  0.00     0.118 C 
BRANCH   2   3
ATOM      3  N   UNL A   1      32.700  30.253  25.593  1.00  0.00    -0.352 N 
ATOM      4  O   UNL A   1      32.334  31.880  27.101  1.00  0.00    -0.269 OA
ATOM      5  C   UNL A   1      33.063  30.978  26.699  1.00  0.00     0.251 C 
ATOM      6  H   UNL A   1      31.935  30.620  25.094  1.00  0.00     0.163 HD
BRANCH   5   7
ATOM      7  C   UNL A   1      34.314  30.670  27.426  1.00  0.00     0.039 A 
ATOM      8  C   UNL A   1      34.571  29.389  27.917  1.00  0.00     0.014 A 
ATOM      9  C   UNL A   1      35.270  31.680  27.585  1.00  0.00     0.014 A 
ATOM     10  C   UNL A   1      35.697  29.156  28.698  1.00  0.00     0.010 A 
ATOM     11  C   UNL A   1      36.448  31.420  28.290  1.00  0.00     0.010 A 
ATOM     12  C   UNL A   1      36.655  30.165  28.883  1.00  0.00    -0.014 A 
BRANCH  12  13
ATOM     13  C   UNL A   1      37.887  29.876  29.658  1.00  0.00     0.031 A 
ATOM     14  C   UNL A   1      38.947  28.965  29.108  1.00  0.00     0.074 A 
ATOM     15  C   UNL A   1      38.047  30.449  30.865  1.00  0.00     0.049 A 
ATOM     16  N   UNL A   1      40.070  28.575  29.661  1.00  0.00    -0.248 NA
ATOM     17  C   UNL A   1      38.716  28.410  27.766  1.00  0.00     0.031 C 
ATOM     18  C   UNL A   1      37.084  31.348  31.504  1.00  0.00     0.029 A 
ATOM     19  N   UNL A   1      39.075  30.368  31.769  1.00  0.00    -0.354 N 
ATOM     20  C   UNL A   1      40.664  27.715  28.747  1.00  0.00     0.074 A 
ATOM     21  C   UNL A   1      39.768  27.618  27.615  1.00  0.00     0.031 C 
ATOM     22  C   UNL A   1      37.579  31.758  32.680  1.00  0.00     0.029 A 
ATOM     23  C   UNL A   1      38.863  31.104  32.907  1.00  0.00     0.049 A 
ATOM     24  H   UNL A   1      39.888  29.832  31.615  1.00  0.00     0.167 HD
ATOM     25  C   UNL A   1      41.854  27.073  28.844  1.00  0.00     0.037 A 
ATOM     26  C   UNL A   1      39.606  31.222  34.022  1.00  0.00     0.037 A 
ATOM     27  C   UNL A   1      42.747  27.187  29.969  1.00  0.00     0.049 A 
ATOM     28  C   UNL A   1      40.906  30.477  34.117  1.00  0.00     0.074 A 
ATOM     29  C   UNL A   1      43.991  26.605  30.147  1.00  0.00     0.029 A 
ATOM     30  N   UNL A   1      42.489  27.930  31.112  1.00  0.00    -0.354 N 
ATOM     31  N   UNL A   1      41.472  29.690  33.235  1.00  0.00    -0.248 NA
ATOM     32  C   UNL A   1      41.668  30.634  35.362  1.00  0.00     0.031 C 
ATOM     33  C   UNL A   1      44.463  26.957  31.416  1.00  0.00     0.029 A 
ATOM     34  C   UNL A   1      43.539  27.803  32.008  1.00  0.00     0.049 A 
ATOM     35  H   UNL A   1      41.678  28.469  31.264  1.00  0.00     0.167 HD
ATOM     36  C   UNL A   1      42.666  29.275  33.807  1.00  0.00     0.074 A 
ATOM     37  C   UNL A   1      42.748  29.909  35.106  1.00  0.00     0.031 C 
ATOM     38  C   UNL A   1      43.608  28.444  33.297  1.00  0.00     0.037 A 
BRANCH  25  39
ATOM     39  C   UNL A   1      42.249  26.167  27.714  1.00  0.00     0.064 A 
ATOM     40  C   UNL A   1      43.160  26.571  26.725  1.00  0.00     0.173 A 
ATOM     41  C   UNL A   1      41.735  24.864  27.636  1.00  0.00     0.173 A 
ATOM     42  F   UNL A   1      43.673  27.811  26.746  1.00  0.00    -0.203 F 
ATOM     43  C   UNL A   1      43.517  25.715  25.686  1.00  0.00     0.198 A 
ATOM     44  C   UNL A   1      42.117  24.000  26.612  1.00  0.00     0.198 A 
ATOM     45  F   UNL A   1      40.867  24.422  28.558  1.00  0.00    -0.203 F 
ATOM     46  F   UNL A   1      44.350  26.140  24.726  1.00  0.00    -0.200 F 
ATOM     47  C   UNL A   1      43.000  24.429  25.633  1.00  0.00     0.200 A 
ATOM     48  F   UNL A   1      41.627  22.753  26.570  1.00  0.00    -0.200 F 
ATOM     49  F   UNL A   1      43.348  23.606  24.634  1.00  0.00    -0.200 F 
ENDBRANCH  25  39
BRANCH  26  50
ATOM     50  C   UNL A   1      39.124  32.081  35.133  1.00  0.00     0.064 A 
ATOM     51  C   UNL A   1      38.395  31.538  36.199  1.00  0.00     0.173 A 
ATOM     52  C   UNL A   1      39.411  33.454  35.168  1.00  0.00     0.173 A 
ATOM     53  F   UNL A   1      38.082  30.234  36.202  1.00  0.00    -0.203 F 
ATOM     54  C   UNL A   1      37.964  32.339  37.255  1.00  0.00     0.198 A 
ATOM     55  C   UNL A   1      39.004  34.247  36.237  1.00  0.00     0.198 A 
ATOM     56  F   UNL A   1      40.112  34.019  34.174  1.00  0.00    -0.203 F 
ATOM     57  F   UNL A   1      37.241  31.802  38.247  1.00  0.00    -0.200 F 
ATOM     58  C   UNL A   1      38.276  33.690  37.277  1.00  0.00     0.200 A 
ATOM     59  F   UNL A   1      39.324  35.548  36.263  1.00  0.00    -0.200 F 
ATOM     60  F   UNL A   1      37.872  34.457  38.299  1.00  0.00    -0.200 F 
ENDBRANCH  26  50
BRANCH  38  61
ATOM     61  C   UNL A   1      44.830  28.201  34.134  1.00  0.00     0.064 A 
ATOM     62  C   UNL A   1      45.949  29.044  34.067  1.00  0.00     0.173 A 
ATOM     63  C   UNL A   1      44.862  27.134  35.046  1.00  0.00     0.173 A 
ATOM     64  F   UNL A   1      45.973  30.067  33.200  1.00  0.00    -0.203 F 
ATOM     65  C   UNL A   1      47.067  28.812  34.864  1.00  0.00     0.198 A 
ATOM     66  C   UNL A   1      45.970  26.923  35.861  1.00  0.00     0.198 A 
ATOM     67  F   UNL A   1      43.815  26.304  35.151  1.00  0.00    -0.203 F 
ATOM     68  F   UNL A   1      48.143  29.601  34.751  1.00  0.00    -0.200 F 
ATOM     69  C   UNL A   1      47.073  27.757  35.765  1.00  0.00     0.200 A 
ATOM     70  F   UNL A   1      45.970  25.911  36.740  1.00  0.00    -0.200 F 
ATOM     71  F   UNL A   1      48.147  27.541  36.537  1.00  0.00    -0.200 F 
ENDBRANCH  38  61
ENDBRANCH  12  13
ENDBRANCH   5   7
ENDBRANCH   2   3
ENDBRANCH   1   2
BRANCH   1  72
ATOM     72  C   UNL A   1      33.682  28.586  22.557  1.00  0.00     0.118 C 
BRANCH  72  73
ATOM     73  N   UNL A   1      32.245  28.712  22.358  1.00  0.00    -0.352 N 
ATOM     74  C   UNL A   1      31.278  27.741  22.336  1.00  0.00     0.251 C 
ATOM     75  H   UNL A   1      31.921  29.632  22.217  1.00  0.00     0.163 HD
ATOM     76  O   UNL A   1      30.151  28.000  21.928  1.00  0.00    -0.269 OA
BRANCH  74  77
ATOM     77  C   UNL A   1      31.597  26.378  22.800  1.00  0.00     0.039 A 
ATOM     78  C   UNL A   1      32.728  25.737  22.297  1.00  0.00     0.016 A 
ATOM     79  C   UNL A   1      30.766  25.722  23.709  1.00  0.00     0.016 A 
ATOM     80  C   UNL A   1      33.059  24.458  22.754  1.00  0.00     0.027 A 
ATOM     81  C   UNL A   1      31.105  24.449  24.170  1.00  0.00     0.027 A 
ATOM     82  C   UNL A   1      32.251  23.795  23.694  1.00  0.00     0.051 A 
BRANCH  82  83
ATOM     83  N   UNL A   1      32.609  22.496  24.171  1.00  0.00    -0.261 N 
ATOM     84  C   UNL A   1      32.271  21.371  23.416  1.00  0.00     0.270 C 
ATOM     85  C   UNL A   1      33.283  22.256  25.363  1.00  0.00     0.152 C 
ATOM     86  O   UNL A   1      31.690  21.337  22.342  1.00  0.00    -0.268 OA
ATOM     87  C   UNL A   1      32.765  20.137  24.085  1.00  0.00     0.084 C 
ATOM     88  S   UNL A   1      33.587  20.531  25.537  1.00  0.00    -0.054 SA
ATOM     89  S   UNL A   1      33.702  23.300  26.603  1.00  0.00    -0.051 S 
ATOM     90  C   UNL A   1      32.585  18.930  23.534  1.00  0.00     0.068 C 
BRANCH  90  91
ATOM     91  C   UNL A   1      33.024  17.721  24.137  1.00  0.00     0.127 A 
ATOM     92  C   UNL A   1      34.151  16.948  23.875  1.00  0.00     0.050 A 
ATOM     93  O   UNL A   1      32.342  17.119  25.169  1.00  0.00    -0.465 OA
ATOM     94  C   UNL A   1      34.125  15.833  24.743  1.00  0.00     0.042 A 
ATOM     95  C   UNL A   1      32.997  15.982  25.506  1.00  0.00     0.195 A 
ENDBRANCH  90  91
ENDBRANCH  82  83
ENDBRANCH  74  77
ENDBRANCH  72  73
ENDBRANCH   1  72
TORSDOF 12
ENDMDL
