MODEL 1
REMARK VINA RESULT:     -14.3      0.000      0.000
REMARK SMILES COc1cc([C@H]2c3c(-c4ccccc4)n[nH]c3C(=O)N2c2ccc(C(=O)NCCCNC(=O)c3ccc(-c4c5nc(c(-c6c(F)c(F)c(F)c(F)c6F)c6ccc([nH]6)c(-c6c(F)c(F)c(F)c(F)c6F)c6nc(c(-c7c(F)c(F)c(F)c(F)c7F)c7ccc4[nH]7)C=C6)C=C5)cc3)cc2)ccc1O
REMARK SMILES IDX 28 1 27 2 25 3 26 4 24 6 21 7 22 8 98 9 23 10 97 11 20 12
REMARK SMILES IDX 6 13 7 14 8 15 17 16 18 17 15 18 16 19 19 20 5 22 3 23 4 24
REMARK SMILES IDX 101 25 100 26 99 27 2 28 1 29 102 30 9 32 10 33 14 34 11 35
REMARK SMILES IDX 13 36 12 37 29 38 30 39 31 40 32 41 33 43 34 44 35 45 96 46
REMARK SMILES IDX 36 47 95 48 37 49 38 50 39 51 89 52 40 53 94 54 88 55 90 56
REMARK SMILES IDX 41 57 93 58 87 59 86 60 42 62 74 63 54 64 73 65 55 66 58 67
REMARK SMILES IDX 72 68 91 69 56 70 57 71 71 73 92 74 59 75 43 76 44 77 52 78
REMARK SMILES IDX 45 79 46 80 50 81 53 82 47 83 48 84 51 85 49 86 75 87 76 88
REMARK SMILES IDX 84 89 77 90 78 91 82 92 85 93 79 94 80 95 83 96 81 97 60 98
REMARK SMILES IDX 61 99 69 100 62 101 63 102 67 103 70 104 64 105 65 106
REMARK SMILES IDX 68 107 66 108
REMARK H PARENT 27 5 16 21 102 31 31 42 90 61 58 72
REMARK Flexibility Score: inf
ROOT
ATOM      1  C   UNL A   1      39.760  21.886  26.718  1.00  0.00     0.118 C 
ENDROOT
BRANCH   1   2
ATOM      2  N   UNL A   1      39.446  20.816  25.781  1.00  0.00    -0.352 N 
ATOM      3  C   UNL A   1      38.298  20.496  25.094  1.00  0.00     0.251 C 
ATOM      4  O   UNL A   1      38.360  19.569  24.285  1.00  0.00    -0.269 OA
ATOM      5  H   UNL A   1      40.200  20.206  25.605  1.00  0.00     0.163 HD
BRANCH   3   6
ATOM      6  C   UNL A   1      37.011  21.235  25.257  1.00  0.00     0.039 A 
ATOM      7  C   UNL A   1      34.531  22.553  25.446  1.00  0.00     0.045 A 
ATOM      8  C   UNL A   1      34.577  21.196  25.126  1.00  0.00     0.027 A 
ATOM      9  C   UNL A   1      35.711  23.234  25.725  1.00  0.00     0.027 A 
ATOM     10  C   UNL A   1      35.814  20.549  25.001  1.00  0.00     0.016 A 
ATOM     11  C   UNL A   1      36.927  22.560  25.682  1.00  0.00     0.016 A 
BRANCH   7  12
ATOM     12  N   UNL A   1      33.313  23.236  25.548  1.00  0.00    -0.295 N 
ATOM     13  C   UNL A   1      33.174  24.675  25.181  1.00  0.00     0.156 C 
ATOM     14  C   UNL A   1      31.809  24.932  25.697  1.00  0.00     0.038 A 
ATOM     15  C   UNL A   1      30.805  25.901  25.839  1.00  0.00     0.099 A 
ATOM     16  C   UNL A   1      31.315  23.810  26.295  1.00  0.00     0.129 A 
ATOM     17  C   UNL A   1      32.194  22.700  26.214  1.00  0.00     0.277 C 
ATOM     18  N   UNL A   1      29.791  25.408  26.589  1.00  0.00    -0.174 NA
ATOM     19  N   UNL A   1      30.129  24.119  26.841  1.00  0.00    -0.272 N 
ATOM     20  O   UNL A   1      32.018  21.591  26.673  1.00  0.00    -0.267 OA
ATOM     21  H   UNL A   1      29.576  23.491  27.358  1.00  0.00     0.190 HD
BRANCH  13  22
ATOM     22  C   UNL A   1      33.175  24.935  23.691  1.00  0.00    -0.016 A 
ATOM     23  C   UNL A   1      33.511  26.534  21.843  1.00  0.00     0.160 A 
ATOM     24  C   UNL A   1      33.559  26.203  23.209  1.00  0.00     0.056 A 
ATOM     25  C   UNL A   1      33.072  25.561  20.945  1.00  0.00     0.157 A 
ATOM     26  C   UNL A   1      32.729  24.284  21.393  1.00  0.00     0.050 A 
ATOM     27  C   UNL A   1      32.778  23.971  22.753  1.00  0.00     0.010 A 
BRANCH  23  28
ATOM     28  O   UNL A   1      33.896  27.822  21.602  1.00  0.00    -0.493 OA
ATOM     29  C   UNL A   1      33.960  28.757  22.666  1.00  0.00     0.278 C 
ENDBRANCH  23  28
BRANCH  25  30
ATOM     30  O   UNL A   1      32.903  25.763  19.606  1.00  0.00    -0.504 OA
ATOM     31  H   UNL A   1      33.602  25.573  19.011  1.00  0.00     0.293 HD
ENDBRANCH  25  30
ENDBRANCH  13  22
BRANCH  15  32
ATOM     32  C   UNL A   1      30.752  27.249  25.294  1.00  0.00     0.002 A 
ATOM     33  C   UNL A   1      30.056  27.516  24.111  1.00  0.00     0.010 A 
ATOM     34  C   UNL A   1      31.440  28.289  25.931  1.00  0.00     0.010 A 
ATOM     35  C   UNL A   1      30.030  28.813  23.589  1.00  0.00     0.001 A 
ATOM     36  C   UNL A   1      31.405  29.586  25.417  1.00  0.00     0.001 A 
ATOM     37  C   UNL A   1      30.698  29.847  24.246  1.00  0.00     0.000 A 
ENDBRANCH  15  32
ENDBRANCH   7  12
ENDBRANCH   3   6
ENDBRANCH   1   2
BRANCH   1  38
ATOM     38  C   UNL A   1      40.779  21.447  27.784  1.00  0.00     0.042 C 
BRANCH  38  39
ATOM     39  C   UNL A   1      41.944  22.407  27.910  1.00  0.00     0.118 C 
BRANCH  39  40
ATOM     40  N   UNL A   1      42.674  22.572  26.645  1.00  0.00    -0.352 N 
ATOM     41  C   UNL A   1      42.751  23.670  25.806  1.00  0.00     0.251 C 
ATOM     42  H   UNL A   1      43.182  21.783  26.349  1.00  0.00     0.163 HD
ATOM     43  O   UNL A   1      43.093  23.543  24.636  1.00  0.00    -0.269 OA
BRANCH  41  44
ATOM     44  C   UNL A   1      42.418  24.999  26.344  1.00  0.00     0.039 A 
ATOM     45  C   UNL A   1      41.244  25.684  26.018  1.00  0.00     0.014 A 
ATOM     46  C   UNL A   1      43.320  25.544  27.243  1.00  0.00     0.014 A 
ATOM     47  C   UNL A   1      40.993  26.901  26.651  1.00  0.00     0.010 A 
ATOM     48  C   UNL A   1      42.907  26.521  28.090  1.00  0.00     0.010 A 
ATOM     49  C   UNL A   1      41.844  27.304  27.691  1.00  0.00    -0.014 A 
BRANCH  49  50
ATOM     50  C   UNL A   1      41.660  28.525  28.451  1.00  0.00     0.031 A 
ATOM     51  C   UNL A   1      42.665  29.567  28.153  1.00  0.00     0.074 A 
ATOM     52  C   UNL A   1      40.513  28.787  29.117  1.00  0.00     0.049 A 
ATOM     53  N   UNL A   1      43.605  29.992  28.927  1.00  0.00    -0.248 NA
ATOM     54  C   UNL A   1      42.746  30.077  26.775  1.00  0.00     0.031 C 
ATOM     55  C   UNL A   1      39.271  28.003  29.165  1.00  0.00     0.029 A 
ATOM     56  N   UNL A   1      40.175  29.904  29.811  1.00  0.00    -0.354 N 
ATOM     57  C   UNL A   1      44.263  30.982  28.208  1.00  0.00     0.074 A 
ATOM     58  C   UNL A   1      43.852  30.822  26.839  1.00  0.00     0.031 C 
ATOM     59  C   UNL A   1      38.265  28.769  29.645  1.00  0.00     0.029 A 
ATOM     60  C   UNL A   1      38.817  30.036  30.085  1.00  0.00     0.049 A 
ATOM     61  H   UNL A   1      40.840  30.571  30.099  1.00  0.00     0.167 HD
ATOM     62  C   UNL A   1      44.869  32.019  28.851  1.00  0.00     0.037 A 
ATOM     63  C   UNL A   1      38.215  31.146  30.584  1.00  0.00     0.037 A 
ATOM     64  C   UNL A   1      45.018  31.728  30.260  1.00  0.00     0.049 A 
ATOM     65  C   UNL A   1      39.290  31.990  31.178  1.00  0.00     0.074 A 
ATOM     66  C   UNL A   1      45.620  30.707  30.974  1.00  0.00     0.029 A 
ATOM     67  N   UNL A   1      44.141  32.319  31.138  1.00  0.00    -0.354 N 
ATOM     68  N   UNL A   1      39.963  31.660  32.246  1.00  0.00    -0.248 NA
ATOM     69  C   UNL A   1      39.947  32.946  30.296  1.00  0.00     0.031 C 
ATOM     70  C   UNL A   1      44.707  30.414  32.032  1.00  0.00     0.029 A 
ATOM     71  C   UNL A   1      43.659  31.330  31.960  1.00  0.00     0.049 A 
ATOM     72  H   UNL A   1      43.902  33.274  31.172  1.00  0.00     0.167 HD
ATOM     73  C   UNL A   1      41.274  32.012  31.959  1.00  0.00     0.074 A 
ATOM     74  C   UNL A   1      41.192  32.860  30.771  1.00  0.00     0.031 C 
ATOM     75  C   UNL A   1      42.326  31.339  32.514  1.00  0.00     0.037 A 
BRANCH  62  76
ATOM     76  C   UNL A   1      44.970  33.425  28.308  1.00  0.00     0.064 A 
ATOM     77  C   UNL A   1      46.248  34.001  28.164  1.00  0.00     0.173 A 
ATOM     78  C   UNL A   1      43.888  34.327  28.201  1.00  0.00     0.173 A 
ATOM     79  F   UNL A   1      47.353  33.243  28.251  1.00  0.00    -0.203 F 
ATOM     80  C   UNL A   1      46.429  35.379  28.024  1.00  0.00     0.198 A 
ATOM     81  C   UNL A   1      44.071  35.694  28.003  1.00  0.00     0.198 A 
ATOM     82  F   UNL A   1      42.618  33.957  28.391  1.00  0.00    -0.203 F 
ATOM     83  F   UNL A   1      47.667  35.890  28.031  1.00  0.00    -0.200 F 
ATOM     84  C   UNL A   1      45.340  36.226  27.953  1.00  0.00     0.200 A 
ATOM     85  F   UNL A   1      42.999  36.499  27.949  1.00  0.00    -0.200 F 
ATOM     86  F   UNL A   1      45.509  37.552  27.885  1.00  0.00    -0.200 F 
ENDBRANCH  62  76
BRANCH  63  87
ATOM     87  C   UNL A   1      36.856  31.679  30.311  1.00  0.00     0.064 A 
ATOM     88  C   UNL A   1      35.961  31.941  31.363  1.00  0.00     0.173 A 
ATOM     89  C   UNL A   1      36.512  32.215  29.054  1.00  0.00     0.173 A 
ATOM     90  F   UNL A   1      36.228  31.501  32.601  1.00  0.00    -0.203 F 
ATOM     91  C   UNL A   1      34.816  32.726  31.178  1.00  0.00     0.198 A 
ATOM     92  C   UNL A   1      35.366  32.991  28.869  1.00  0.00     0.198 A 
ATOM     93  F   UNL A   1      37.331  32.080  28.002  1.00  0.00    -0.203 F 
ATOM     94  F   UNL A   1      34.026  33.013  32.222  1.00  0.00    -0.200 F 
ATOM     95  C   UNL A   1      34.528  33.262  29.934  1.00  0.00     0.200 A 
ATOM     96  F   UNL A   1      35.116  33.532  27.668  1.00  0.00    -0.200 F 
ATOM     97  F   UNL A   1      33.471  34.070  29.773  1.00  0.00    -0.200 F 
ENDBRANCH  63  87
BRANCH  75  98
ATOM     98  C   UNL A   1      42.044  30.370  33.630  1.00  0.00     0.064 A 
ATOM     99  C   UNL A   1      41.685  29.024  33.444  1.00  0.00     0.173 A 
ATOM    100  C   UNL A   1      42.288  30.790  34.945  1.00  0.00     0.173 A 
ATOM    101  F   UNL A   1      41.542  28.508  32.216  1.00  0.00    -0.203 F 
ATOM    102  C   UNL A   1      41.526  28.158  34.526  1.00  0.00     0.198 A 
ATOM    103  C   UNL A   1      42.168  29.914  36.020  1.00  0.00     0.198 A 
ATOM    104  F   UNL A   1      42.691  32.048  35.184  1.00  0.00    -0.203 F 
ATOM    105  F   UNL A   1      41.164  26.882  34.320  1.00  0.00    -0.200 F 
ATOM    106  C   UNL A   1      41.773  28.604  35.813  1.00  0.00     0.200 A 
ATOM    107  F   UNL A   1      42.462  30.337  37.257  1.00  0.00    -0.200 F 
ATOM    108  F   UNL A   1      41.658  27.763  36.851  1.00  0.00    -0.200 F 
ENDBRANCH  75  98
ENDBRANCH  49  50
ENDBRANCH  41  44
ENDBRANCH  39  40
ENDBRANCH  38  39
ENDBRANCH   1  38
TORSDOF 15
ENDMDL
MODEL 2
REMARK VINA RESULT:     -14.0      3.252      9.056
REMARK SMILES COc1cc([C@H]2c3c(-c4ccccc4)n[nH]c3C(=O)N2c2ccc(C(=O)NCCCNC(=O)c3ccc(-c4c5nc(c(-c6c(F)c(F)c(F)c(F)c6F)c6ccc([nH]6)c(-c6c(F)c(F)c(F)c(F)c6F)c6nc(c(-c7c(F)c(F)c(F)c(F)c7F)c7ccc4[nH]7)C=C6)C=C5)cc3)cc2)ccc1O
REMARK SMILES IDX 28 1 27 2 25 3 26 4 24 6 21 7 22 8 98 9 23 10 97 11 20 12
REMARK SMILES IDX 6 13 7 14 8 15 17 16 18 17 15 18 16 19 19 20 5 22 3 23 4 24
REMARK SMILES IDX 101 25 100 26 99 27 2 28 1 29 102 30 9 32 10 33 14 34 11 35
REMARK SMILES IDX 13 36 12 37 29 38 30 39 31 40 32 41 33 43 34 44 35 45 96 46
REMARK SMILES IDX 36 47 95 48 37 49 38 50 39 51 89 52 40 53 94 54 88 55 90 56
REMARK SMILES IDX 41 57 93 58 87 59 86 60 42 62 74 63 54 64 73 65 55 66 58 67
REMARK SMILES IDX 72 68 91 69 56 70 57 71 71 73 92 74 59 75 43 76 44 77 52 78
REMARK SMILES IDX 45 79 46 80 50 81 53 82 47 83 48 84 51 85 49 86 75 87 76 88
REMARK SMILES IDX 84 89 77 90 78 91 82 92 85 93 79 94 80 95 83 96 81 97 60 98
REMARK SMILES IDX 61 99 69 100 62 101 63 102 67 103 70 104 64 105 65 106
REMARK SMILES IDX 68 107 66 108
REMARK H PARENT 27 5 16 21 102 31 31 42 90 61 58 72
REMARK Flexibility Score: inf
ROOT
ATOM      1  C   UNL A   1      33.918  31.384  28.187  1.00  0.00     0.118 C 
ENDROOT
BRANCH   1   2
ATOM      2  N   UNL A   1      32.770  32.027  27.563  1.00  0.00    -0.352 N 
ATOM      3  C   UNL A   1      31.925  31.630  26.553  1.00  0.00     0.251 C 
ATOM      4  O   UNL A   1      30.966  32.359  26.295  1.00  0.00    -0.269 OA
ATOM      5  H   UNL A   1      32.558  32.914  27.935  1.00  0.00     0.163 HD
BRANCH   3   6
ATOM      6  C   UNL A   1      32.095  30.356  25.793  1.00  0.00     0.039 A 
ATOM      7  C   UNL A   1      32.272  27.921  24.392  1.00  0.00     0.045 A 
ATOM      8  C   UNL A   1      31.110  28.688  24.311  1.00  0.00     0.027 A 
ATOM      9  C   UNL A   1      33.358  28.393  25.120  1.00  0.00     0.027 A 
ATOM     10  C   UNL A   1      31.011  29.885  25.035  1.00  0.00     0.016 A 
ATOM     11  C   UNL A   1      33.280  29.623  25.765  1.00  0.00     0.016 A 
BRANCH   7  12
ATOM     12  N   UNL A   1      32.391  26.706  23.706  1.00  0.00    -0.295 N 
ATOM     13  C   UNL A   1      32.980  25.490  24.337  1.00  0.00     0.156 C 
ATOM     14  C   UNL A   1      33.085  24.618  23.144  1.00  0.00     0.038 A 
ATOM     15  C   UNL A   1      33.477  23.351  22.686  1.00  0.00     0.099 A 
ATOM     16  C   UNL A   1      32.662  25.288  22.034  1.00  0.00     0.129 A 
ATOM     17  C   UNL A   1      32.187  26.594  22.317  1.00  0.00     0.277 C 
ATOM     18  N   UNL A   1      33.392  23.303  21.336  1.00  0.00    -0.174 NA
ATOM     19  N   UNL A   1      32.877  24.502  20.969  1.00  0.00    -0.272 N 
ATOM     20  O   UNL A   1      31.772  27.411  21.522  1.00  0.00    -0.267 OA
ATOM     21  H   UNL A   1      32.684  24.763  20.039  1.00  0.00     0.190 HD
BRANCH  13  22
ATOM     22  C   UNL A   1      32.072  24.814  25.341  1.00  0.00    -0.016 A 
ATOM     23  C   UNL A   1      31.841  23.274  27.253  1.00  0.00     0.160 A 
ATOM     24  C   UNL A   1      32.632  23.989  26.336  1.00  0.00     0.056 A 
ATOM     25  C   UNL A   1      30.455  23.401  27.165  1.00  0.00     0.157 A 
ATOM     26  C   UNL A   1      29.878  24.247  26.216  1.00  0.00     0.050 A 
ATOM     27  C   UNL A   1      30.677  24.948  25.311  1.00  0.00     0.010 A 
BRANCH  23  28
ATOM     28  O   UNL A   1      32.587  22.513  28.108  1.00  0.00    -0.493 OA
ATOM     29  C   UNL A   1      33.919  22.162  27.771  1.00  0.00     0.278 C 
ENDBRANCH  23  28
BRANCH  25  30
ATOM     30  O   UNL A   1      29.563  22.711  27.935  1.00  0.00    -0.504 OA
ATOM     31  H   UNL A   1      28.665  22.653  27.674  1.00  0.00     0.293 HD
ENDBRANCH  25  30
ENDBRANCH  13  22
BRANCH  15  32
ATOM     32  C   UNL A   1      33.908  22.193  23.456  1.00  0.00     0.002 A 
ATOM     33  C   UNL A   1      33.020  21.151  23.738  1.00  0.00     0.010 A 
ATOM     34  C   UNL A   1      35.212  22.135  23.961  1.00  0.00     0.010 A 
ATOM     35  C   UNL A   1      33.444  20.054  24.495  1.00  0.00     0.001 A 
ATOM     36  C   UNL A   1      35.639  21.036  24.706  1.00  0.00     0.001 A 
ATOM     37  C   UNL A   1      34.753  19.995  24.972  1.00  0.00     0.000 A 
ENDBRANCH  15  32
ENDBRANCH   7  12
ENDBRANCH   3   6
ENDBRANCH   1   2
BRANCH   1  38
ATOM     38  C   UNL A   1      35.254  31.899  27.624  1.00  0.00     0.042 C 
BRANCH  38  39
ATOM     39  C   UNL A   1      35.788  33.095  28.385  1.00  0.00     0.118 C 
BRANCH  39  40
ATOM     40  N   UNL A   1      35.258  33.170  29.754  1.00  0.00    -0.352 N 
ATOM     41  C   UNL A   1      35.453  32.315  30.824  1.00  0.00     0.251 C 
ATOM     42  H   UNL A   1      34.678  33.944  29.936  1.00  0.00     0.163 HD
ATOM     43  O   UNL A   1      34.676  32.311  31.773  1.00  0.00    -0.269 OA
BRANCH  41  44
ATOM     44  C   UNL A   1      36.613  31.410  30.809  1.00  0.00     0.039 A 
ATOM     45  C   UNL A   1      36.507  30.034  30.588  1.00  0.00     0.014 A 
ATOM     46  C   UNL A   1      37.855  31.996  30.986  1.00  0.00     0.014 A 
ATOM     47  C   UNL A   1      37.680  29.284  30.512  1.00  0.00     0.010 A 
ATOM     48  C   UNL A   1      38.967  31.339  30.568  1.00  0.00     0.010 A 
ATOM     49  C   UNL A   1      38.908  29.962  30.505  1.00  0.00    -0.014 A 
BRANCH  49  50
ATOM     50  C   UNL A   1      40.191  29.297  30.387  1.00  0.00     0.031 A 
ATOM     51  C   UNL A   1      40.854  29.050  31.685  1.00  0.00     0.074 A 
ATOM     52  C   UNL A   1      40.581  28.692  29.242  1.00  0.00     0.049 A 
ATOM     53  N   UNL A   1      41.918  29.617  32.141  1.00  0.00    -0.248 NA
ATOM     54  C   UNL A   1      40.161  28.199  32.665  1.00  0.00     0.031 C 
ATOM     55  C   UNL A   1      39.836  28.519  27.987  1.00  0.00     0.029 A 
ATOM     56  N   UNL A   1      41.713  27.982  29.005  1.00  0.00    -0.354 N 
ATOM     57  C   UNL A   1      42.152  29.034  33.380  1.00  0.00     0.074 A 
ATOM     58  C   UNL A   1      40.933  28.362  33.741  1.00  0.00     0.031 C 
ATOM     59  C   UNL A   1      40.432  27.572  27.228  1.00  0.00     0.029 A 
ATOM     60  C   UNL A   1      41.679  27.187  27.862  1.00  0.00     0.049 A 
ATOM     61  H   UNL A   1      42.500  28.024  29.595  1.00  0.00     0.167 HD
ATOM     62  C   UNL A   1      43.419  28.923  33.866  1.00  0.00     0.037 A 
ATOM     63  C   UNL A   1      42.599  26.248  27.524  1.00  0.00     0.037 A 
ATOM     64  C   UNL A   1      44.327  29.769  33.123  1.00  0.00     0.049 A 
ATOM     65  C   UNL A   1      43.821  26.532  28.328  1.00  0.00     0.074 A 
ATOM     66  C   UNL A   1      44.368  31.123  32.842  1.00  0.00     0.029 A 
ATOM     67  N   UNL A   1      45.143  29.178  32.187  1.00  0.00    -0.354 N 
ATOM     68  N   UNL A   1      44.573  27.584  28.156  1.00  0.00    -0.248 NA
ATOM     69  C   UNL A   1      43.912  25.907  29.642  1.00  0.00     0.031 C 
ATOM     70  C   UNL A   1      44.760  31.201  31.471  1.00  0.00     0.029 A 
ATOM     71  C   UNL A   1      45.028  29.906  31.029  1.00  0.00     0.049 A 
ATOM     72  H   UNL A   1      45.704  28.381  32.322  1.00  0.00     0.167 HD
ATOM     73  C   UNL A   1      44.887  28.006  29.440  1.00  0.00     0.074 A 
ATOM     74  C   UNL A   1      44.508  26.897  30.312  1.00  0.00     0.031 C 
ATOM     75  C   UNL A   1      45.132  29.323  29.712  1.00  0.00     0.037 A 
BRANCH  62  76
ATOM     76  C   UNL A   1      43.912  27.785  34.730  1.00  0.00     0.064 A 
ATOM     77  C   UNL A   1      43.779  26.467  34.249  1.00  0.00     0.173 A 
ATOM     78  C   UNL A   1      44.233  27.896  36.101  1.00  0.00     0.173 A 
ATOM     79  F   UNL A   1      43.471  26.237  32.963  1.00  0.00    -0.203 F 
ATOM     80  C   UNL A   1      43.860  25.358  35.094  1.00  0.00     0.198 A 
ATOM     81  C   UNL A   1      44.371  26.784  36.929  1.00  0.00     0.198 A 
ATOM     82  F   UNL A   1      44.317  29.072  36.731  1.00  0.00    -0.203 F 
ATOM     83  F   UNL A   1      43.588  24.137  34.615  1.00  0.00    -0.200 F 
ATOM     84  C   UNL A   1      44.148  25.518  36.436  1.00  0.00     0.200 A 
ATOM     85  F   UNL A   1      44.639  26.964  38.232  1.00  0.00    -0.200 F 
ATOM     86  F   UNL A   1      44.163  24.464  37.262  1.00  0.00    -0.200 F 
ENDBRANCH  62  76
BRANCH  63  87
ATOM     87  C   UNL A   1      42.405  24.957  26.816  1.00  0.00     0.064 A 
ATOM     88  C   UNL A   1      43.073  24.692  25.608  1.00  0.00     0.173 A 
ATOM     89  C   UNL A   1      41.799  23.853  27.447  1.00  0.00     0.173 A 
ATOM     90  F   UNL A   1      43.709  25.677  24.959  1.00  0.00    -0.203 F 
ATOM     91  C   UNL A   1      43.165  23.396  25.086  1.00  0.00     0.198 A 
ATOM     92  C   UNL A   1      41.886  22.561  26.921  1.00  0.00     0.198 A 
ATOM     93  F   UNL A   1      41.196  23.985  28.636  1.00  0.00    -0.203 F 
ATOM     94  F   UNL A   1      43.872  23.173  23.969  1.00  0.00    -0.200 F 
ATOM     95  C   UNL A   1      42.583  22.330  25.751  1.00  0.00     0.200 A 
ATOM     96  F   UNL A   1      41.347  21.533  27.593  1.00  0.00    -0.200 F 
ATOM     97  F   UNL A   1      42.731  21.081  25.289  1.00  0.00    -0.200 F 
ENDBRANCH  63  87
BRANCH  75  98
ATOM     98  C   UNL A   1      45.298  30.272  28.557  1.00  0.00     0.064 A 
ATOM     99  C   UNL A   1      44.238  30.933  27.911  1.00  0.00     0.173 A 
ATOM    100  C   UNL A   1      46.599  30.635  28.182  1.00  0.00     0.173 A 
ATOM    101  F   UNL A   1      42.967  30.731  28.281  1.00  0.00    -0.203 F 
ATOM    102  C   UNL A   1      44.471  31.869  26.903  1.00  0.00     0.198 A 
ATOM    103  C   UNL A   1      46.830  31.600  27.205  1.00  0.00     0.198 A 
ATOM    104  F   UNL A   1      47.654  30.084  28.802  1.00  0.00    -0.203 F 
ATOM    105  F   UNL A   1      43.439  32.470  26.291  1.00  0.00    -0.200 F 
ATOM    106  C   UNL A   1      45.768  32.205  26.556  1.00  0.00     0.200 A 
ATOM    107  F   UNL A   1      48.087  31.959  26.912  1.00  0.00    -0.200 F 
ATOM    108  F   UNL A   1      45.994  33.132  25.615  1.00  0.00    -0.200 F 
ENDBRANCH  75  98
ENDBRANCH  49  50
ENDBRANCH  41  44
ENDBRANCH  39  40
ENDBRANCH  38  39
ENDBRANCH   1  38
TORSDOF 15
ENDMDL
MODEL 3
REMARK VINA RESULT:     -13.5      3.221      8.740
REMARK SMILES COc1cc([C@H]2c3c(-c4ccccc4)n[nH]c3C(=O)N2c2ccc(C(=O)NCCCNC(=O)c3ccc(-c4c5nc(c(-c6c(F)c(F)c(F)c(F)c6F)c6ccc([nH]6)c(-c6c(F)c(F)c(F)c(F)c6F)c6nc(c(-c7c(F)c(F)c(F)c(F)c7F)c7ccc4[nH]7)C=C6)C=C5)cc3)cc2)ccc1O
REMARK SMILES IDX 28 1 27 2 25 3 26 4 24 6 21 7 22 8 98 9 23 10 97 11 20 12
REMARK SMILES IDX 6 13 7 14 8 15 17 16 18 17 15 18 16 19 19 20 5 22 3 23 4 24
REMARK SMILES IDX 101 25 100 26 99 27 2 28 1 29 102 30 9 32 10 33 14 34 11 35
REMARK SMILES IDX 13 36 12 37 29 38 30 39 31 40 32 41 33 43 34 44 35 45 96 46
REMARK SMILES IDX 36 47 95 48 37 49 38 50 39 51 89 52 40 53 94 54 88 55 90 56
REMARK SMILES IDX 41 57 93 58 87 59 86 60 42 62 74 63 54 64 73 65 55 66 58 67
REMARK SMILES IDX 72 68 91 69 56 70 57 71 71 73 92 74 59 75 43 76 44 77 52 78
REMARK SMILES IDX 45 79 46 80 50 81 53 82 47 83 48 84 51 85 49 86 75 87 76 88
REMARK SMILES IDX 84 89 77 90 78 91 82 92 85 93 79 94 80 95 83 96 81 97 60 98
REMARK SMILES IDX 61 99 69 100 62 101 63 102 67 103 70 104 64 105 65 106
REMARK SMILES IDX 68 107 66 108
REMARK H PARENT 27 5 16 21 102 31 31 42 90 61 58 72
REMARK Flexibility Score: inf
ROOT
ATOM      1  C   UNL A   1      33.261  33.549  27.736  1.00  0.00     0.118 C 
ENDROOT
BRANCH   1   2
ATOM      2  N   UNL A   1      34.029  32.763  28.692  1.00  0.00    -0.352 N 
ATOM      3  C   UNL A   1      34.463  31.458  28.679  1.00  0.00     0.251 C 
ATOM      4  O   UNL A   1      35.187  31.092  29.605  1.00  0.00    -0.269 OA
ATOM      5  H   UNL A   1      34.287  33.262  29.501  1.00  0.00     0.163 HD
BRANCH   3   6
ATOM      6  C   UNL A   1      34.131  30.493  27.590  1.00  0.00     0.039 A 
ATOM      7  C   UNL A   1      33.649  28.674  25.496  1.00  0.00     0.045 A 
ATOM      8  C   UNL A   1      34.806  28.559  26.267  1.00  0.00     0.027 A 
ATOM      9  C   UNL A   1      32.712  29.654  25.804  1.00  0.00     0.027 A 
ATOM     10  C   UNL A   1      35.060  29.486  27.288  1.00  0.00     0.016 A 
ATOM     11  C   UNL A   1      32.934  30.513  26.875  1.00  0.00     0.016 A 
BRANCH   7  12
ATOM     12  N   UNL A   1      33.381  27.784  24.449  1.00  0.00    -0.295 N 
ATOM     13  C   UNL A   1      33.407  26.304  24.636  1.00  0.00     0.156 C 
ATOM     14  C   UNL A   1      33.307  25.874  23.222  1.00  0.00     0.038 A 
ATOM     15  C   UNL A   1      33.248  24.763  22.367  1.00  0.00     0.099 A 
ATOM     16  C   UNL A   1      33.283  26.963  22.400  1.00  0.00     0.129 A 
ATOM     17  C   UNL A   1      33.299  28.194  23.104  1.00  0.00     0.277 C 
ATOM     18  N   UNL A   1      33.295  25.172  21.077  1.00  0.00    -0.174 NA
ATOM     19  N   UNL A   1      33.303  26.526  21.133  1.00  0.00    -0.272 N 
ATOM     20  O   UNL A   1      33.303  29.310  22.629  1.00  0.00    -0.267 OA
ATOM     21  H   UNL A   1      33.321  27.115  20.343  1.00  0.00     0.190 HD
BRANCH  13  22
ATOM     22  C   UNL A   1      32.212  25.756  25.384  1.00  0.00    -0.016 A 
ATOM     23  C   UNL A   1      31.300  24.048  26.911  1.00  0.00     0.160 A 
ATOM     24  C   UNL A   1      32.380  24.652  26.244  1.00  0.00     0.056 A 
ATOM     25  C   UNL A   1      30.024  24.575  26.711  1.00  0.00     0.157 A 
ATOM     26  C   UNL A   1      29.838  25.696  25.898  1.00  0.00     0.050 A 
ATOM     27  C   UNL A   1      30.920  26.283  25.240  1.00  0.00     0.010 A 
BRANCH  23  28
ATOM     28  O   UNL A   1      31.683  22.976  27.666  1.00  0.00    -0.493 OA
ATOM     29  C   UNL A   1      33.005  22.474  27.571  1.00  0.00     0.278 C 
ENDBRANCH  23  28
BRANCH  25  30
ATOM     30  O   UNL A   1      28.877  24.048  27.230  1.00  0.00    -0.504 OA
ATOM     31  H   UNL A   1      28.072  24.525  27.170  1.00  0.00     0.293 HD
ENDBRANCH  25  30
ENDBRANCH  13  22
BRANCH  15  32
ATOM     32  C   UNL A   1      33.134  23.353  22.707  1.00  0.00     0.002 A 
ATOM     33  C   UNL A   1      32.176  22.543  22.091  1.00  0.00     0.010 A 
ATOM     34  C   UNL A   1      33.961  22.803  23.694  1.00  0.00     0.010 A 
ATOM     35  C   UNL A   1      32.067  21.194  22.442  1.00  0.00     0.001 A 
ATOM     36  C   UNL A   1      33.860  21.454  24.037  1.00  0.00     0.001 A 
ATOM     37  C   UNL A   1      32.912  20.650  23.408  1.00  0.00     0.000 A 
ENDBRANCH  15  32
ENDBRANCH   7  12
ENDBRANCH   3   6
ENDBRANCH   1   2
BRANCH   1  38
ATOM     38  C   UNL A   1      32.545  34.738  28.399  1.00  0.00     0.042 C 
BRANCH  38  39
ATOM     39  C   UNL A   1      33.431  35.484  29.376  1.00  0.00     0.118 C 
BRANCH  39  40
ATOM     40  N   UNL A   1      32.820  35.605  30.707  1.00  0.00    -0.352 N 
ATOM     41  C   UNL A   1      33.105  34.918  31.875  1.00  0.00     0.251 C 
ATOM     42  H   UNL A   1      32.102  36.273  30.778  1.00  0.00     0.163 HD
ATOM     43  O   UNL A   1      32.289  34.871  32.788  1.00  0.00    -0.269 OA
BRANCH  41  44
ATOM     44  C   UNL A   1      34.407  34.246  32.005  1.00  0.00     0.039 A 
ATOM     45  C   UNL A   1      34.546  32.920  32.425  1.00  0.00     0.014 A 
ATOM     46  C   UNL A   1      35.522  34.987  31.646  1.00  0.00     0.014 A 
ATOM     47  C   UNL A   1      35.822  32.359  32.432  1.00  0.00     0.010 A 
ATOM     48  C   UNL A   1      36.674  34.343  31.326  1.00  0.00     0.010 A 
ATOM     49  C   UNL A   1      36.880  33.094  31.875  1.00  0.00    -0.014 A 
BRANCH  49  50
ATOM     50  C   UNL A   1      38.240  32.601  31.787  1.00  0.00     0.031 A 
ATOM     51  C   UNL A   1      38.936  32.540  33.089  1.00  0.00     0.074 A 
ATOM     52  C   UNL A   1      38.703  31.973  30.682  1.00  0.00     0.049 A 
ATOM     53  N   UNL A   1      39.916  33.276  33.489  1.00  0.00    -0.248 NA
ATOM     54  C   UNL A   1      38.369  31.676  34.136  1.00  0.00     0.031 C 
ATOM     55  C   UNL A   1      37.983  31.612  29.452  1.00  0.00     0.029 A 
ATOM     56  N   UNL A   1      39.920  31.407  30.479  1.00  0.00    -0.354 N 
ATOM     57  C   UNL A   1      40.232  32.820  34.762  1.00  0.00     0.074 A 
ATOM     58  C   UNL A   1      39.117  32.018  35.187  1.00  0.00     0.031 C 
ATOM     59  C   UNL A   1      38.698  30.701  28.754  1.00  0.00     0.029 A 
ATOM     60  C   UNL A   1      39.988  30.535  29.396  1.00  0.00     0.049 A 
ATOM     61  H   UNL A   1      40.696  31.597  31.054  1.00  0.00     0.167 HD
ATOM     62  C   UNL A   1      41.505  32.915  35.236  1.00  0.00     0.037 A 
ATOM     63  C   UNL A   1      41.025  29.706  29.112  1.00  0.00     0.037 A 
ATOM     64  C   UNL A   1      42.286  33.820  34.423  1.00  0.00     0.049 A 
ATOM     65  C   UNL A   1      42.201  30.209  29.876  1.00  0.00     0.074 A 
ATOM     66  C   UNL A   1      42.143  35.145  34.046  1.00  0.00     0.029 A 
ATOM     67  N   UNL A   1      43.171  33.279  33.520  1.00  0.00    -0.354 N 
ATOM     68  N   UNL A   1      42.804  31.338  29.620  1.00  0.00    -0.248 NA
ATOM     69  C   UNL A   1      42.381  29.698  31.230  1.00  0.00     0.031 C 
ATOM     70  C   UNL A   1      42.515  35.175  32.669  1.00  0.00     0.029 A 
ATOM     71  C   UNL A   1      42.954  33.900  32.315  1.00  0.00     0.049 A 
ATOM     72  H   UNL A   1      43.835  32.576  33.703  1.00  0.00     0.167 HD
ATOM     73  C   UNL A   1      43.063  31.889  30.866  1.00  0.00     0.074 A 
ATOM     74  C   UNL A   1      42.841  30.805  31.820  1.00  0.00     0.031 C 
ATOM     75  C   UNL A   1      43.129  33.243  31.041  1.00  0.00     0.037 A 
BRANCH  62  76
ATOM     76  C   UNL A   1      42.151  31.920  36.172  1.00  0.00     0.064 A 
ATOM     77  C   UNL A   1      42.863  32.406  37.286  1.00  0.00     0.173 A 
ATOM     78  C   UNL A   1      42.353  30.553  35.878  1.00  0.00     0.173 A 
ATOM     79  F   UNL A   1      42.754  33.691  37.659  1.00  0.00    -0.203 F 
ATOM     80  C   UNL A   1      43.777  31.615  37.985  1.00  0.00     0.198 A 
ATOM     81  C   UNL A   1      43.222  29.750  36.614  1.00  0.00     0.198 A 
ATOM     82  F   UNL A   1      41.815  29.956  34.810  1.00  0.00    -0.203 F 
ATOM     83  F   UNL A   1      44.530  32.163  38.947  1.00  0.00    -0.200 F 
ATOM     84  C   UNL A   1      43.963  30.289  37.643  1.00  0.00     0.200 A 
ATOM     85  F   UNL A   1      43.396  28.469  36.256  1.00  0.00    -0.200 F 
ATOM     86  F   UNL A   1      44.884  29.545  38.267  1.00  0.00    -0.200 F 
ENDBRANCH  62  76
BRANCH  63  87
ATOM     87  C   UNL A   1      41.004  28.353  28.500  1.00  0.00     0.064 A 
ATOM     88  C   UNL A   1      40.228  27.323  29.060  1.00  0.00     0.173 A 
ATOM     89  C   UNL A   1      41.502  28.121  27.203  1.00  0.00     0.173 A 
ATOM     90  F   UNL A   1      39.683  27.474  30.275  1.00  0.00    -0.203 F 
ATOM     91  C   UNL A   1      39.935  26.152  28.350  1.00  0.00     0.198 A 
ATOM     92  C   UNL A   1      41.215  26.949  26.498  1.00  0.00     0.198 A 
ATOM     93  F   UNL A   1      42.196  29.066  26.553  1.00  0.00    -0.203 F 
ATOM     94  F   UNL A   1      39.132  25.225  28.891  1.00  0.00    -0.200 F 
ATOM     95  C   UNL A   1      40.417  25.973  27.064  1.00  0.00     0.200 A 
ATOM     96  F   UNL A   1      41.660  26.804  25.242  1.00  0.00    -0.200 F 
ATOM     97  F   UNL A   1      40.079  24.885  26.359  1.00  0.00    -0.200 F 
ENDBRANCH  63  87
BRANCH  75  98
ATOM     98  C   UNL A   1      43.160  34.120  29.819  1.00  0.00     0.064 A 
ATOM     99  C   UNL A   1      44.307  34.365  29.044  1.00  0.00     0.173 A 
ATOM    100  C   UNL A   1      41.943  34.619  29.335  1.00  0.00     0.173 A 
ATOM    101  F   UNL A   1      45.492  33.833  29.371  1.00  0.00    -0.203 F 
ATOM    102  C   UNL A   1      44.244  35.118  27.871  1.00  0.00     0.198 A 
ATOM    103  C   UNL A   1      41.876  35.335  28.142  1.00  0.00     0.198 A 
ATOM    104  F   UNL A   1      40.804  34.370  29.998  1.00  0.00    -0.203 F 
ATOM    105  F   UNL A   1      45.359  35.351  27.161  1.00  0.00    -0.200 F 
ATOM    106  C   UNL A   1      43.027  35.597  27.419  1.00  0.00     0.200 A 
ATOM    107  F   UNL A   1      40.688  35.750  27.683  1.00  0.00    -0.200 F 
ATOM    108  F   UNL A   1      42.959  36.288  26.272  1.00  0.00    -0.200 F 
ENDBRANCH  75  98
ENDBRANCH  49  50
ENDBRANCH  41  44
ENDBRANCH  39  40
ENDBRANCH  38  39
ENDBRANCH   1  38
TORSDOF 15
ENDMDL
