MODEL 1
REMARK VINA RESULT:     -13.2      0.000      0.000
REMARK SMILES Cc1nn(C)c(C)c1[C@@H](C(=O)NCCCNC(=O)c1ccc(-c2c3nc(c(-c4c(F)c(F)c(F)c(F)c4F)c4ccc([nH]4)c(-c4c(F)c(F)c(F)c(F)c4F)c4nc(c(-c5c(F)c(F)c(F)c(F)c5F)c5ccc2[nH]5)C=C4)C=C3)cc1)[NH+]1CCN(c2ccccc2F)CC1
REMARK SMILES IDX 14 1 13 2 12 3 10 4 11 5 9 7 8 8 1 9 2 10 3 11 4 12 6 13
REMARK SMILES IDX 5 14 7 15 82 16 83 17 94 18 84 20 93 21 85 22 86 23 87 24
REMARK SMILES IDX 91 25 88 26 90 27 92 28 89 29 15 30 16 31 17 32 18 34 19 35
REMARK SMILES IDX 20 36 81 37 21 38 80 39 22 40 23 41 24 42 74 43 25 44 79 45
REMARK SMILES IDX 73 46 75 47 26 48 78 49 72 50 71 51 27 53 59 54 39 55 58 56
REMARK SMILES IDX 40 57 43 58 57 59 76 60 41 61 42 62 56 64 77 65 44 66 28 67
REMARK SMILES IDX 29 68 37 69 30 70 31 71 35 72 38 73 32 74 33 75 36 76 34 77
REMARK SMILES IDX 60 78 61 79 69 80 62 81 63 82 67 83 70 84 64 85 65 86 68 87
REMARK SMILES IDX 66 88 45 89 46 90 54 91 47 92 48 93 52 94 55 95 49 96 50 97
REMARK SMILES IDX 53 98 51 99
REMARK H PARENT 12 6 82 19 16 33 75 52 43 63
REMARK Flexibility Score: inf
ROOT
ATOM      1  C   UNL A   1      31.778  29.267  26.838  1.00  0.00     0.042 C 
ENDROOT
BRANCH   1   2
ATOM      2  C   UNL A   1      32.237  27.835  27.104  1.00  0.00     0.118 C 
BRANCH   2   3
ATOM      3  N   UNL A   1      31.135  26.892  27.154  1.00  0.00    -0.351 N 
ATOM      4  C   UNL A   1      30.581  26.124  26.159  1.00  0.00     0.283 C 
ATOM      5  O   UNL A   1      29.622  25.426  26.501  1.00  0.00    -0.268 OA
ATOM      6  H   UNL A   1      30.720  26.785  28.040  1.00  0.00     0.163 HD
BRANCH   4   7
ATOM      7  C   UNL A   1      31.189  26.158  24.721  1.00  0.00     0.309 C 
BRANCH   7   8
ATOM      8  C   UNL A   1      30.529  27.177  23.824  1.00  0.00     0.063 A 
ATOM      9  C   UNL A   1      28.025  26.328  23.931  1.00  0.00     0.069 C 
ATOM     10  C   UNL A   1      29.132  27.228  23.508  1.00  0.00     0.069 A 
ATOM     11  N   UNL A   1      28.840  28.244  22.695  1.00  0.00    -0.178 NA
ATOM     12  N   UNL A   1      30.013  28.860  22.495  1.00  0.00    -0.272 N 
ATOM     13  C   UNL A   1      31.079  28.190  23.039  1.00  0.00     0.045 A 
ATOM     14  C   UNL A   1      30.011  30.087  21.732  1.00  0.00     0.174 C 
ATOM     15  C   UNL A   1      32.487  28.580  22.751  1.00  0.00     0.067 C 
ENDBRANCH   7   8
BRANCH   7  16
ATOM     16  N   UNL A   1      31.352  24.814  24.114  1.00  0.00    -0.318 N 
ATOM     17  C   UNL A   1      32.295  24.631  23.002  1.00  0.00     0.284 C 
ATOM     18  C   UNL A   1      31.485  23.694  25.065  1.00  0.00     0.284 C 
ATOM     19  H   UNL A   1      30.431  24.780  23.676  1.00  0.00     0.349 HD
ATOM     20  C   UNL A   1      33.753  24.292  23.369  1.00  0.00     0.178 C 
ATOM     21  C   UNL A   1      32.920  23.328  25.522  1.00  0.00     0.178 C 
ATOM     22  N   UNL A   1      33.852  23.246  24.391  1.00  0.00    -0.358 N 
BRANCH  22  23
ATOM     23  C   UNL A   1      35.139  22.805  24.725  1.00  0.00     0.073 A 
ATOM     24  C   UNL A   1      36.153  23.698  25.107  1.00  0.00     0.029 A 
ATOM     25  C   UNL A   1      35.460  21.438  24.704  1.00  0.00     0.146 A 
ATOM     26  C   UNL A   1      37.441  23.247  25.416  1.00  0.00     0.002 A 
ATOM     27  C   UNL A   1      36.743  20.981  25.001  1.00  0.00     0.041 A 
ATOM     28  F   UNL A   1      34.524  20.534  24.370  1.00  0.00    -0.205 F 
ATOM     29  C   UNL A   1      37.740  21.888  25.352  1.00  0.00     0.003 A 
ENDBRANCH  22  23
ENDBRANCH   7  16
ENDBRANCH   4   7
ENDBRANCH   2   3
ENDBRANCH   1   2
BRANCH   1  30
ATOM     30  C   UNL A   1      32.782  30.122  26.074  1.00  0.00     0.118 C 
BRANCH  30  31
ATOM     31  N   UNL A   1      32.703  31.530  26.430  1.00  0.00    -0.352 N 
ATOM     32  C   UNL A   1      33.413  32.255  27.349  1.00  0.00     0.251 C 
ATOM     33  H   UNL A   1      32.028  32.045  25.930  1.00  0.00     0.163 HD
ATOM     34  O   UNL A   1      33.045  33.400  27.626  1.00  0.00    -0.269 OA
BRANCH  32  35
ATOM     35  C   UNL A   1      34.602  31.694  28.028  1.00  0.00     0.039 A 
ATOM     36  C   UNL A   1      35.713  32.522  28.219  1.00  0.00     0.014 A 
ATOM     37  C   UNL A   1      34.662  30.354  28.423  1.00  0.00     0.014 A 
ATOM     38  C   UNL A   1      36.856  32.026  28.851  1.00  0.00     0.010 A 
ATOM     39  C   UNL A   1      35.776  29.878  29.115  1.00  0.00     0.010 A 
ATOM     40  C   UNL A   1      36.886  30.707  29.330  1.00  0.00    -0.014 A 
BRANCH  40  41
ATOM     41  C   UNL A   1      38.068  30.197  30.070  1.00  0.00     0.031 A 
ATOM     42  C   UNL A   1      38.337  30.627  31.484  1.00  0.00     0.074 A 
ATOM     43  C   UNL A   1      38.938  29.383  29.441  1.00  0.00     0.049 A 
ATOM     44  N   UNL A   1      39.324  30.294  32.278  1.00  0.00    -0.248 NA
ATOM     45  C   UNL A   1      37.387  31.580  32.076  1.00  0.00     0.031 C 
ATOM     46  C   UNL A   1      38.830  28.949  28.048  1.00  0.00     0.029 A 
ATOM     47  N   UNL A   1      40.088  28.782  29.889  1.00  0.00    -0.354 N 
ATOM     48  C   UNL A   1      39.126  31.007  33.451  1.00  0.00     0.074 A 
ATOM     49  C   UNL A   1      37.948  31.827  33.252  1.00  0.00     0.031 C 
ATOM     50  C   UNL A   1      39.859  28.140  27.758  1.00  0.00     0.029 A 
ATOM     51  C   UNL A   1      40.712  28.014  28.938  1.00  0.00     0.049 A 
ATOM     52  H   UNL A   1      40.431  28.892  30.805  1.00  0.00     0.167 HD
ATOM     53  C   UNL A   1      39.847  30.970  34.597  1.00  0.00     0.037 A 
ATOM     54  C   UNL A   1      41.843  27.288  29.007  1.00  0.00     0.037 A 
ATOM     55  C   UNL A   1      40.998  30.129  34.806  1.00  0.00     0.049 A 
ATOM     56  C   UNL A   1      42.600  27.223  30.302  1.00  0.00     0.074 A 
ATOM     57  C   UNL A   1      41.735  29.945  35.962  1.00  0.00     0.029 A 
ATOM     58  N   UNL A   1      41.584  29.337  33.828  1.00  0.00    -0.354 N 
ATOM     59  N   UNL A   1      42.349  27.829  31.436  1.00  0.00    -0.248 NA
ATOM     60  C   UNL A   1      43.791  26.364  30.330  1.00  0.00     0.031 C 
ATOM     61  C   UNL A   1      42.793  29.074  35.674  1.00  0.00     0.029 A 
ATOM     62  C   UNL A   1      42.691  28.683  34.349  1.00  0.00     0.049 A 
ATOM     63  H   UNL A   1      41.262  29.252  32.903  1.00  0.00     0.167 HD
ATOM     64  C   UNL A   1      43.341  27.419  32.316  1.00  0.00     0.074 A 
ATOM     65  C   UNL A   1      44.185  26.494  31.590  1.00  0.00     0.031 C 
ATOM     66  C   UNL A   1      43.535  27.781  33.608  1.00  0.00     0.037 A 
BRANCH  53  67
ATOM     67  C   UNL A   1      39.411  31.868  35.718  1.00  0.00     0.064 A 
ATOM     68  C   UNL A   1      38.424  31.477  36.635  1.00  0.00     0.173 A 
ATOM     69  C   UNL A   1      40.004  33.129  35.891  1.00  0.00     0.173 A 
ATOM     70  F   UNL A   1      37.819  30.286  36.509  1.00  0.00    -0.203 F 
ATOM     71  C   UNL A   1      38.021  32.328  37.661  1.00  0.00     0.198 A 
ATOM     72  C   UNL A   1      39.618  33.965  36.934  1.00  0.00     0.198 A 
ATOM     73  F   UNL A   1      40.958  33.548  35.046  1.00  0.00    -0.203 F 
ATOM     74  F   UNL A   1      37.037  31.955  38.493  1.00  0.00    -0.200 F 
ATOM     75  C   UNL A   1      38.621  33.569  37.813  1.00  0.00     0.200 A 
ATOM     76  F   UNL A   1      40.207  35.160  37.087  1.00  0.00    -0.200 F 
ATOM     77  F   UNL A   1      38.232  34.387  38.801  1.00  0.00    -0.200 F 
ENDBRANCH  53  67
BRANCH  54  78
ATOM     78  C   UNL A   1      42.300  26.538  27.810  1.00  0.00     0.064 A 
ATOM     79  C   UNL A   1      43.253  27.085  26.940  1.00  0.00     0.173 A 
ATOM     80  C   UNL A   1      41.819  25.251  27.533  1.00  0.00     0.173 A 
ATOM     81  F   UNL A   1      43.725  28.321  27.157  1.00  0.00    -0.203 F 
ATOM     82  C   UNL A   1      43.705  26.372  25.833  1.00  0.00     0.198 A 
ATOM     83  C   UNL A   1      42.290  24.530  26.438  1.00  0.00     0.198 A 
ATOM     84  F   UNL A   1      40.911  24.684  28.341  1.00  0.00    -0.203 F 
ATOM     85  F   UNL A   1      44.598  26.927  25.001  1.00  0.00    -0.200 F 
ATOM     86  C   UNL A   1      43.229  25.093  25.586  1.00  0.00     0.200 A 
ATOM     87  F   UNL A   1      41.838  23.290  26.210  1.00  0.00    -0.200 F 
ATOM     88  F   UNL A   1      43.674  24.403  24.528  1.00  0.00    -0.200 F 
ENDBRANCH  54  78
BRANCH  66  89
ATOM     89  C   UNL A   1      44.711  27.174  34.315  1.00  0.00     0.064 A 
ATOM     90  C   UNL A   1      45.943  27.842  34.387  1.00  0.00     0.173 A 
ATOM     91  C   UNL A   1      44.602  25.925  34.943  1.00  0.00     0.173 A 
ATOM     92  F   UNL A   1      46.103  29.031  33.788  1.00  0.00    -0.203 F 
ATOM     93  C   UNL A   1      47.030  27.266  35.040  1.00  0.00     0.198 A 
ATOM     94  C   UNL A   1      45.684  25.366  35.617  1.00  0.00     0.198 A 
ATOM     95  F   UNL A   1      43.444  25.248  34.906  1.00  0.00    -0.203 F 
ATOM     96  F   UNL A   1      48.212  27.900  35.055  1.00  0.00    -0.200 F 
ATOM     97  C   UNL A   1      46.899  26.032  35.658  1.00  0.00     0.200 A 
ATOM     98  F   UNL A   1      45.552  24.176  36.222  1.00  0.00    -0.200 F 
ATOM     99  F   UNL A   1      47.946  25.481  36.286  1.00  0.00    -0.200 F 
ENDBRANCH  66  89
ENDBRANCH  40  41
ENDBRANCH  32  35
ENDBRANCH  30  31
ENDBRANCH   1  30
TORSDOF 13
ENDMDL
MODEL 2
REMARK VINA RESULT:     -13.2      2.068      2.981
REMARK SMILES Cc1nn(C)c(C)c1[C@@H](C(=O)NCCCNC(=O)c1ccc(-c2c3nc(c(-c4c(F)c(F)c(F)c(F)c4F)c4ccc([nH]4)c(-c4c(F)c(F)c(F)c(F)c4F)c4nc(c(-c5c(F)c(F)c(F)c(F)c5F)c5ccc2[nH]5)C=C4)C=C3)cc1)[NH+]1CCN(c2ccccc2F)CC1
REMARK SMILES IDX 14 1 13 2 12 3 10 4 11 5 9 7 8 8 1 9 2 10 3 11 4 12 6 13
REMARK SMILES IDX 5 14 7 15 82 16 83 17 94 18 84 20 93 21 85 22 86 23 87 24
REMARK SMILES IDX 91 25 88 26 90 27 92 28 89 29 15 30 16 31 17 32 18 34 19 35
REMARK SMILES IDX 20 36 81 37 21 38 80 39 22 40 23 41 24 42 74 43 25 44 79 45
REMARK SMILES IDX 73 46 75 47 26 48 78 49 72 50 71 51 27 53 59 54 39 55 58 56
REMARK SMILES IDX 40 57 43 58 57 59 76 60 41 61 42 62 56 64 77 65 44 66 28 67
REMARK SMILES IDX 29 68 37 69 30 70 31 71 35 72 38 73 32 74 33 75 36 76 34 77
REMARK SMILES IDX 60 78 61 79 69 80 62 81 63 82 67 83 70 84 64 85 65 86 68 87
REMARK SMILES IDX 66 88 45 89 46 90 54 91 47 92 48 93 52 94 55 95 49 96 50 97
REMARK SMILES IDX 53 98 51 99
REMARK H PARENT 12 6 82 19 16 33 75 52 43 63
REMARK Flexibility Score: inf
ROOT
ATOM      1  C   UNL A   1      33.294  27.837  26.723  1.00  0.00     0.042 C 
ENDROOT
BRANCH   1   2
ATOM      2  C   UNL A   1      31.858  28.213  27.082  1.00  0.00     0.118 C 
BRANCH   2   3
ATOM      3  N   UNL A   1      30.970  27.066  27.120  1.00  0.00    -0.351 N 
ATOM      4  C   UNL A   1      30.616  26.188  26.125  1.00  0.00     0.283 C 
ATOM      5  O   UNL A   1      29.808  25.313  26.454  1.00  0.00    -0.268 OA
ATOM      6  H   UNL A   1      30.557  26.890  27.996  1.00  0.00     0.163 HD
BRANCH   4   7
ATOM      7  C   UNL A   1      31.251  26.324  24.705  1.00  0.00     0.309 C 
BRANCH   7   8
ATOM      8  C   UNL A   1      30.532  27.322  23.830  1.00  0.00     0.063 A 
ATOM      9  C   UNL A   1      28.081  26.327  23.917  1.00  0.00     0.069 C 
ATOM     10  C   UNL A   1      29.134  27.298  23.515  1.00  0.00     0.069 A 
ATOM     11  N   UNL A   1      28.783  28.314  22.724  1.00  0.00    -0.178 NA
ATOM     12  N   UNL A   1      29.918  29.000  22.537  1.00  0.00    -0.272 N 
ATOM     13  C   UNL A   1      31.021  28.382  23.068  1.00  0.00     0.045 A 
ATOM     14  C   UNL A   1      29.845  30.241  21.801  1.00  0.00     0.174 C 
ATOM     15  C   UNL A   1      32.404  28.859  22.789  1.00  0.00     0.067 C 
ENDBRANCH   7   8
BRANCH   7  16
ATOM     16  N   UNL A   1      31.532  25.021  24.054  1.00  0.00    -0.318 N 
ATOM     17  C   UNL A   1      32.578  24.937  23.025  1.00  0.00     0.284 C 
ATOM     18  C   UNL A   1      31.634  23.861  24.960  1.00  0.00     0.284 C 
ATOM     19  H   UNL A   1      30.656  24.969  23.533  1.00  0.00     0.349 HD
ATOM     20  C   UNL A   1      34.012  24.644  23.507  1.00  0.00     0.178 C 
ATOM     21  C   UNL A   1      33.038  23.536  25.529  1.00  0.00     0.178 C 
ATOM     22  N   UNL A   1      34.070  23.553  24.484  1.00  0.00    -0.358 N 
BRANCH  22  23
ATOM     23  C   UNL A   1      35.342  23.153  24.914  1.00  0.00     0.073 A 
ATOM     24  C   UNL A   1      36.290  24.075  25.388  1.00  0.00     0.029 A 
ATOM     25  C   UNL A   1      35.714  21.799  24.900  1.00  0.00     0.146 A 
ATOM     26  C   UNL A   1      37.565  23.666  25.792  1.00  0.00     0.002 A 
ATOM     27  C   UNL A   1      36.986  21.383  25.291  1.00  0.00     0.041 A 
ATOM     28  F   UNL A   1      34.842  20.867  24.480  1.00  0.00    -0.205 F 
ATOM     29  C   UNL A   1      37.918  22.320  25.733  1.00  0.00     0.003 A 
ENDBRANCH  22  23
ENDBRANCH   7  16
ENDBRANCH   4   7
ENDBRANCH   2   3
ENDBRANCH   1   2
BRANCH   1  30
ATOM     30  C   UNL A   1      34.053  28.908  25.947  1.00  0.00     0.118 C 
BRANCH  30  31
ATOM     31  N   UNL A   1      33.905  30.232  26.530  1.00  0.00    -0.352 N 
ATOM     32  C   UNL A   1      34.618  30.850  27.523  1.00  0.00     0.251 C 
ATOM     33  H   UNL A   1      33.173  30.771  26.150  1.00  0.00     0.163 HD
ATOM     34  O   UNL A   1      34.194  31.907  27.998  1.00  0.00    -0.269 OA
BRANCH  32  35
ATOM     35  C   UNL A   1      35.875  30.273  28.048  1.00  0.00     0.039 A 
ATOM     36  C   UNL A   1      37.042  30.417  27.290  1.00  0.00     0.014 A 
ATOM     37  C   UNL A   1      35.911  29.545  29.241  1.00  0.00     0.014 A 
ATOM     38  C   UNL A   1      38.247  29.882  27.751  1.00  0.00     0.010 A 
ATOM     39  C   UNL A   1      37.126  29.070  29.735  1.00  0.00     0.010 A 
ATOM     40  C   UNL A   1      38.305  29.228  28.991  1.00  0.00    -0.014 A 
BRANCH  40  41
ATOM     41  C   UNL A   1      39.597  28.724  29.523  1.00  0.00     0.031 A 
ATOM     42  C   UNL A   1      40.347  29.487  30.577  1.00  0.00     0.074 A 
ATOM     43  C   UNL A   1      40.126  27.597  29.008  1.00  0.00     0.049 A 
ATOM     44  N   UNL A   1      41.492  29.205  31.147  1.00  0.00    -0.248 NA
ATOM     45  C   UNL A   1      39.746  30.749  31.033  1.00  0.00     0.031 C 
ATOM     46  C   UNL A   1      39.533  26.804  27.931  1.00  0.00     0.029 A 
ATOM     47  N   UNL A   1      41.284  26.929  29.315  1.00  0.00    -0.354 N 
ATOM     48  C   UNL A   1      41.757  30.258  32.010  1.00  0.00     0.074 A 
ATOM     49  C   UNL A   1      40.675  31.209  31.858  1.00  0.00     0.031 C 
ATOM     50  C   UNL A   1      40.321  25.748  27.678  1.00  0.00     0.029 A 
ATOM     51  C   UNL A   1      41.485  25.802  28.559  1.00  0.00     0.049 A 
ATOM     52  H   UNL A   1      41.911  27.230  30.012  1.00  0.00     0.167 HD
ATOM     53  C   UNL A   1      42.797  30.411  32.866  1.00  0.00     0.037 A 
ATOM     54  C   UNL A   1      42.492  24.908  28.574  1.00  0.00     0.037 A 
ATOM     55  C   UNL A   1      43.854  29.448  33.040  1.00  0.00     0.049 A 
ATOM     56  C   UNL A   1      43.609  25.073  29.563  1.00  0.00     0.074 A 
ATOM     57  C   UNL A   1      44.895  29.464  33.951  1.00  0.00     0.029 A 
ATOM     58  N   UNL A   1      44.007  28.298  32.278  1.00  0.00    -0.354 N 
ATOM     59  N   UNL A   1      43.800  26.025  30.442  1.00  0.00    -0.248 NA
ATOM     60  C   UNL A   1      44.645  24.031  29.570  1.00  0.00     0.031 C 
ATOM     61  C   UNL A   1      45.704  28.346  33.713  1.00  0.00     0.029 A 
ATOM     62  C   UNL A   1      45.143  27.611  32.681  1.00  0.00     0.049 A 
ATOM     63  H   UNL A   1      43.400  28.013  31.559  1.00  0.00     0.167 HD
ATOM     64  C   UNL A   1      44.969  25.696  31.114  1.00  0.00     0.074 A 
ATOM     65  C   UNL A   1      45.431  24.441  30.557  1.00  0.00     0.031 C 
ATOM     66  C   UNL A   1      45.603  26.374  32.102  1.00  0.00     0.037 A 
BRANCH  53  67
ATOM     67  C   UNL A   1      42.842  31.671  33.680  1.00  0.00     0.064 A 
ATOM     68  C   UNL A   1      42.190  31.772  34.919  1.00  0.00     0.173 A 
ATOM     69  C   UNL A   1      43.564  32.785  33.226  1.00  0.00     0.173 A 
ATOM     70  F   UNL A   1      41.478  30.739  35.393  1.00  0.00    -0.203 F 
ATOM     71  C   UNL A   1      42.230  32.953  35.656  1.00  0.00     0.198 A 
ATOM     72  C   UNL A   1      43.625  33.954  33.979  1.00  0.00     0.198 A 
ATOM     73  F   UNL A   1      44.211  32.739  32.052  1.00  0.00    -0.203 F 
ATOM     74  F   UNL A   1      41.556  33.044  36.810  1.00  0.00    -0.200 F 
ATOM     75  C   UNL A   1      42.951  34.041  35.188  1.00  0.00     0.200 A 
ATOM     76  F   UNL A   1      44.331  35.002  33.531  1.00  0.00    -0.200 F 
ATOM     77  F   UNL A   1      42.989  35.178  35.898  1.00  0.00    -0.200 F 
ENDBRANCH  53  67
BRANCH  54  78
ATOM     78  C   UNL A   1      42.458  23.760  27.634  1.00  0.00     0.064 A 
ATOM     79  C   UNL A   1      42.963  23.882  26.332  1.00  0.00     0.173 A 
ATOM     80  C   UNL A   1      41.955  22.513  28.029  1.00  0.00     0.173 A 
ATOM     81  F   UNL A   1      43.437  25.062  25.907  1.00  0.00    -0.203 F 
ATOM     82  C   UNL A   1      42.960  22.799  25.458  1.00  0.00     0.198 A 
ATOM     83  C   UNL A   1      41.974  21.424  27.160  1.00  0.00     0.198 A 
ATOM     84  F   UNL A   1      41.467  22.347  29.267  1.00  0.00    -0.203 F 
ATOM     85  F   UNL A   1      43.424  22.947  24.209  1.00  0.00    -0.200 F 
ATOM     86  C   UNL A   1      42.472  21.568  25.874  1.00  0.00     0.200 A 
ATOM     87  F   UNL A   1      41.514  20.234  27.571  1.00  0.00    -0.200 F 
ATOM     88  F   UNL A   1      42.482  20.523  25.036  1.00  0.00    -0.200 F 
ENDBRANCH  54  78
BRANCH  66  89
ATOM     89  C   UNL A   1      46.868  25.772  32.638  1.00  0.00     0.064 A 
ATOM     90  C   UNL A   1      46.852  24.893  33.732  1.00  0.00     0.173 A 
ATOM     91  C   UNL A   1      48.105  26.058  32.040  1.00  0.00     0.173 A 
ATOM     92  F   UNL A   1      45.697  24.602  34.347  1.00  0.00    -0.203 F 
ATOM     93  C   UNL A   1      48.034  24.345  34.224  1.00  0.00     0.198 A 
ATOM     94  C   UNL A   1      49.280  25.486  32.520  1.00  0.00     0.198 A 
ATOM     95  F   UNL A   1      48.173  26.888  30.989  1.00  0.00    -0.203 F 
ATOM     96  F   UNL A   1      48.001  23.547  35.301  1.00  0.00    -0.200 F 
ATOM     97  C   UNL A   1      49.245  24.637  33.616  1.00  0.00     0.200 A 
ATOM     98  F   UNL A   1      50.449  25.763  31.925  1.00  0.00    -0.200 F 
ATOM     99  F   UNL A   1      50.380  24.108  34.092  1.00  0.00    -0.200 F 
ENDBRANCH  66  89
ENDBRANCH  40  41
ENDBRANCH  32  35
ENDBRANCH  30  31
ENDBRANCH   1  30
TORSDOF 13
ENDMDL
MODEL 3
REMARK VINA RESULT:     -13.2      0.394      1.600
REMARK SMILES Cc1nn(C)c(C)c1[C@@H](C(=O)NCCCNC(=O)c1ccc(-c2c3nc(c(-c4c(F)c(F)c(F)c(F)c4F)c4ccc([nH]4)c(-c4c(F)c(F)c(F)c(F)c4F)c4nc(c(-c5c(F)c(F)c(F)c(F)c5F)c5ccc2[nH]5)C=C4)C=C3)cc1)[NH+]1CCN(c2ccccc2F)CC1
REMARK SMILES IDX 14 1 13 2 12 3 10 4 11 5 9 7 8 8 1 9 2 10 3 11 4 12 6 13
REMARK SMILES IDX 5 14 7 15 82 16 83 17 94 18 84 20 93 21 85 22 86 23 87 24
REMARK SMILES IDX 91 25 88 26 90 27 92 28 89 29 15 30 16 31 17 32 18 34 19 35
REMARK SMILES IDX 20 36 81 37 21 38 80 39 22 40 23 41 24 42 74 43 25 44 79 45
REMARK SMILES IDX 73 46 75 47 26 48 78 49 72 50 71 51 27 53 59 54 39 55 58 56
REMARK SMILES IDX 40 57 43 58 57 59 76 60 41 61 42 62 56 64 77 65 44 66 28 67
REMARK SMILES IDX 29 68 37 69 30 70 31 71 35 72 38 73 32 74 33 75 36 76 34 77
REMARK SMILES IDX 60 78 61 79 69 80 62 81 63 82 67 83 70 84 64 85 65 86 68 87
REMARK SMILES IDX 66 88 45 89 46 90 54 91 47 92 48 93 52 94 55 95 49 96 50 97
REMARK SMILES IDX 53 98 51 99
REMARK H PARENT 12 6 82 19 16 33 75 52 43 63
REMARK Flexibility Score: inf
ROOT
ATOM      1  C   UNL A   1      31.793  29.107  26.490  1.00  0.00     0.042 C 
ENDROOT
BRANCH   1   2
ATOM      2  C   UNL A   1      32.239  27.707  26.908  1.00  0.00     0.118 C 
BRANCH   2   3
ATOM      3  N   UNL A   1      31.127  26.790  27.075  1.00  0.00    -0.351 N 
ATOM      4  C   UNL A   1      30.474  26.012  26.151  1.00  0.00     0.283 C 
ATOM      5  O   UNL A   1      29.535  25.342  26.591  1.00  0.00    -0.268 OA
ATOM      6  H   UNL A   1      30.788  26.713  27.996  1.00  0.00     0.163 HD
BRANCH   4   7
ATOM      7  C   UNL A   1      30.957  25.999  24.665  1.00  0.00     0.309 C 
BRANCH   7   8
ATOM      8  C   UNL A   1      30.317  27.080  23.828  1.00  0.00     0.063 A 
ATOM      9  C   UNL A   1      27.773  26.388  24.050  1.00  0.00     0.069 C 
ATOM     10  C   UNL A   1      28.912  27.226  23.589  1.00  0.00     0.069 A 
ATOM     11  N   UNL A   1      28.644  28.279  22.814  1.00  0.00    -0.178 NA
ATOM     12  N   UNL A   1      29.842  28.824  22.564  1.00  0.00    -0.272 N 
ATOM     13  C   UNL A   1      30.889  28.076  23.037  1.00  0.00     0.045 A 
ATOM     14  C   UNL A   1      29.879  30.068  21.829  1.00  0.00     0.174 C 
ATOM     15  C   UNL A   1      32.302  28.383  22.682  1.00  0.00     0.067 C 
ENDBRANCH   7   8
BRANCH   7  16
ATOM     16  N   UNL A   1      30.943  24.650  24.049  1.00  0.00    -0.318 N 
ATOM     17  C   UNL A   1      31.751  24.394  22.848  1.00  0.00     0.284 C 
ATOM     18  C   UNL A   1      31.075  23.517  24.985  1.00  0.00     0.284 C 
ATOM     19  H   UNL A   1      29.983  24.697  23.706  1.00  0.00     0.349 HD
ATOM     20  C   UNL A   1      33.204  23.931  23.067  1.00  0.00     0.178 C 
ATOM     21  C   UNL A   1      32.513  23.028  25.296  1.00  0.00     0.178 C 
ATOM     22  N   UNL A   1      33.316  22.875  24.077  1.00  0.00    -0.358 N 
BRANCH  22  23
ATOM     23  C   UNL A   1      34.587  22.323  24.282  1.00  0.00     0.073 A 
ATOM     24  C   UNL A   1      35.761  23.038  23.991  1.00  0.00     0.029 A 
ATOM     25  C   UNL A   1      34.736  21.028  24.803  1.00  0.00     0.146 A 
ATOM     26  C   UNL A   1      37.025  22.469  24.177  1.00  0.00     0.002 A 
ATOM     27  C   UNL A   1      35.992  20.449  24.982  1.00  0.00     0.041 A 
ATOM     28  F   UNL A   1      33.651  20.304  25.122  1.00  0.00    -0.205 F 
ATOM     29  C   UNL A   1      37.141  21.169  24.663  1.00  0.00     0.003 A 
ENDBRANCH  22  23
ENDBRANCH   7  16
ENDBRANCH   4   7
ENDBRANCH   2   3
ENDBRANCH   1   2
BRANCH   1  30
ATOM     30  C   UNL A   1      32.913  29.997  25.964  1.00  0.00     0.118 C 
BRANCH  30  31
ATOM     31  N   UNL A   1      32.760  31.386  26.369  1.00  0.00    -0.352 N 
ATOM     32  C   UNL A   1      33.424  32.111  27.323  1.00  0.00     0.251 C 
ATOM     33  H   UNL A   1      32.066  31.886  25.880  1.00  0.00     0.163 HD
ATOM     34  O   UNL A   1      32.997  33.226  27.636  1.00  0.00    -0.269 OA
BRANCH  32  35
ATOM     35  C   UNL A   1      34.633  31.584  27.995  1.00  0.00     0.039 A 
ATOM     36  C   UNL A   1      35.723  32.441  28.173  1.00  0.00     0.014 A 
ATOM     37  C   UNL A   1      34.730  30.249  28.397  1.00  0.00     0.014 A 
ATOM     38  C   UNL A   1      36.883  31.978  28.799  1.00  0.00     0.010 A 
ATOM     39  C   UNL A   1      35.861  29.804  29.082  1.00  0.00     0.010 A 
ATOM     40  C   UNL A   1      36.951  30.663  29.284  1.00  0.00    -0.014 A 
BRANCH  40  41
ATOM     41  C   UNL A   1      38.152  30.187  30.018  1.00  0.00     0.031 A 
ATOM     42  C   UNL A   1      38.419  30.632  31.428  1.00  0.00     0.074 A 
ATOM     43  C   UNL A   1      39.037  29.393  29.387  1.00  0.00     0.049 A 
ATOM     44  N   UNL A   1      39.421  30.329  32.216  1.00  0.00    -0.248 NA
ATOM     45  C   UNL A   1      37.450  31.563  32.023  1.00  0.00     0.031 C 
ATOM     46  C   UNL A   1      38.930  28.950  27.996  1.00  0.00     0.029 A 
ATOM     47  N   UNL A   1      40.205  28.824  29.828  1.00  0.00    -0.354 N 
ATOM     48  C   UNL A   1      39.213  31.043  33.387  1.00  0.00     0.074 A 
ATOM     49  C   UNL A   1      38.013  31.830  33.192  1.00  0.00     0.031 C 
ATOM     50  C   UNL A   1      39.978  28.165  27.703  1.00  0.00     0.029 A 
ATOM     51  C   UNL A   1      40.842  28.068  28.876  1.00  0.00     0.049 A 
ATOM     52  H   UNL A   1      40.553  28.948  30.741  1.00  0.00     0.167 HD
ATOM     53  C   UNL A   1      39.944  31.029  34.528  1.00  0.00     0.037 A 
ATOM     54  C   UNL A   1      41.992  27.371  28.940  1.00  0.00     0.037 A 
ATOM     55  C   UNL A   1      41.118  30.220  34.731  1.00  0.00     0.049 A 
ATOM     56  C   UNL A   1      42.760  27.333  30.230  1.00  0.00     0.074 A 
ATOM     57  C   UNL A   1      41.868  30.061  35.883  1.00  0.00     0.029 A 
ATOM     58  N   UNL A   1      41.717  29.439  33.753  1.00  0.00    -0.354 N 
ATOM     59  N   UNL A   1      42.502  27.938  31.363  1.00  0.00    -0.248 NA
ATOM     60  C   UNL A   1      43.973  26.505  30.253  1.00  0.00     0.031 C 
ATOM     61  C   UNL A   1      42.946  29.216  35.591  1.00  0.00     0.029 A 
ATOM     62  C   UNL A   1      42.844  28.816  34.269  1.00  0.00     0.049 A 
ATOM     63  H   UNL A   1      41.390  29.340  32.831  1.00  0.00     0.167 HD
ATOM     64  C   UNL A   1      43.511  27.559  32.237  1.00  0.00     0.074 A 
ATOM     65  C   UNL A   1      44.374  26.651  31.509  1.00  0.00     0.031 C 
ATOM     66  C   UNL A   1      43.706  27.932  33.526  1.00  0.00     0.037 A 
BRANCH  53  67
ATOM     67  C   UNL A   1      39.494  31.923  35.647  1.00  0.00     0.064 A 
ATOM     68  C   UNL A   1      39.993  33.225  35.797  1.00  0.00     0.173 A 
ATOM     69  C   UNL A   1      38.534  31.477  36.570  1.00  0.00     0.173 A 
ATOM     70  F   UNL A   1      40.919  33.696  34.948  1.00  0.00    -0.203 F 
ATOM     71  C   UNL A   1      39.575  34.036  36.849  1.00  0.00     0.198 A 
ATOM     72  C   UNL A   1      38.099  32.301  37.604  1.00  0.00     0.198 A 
ATOM     73  F   UNL A   1      38.020  30.243  36.468  1.00  0.00    -0.203 F 
ATOM     74  F   UNL A   1      40.105  35.258  37.005  1.00  0.00    -0.200 F 
ATOM     75  C   UNL A   1      38.625  33.576  37.749  1.00  0.00     0.200 A 
ATOM     76  F   UNL A   1      37.173  31.859  38.466  1.00  0.00    -0.200 F 
ATOM     77  F   UNL A   1      38.224  34.357  38.761  1.00  0.00    -0.200 F 
ENDBRANCH  53  67
BRANCH  54  78
ATOM     78  C   UNL A   1      42.459  26.628  27.744  1.00  0.00     0.064 A 
ATOM     79  C   UNL A   1      43.377  27.202  26.854  1.00  0.00     0.173 A 
ATOM     80  C   UNL A   1      42.024  25.320  27.486  1.00  0.00     0.173 A 
ATOM     81  F   UNL A   1      43.805  28.457  27.052  1.00  0.00    -0.203 F 
ATOM     82  C   UNL A   1      43.839  26.495  25.747  1.00  0.00     0.198 A 
ATOM     83  C   UNL A   1      42.505  24.607  26.391  1.00  0.00     0.198 A 
ATOM     84  F   UNL A   1      41.150  24.727  28.314  1.00  0.00    -0.203 F 
ATOM     85  F   UNL A   1      44.697  27.075  24.896  1.00  0.00    -0.200 F 
ATOM     86  C   UNL A   1      43.409  25.196  25.520  1.00  0.00     0.200 A 
ATOM     87  F   UNL A   1      42.097  23.348  26.183  1.00  0.00    -0.200 F 
ATOM     88  F   UNL A   1      43.864  24.513  24.461  1.00  0.00    -0.200 F 
ENDBRANCH  54  78
BRANCH  66  89
ATOM     89  C   UNL A   1      44.902  27.360  34.226  1.00  0.00     0.064 A 
ATOM     90  C   UNL A   1      44.844  26.117  34.874  1.00  0.00     0.173 A 
ATOM     91  C   UNL A   1      46.124  28.049  34.233  1.00  0.00     0.173 A 
ATOM     92  F   UNL A   1      43.695  25.427  34.910  1.00  0.00    -0.203 F 
ATOM     93  C   UNL A   1      45.960  25.598  35.527  1.00  0.00     0.198 A 
ATOM     94  C   UNL A   1      47.244  27.514  34.865  1.00  0.00     0.198 A 
ATOM     95  F   UNL A   1      46.233  29.240  33.624  1.00  0.00    -0.203 F 
ATOM     96  F   UNL A   1      45.868  24.432  36.181  1.00  0.00    -0.200 F 
ATOM     97  C   UNL A   1      47.159  26.294  35.517  1.00  0.00     0.200 A 
ATOM     98  F   UNL A   1      48.405  28.184  34.846  1.00  0.00    -0.200 F 
ATOM     99  F   UNL A   1      48.231  25.793  36.145  1.00  0.00    -0.200 F 
ENDBRANCH  66  89
ENDBRANCH  40  41
ENDBRANCH  32  35
ENDBRANCH  30  31
ENDBRANCH   1  30
TORSDOF 13
ENDMDL
