MODEL 1
REMARK VINA RESULT:     -13.3      0.000      0.000
REMARK SMILES O=C(NCCCNC(=O)c1coc(-c2csc(-c3ccc(Cl)cn3)n2)c1)c1ccc(-c2c3nc(c(-c4c(F)c(F)c(F)c(F)c4F)c4ccc([nH]4)c(-c4c(F)c(F)c(F)c(F)c4F)c4nc(c(-c5c(F)c(F)c(F)c(F)c5F)c5ccc2[nH]5)C=C4)C=C3)cc1
REMARK SMILES IDX 5 1 4 2 3 3 1 4 2 5 27 7 28 8 89 9 29 10 88 11 30 12 31 13
REMARK SMILES IDX 32 14 82 15 33 16 87 17 81 18 83 19 34 20 86 21 80 22 79 23
REMARK SMILES IDX 35 25 67 26 47 27 66 28 48 29 51 30 65 31 84 32 49 33 50 34
REMARK SMILES IDX 64 36 85 37 52 38 36 39 37 40 45 41 38 42 39 43 43 44 46 45
REMARK SMILES IDX 40 46 41 47 44 48 42 49 68 50 69 51 77 52 70 53 71 54 75 55
REMARK SMILES IDX 78 56 72 57 73 58 76 59 74 60 53 61 54 62 62 63 55 64 56 65
REMARK SMILES IDX 60 66 63 67 57 68 58 69 61 70 59 71 6 72 7 73 8 74 9 76
REMARK SMILES IDX 10 77 11 78 26 79 12 80 13 81 14 82 15 83 25 84 16 85 17 86
REMARK SMILES IDX 18 87 19 88 24 89 20 90 23 91 21 92 22 93
REMARK H PARENT 3 6 83 24 51 35 7 75
REMARK Flexibility Score: inf
ROOT
ATOM      1  C   UNL A   1      32.098  28.142  25.431  1.00  0.00     0.042 C 
ENDROOT
BRANCH   1   2
ATOM      2  C   UNL A   1      33.152  29.251  25.437  1.00  0.00     0.118 C 
BRANCH   2   3
ATOM      3  N   UNL A   1      32.644  30.511  25.956  1.00  0.00    -0.352 N 
ATOM      4  O   UNL A   1      32.485  32.292  27.307  1.00  0.00    -0.269 OA
ATOM      5  C   UNL A   1      33.145  31.322  26.941  1.00  0.00     0.251 C 
ATOM      6  H   UNL A   1      31.813  30.830  25.534  1.00  0.00     0.163 HD
BRANCH   5   7
ATOM      7  C   UNL A   1      34.445  31.042  27.595  1.00  0.00     0.039 A 
ATOM      8  C   UNL A   1      35.407  32.034  27.800  1.00  0.00     0.014 A 
ATOM      9  C   UNL A   1      34.662  29.752  28.100  1.00  0.00     0.014 A 
ATOM     10  C   UNL A   1      36.603  31.724  28.455  1.00  0.00     0.010 A 
ATOM     11  C   UNL A   1      35.848  29.446  28.773  1.00  0.00     0.010 A 
ATOM     12  C   UNL A   1      36.833  30.428  28.942  1.00  0.00    -0.014 A 
BRANCH  12  13
ATOM     13  C   UNL A   1      38.094  30.123  29.655  1.00  0.00     0.031 A 
ATOM     14  C   UNL A   1      38.315  30.615  31.055  1.00  0.00     0.074 A 
ATOM     15  C   UNL A   1      39.037  29.379  29.048  1.00  0.00     0.049 A 
ATOM     16  N   UNL A   1      39.318  30.378  31.863  1.00  0.00    -0.248 NA
ATOM     17  C   UNL A   1      37.278  31.490  31.619  1.00  0.00     0.031 C 
ATOM     18  C   UNL A   1      38.959  28.873  27.678  1.00  0.00     0.029 A 
ATOM     19  N   UNL A   1      40.237  28.909  29.515  1.00  0.00    -0.354 N 
ATOM     20  C   UNL A   1      39.042  31.083  33.024  1.00  0.00     0.074 A 
ATOM     21  C   UNL A   1      37.776  31.758  32.819  1.00  0.00     0.031 C 
ATOM     22  C   UNL A   1      40.051  28.133  27.425  1.00  0.00     0.029 A 
ATOM     23  C   UNL A   1      40.897  28.111  28.616  1.00  0.00     0.049 A 
ATOM     24  H   UNL A   1      40.590  29.123  30.409  1.00  0.00     0.167 HD
ATOM     25  C   UNL A   1      39.777  31.163  34.157  1.00  0.00     0.037 A 
ATOM     26  C   UNL A   1      42.041  27.416  28.750  1.00  0.00     0.037 A 
ATOM     27  C   UNL A   1      41.030  30.493  34.375  1.00  0.00     0.049 A 
ATOM     28  C   UNL A   1      42.786  27.439  30.050  1.00  0.00     0.074 A 
ATOM     29  C   UNL A   1      41.859  30.542  35.484  1.00  0.00     0.029 A 
ATOM     30  N   UNL A   1      41.631  29.638  33.465  1.00  0.00    -0.354 N 
ATOM     31  N   UNL A   1      42.510  28.102  31.146  1.00  0.00    -0.248 NA
ATOM     32  C   UNL A   1      43.994  26.605  30.138  1.00  0.00     0.031 C 
ATOM     33  C   UNL A   1      42.960  29.708  35.246  1.00  0.00     0.029 A 
ATOM     34  C   UNL A   1      42.810  29.139  33.993  1.00  0.00     0.049 A 
ATOM     35  H   UNL A   1      41.273  29.419  32.575  1.00  0.00     0.167 HD
ATOM     36  C   UNL A   1      43.503  27.765  32.053  1.00  0.00     0.074 A 
ATOM     37  C   UNL A   1      44.386  26.831  31.384  1.00  0.00     0.031 C 
ATOM     38  C   UNL A   1      43.667  28.199  33.324  1.00  0.00     0.037 A 
BRANCH  25  39
ATOM     39  C   UNL A   1      39.238  32.017  35.258  1.00  0.00     0.064 A 
ATOM     40  C   UNL A   1      38.478  31.461  36.295  1.00  0.00     0.173 A 
ATOM     41  C   UNL A   1      39.506  33.392  35.292  1.00  0.00     0.173 A 
ATOM     42  F   UNL A   1      38.188  30.151  36.291  1.00  0.00    -0.203 F 
ATOM     43  C   UNL A   1      37.999  32.257  37.331  1.00  0.00     0.198 A 
ATOM     44  C   UNL A   1      39.030  34.185  36.333  1.00  0.00     0.198 A 
ATOM     45  F   UNL A   1      40.225  33.965  34.314  1.00  0.00    -0.203 F 
ATOM     46  F   UNL A   1      37.260  31.712  38.307  1.00  0.00    -0.200 F 
ATOM     47  C   UNL A   1      38.277  33.617  37.350  1.00  0.00     0.200 A 
ATOM     48  F   UNL A   1      39.293  35.497  36.348  1.00  0.00    -0.200 F 
ATOM     49  F   UNL A   1      37.811  34.382  38.346  1.00  0.00    -0.200 F 
ENDBRANCH  25  39
BRANCH  26  50
ATOM     50  C   UNL A   1      42.518  26.584  27.623  1.00  0.00     0.064 A 
ATOM     51  C   UNL A   1      42.014  25.291  27.432  1.00  0.00     0.173 A 
ATOM     52  C   UNL A   1      43.462  27.070  26.714  1.00  0.00     0.173 A 
ATOM     53  F   UNL A   1      41.117  24.787  28.292  1.00  0.00    -0.203 F 
ATOM     54  C   UNL A   1      42.442  24.510  26.362  1.00  0.00     0.198 A 
ATOM     55  C   UNL A   1      43.889  26.288  25.643  1.00  0.00     0.198 A 
ATOM     56  F   UNL A   1      43.973  28.300  26.871  1.00  0.00    -0.203 F 
ATOM     57  F   UNL A   1      41.955  23.272  26.201  1.00  0.00    -0.200 F 
ATOM     58  C   UNL A   1      43.378  25.009  25.468  1.00  0.00     0.200 A 
ATOM     59  F   UNL A   1      44.796  26.770  24.784  1.00  0.00    -0.200 F 
ATOM     60  F   UNL A   1      43.792  24.256  24.440  1.00  0.00    -0.200 F 
ENDBRANCH  26  50
BRANCH  38  61
ATOM     61  C   UNL A   1      44.838  27.659  34.079  1.00  0.00     0.064 A 
ATOM     62  C   UNL A   1      46.076  28.316  34.053  1.00  0.00     0.173 A 
ATOM     63  C   UNL A   1      44.715  26.502  34.857  1.00  0.00     0.173 A 
ATOM     64  F   UNL A   1      46.238  29.422  33.311  1.00  0.00    -0.203 F 
ATOM     65  C   UNL A   1      47.156  27.825  34.781  1.00  0.00     0.198 A 
ATOM     66  C   UNL A   1      45.796  26.016  35.587  1.00  0.00     0.198 A 
ATOM     67  F   UNL A   1      43.548  25.840  34.903  1.00  0.00    -0.203 F 
ATOM     68  F   UNL A   1      48.336  28.459  34.735  1.00  0.00    -0.200 F 
ATOM     69  C   UNL A   1      47.015  26.677  35.547  1.00  0.00     0.200 A 
ATOM     70  F   UNL A   1      45.662  24.903  36.321  1.00  0.00    -0.200 F 
ATOM     71  F   UNL A   1      48.057  26.204  36.244  1.00  0.00    -0.200 F 
ENDBRANCH  38  61
ENDBRANCH  12  13
ENDBRANCH   5   7
ENDBRANCH   2   3
ENDBRANCH   1   2
BRANCH   1  72
ATOM     72  C   UNL A   1      31.491  27.849  24.056  1.00  0.00     0.118 C 
BRANCH  72  73
ATOM     73  N   UNL A   1      32.388  28.208  22.972  1.00  0.00    -0.352 N 
ATOM     74  C   UNL A   1      33.364  27.467  22.357  1.00  0.00     0.254 C 
ATOM     75  H   UNL A   1      32.280  29.124  22.627  1.00  0.00     0.163 HD
ATOM     76  O   UNL A   1      34.226  28.059  21.713  1.00  0.00    -0.269 OA
BRANCH  74  77
ATOM     77  C   UNL A   1      33.371  26.025  22.486  1.00  0.00     0.078 A 
ATOM     78  C   UNL A   1      33.011  25.099  21.530  1.00  0.00     0.209 A 
ATOM     79  C   UNL A   1      33.887  25.256  23.570  1.00  0.00     0.066 A 
ATOM     80  O   UNL A   1      33.245  23.834  21.962  1.00  0.00    -0.462 OA
ATOM     81  C   UNL A   1      33.792  23.927  23.211  1.00  0.00     0.153 A 
BRANCH  81  82
ATOM     82  C   UNL A   1      34.251  22.771  24.031  1.00  0.00     0.117 A 
ATOM     83  C   UNL A   1      35.231  22.889  24.992  1.00  0.00     0.099 A 
ATOM     84  N   UNL A   1      33.707  21.509  23.885  1.00  0.00    -0.231 NA
ATOM     85  S   UNL A   1      35.440  21.388  25.789  1.00  0.00    -0.120 S 
ATOM     86  C   UNL A   1      34.231  20.686  24.777  1.00  0.00     0.142 A 
BRANCH  86  87
ATOM     87  C   UNL A   1      33.885  19.262  24.906  1.00  0.00     0.099 A 
ATOM     88  C   UNL A   1      34.684  18.284  24.314  1.00  0.00     0.033 A 
ATOM     89  N   UNL A   1      32.753  18.960  25.594  1.00  0.00    -0.252 NA
ATOM     90  C   UNL A   1      34.319  16.943  24.438  1.00  0.00     0.024 A 
ATOM     91  C   UNL A   1      32.414  17.650  25.683  1.00  0.00     0.132 A 
ATOM     92  C   UNL A   1      33.159  16.619  25.132  1.00  0.00     0.059 A 
ATOM     93  Cl  UNL A   1      32.666  14.985  25.297  1.00  0.00    -0.083 Cl
ENDBRANCH  86  87
ENDBRANCH  81  82
ENDBRANCH  74  77
ENDBRANCH  72  73
ENDBRANCH   1  72
TORSDOF 12
ENDMDL
MODEL 2
REMARK VINA RESULT:     -13.1      1.932      2.799
REMARK SMILES O=C(NCCCNC(=O)c1coc(-c2csc(-c3ccc(Cl)cn3)n2)c1)c1ccc(-c2c3nc(c(-c4c(F)c(F)c(F)c(F)c4F)c4ccc([nH]4)c(-c4c(F)c(F)c(F)c(F)c4F)c4nc(c(-c5c(F)c(F)c(F)c(F)c5F)c5ccc2[nH]5)C=C4)C=C3)cc1
REMARK SMILES IDX 5 1 4 2 3 3 1 4 2 5 27 7 28 8 89 9 29 10 88 11 30 12 31 13
REMARK SMILES IDX 32 14 82 15 33 16 87 17 81 18 83 19 34 20 86 21 80 22 79 23
REMARK SMILES IDX 35 25 67 26 47 27 66 28 48 29 51 30 65 31 84 32 49 33 50 34
REMARK SMILES IDX 64 36 85 37 52 38 36 39 37 40 45 41 38 42 39 43 43 44 46 45
REMARK SMILES IDX 40 46 41 47 44 48 42 49 68 50 69 51 77 52 70 53 71 54 75 55
REMARK SMILES IDX 78 56 72 57 73 58 76 59 74 60 53 61 54 62 62 63 55 64 56 65
REMARK SMILES IDX 60 66 63 67 57 68 58 69 61 70 59 71 6 72 7 73 8 74 9 76
REMARK SMILES IDX 10 77 11 78 26 79 12 80 13 81 14 82 15 83 25 84 16 85 17 86
REMARK SMILES IDX 18 87 19 88 24 89 20 90 23 91 21 92 22 93
REMARK H PARENT 3 6 83 24 51 35 7 75
REMARK Flexibility Score: inf
ROOT
ATOM      1  C   UNL A   1      31.192  31.826  26.436  1.00  0.00     0.042 C 
ENDROOT
BRANCH   1   2
ATOM      2  C   UNL A   1      32.498  32.488  26.879  1.00  0.00     0.118 C 
BRANCH   2   3
ATOM      3  N   UNL A   1      32.301  33.827  27.411  1.00  0.00    -0.352 N 
ATOM      4  O   UNL A   1      32.551  35.575  28.792  1.00  0.00    -0.269 OA
ATOM      5  C   UNL A   1      32.963  34.478  28.421  1.00  0.00     0.251 C 
ATOM      6  H   UNL A   1      31.582  34.345  26.981  1.00  0.00     0.163 HD
BRANCH   5   7
ATOM      7  C   UNL A   1      34.141  33.881  29.092  1.00  0.00     0.039 A 
ATOM      8  C   UNL A   1      34.028  32.820  29.995  1.00  0.00     0.014 A 
ATOM      9  C   UNL A   1      35.412  34.347  28.726  1.00  0.00     0.014 A 
ATOM     10  C   UNL A   1      35.177  32.269  30.573  1.00  0.00     0.010 A 
ATOM     11  C   UNL A   1      36.561  33.783  29.287  1.00  0.00     0.010 A 
ATOM     12  C   UNL A   1      36.449  32.749  30.226  1.00  0.00    -0.014 A 
BRANCH  12  13
ATOM     13  C   UNL A   1      37.655  32.136  30.828  1.00  0.00     0.031 A 
ATOM     14  C   UNL A   1      38.073  32.489  32.224  1.00  0.00     0.074 A 
ATOM     15  C   UNL A   1      38.366  31.238  30.121  1.00  0.00     0.049 A 
ATOM     16  N   UNL A   1      39.049  31.994  32.943  1.00  0.00    -0.248 NA
ATOM     17  C   UNL A   1      37.296  33.537  32.901  1.00  0.00     0.031 C 
ATOM     18  C   UNL A   1      38.088  30.838  28.742  1.00  0.00     0.029 A 
ATOM     19  N   UNL A   1      39.460  30.491  30.476  1.00  0.00    -0.354 N 
ATOM     20  C   UNL A   1      39.014  32.677  34.148  1.00  0.00     0.074 A 
ATOM     21  C   UNL A   1      37.919  33.623  34.068  1.00  0.00     0.031 C 
ATOM     22  C   UNL A   1      38.968  29.891  28.377  1.00  0.00     0.029 A 
ATOM     23  C   UNL A   1      39.865  29.619  29.498  1.00  0.00     0.049 A 
ATOM     24  H   UNL A   1      39.910  30.573  31.348  1.00  0.00     0.167 HD
ATOM     25  C   UNL A   1      39.822  32.531  35.224  1.00  0.00     0.037 A 
ATOM     26  C   UNL A   1      40.832  28.684  29.516  1.00  0.00     0.037 A 
ATOM     27  C   UNL A   1      40.906  31.591  35.319  1.00  0.00     0.049 A 
ATOM     28  C   UNL A   1      41.647  28.471  30.755  1.00  0.00     0.074 A 
ATOM     29  C   UNL A   1      41.797  31.396  36.361  1.00  0.00     0.029 A 
ATOM     30  N   UNL A   1      41.240  30.678  34.333  1.00  0.00    -0.354 N 
ATOM     31  N   UNL A   1      41.599  29.116  31.894  1.00  0.00    -0.248 NA
ATOM     32  C   UNL A   1      42.643  27.389  30.717  1.00  0.00     0.031 C 
ATOM     33  C   UNL A   1      42.666  30.356  36.008  1.00  0.00     0.029 A 
ATOM     34  C   UNL A   1      42.310  29.904  34.748  1.00  0.00     0.049 A 
ATOM     35  H   UNL A   1      40.784  30.592  33.464  1.00  0.00     0.167 HD
ATOM     36  C   UNL A   1      42.550  28.521  32.708  1.00  0.00     0.074 A 
ATOM     37  C   UNL A   1      43.157  27.455  31.938  1.00  0.00     0.031 C 
ATOM     38  C   UNL A   1      42.890  28.837  33.979  1.00  0.00     0.037 A 
BRANCH  25  39
ATOM     39  C   UNL A   1      39.561  33.420  36.396  1.00  0.00     0.064 A 
ATOM     40  C   UNL A   1      38.728  33.005  37.444  1.00  0.00     0.173 A 
ATOM     41  C   UNL A   1      40.168  34.680  36.486  1.00  0.00     0.173 A 
ATOM     42  F   UNL A   1      38.117  31.813  37.388  1.00  0.00    -0.203 F 
ATOM     43  C   UNL A   1      38.507  33.828  38.544  1.00  0.00     0.198 A 
ATOM     44  C   UNL A   1      39.949  35.498  37.591  1.00  0.00     0.198 A 
ATOM     45  F   UNL A   1      40.967  35.117  35.501  1.00  0.00    -0.203 F 
ATOM     46  F   UNL A   1      37.695  33.422  39.530  1.00  0.00    -0.200 F 
ATOM     47  C   UNL A   1      39.119  35.072  38.618  1.00  0.00     0.200 A 
ATOM     48  F   UNL A   1      40.535  36.700  37.660  1.00  0.00    -0.200 F 
ATOM     49  F   UNL A   1      38.902  35.863  39.677  1.00  0.00    -0.200 F 
ENDBRANCH  25  39
BRANCH  26  50
ATOM     50  C   UNL A   1      41.035  27.831  28.324  1.00  0.00     0.064 A 
ATOM     51  C   UNL A   1      41.922  28.222  27.313  1.00  0.00     0.173 A 
ATOM     52  C   UNL A   1      40.367  26.610  28.187  1.00  0.00     0.173 A 
ATOM     53  F   UNL A   1      42.570  29.392  27.405  1.00  0.00    -0.203 F 
ATOM     54  C   UNL A   1      42.133  27.414  26.199  1.00  0.00     0.198 A 
ATOM     55  C   UNL A   1      40.580  25.802  27.073  1.00  0.00     0.198 A 
ATOM     56  F   UNL A   1      39.504  26.208  29.130  1.00  0.00    -0.203 F 
ATOM     57  F   UNL A   1      42.979  27.810  25.238  1.00  0.00    -0.200 F 
ATOM     58  C   UNL A   1      41.464  26.205  26.080  1.00  0.00     0.200 A 
ATOM     59  F   UNL A   1      39.930  24.638  26.957  1.00  0.00    -0.200 F 
ATOM     60  F   UNL A   1      41.666  25.429  25.006  1.00  0.00    -0.200 F 
ENDBRANCH  26  50
BRANCH  38  61
ATOM     61  C   UNL A   1      43.959  28.013  34.620  1.00  0.00     0.064 A 
ATOM     62  C   UNL A   1      45.304  28.402  34.556  1.00  0.00     0.173 A 
ATOM     63  C   UNL A   1      43.636  26.849  35.328  1.00  0.00     0.173 A 
ATOM     64  F   UNL A   1      45.656  29.505  33.879  1.00  0.00    -0.203 F 
ATOM     65  C   UNL A   1      46.293  27.646  35.180  1.00  0.00     0.198 A 
ATOM     66  C   UNL A   1      44.627  26.097  35.953  1.00  0.00     0.198 A 
ATOM     67  F   UNL A   1      42.361  26.438  35.406  1.00  0.00    -0.203 F 
ATOM     68  F   UNL A   1      47.575  28.027  35.098  1.00  0.00    -0.200 F 
ATOM     69  C   UNL A   1      45.954  26.496  35.878  1.00  0.00     0.200 A 
ATOM     70  F   UNL A   1      44.301  24.982  36.621  1.00  0.00    -0.200 F 
ATOM     71  F   UNL A   1      46.908  25.768  36.473  1.00  0.00    -0.200 F 
ENDBRANCH  38  61
ENDBRANCH  12  13
ENDBRANCH   5   7
ENDBRANCH   2   3
ENDBRANCH   1   2
BRANCH   1  72
ATOM     72  C   UNL A   1      31.375  30.555  25.602  1.00  0.00     0.118 C 
BRANCH  72  73
ATOM     73  N   UNL A   1      30.434  30.483  24.498  1.00  0.00    -0.352 N 
ATOM     74  C   UNL A   1      30.341  29.568  23.481  1.00  0.00     0.254 C 
ATOM     75  H   UNL A   1      29.760  31.201  24.476  1.00  0.00     0.163 HD
ATOM     76  O   UNL A   1      29.708  29.877  22.475  1.00  0.00    -0.269 OA
BRANCH  74  77
ATOM     77  C   UNL A   1      30.994  28.282  23.599  1.00  0.00     0.078 A 
ATOM     78  C   UNL A   1      32.252  27.938  23.148  1.00  0.00     0.209 A 
ATOM     79  C   UNL A   1      30.541  27.145  24.330  1.00  0.00     0.066 A 
ATOM     80  O   UNL A   1      32.579  26.677  23.528  1.00  0.00    -0.462 OA
ATOM     81  C   UNL A   1      31.535  26.190  24.262  1.00  0.00     0.153 A 
BRANCH  81  82
ATOM     82  C   UNL A   1      31.502  24.854  24.918  1.00  0.00     0.117 A 
ATOM     83  C   UNL A   1      30.661  24.567  25.971  1.00  0.00     0.099 A 
ATOM     84  N   UNL A   1      32.307  23.811  24.498  1.00  0.00    -0.231 NA
ATOM     85  S   UNL A   1      30.831  22.922  26.415  1.00  0.00    -0.120 S 
ATOM     86  C   UNL A   1      32.032  22.720  25.191  1.00  0.00     0.142 A 
BRANCH  86  87
ATOM     87  C   UNL A   1      32.703  21.424  25.010  1.00  0.00     0.099 A 
ATOM     88  C   UNL A   1      34.084  21.363  24.827  1.00  0.00     0.033 A 
ATOM     89  N   UNL A   1      31.917  20.315  25.003  1.00  0.00    -0.252 NA
ATOM     90  C   UNL A   1      34.689  20.119  24.640  1.00  0.00     0.024 A 
ATOM     91  C   UNL A   1      32.531  19.123  24.801  1.00  0.00     0.132 A 
ATOM     92  C   UNL A   1      33.898  18.978  24.621  1.00  0.00     0.059 A 
ATOM     93  Cl  UNL A   1      34.598  17.431  24.381  1.00  0.00    -0.083 Cl
ENDBRANCH  86  87
ENDBRANCH  81  82
ENDBRANCH  74  77
ENDBRANCH  72  73
ENDBRANCH   1  72
TORSDOF 12
ENDMDL
MODEL 3
REMARK VINA RESULT:     -12.9      1.917      3.070
REMARK SMILES O=C(NCCCNC(=O)c1coc(-c2csc(-c3ccc(Cl)cn3)n2)c1)c1ccc(-c2c3nc(c(-c4c(F)c(F)c(F)c(F)c4F)c4ccc([nH]4)c(-c4c(F)c(F)c(F)c(F)c4F)c4nc(c(-c5c(F)c(F)c(F)c(F)c5F)c5ccc2[nH]5)C=C4)C=C3)cc1
REMARK SMILES IDX 5 1 4 2 3 3 1 4 2 5 27 7 28 8 89 9 29 10 88 11 30 12 31 13
REMARK SMILES IDX 32 14 82 15 33 16 87 17 81 18 83 19 34 20 86 21 80 22 79 23
REMARK SMILES IDX 35 25 67 26 47 27 66 28 48 29 51 30 65 31 84 32 49 33 50 34
REMARK SMILES IDX 64 36 85 37 52 38 36 39 37 40 45 41 38 42 39 43 43 44 46 45
REMARK SMILES IDX 40 46 41 47 44 48 42 49 68 50 69 51 77 52 70 53 71 54 75 55
REMARK SMILES IDX 78 56 72 57 73 58 76 59 74 60 53 61 54 62 62 63 55 64 56 65
REMARK SMILES IDX 60 66 63 67 57 68 58 69 61 70 59 71 6 72 7 73 8 74 9 76
REMARK SMILES IDX 10 77 11 78 26 79 12 80 13 81 14 82 15 83 25 84 16 85 17 86
REMARK SMILES IDX 18 87 19 88 24 89 20 90 23 91 21 92 22 93
REMARK H PARENT 3 6 83 24 51 35 7 75
REMARK Flexibility Score: inf
ROOT
ATOM      1  C   UNL A   1      31.513  31.970  26.891  1.00  0.00     0.042 C 
ENDROOT
BRANCH   1   2
ATOM      2  C   UNL A   1      32.658  32.983  26.827  1.00  0.00     0.118 C 
BRANCH   2   3
ATOM      3  N   UNL A   1      32.396  34.184  27.605  1.00  0.00    -0.352 N 
ATOM      4  O   UNL A   1      32.580  35.655  29.286  1.00  0.00    -0.269 OA
ATOM      5  C   UNL A   1      33.046  34.676  28.707  1.00  0.00     0.251 C 
ATOM      6  H   UNL A   1      31.635  34.725  27.292  1.00  0.00     0.163 HD
BRANCH   5   7
ATOM      7  C   UNL A   1      34.278  34.041  29.233  1.00  0.00     0.039 A 
ATOM      8  C   UNL A   1      35.555  34.508  28.911  1.00  0.00     0.014 A 
ATOM      9  C   UNL A   1      34.135  32.997  30.157  1.00  0.00     0.014 A 
ATOM     10  C   UNL A   1      36.683  33.894  29.464  1.00  0.00     0.010 A 
ATOM     11  C   UNL A   1      35.261  32.397  30.727  1.00  0.00     0.010 A 
ATOM     12  C   UNL A   1      36.544  32.833  30.373  1.00  0.00    -0.014 A 
BRANCH  12  13
ATOM     13  C   UNL A   1      37.749  32.213  30.969  1.00  0.00     0.031 A 
ATOM     14  C   UNL A   1      38.176  32.563  32.363  1.00  0.00     0.074 A 
ATOM     15  C   UNL A   1      38.451  31.311  30.259  1.00  0.00     0.049 A 
ATOM     16  N   UNL A   1      39.153  32.061  33.077  1.00  0.00    -0.248 NA
ATOM     17  C   UNL A   1      37.409  33.616  33.044  1.00  0.00     0.031 C 
ATOM     18  C   UNL A   1      38.163  30.912  28.881  1.00  0.00     0.029 A 
ATOM     19  N   UNL A   1      39.542  30.556  30.608  1.00  0.00    -0.354 N 
ATOM     20  C   UNL A   1      39.128  32.744  34.283  1.00  0.00     0.074 A 
ATOM     21  C   UNL A   1      38.039  33.697  34.208  1.00  0.00     0.031 C 
ATOM     22  C   UNL A   1      39.036  29.960  28.511  1.00  0.00     0.029 A 
ATOM     23  C   UNL A   1      39.936  29.682  29.627  1.00  0.00     0.049 A 
ATOM     24  H   UNL A   1      39.996  30.635  31.477  1.00  0.00     0.167 HD
ATOM     25  C   UNL A   1      39.940  32.593  35.355  1.00  0.00     0.037 A 
ATOM     26  C   UNL A   1      40.897  28.740  29.641  1.00  0.00     0.037 A 
ATOM     27  C   UNL A   1      41.019  31.646  35.443  1.00  0.00     0.049 A 
ATOM     28  C   UNL A   1      41.717  28.522  30.876  1.00  0.00     0.074 A 
ATOM     29  C   UNL A   1      41.913  31.445  36.482  1.00  0.00     0.029 A 
ATOM     30  N   UNL A   1      41.342  30.731  34.455  1.00  0.00    -0.354 N 
ATOM     31  N   UNL A   1      41.679  29.167  32.015  1.00  0.00    -0.248 NA
ATOM     32  C   UNL A   1      42.705  27.434  30.832  1.00  0.00     0.031 C 
ATOM     33  C   UNL A   1      42.774  30.399  36.123  1.00  0.00     0.029 A 
ATOM     34  C   UNL A   1      42.409  29.950  34.865  1.00  0.00     0.049 A 
ATOM     35  H   UNL A   1      40.881  30.648  33.589  1.00  0.00     0.167 HD
ATOM     36  C   UNL A   1      42.629  28.565  32.824  1.00  0.00     0.074 A 
ATOM     37  C   UNL A   1      43.226  27.496  32.051  1.00  0.00     0.031 C 
ATOM     38  C   UNL A   1      42.979  28.879  34.093  1.00  0.00     0.037 A 
BRANCH  25  39
ATOM     39  C   UNL A   1      39.691  33.483  36.527  1.00  0.00     0.064 A 
ATOM     40  C   UNL A   1      38.814  33.099  37.550  1.00  0.00     0.173 A 
ATOM     41  C   UNL A   1      40.352  34.714  36.644  1.00  0.00     0.173 A 
ATOM     42  F   UNL A   1      38.151  31.936  37.468  1.00  0.00    -0.203 F 
ATOM     43  C   UNL A   1      38.604  33.922  38.653  1.00  0.00     0.198 A 
ATOM     44  C   UNL A   1      40.143  35.532  37.751  1.00  0.00     0.198 A 
ATOM     45  F   UNL A   1      41.195  35.121  35.683  1.00  0.00    -0.203 F 
ATOM     46  F   UNL A   1      37.749  33.546  39.614  1.00  0.00    -0.200 F 
ATOM     47  C   UNL A   1      39.269  35.135  38.754  1.00  0.00     0.200 A 
ATOM     48  F   UNL A   1      40.781  36.705  37.845  1.00  0.00    -0.200 F 
ATOM     49  F   UNL A   1      39.062  35.927  39.814  1.00  0.00    -0.200 F 
ENDBRANCH  25  39
BRANCH  26  50
ATOM     50  C   UNL A   1      41.089  27.886  28.448  1.00  0.00     0.064 A 
ATOM     51  C   UNL A   1      41.955  28.283  27.421  1.00  0.00     0.173 A 
ATOM     52  C   UNL A   1      40.429  26.659  28.324  1.00  0.00     0.173 A 
ATOM     53  F   UNL A   1      42.595  29.459  27.501  1.00  0.00    -0.203 F 
ATOM     54  C   UNL A   1      42.157  27.474  26.306  1.00  0.00     0.198 A 
ATOM     55  C   UNL A   1      40.632  25.851  27.208  1.00  0.00     0.198 A 
ATOM     56  F   UNL A   1      39.585  26.252  29.282  1.00  0.00    -0.203 F 
ATOM     57  F   UNL A   1      42.983  27.875  25.330  1.00  0.00    -0.200 F 
ATOM     58  C   UNL A   1      41.496  26.259  26.201  1.00  0.00     0.200 A 
ATOM     59  F   UNL A   1      39.991  24.680  27.106  1.00  0.00    -0.200 F 
ATOM     60  F   UNL A   1      41.688  25.482  25.126  1.00  0.00    -0.200 F 
ENDBRANCH  26  50
BRANCH  38  61
ATOM     61  C   UNL A   1      44.045  28.048  34.729  1.00  0.00     0.064 A 
ATOM     62  C   UNL A   1      43.730  26.847  35.379  1.00  0.00     0.173 A 
ATOM     63  C   UNL A   1      45.389  28.435  34.661  1.00  0.00     0.173 A 
ATOM     64  F   UNL A   1      42.454  26.446  35.475  1.00  0.00    -0.203 F 
ATOM     65  C   UNL A   1      44.730  26.062  35.945  1.00  0.00     0.198 A 
ATOM     66  C   UNL A   1      46.387  27.646  35.224  1.00  0.00     0.198 A 
ATOM     67  F   UNL A   1      45.731  29.582  34.054  1.00  0.00    -0.203 F 
ATOM     68  F   UNL A   1      44.410  24.922  36.573  1.00  0.00    -0.200 F 
ATOM     69  C   UNL A   1      46.057  26.461  35.866  1.00  0.00     0.200 A 
ATOM     70  F   UNL A   1      47.667  28.035  35.156  1.00  0.00    -0.200 F 
ATOM     71  F   UNL A   1      47.018  25.706  36.415  1.00  0.00    -0.200 F 
ENDBRANCH  38  61
ENDBRANCH  12  13
ENDBRANCH   5   7
ENDBRANCH   2   3
ENDBRANCH   1   2
BRANCH   1  72
ATOM     72  C   UNL A   1      31.945  30.511  26.723  1.00  0.00     0.118 C 
BRANCH  72  73
ATOM     73  N   UNL A   1      33.377  30.340  26.883  1.00  0.00    -0.352 N 
ATOM     74  C   UNL A   1      34.151  29.218  26.731  1.00  0.00     0.254 C 
ATOM     75  H   UNL A   1      33.869  31.154  27.141  1.00  0.00     0.163 HD
ATOM     76  O   UNL A   1      35.267  29.205  27.242  1.00  0.00    -0.269 OA
BRANCH  74  77
ATOM     77  C   UNL A   1      33.642  28.079  25.996  1.00  0.00     0.078 A 
ATOM     78  C   UNL A   1      33.669  27.885  24.631  1.00  0.00     0.209 A 
ATOM     79  C   UNL A   1      33.140  26.857  26.532  1.00  0.00     0.066 A 
ATOM     80  O   UNL A   1      33.199  26.655  24.302  1.00  0.00    -0.462 OA
ATOM     81  C   UNL A   1      32.883  26.017  25.468  1.00  0.00     0.153 A 
BRANCH  81  82
ATOM     82  C   UNL A   1      32.380  24.619  25.567  1.00  0.00     0.117 A 
ATOM     83  C   UNL A   1      31.093  24.321  25.957  1.00  0.00     0.099 A 
ATOM     84  N   UNL A   1      33.176  23.531  25.258  1.00  0.00    -0.231 NA
ATOM     85  S   UNL A   1      30.842  22.629  25.875  1.00  0.00    -0.120 S 
ATOM     86  C   UNL A   1      32.474  22.416  25.355  1.00  0.00     0.142 A 
BRANCH  86  87
ATOM     87  C   UNL A   1      33.006  21.069  25.100  1.00  0.00     0.099 A 
ATOM     88  C   UNL A   1      34.379  20.866  24.963  1.00  0.00     0.033 A 
ATOM     89  N   UNL A   1      32.105  20.059  24.980  1.00  0.00    -0.252 NA
ATOM     90  C   UNL A   1      34.852  19.578  24.704  1.00  0.00     0.024 A 
ATOM     91  C   UNL A   1      32.593  18.822  24.711  1.00  0.00     0.132 A 
ATOM     92  C   UNL A   1      33.942  18.538  24.571  1.00  0.00     0.059 A 
ATOM     93  Cl  UNL A   1      34.479  16.943  24.239  1.00  0.00    -0.083 Cl
ENDBRANCH  86  87
ENDBRANCH  81  82
ENDBRANCH  74  77
ENDBRANCH  72  73
ENDBRANCH   1  72
TORSDOF 12
ENDMDL
