MODEL 1
REMARK VINA RESULT:     -14.5      0.000      0.000
REMARK SMILES Cc1ccccc1OC1(C(=O)NCCCNC(=O)c2ccc(-c3c4nc(c(-c5c(F)c(F)c(F)c(F)c5F)c5ccc([nH]5)c(-c5c(F)c(F)c(F)c(F)c5F)c5nc(c(-c6c(F)c(F)c(F)c(F)c6F)c6ccc3[nH]6)C=C5)C=C4)cc2)CCN(C(=O)[C@H]2CCCCO2)CC1
REMARK SMILES IDX 14 1 13 2 12 3 10 4 11 5 9 7 82 8 94 9 83 10 93 11 84 12
REMARK SMILES IDX 85 13 86 14 8 15 7 16 1 17 2 18 3 19 4 20 6 21 5 22 87 23
REMARK SMILES IDX 88 24 92 25 89 26 91 27 90 28 15 29 16 30 17 31 18 33 19 34
REMARK SMILES IDX 20 35 81 36 21 37 80 38 22 39 23 40 24 41 74 42 25 43 79 44
REMARK SMILES IDX 73 45 75 46 26 47 78 48 72 49 71 50 27 52 59 53 39 54 58 55
REMARK SMILES IDX 40 56 43 57 57 58 76 59 41 60 42 61 56 63 77 64 44 65 28 66
REMARK SMILES IDX 29 67 37 68 30 69 31 70 35 71 38 72 32 73 33 74 36 75 34 76
REMARK SMILES IDX 60 77 61 78 69 79 62 80 63 81 67 82 70 83 64 84 65 85 68 86
REMARK SMILES IDX 66 87 45 88 46 89 54 90 47 91 48 92 52 93 55 94 49 95 50 96
REMARK SMILES IDX 53 97 51 98
REMARK H PARENT 12 6 16 32 75 51 43 62
REMARK Flexibility Score: inf
ROOT
ATOM      1  C   UNL A   1      33.511  31.017  26.998  1.00  0.00     0.042 C 
ENDROOT
BRANCH   1   2
ATOM      2  C   UNL A   1      32.795  29.995  26.126  1.00  0.00     0.118 C 
BRANCH   2   3
ATOM      3  N   UNL A   1      33.486  29.702  24.877  1.00  0.00    -0.353 N 
ATOM      4  C   UNL A   1      33.342  28.752  23.900  1.00  0.00     0.264 C 
ATOM      5  O   UNL A   1      34.061  28.946  22.909  1.00  0.00    -0.270 OA
ATOM      6  H   UNL A   1      34.223  30.328  24.693  1.00  0.00     0.163 HD
BRANCH   4   7
ATOM      7  C   UNL A   1      32.394  27.487  24.005  1.00  0.00     0.190 C 
ATOM      8  C   UNL A   1      32.201  26.967  22.589  1.00  0.00     0.080 C 
ATOM      9  C   UNL A   1      32.925  26.567  25.101  1.00  0.00     0.080 C 
ATOM     10  C   UNL A   1      32.820  25.628  22.259  1.00  0.00     0.124 C 
ATOM     11  C   UNL A   1      33.474  25.213  24.679  1.00  0.00     0.124 C 
ATOM     12  N   UNL A   1      33.126  24.720  23.351  1.00  0.00    -0.340 N 
ATOM     13  C   UNL A   1      33.304  23.380  22.971  1.00  0.00     0.251 C 
ATOM     14  O   UNL A   1      33.296  23.064  21.777  1.00  0.00    -0.272 OA
BRANCH   7  15
ATOM     15  O   UNL A   1      31.138  28.078  24.459  1.00  0.00    -0.477 OA
BRANCH  15  16
ATOM     16  C   UNL A   1      30.011  28.468  23.793  1.00  0.00     0.123 A 
ATOM     17  C   UNL A   1      28.377  26.449  23.875  1.00  0.00     0.048 C 
ATOM     18  C   UNL A   1      28.788  27.835  23.514  1.00  0.00    -0.009 A 
ATOM     19  C   UNL A   1      27.804  28.514  22.751  1.00  0.00     0.007 A 
ATOM     20  C   UNL A   1      27.997  29.804  22.282  1.00  0.00     0.001 A 
ATOM     21  C   UNL A   1      30.180  29.777  23.295  1.00  0.00     0.047 A 
ATOM     22  C   UNL A   1      29.193  30.441  22.557  1.00  0.00     0.004 A 
ENDBRANCH  15  16
ENDBRANCH   7  15
BRANCH  13  23
ATOM     23  C   UNL A   1      33.431  22.314  24.082  1.00  0.00     0.207 C 
ATOM     24  C   UNL A   1      32.509  21.138  23.720  1.00  0.00     0.042 C 
ATOM     25  O   UNL A   1      34.797  21.895  24.152  1.00  0.00    -0.368 OA
ATOM     26  C   UNL A   1      32.762  19.914  24.587  1.00  0.00     0.006 C 
ATOM     27  C   UNL A   1      35.025  20.825  25.058  1.00  0.00     0.161 C 
ATOM     28  C   UNL A   1      34.247  19.594  24.626  1.00  0.00     0.029 C 
ENDBRANCH  13  23
ENDBRANCH   4   7
ENDBRANCH   2   3
ENDBRANCH   1   2
BRANCH   1  29
ATOM     29  C   UNL A   1      34.265  30.439  28.182  1.00  0.00     0.118 C 
BRANCH  29  30
ATOM     30  N   UNL A   1      35.182  31.378  28.834  1.00  0.00    -0.352 N 
ATOM     31  C   UNL A   1      36.487  31.149  29.238  1.00  0.00     0.251 C 
ATOM     32  H   UNL A   1      34.828  32.281  29.003  1.00  0.00     0.163 HD
ATOM     33  O   UNL A   1      37.166  32.031  29.755  1.00  0.00    -0.269 OA
BRANCH  31  34
ATOM     34  C   UNL A   1      37.083  29.838  28.908  1.00  0.00     0.039 A 
ATOM     35  C   UNL A   1      37.384  28.987  29.974  1.00  0.00     0.014 A 
ATOM     36  C   UNL A   1      37.671  29.667  27.660  1.00  0.00     0.014 A 
ATOM     37  C   UNL A   1      38.490  28.152  29.869  1.00  0.00     0.010 A 
ATOM     38  C   UNL A   1      38.836  28.929  27.594  1.00  0.00     0.010 A 
ATOM     39  C   UNL A   1      39.283  28.231  28.724  1.00  0.00    -0.014 A 
BRANCH  39  40
ATOM     40  C   UNL A   1      40.633  27.686  28.662  1.00  0.00     0.031 A 
ATOM     41  C   UNL A   1      40.827  26.259  28.334  1.00  0.00     0.074 A 
ATOM     42  C   UNL A   1      41.713  28.476  28.866  1.00  0.00     0.049 A 
ATOM     43  N   UNL A   1      41.829  25.554  28.739  1.00  0.00    -0.248 NA
ATOM     44  C   UNL A   1      39.868  25.497  27.547  1.00  0.00     0.031 C 
ATOM     45  C   UNL A   1      43.110  28.132  28.611  1.00  0.00     0.029 A 
ATOM     46  N   UNL A   1      41.778  29.715  29.526  1.00  0.00    -0.354 N 
ATOM     47  C   UNL A   1      41.796  24.355  28.067  1.00  0.00     0.074 A 
ATOM     48  C   UNL A   1      40.524  24.345  27.382  1.00  0.00     0.031 C 
ATOM     49  C   UNL A   1      43.899  28.933  29.342  1.00  0.00     0.029 A 
ATOM     50  C   UNL A   1      43.036  29.743  30.180  1.00  0.00     0.049 A 
ATOM     51  H   UNL A   1      41.090  30.419  29.535  1.00  0.00     0.167 HD
ATOM     52  C   UNL A   1      42.905  23.561  28.058  1.00  0.00     0.037 A 
ATOM     53  C   UNL A   1      43.149  29.878  31.533  1.00  0.00     0.037 A 
ATOM     54  C   UNL A   1      43.981  24.144  28.857  1.00  0.00     0.049 A 
ATOM     55  C   UNL A   1      43.836  28.716  32.206  1.00  0.00     0.074 A 
ATOM     56  C   UNL A   1      45.078  24.917  28.514  1.00  0.00     0.029 A 
ATOM     57  N   UNL A   1      43.844  24.245  30.238  1.00  0.00    -0.354 N 
ATOM     58  N   UNL A   1      44.032  27.567  31.624  1.00  0.00    -0.248 NA
ATOM     59  C   UNL A   1      44.307  28.731  33.588  1.00  0.00     0.031 C 
ATOM     60  C   UNL A   1      45.577  25.522  29.692  1.00  0.00     0.029 A 
ATOM     61  C   UNL A   1      44.795  25.106  30.755  1.00  0.00     0.049 A 
ATOM     62  H   UNL A   1      43.165  23.771  30.772  1.00  0.00     0.167 HD
ATOM     63  C   UNL A   1      44.600  26.695  32.515  1.00  0.00     0.074 A 
ATOM     64  C   UNL A   1      44.777  27.478  33.723  1.00  0.00     0.031 C 
ATOM     65  C   UNL A   1      44.859  25.397  32.179  1.00  0.00     0.037 A 
BRANCH  52  66
ATOM     66  C   UNL A   1      43.110  22.432  27.072  1.00  0.00     0.064 A 
ATOM     67  C   UNL A   1      42.361  21.239  27.166  1.00  0.00     0.173 A 
ATOM     68  C   UNL A   1      44.076  22.439  26.049  1.00  0.00     0.173 A 
ATOM     69  F   UNL A   1      41.323  21.126  28.004  1.00  0.00    -0.203 F 
ATOM     70  C   UNL A   1      42.650  20.107  26.398  1.00  0.00     0.198 A 
ATOM     71  C   UNL A   1      44.408  21.289  25.324  1.00  0.00     0.198 A 
ATOM     72  F   UNL A   1      44.689  23.571  25.683  1.00  0.00    -0.203 F 
ATOM     73  F   UNL A   1      41.907  19.000  26.541  1.00  0.00    -0.200 F 
ATOM     74  C   UNL A   1      43.704  20.117  25.510  1.00  0.00     0.200 A 
ATOM     75  F   UNL A   1      45.418  21.328  24.443  1.00  0.00    -0.200 F 
ATOM     76  F   UNL A   1      44.018  19.016  24.814  1.00  0.00    -0.200 F 
ENDBRANCH  52  66
BRANCH  53  77
ATOM     77  C   UNL A   1      42.053  30.698  32.110  1.00  0.00     0.064 A 
ATOM     78  C   UNL A   1      40.992  30.001  32.721  1.00  0.00     0.173 A 
ATOM     79  C   UNL A   1      42.273  32.025  32.494  1.00  0.00     0.173 A 
ATOM     80  F   UNL A   1      40.731  28.733  32.365  1.00  0.00    -0.203 F 
ATOM     81  C   UNL A   1      40.318  30.538  33.812  1.00  0.00     0.198 A 
ATOM     82  C   UNL A   1      41.566  32.572  33.566  1.00  0.00     0.198 A 
ATOM     83  F   UNL A   1      43.262  32.739  31.938  1.00  0.00    -0.203 F 
ATOM     84  F   UNL A   1      39.446  29.782  34.495  1.00  0.00    -0.200 F 
ATOM     85  C   UNL A   1      40.636  31.809  34.260  1.00  0.00     0.200 A 
ATOM     86  F   UNL A   1      41.868  33.804  34.001  1.00  0.00    -0.200 F 
ATOM     87  F   UNL A   1      40.086  32.274  35.390  1.00  0.00    -0.200 F 
ENDBRANCH  53  77
BRANCH  65  88
ATOM     88  C   UNL A   1      45.299  24.314  33.129  1.00  0.00     0.064 A 
ATOM     89  C   UNL A   1      44.502  23.214  33.485  1.00  0.00     0.173 A 
ATOM     90  C   UNL A   1      46.625  24.294  33.625  1.00  0.00     0.173 A 
ATOM     91  F   UNL A   1      43.273  23.053  32.976  1.00  0.00    -0.203 F 
ATOM     92  C   UNL A   1      44.969  22.210  34.338  1.00  0.00     0.198 A 
ATOM     93  C   UNL A   1      47.105  23.262  34.428  1.00  0.00     0.198 A 
ATOM     94  F   UNL A   1      47.498  25.266  33.325  1.00  0.00    -0.203 F 
ATOM     95  F   UNL A   1      44.153  21.206  34.687  1.00  0.00    -0.200 F 
ATOM     96  C   UNL A   1      46.271  22.230  34.802  1.00  0.00     0.200 A 
ATOM     97  F   UNL A   1      48.386  23.267  34.825  1.00  0.00    -0.200 F 
ATOM     98  F   UNL A   1      46.726  21.246  35.590  1.00  0.00    -0.200 F 
ENDBRANCH  65  88
ENDBRANCH  39  40
ENDBRANCH  31  34
ENDBRANCH  29  30
ENDBRANCH   1  29
TORSDOF 13
ENDMDL
MODEL 2
REMARK VINA RESULT:     -14.4      2.123      3.310
REMARK SMILES Cc1ccccc1OC1(C(=O)NCCCNC(=O)c2ccc(-c3c4nc(c(-c5c(F)c(F)c(F)c(F)c5F)c5ccc([nH]5)c(-c5c(F)c(F)c(F)c(F)c5F)c5nc(c(-c6c(F)c(F)c(F)c(F)c6F)c6ccc3[nH]6)C=C5)C=C4)cc2)CCN(C(=O)[C@H]2CCCCO2)CC1
REMARK SMILES IDX 14 1 13 2 12 3 10 4 11 5 9 7 82 8 94 9 83 10 93 11 84 12
REMARK SMILES IDX 85 13 86 14 8 15 7 16 1 17 2 18 3 19 4 20 6 21 5 22 87 23
REMARK SMILES IDX 88 24 92 25 89 26 91 27 90 28 15 29 16 30 17 31 18 33 19 34
REMARK SMILES IDX 20 35 81 36 21 37 80 38 22 39 23 40 24 41 74 42 25 43 79 44
REMARK SMILES IDX 73 45 75 46 26 47 78 48 72 49 71 50 27 52 59 53 39 54 58 55
REMARK SMILES IDX 40 56 43 57 57 58 76 59 41 60 42 61 56 63 77 64 44 65 28 66
REMARK SMILES IDX 29 67 37 68 30 69 31 70 35 71 38 72 32 73 33 74 36 75 34 76
REMARK SMILES IDX 60 77 61 78 69 79 62 80 63 81 67 82 70 83 64 84 65 85 68 86
REMARK SMILES IDX 66 87 45 88 46 89 54 90 47 91 48 92 52 93 55 94 49 95 50 96
REMARK SMILES IDX 53 97 51 98
REMARK H PARENT 12 6 16 32 75 51 43 62
REMARK Flexibility Score: inf
ROOT
ATOM      1  C   UNL A   1      34.718  29.172  27.249  1.00  0.00     0.042 C 
ENDROOT
BRANCH   1   2
ATOM      2  C   UNL A   1      33.585  29.467  26.274  1.00  0.00     0.118 C 
BRANCH   2   3
ATOM      3  N   UNL A   1      33.962  29.319  24.874  1.00  0.00    -0.353 N 
ATOM      4  C   UNL A   1      33.524  28.534  23.840  1.00  0.00     0.264 C 
ATOM      5  O   UNL A   1      34.028  28.826  22.746  1.00  0.00    -0.270 OA
ATOM      6  H   UNL A   1      34.698  29.918  24.612  1.00  0.00     0.163 HD
BRANCH   4   7
ATOM      7  C   UNL A   1      32.506  27.329  23.991  1.00  0.00     0.190 C 
ATOM      8  C   UNL A   1      32.224  26.817  22.587  1.00  0.00     0.080 C 
ATOM      9  C   UNL A   1      33.025  26.382  25.070  1.00  0.00     0.080 C 
ATOM     10  C   UNL A   1      32.747  25.441  22.240  1.00  0.00     0.124 C 
ATOM     11  C   UNL A   1      33.474  24.996  24.634  1.00  0.00     0.124 C 
ATOM     12  N   UNL A   1      33.043  24.520  23.324  1.00  0.00    -0.340 N 
ATOM     13  C   UNL A   1      33.124  23.171  22.945  1.00  0.00     0.251 C 
ATOM     14  O   UNL A   1      33.048  22.852  21.754  1.00  0.00    -0.272 OA
BRANCH   7  15
ATOM     15  O   UNL A   1      31.308  27.997  24.493  1.00  0.00    -0.477 OA
BRANCH  15  16
ATOM     16  C   UNL A   1      30.139  28.365  23.889  1.00  0.00     0.123 A 
ATOM     17  C   UNL A   1      28.620  26.256  23.891  1.00  0.00     0.048 C 
ATOM     18  C   UNL A   1      28.943  27.682  23.608  1.00  0.00    -0.009 A 
ATOM     19  C   UNL A   1      27.898  28.353  22.922  1.00  0.00     0.007 A 
ATOM     20  C   UNL A   1      28.004  29.678  22.532  1.00  0.00     0.001 A 
ATOM     21  C   UNL A   1      30.220  29.709  23.471  1.00  0.00     0.047 A 
ATOM     22  C   UNL A   1      29.174  30.362  22.809  1.00  0.00     0.004 A 
ENDBRANCH  15  16
ENDBRANCH   7  15
BRANCH  13  23
ATOM     23  C   UNL A   1      33.231  22.103  24.056  1.00  0.00     0.207 C 
ATOM     24  C   UNL A   1      32.405  20.881  23.623  1.00  0.00     0.042 C 
ATOM     25  O   UNL A   1      34.610  21.761  24.220  1.00  0.00    -0.368 OA
ATOM     26  C   UNL A   1      32.664  19.664  24.498  1.00  0.00     0.006 C 
ATOM     27  C   UNL A   1      34.834  20.696  25.135  1.00  0.00     0.161 C 
ATOM     28  C   UNL A   1      34.159  19.428  24.641  1.00  0.00     0.029 C 
ENDBRANCH  13  23
ENDBRANCH   4   7
ENDBRANCH   2   3
ENDBRANCH   1   2
BRANCH   1  29
ATOM     29  C   UNL A   1      35.228  30.373  28.025  1.00  0.00     0.118 C 
BRANCH  29  30
ATOM     30  N   UNL A   1      34.235  31.433  28.222  1.00  0.00    -0.352 N 
ATOM     31  C   UNL A   1      34.345  32.562  29.018  1.00  0.00     0.251 C 
ATOM     32  H   UNL A   1      33.390  31.331  27.729  1.00  0.00     0.163 HD
ATOM     33  O   UNL A   1      33.446  33.395  29.082  1.00  0.00    -0.269 OA
BRANCH  31  34
ATOM     34  C   UNL A   1      35.638  32.798  29.694  1.00  0.00     0.039 A 
ATOM     35  C   UNL A   1      36.605  33.514  28.987  1.00  0.00     0.014 A 
ATOM     36  C   UNL A   1      35.980  31.997  30.778  1.00  0.00     0.014 A 
ATOM     37  C   UNL A   1      37.945  33.198  29.182  1.00  0.00     0.010 A 
ATOM     38  C   UNL A   1      37.296  31.597  30.890  1.00  0.00     0.010 A 
ATOM     39  C   UNL A   1      38.266  32.144  30.040  1.00  0.00    -0.014 A 
BRANCH  39  40
ATOM     40  C   UNL A   1      39.574  31.501  30.041  1.00  0.00     0.031 A 
ATOM     41  C   UNL A   1      39.735  30.179  29.403  1.00  0.00     0.074 A 
ATOM     42  C   UNL A   1      40.650  32.115  30.586  1.00  0.00     0.049 A 
ATOM     43  N   UNL A   1      40.615  29.306  29.763  1.00  0.00    -0.248 NA
ATOM     44  C   UNL A   1      38.874  29.718  28.323  1.00  0.00     0.031 C 
ATOM     45  C   UNL A   1      42.048  31.707  30.459  1.00  0.00     0.029 A 
ATOM     46  N   UNL A   1      40.678  33.153  31.533  1.00  0.00    -0.354 N 
ATOM     47  C   UNL A   1      40.622  28.306  28.819  1.00  0.00     0.074 A 
ATOM     48  C   UNL A   1      39.480  28.579  27.977  1.00  0.00     0.031 C 
ATOM     49  C   UNL A   1      42.752  32.235  31.470  1.00  0.00     0.029 A 
ATOM     50  C   UNL A   1      41.813  32.907  32.347  1.00  0.00     0.049 A 
ATOM     51  H   UNL A   1      40.041  33.899  31.615  1.00  0.00     0.167 HD
ATOM     52  C   UNL A   1      41.669  27.433  28.776  1.00  0.00     0.037 A 
ATOM     53  C   UNL A   1      41.711  32.710  33.694  1.00  0.00     0.037 A 
ATOM     54  C   UNL A   1      42.632  27.707  29.840  1.00  0.00     0.049 A 
ATOM     55  C   UNL A   1      42.210  31.363  34.153  1.00  0.00     0.074 A 
ATOM     56  C   UNL A   1      43.814  28.430  29.859  1.00  0.00     0.029 A 
ATOM     57  N   UNL A   1      42.278  27.496  31.169  1.00  0.00    -0.354 N 
ATOM     58  N   UNL A   1      42.432  30.368  33.341  1.00  0.00    -0.248 NA
ATOM     59  C   UNL A   1      42.449  31.009  35.549  1.00  0.00     0.031 C 
ATOM     60  C   UNL A   1      44.148  28.693  31.209  1.00  0.00     0.029 A 
ATOM     61  C   UNL A   1      43.181  28.116  32.013  1.00  0.00     0.049 A 
ATOM     62  H   UNL A   1      41.495  26.977  31.467  1.00  0.00     0.167 HD
ATOM     63  C   UNL A   1      42.794  29.262  34.062  1.00  0.00     0.074 A 
ATOM     64  C   UNL A   1      42.817  29.720  35.439  1.00  0.00     0.031 C 
ATOM     65  C   UNL A   1      43.028  28.059  33.459  1.00  0.00     0.037 A 
BRANCH  52  66
ATOM     66  C   UNL A   1      41.966  26.551  27.583  1.00  0.00     0.064 A 
ATOM     67  C   UNL A   1      41.313  25.311  27.414  1.00  0.00     0.173 A 
ATOM     68  C   UNL A   1      42.932  26.843  26.602  1.00  0.00     0.173 A 
ATOM     69  F   UNL A   1      40.285  24.949  28.191  1.00  0.00    -0.203 F 
ATOM     70  C   UNL A   1      41.693  24.388  26.436  1.00  0.00     0.198 A 
ATOM     71  C   UNL A   1      43.356  25.897  25.662  1.00  0.00     0.198 A 
ATOM     72  F   UNL A   1      43.455  28.071  26.489  1.00  0.00    -0.203 F 
ATOM     73  F   UNL A   1      41.040  23.222  26.333  1.00  0.00    -0.200 F 
ATOM     74  C   UNL A   1      42.746  24.662  25.589  1.00  0.00     0.200 A 
ATOM     75  F   UNL A   1      44.363  26.194  24.828  1.00  0.00    -0.200 F 
ATOM     76  F   UNL A   1      43.148  23.756  24.689  1.00  0.00    -0.200 F 
ENDBRANCH  52  66
BRANCH  53  77
ATOM     77  C   UNL A   1      40.586  33.474  34.290  1.00  0.00     0.064 A 
ATOM     78  C   UNL A   1      39.406  32.756  34.565  1.00  0.00     0.173 A 
ATOM     79  C   UNL A   1      40.816  34.654  35.005  1.00  0.00     0.173 A 
ATOM     80  F   UNL A   1      39.134  31.630  33.886  1.00  0.00    -0.203 F 
ATOM     81  C   UNL A   1      38.600  33.091  35.648  1.00  0.00     0.198 A 
ATOM     82  C   UNL A   1      39.981  35.007  36.066  1.00  0.00     0.198 A 
ATOM     83  F   UNL A   1      41.917  35.384  34.778  1.00  0.00    -0.203 F 
ATOM     84  F   UNL A   1      37.591  32.282  36.004  1.00  0.00    -0.200 F 
ATOM     85  C   UNL A   1      38.914  34.194  36.424  1.00  0.00     0.200 A 
ATOM     86  F   UNL A   1      40.279  36.076  36.819  1.00  0.00    -0.200 F 
ATOM     87  F   UNL A   1      38.221  34.439  37.544  1.00  0.00    -0.200 F 
ENDBRANCH  53  77
BRANCH  65  88
ATOM     88  C   UNL A   1      43.243  26.747  34.167  1.00  0.00     0.064 A 
ATOM     89  C   UNL A   1      42.212  26.000  34.759  1.00  0.00     0.173 A 
ATOM     90  C   UNL A   1      44.518  26.131  34.159  1.00  0.00     0.173 A 
ATOM     91  F   UNL A   1      40.940  26.416  34.717  1.00  0.00    -0.203 F 
ATOM     92  C   UNL A   1      42.453  24.766  35.368  1.00  0.00     0.198 A 
ATOM     93  C   UNL A   1      44.743  24.875  34.716  1.00  0.00     0.198 A 
ATOM     94  F   UNL A   1      45.577  26.724  33.589  1.00  0.00    -0.203 F 
ATOM     95  F   UNL A   1      41.445  24.113  35.964  1.00  0.00    -0.200 F 
ATOM     96  C   UNL A   1      43.715  24.200  35.340  1.00  0.00     0.200 A 
ATOM     97  F   UNL A   1      45.959  24.316  34.631  1.00  0.00    -0.200 F 
ATOM     98  F   UNL A   1      43.933  22.999  35.893  1.00  0.00    -0.200 F 
ENDBRANCH  65  88
ENDBRANCH  39  40
ENDBRANCH  31  34
ENDBRANCH  29  30
ENDBRANCH   1  29
TORSDOF 13
ENDMDL
MODEL 3
REMARK VINA RESULT:     -14.3      3.780     10.296
REMARK SMILES Cc1ccccc1OC1(C(=O)NCCCNC(=O)c2ccc(-c3c4nc(c(-c5c(F)c(F)c(F)c(F)c5F)c5ccc([nH]5)c(-c5c(F)c(F)c(F)c(F)c5F)c5nc(c(-c6c(F)c(F)c(F)c(F)c6F)c6ccc3[nH]6)C=C5)C=C4)cc2)CCN(C(=O)[C@H]2CCCCO2)CC1
REMARK SMILES IDX 14 1 13 2 12 3 10 4 11 5 9 7 82 8 94 9 83 10 93 11 84 12
REMARK SMILES IDX 85 13 86 14 8 15 7 16 1 17 2 18 3 19 4 20 6 21 5 22 87 23
REMARK SMILES IDX 88 24 92 25 89 26 91 27 90 28 15 29 16 30 17 31 18 33 19 34
REMARK SMILES IDX 20 35 81 36 21 37 80 38 22 39 23 40 24 41 74 42 25 43 79 44
REMARK SMILES IDX 73 45 75 46 26 47 78 48 72 49 71 50 27 52 59 53 39 54 58 55
REMARK SMILES IDX 40 56 43 57 57 58 76 59 41 60 42 61 56 63 77 64 44 65 28 66
REMARK SMILES IDX 29 67 37 68 30 69 31 70 35 71 38 72 32 73 33 74 36 75 34 76
REMARK SMILES IDX 60 77 61 78 69 79 62 80 63 81 67 82 70 83 64 84 65 85 68 86
REMARK SMILES IDX 66 87 45 88 46 89 54 90 47 91 48 92 52 93 55 94 49 95 50 96
REMARK SMILES IDX 53 97 51 98
REMARK H PARENT 12 6 16 32 75 51 43 62
REMARK Flexibility Score: inf
ROOT
ATOM      1  C   UNL A   1      38.589  21.827  25.734  1.00  0.00     0.042 C 
ENDROOT
BRANCH   1   2
ATOM      2  C   UNL A   1      37.160  22.191  25.356  1.00  0.00     0.118 C 
BRANCH   2   3
ATOM      3  N   UNL A   1      36.276  22.367  26.501  1.00  0.00    -0.353 N 
ATOM      4  C   UNL A   1      34.933  22.594  26.652  1.00  0.00     0.264 C 
ATOM      5  O   UNL A   1      34.549  22.538  27.828  1.00  0.00    -0.270 OA
ATOM      6  H   UNL A   1      36.751  22.311  27.362  1.00  0.00     0.163 HD
BRANCH   4   7
ATOM      7  C   UNL A   1      33.939  22.943  25.468  1.00  0.00     0.190 C 
ATOM      8  C   UNL A   1      32.534  22.677  25.985  1.00  0.00     0.080 C 
ATOM      9  C   UNL A   1      34.310  24.312  24.904  1.00  0.00     0.080 C 
ATOM     10  C   UNL A   1      31.637  23.877  26.184  1.00  0.00     0.124 C 
ATOM     11  C   UNL A   1      33.317  25.447  25.102  1.00  0.00     0.124 C 
ATOM     12  N   UNL A   1      31.947  25.099  25.462  1.00  0.00    -0.340 N 
ATOM     13  C   UNL A   1      30.885  26.012  25.367  1.00  0.00     0.251 C 
ATOM     14  O   UNL A   1      29.822  25.797  25.958  1.00  0.00    -0.272 OA
BRANCH   7  15
ATOM     15  O   UNL A   1      34.271  21.924  24.475  1.00  0.00    -0.477 OA
BRANCH  15  16
ATOM     16  C   UNL A   1      33.653  20.762  24.108  1.00  0.00     0.123 A 
ATOM     17  C   UNL A   1      31.778  21.428  22.436  1.00  0.00     0.048 C 
ATOM     18  C   UNL A   1      32.593  20.469  23.234  1.00  0.00    -0.009 A 
ATOM     19  C   UNL A   1      32.153  19.128  23.089  1.00  0.00     0.007 A 
ATOM     20  C   UNL A   1      32.751  18.079  23.770  1.00  0.00     0.001 A 
ATOM     21  C   UNL A   1      34.235  19.675  24.792  1.00  0.00     0.047 A 
ATOM     22  C   UNL A   1      33.800  18.355  24.627  1.00  0.00     0.004 A 
ENDBRANCH  15  16
ENDBRANCH   7  15
BRANCH  13  23
ATOM     23  C   UNL A   1      31.057  27.243  24.448  1.00  0.00     0.207 C 
ATOM     24  C   UNL A   1      29.876  27.271  23.465  1.00  0.00     0.042 C 
ATOM     25  O   UNL A   1      31.075  28.417  25.266  1.00  0.00    -0.368 OA
ATOM     26  C   UNL A   1      29.785  28.585  22.703  1.00  0.00     0.006 C 
ATOM     27  C   UNL A   1      31.108  29.631  24.528  1.00  0.00     0.161 C 
ATOM     28  C   UNL A   1      29.864  29.758  23.666  1.00  0.00     0.029 C 
ENDBRANCH  13  23
ENDBRANCH   4   7
ENDBRANCH   2   3
ENDBRANCH   1   2
BRANCH   1  29
ATOM     29  C   UNL A   1      39.212  22.697  26.812  1.00  0.00     0.118 C 
BRANCH  29  30
ATOM     30  N   UNL A   1      40.630  23.001  26.600  1.00  0.00    -0.352 N 
ATOM     31  C   UNL A   1      41.226  24.248  26.499  1.00  0.00     0.251 C 
ATOM     32  H   UNL A   1      41.231  22.226  26.521  1.00  0.00     0.163 HD
ATOM     33  O   UNL A   1      42.437  24.373  26.345  1.00  0.00    -0.269 OA
BRANCH  31  34
ATOM     34  C   UNL A   1      40.369  25.432  26.713  1.00  0.00     0.039 A 
ATOM     35  C   UNL A   1      40.778  26.631  26.126  1.00  0.00     0.014 A 
ATOM     36  C   UNL A   1      39.460  25.417  27.766  1.00  0.00     0.014 A 
ATOM     37  C   UNL A   1      40.505  27.824  26.785  1.00  0.00     0.010 A 
ATOM     38  C   UNL A   1      39.288  26.584  28.482  1.00  0.00     0.010 A 
ATOM     39  C   UNL A   1      39.874  27.773  28.029  1.00  0.00    -0.014 A 
BRANCH  39  40
ATOM     40  C   UNL A   1      39.865  28.900  28.953  1.00  0.00     0.031 A 
ATOM     41  C   UNL A   1      38.820  29.936  28.827  1.00  0.00     0.074 A 
ATOM     42  C   UNL A   1      40.779  28.991  29.947  1.00  0.00     0.049 A 
ATOM     43  N   UNL A   1      38.977  31.167  29.180  1.00  0.00    -0.248 NA
ATOM     44  C   UNL A   1      37.513  29.666  28.244  1.00  0.00     0.031 C 
ATOM     45  C   UNL A   1      40.756  29.921  31.075  1.00  0.00     0.029 A 
ATOM     46  N   UNL A   1      42.033  28.365  30.042  1.00  0.00    -0.354 N 
ATOM     47  C   UNL A   1      37.746  31.777  29.129  1.00  0.00     0.074 A 
ATOM     48  C   UNL A   1      36.880  30.817  28.484  1.00  0.00     0.031 C 
ATOM     49  C   UNL A   1      41.997  30.046  31.565  1.00  0.00     0.029 A 
ATOM     50  C   UNL A   1      42.882  29.291  30.700  1.00  0.00     0.049 A 
ATOM     51  H   UNL A   1      42.274  27.466  29.719  1.00  0.00     0.167 HD
ATOM     52  C   UNL A   1      37.565  32.975  29.757  1.00  0.00     0.037 A 
ATOM     53  C   UNL A   1      44.020  29.773  30.118  1.00  0.00     0.037 A 
ATOM     54  C   UNL A   1      38.805  33.446  30.368  1.00  0.00     0.049 A 
ATOM     55  C   UNL A   1      44.023  31.270  29.937  1.00  0.00     0.074 A 
ATOM     56  C   UNL A   1      39.299  33.350  31.659  1.00  0.00     0.029 A 
ATOM     57  N   UNL A   1      39.876  33.825  29.565  1.00  0.00    -0.354 N 
ATOM     58  N   UNL A   1      42.952  32.005  30.035  1.00  0.00    -0.248 NA
ATOM     59  C   UNL A   1      45.206  32.050  29.585  1.00  0.00     0.031 C 
ATOM     60  C   UNL A   1      40.686  33.630  31.624  1.00  0.00     0.029 A 
ATOM     61  C   UNL A   1      41.035  33.913  30.315  1.00  0.00     0.049 A 
ATOM     62  H   UNL A   1      39.818  34.005  28.598  1.00  0.00     0.167 HD
ATOM     63  C   UNL A   1      43.261  33.306  29.737  1.00  0.00     0.074 A 
ATOM     64  C   UNL A   1      44.690  33.289  29.487  1.00  0.00     0.031 C 
ATOM     65  C   UNL A   1      42.305  34.280  29.707  1.00  0.00     0.037 A 
BRANCH  52  66
ATOM     66  C   UNL A   1      36.201  33.545  30.081  1.00  0.00     0.064 A 
ATOM     67  C   UNL A   1      35.376  34.079  29.067  1.00  0.00     0.173 A 
ATOM     68  C   UNL A   1      35.675  33.651  31.382  1.00  0.00     0.173 A 
ATOM     69  F   UNL A   1      35.680  33.942  27.771  1.00  0.00    -0.203 F 
ATOM     70  C   UNL A   1      34.200  34.782  29.347  1.00  0.00     0.198 A 
ATOM     71  C   UNL A   1      34.533  34.406  31.669  1.00  0.00     0.198 A 
ATOM     72  F   UNL A   1      36.220  32.982  32.406  1.00  0.00    -0.203 F 
ATOM     73  F   UNL A   1      33.466  35.274  28.340  1.00  0.00    -0.200 F 
ATOM     74  C   UNL A   1      33.803  34.984  30.651  1.00  0.00     0.200 A 
ATOM     75  F   UNL A   1      34.146  34.567  32.942  1.00  0.00    -0.200 F 
ATOM     76  F   UNL A   1      32.707  35.705  30.923  1.00  0.00    -0.200 F 
ENDBRANCH  52  66
BRANCH  53  77
ATOM     77  C   UNL A   1      44.650  28.782  29.210  1.00  0.00     0.064 A 
ATOM     78  C   UNL A   1      45.361  27.727  29.816  1.00  0.00     0.173 A 
ATOM     79  C   UNL A   1      44.167  28.585  27.912  1.00  0.00     0.173 A 
ATOM     80  F   UNL A   1      45.863  27.881  31.052  1.00  0.00    -0.203 F 
ATOM     81  C   UNL A   1      45.405  26.465  29.232  1.00  0.00     0.198 A 
ATOM     82  C   UNL A   1      44.249  27.326  27.315  1.00  0.00     0.198 A 
ATOM     83  F   UNL A   1      43.493  29.558  27.283  1.00  0.00    -0.203 F 
ATOM     84  F   UNL A   1      45.921  25.433  29.915  1.00  0.00    -0.200 F 
ATOM     85  C   UNL A   1      44.811  26.257  28.000  1.00  0.00     0.200 A 
ATOM     86  F   UNL A   1      43.678  27.120  26.120  1.00  0.00    -0.200 F 
ATOM     87  F   UNL A   1      44.733  25.016  27.499  1.00  0.00    -0.200 F 
ENDBRANCH  53  77
BRANCH  65  88
ATOM     88  C   UNL A   1      42.500  35.688  29.210  1.00  0.00     0.064 A 
ATOM     89  C   UNL A   1      41.902  36.196  28.046  1.00  0.00     0.173 A 
ATOM     90  C   UNL A   1      43.219  36.627  29.989  1.00  0.00     0.173 A 
ATOM     91  F   UNL A   1      41.092  35.441  27.294  1.00  0.00    -0.203 F 
ATOM     92  C   UNL A   1      42.078  37.524  27.647  1.00  0.00     0.198 A 
ATOM     93  C   UNL A   1      43.343  37.964  29.617  1.00  0.00     0.198 A 
ATOM     94  F   UNL A   1      43.802  36.277  31.144  1.00  0.00    -0.203 F 
ATOM     95  F   UNL A   1      41.528  37.950  26.501  1.00  0.00    -0.200 F 
ATOM     96  C   UNL A   1      42.790  38.409  28.435  1.00  0.00     0.200 A 
ATOM     97  F   UNL A   1      43.989  38.822  30.421  1.00  0.00    -0.200 F 
ATOM     98  F   UNL A   1      42.924  39.690  28.067  1.00  0.00    -0.200 F 
ENDBRANCH  65  88
ENDBRANCH  39  40
ENDBRANCH  31  34
ENDBRANCH  29  30
ENDBRANCH   1  29
TORSDOF 13
ENDMDL
