MODEL 1
REMARK VINA RESULT:     -12.6      0.000      0.000
REMARK SMILES CC[C@](C)(NC(=O)CNC(=O)c1cccc(Cl)c1)C(=O)NCCCNC(=O)c1ccc(-c2c3nc(c(-c4c(F)c(F)c(F)c(F)c4F)c4ccc([nH]4)c(-c4c(F)c(F)c(F)c(F)c4F)c4nc(c(-c5c(F)c(F)c(F)c(F)c5F)c5ccc2[nH]5)C=C4)C=C3)cc1
REMARK SMILES IDX 22 1 21 2 19 3 20 4 3 6 4 7 2 8 1 9 5 10 6 11 7 13 8 14 9 15
REMARK SMILES IDX 10 16 11 18 12 19 13 20 18 21 14 22 16 23 15 24 17 25 23 26
REMARK SMILES IDX 24 27 25 28 26 29 27 31 28 32 29 33 90 34 30 35 89 36 31 37
REMARK SMILES IDX 32 38 33 39 83 40 34 41 88 42 82 43 84 44 35 45 87 46 81 47
REMARK SMILES IDX 80 48 36 50 68 51 48 52 67 53 49 54 52 55 66 56 85 57 50 58
REMARK SMILES IDX 51 59 65 61 86 62 53 63 37 64 38 65 46 66 39 67 40 68 44 69
REMARK SMILES IDX 47 70 41 71 42 72 45 73 43 74 69 75 70 76 78 77 71 78 72 79
REMARK SMILES IDX 76 80 79 81 73 82 74 83 77 84 75 85 54 86 55 87 63 88 56 89
REMARK SMILES IDX 57 90 61 91 64 92 58 93 59 94 62 95 60 96
REMARK H PARENT 21 5 5 12 9 17 25 30 84 49 52 60
REMARK Flexibility Score: inf
ROOT
ATOM      1  C   UNL A   1      31.688  30.683  26.037  1.00  0.00     0.117 C 
ENDROOT
BRANCH   1   2
ATOM      2  N   UNL A   1      31.056  30.322  24.774  1.00  0.00    -0.354 N 
ATOM      3  C   UNL A   1      31.063  29.150  24.055  1.00  0.00     0.245 C 
ATOM      4  O   UNL A   1      30.063  28.899  23.378  1.00  0.00    -0.272 OA
ATOM      5  H   UNL A   1      30.530  31.046  24.364  1.00  0.00     0.163 HD
BRANCH   3   6
ATOM      6  C   UNL A   1      32.175  28.092  24.193  1.00  0.00     0.116 C 
ATOM      7  C   UNL A   1      33.574  28.623  23.812  1.00  0.00     0.045 C 
BRANCH   6   8
ATOM      8  C   UNL A   1      31.782  26.953  23.195  1.00  0.00     0.035 C 
ATOM      9  C   UNL A   1      32.899  25.950  22.887  1.00  0.00     0.007 C 
ENDBRANCH   6   8
BRANCH   6  10
ATOM     10  N   UNL A   1      32.257  27.598  25.580  1.00  0.00    -0.340 N 
ATOM     11  C   UNL A   1      31.271  27.021  26.341  1.00  0.00     0.240 C 
ATOM     12  H   UNL A   1      33.133  27.695  26.017  1.00  0.00     0.164 HD
ATOM     13  O   UNL A   1      31.391  27.118  27.568  1.00  0.00    -0.273 OA
BRANCH  11  14
ATOM     14  C   UNL A   1      30.156  26.120  25.741  1.00  0.00     0.216 C 
BRANCH  14  15
ATOM     15  N   UNL A   1      29.694  24.913  26.400  1.00  0.00    -0.343 N 
ATOM     16  C   UNL A   1      30.373  23.753  26.712  1.00  0.00     0.251 C 
ATOM     17  H   UNL A   1      28.746  24.924  26.668  1.00  0.00     0.164 HD
ATOM     18  O   UNL A   1      29.909  22.996  27.562  1.00  0.00    -0.269 OA
BRANCH  16  19
ATOM     19  C   UNL A   1      31.588  23.320  25.979  1.00  0.00     0.041 A 
ATOM     20  C   UNL A   1      32.893  23.621  26.378  1.00  0.00     0.014 A 
ATOM     21  C   UNL A   1      31.381  22.559  24.820  1.00  0.00     0.034 A 
ATOM     22  C   UNL A   1      33.973  23.273  25.552  1.00  0.00     0.002 A 
ATOM     23  C   UNL A   1      32.452  22.245  23.986  1.00  0.00     0.041 A 
ATOM     24  C   UNL A   1      33.748  22.615  24.338  1.00  0.00     0.020 A 
ATOM     25  Cl  UNL A   1      32.167  21.470  22.476  1.00  0.00    -0.084 Cl
ENDBRANCH  16  19
ENDBRANCH  14  15
ENDBRANCH  11  14
ENDBRANCH   6  10
ENDBRANCH   3   6
ENDBRANCH   1   2
BRANCH   1  26
ATOM     26  C   UNL A   1      31.448  32.084  26.600  1.00  0.00     0.042 C 
BRANCH  26  27
ATOM     27  C   UNL A   1      32.629  32.855  27.175  1.00  0.00     0.118 C 
BRANCH  27  28
ATOM     28  N   UNL A   1      32.320  34.197  27.625  1.00  0.00    -0.352 N 
ATOM     29  C   UNL A   1      32.966  34.982  28.548  1.00  0.00     0.251 C 
ATOM     30  H   UNL A   1      31.528  34.608  27.206  1.00  0.00     0.163 HD
ATOM     31  O   UNL A   1      32.527  36.101  28.804  1.00  0.00    -0.269 OA
BRANCH  29  32
ATOM     32  C   UNL A   1      34.157  34.482  29.275  1.00  0.00     0.039 A 
ATOM     33  C   UNL A   1      33.959  33.857  30.510  1.00  0.00     0.014 A 
ATOM     34  C   UNL A   1      35.453  34.626  28.769  1.00  0.00     0.014 A 
ATOM     35  C   UNL A   1      35.044  33.313  31.201  1.00  0.00     0.010 A 
ATOM     36  C   UNL A   1      36.530  34.033  29.433  1.00  0.00     0.010 A 
ATOM     37  C   UNL A   1      36.335  33.360  30.651  1.00  0.00    -0.014 A 
BRANCH  37  38
ATOM     38  C   UNL A   1      37.474  32.682  31.328  1.00  0.00     0.031 A 
ATOM     39  C   UNL A   1      38.194  31.538  30.668  1.00  0.00     0.074 A 
ATOM     40  C   UNL A   1      37.839  33.071  32.566  1.00  0.00     0.049 A 
ATOM     41  N   UNL A   1      39.185  30.811  31.121  1.00  0.00    -0.248 NA
ATOM     42  C   UNL A   1      37.727  31.148  29.330  1.00  0.00     0.031 C 
ATOM     43  C   UNL A   1      37.201  34.142  33.335  1.00  0.00     0.029 A 
ATOM     44  N   UNL A   1      38.827  32.610  33.400  1.00  0.00    -0.354 N 
ATOM     45  C   UNL A   1      39.456  29.877  30.130  1.00  0.00     0.074 A 
ATOM     46  C   UNL A   1      38.493  30.098  29.071  1.00  0.00     0.031 C 
ATOM     47  C   UNL A   1      37.825  34.268  34.516  1.00  0.00     0.029 A 
ATOM     48  C   UNL A   1      38.882  33.264  34.608  1.00  0.00     0.049 A 
ATOM     49  H   UNL A   1      39.440  31.878  33.157  1.00  0.00     0.167 HD
ATOM     50  C   UNL A   1      40.429  28.934  30.097  1.00  0.00     0.037 A 
ATOM     51  C   UNL A   1      39.686  33.074  35.672  1.00  0.00     0.037 A 
ATOM     52  C   UNL A   1      41.396  28.723  31.144  1.00  0.00     0.049 A 
ATOM     53  C   UNL A   1      40.745  32.006  35.618  1.00  0.00     0.074 A 
ATOM     54  C   UNL A   1      42.451  27.828  31.175  1.00  0.00     0.029 A 
ATOM     55  N   UNL A   1      41.422  29.410  32.348  1.00  0.00    -0.354 N 
ATOM     56  N   UNL A   1      41.034  31.177  34.645  1.00  0.00    -0.248 NA
ATOM     57  C   UNL A   1      41.593  31.851  36.809  1.00  0.00     0.031 C 
ATOM     58  C   UNL A   1      43.084  27.938  32.418  1.00  0.00     0.029 A 
ATOM     59  C   UNL A   1      42.459  28.941  33.139  1.00  0.00     0.049 A 
ATOM     60  H   UNL A   1      40.795  30.126  32.604  1.00  0.00     0.167 HD
ATOM     61  C   UNL A   1      42.115  30.429  35.091  1.00  0.00     0.074 A 
ATOM     62  C   UNL A   1      42.438  30.907  36.418  1.00  0.00     0.031 C 
ATOM     63  C   UNL A   1      42.781  29.433  34.454  1.00  0.00     0.037 A 
BRANCH  50  64
ATOM     64  C   UNL A   1      40.501  28.051  28.884  1.00  0.00     0.064 A 
ATOM     65  C   UNL A   1      39.790  26.843  28.809  1.00  0.00     0.173 A 
ATOM     66  C   UNL A   1      41.252  28.439  27.763  1.00  0.00     0.173 A 
ATOM     67  F   UNL A   1      39.063  26.422  29.855  1.00  0.00    -0.203 F 
ATOM     68  C   UNL A   1      39.852  26.044  27.670  1.00  0.00     0.198 A 
ATOM     69  C   UNL A   1      41.285  27.652  26.614  1.00  0.00     0.198 A 
ATOM     70  F   UNL A   1      41.942  29.589  27.777  1.00  0.00    -0.203 F 
ATOM     71  F   UNL A   1      39.202  24.872  27.641  1.00  0.00    -0.200 F 
ATOM     72  C   UNL A   1      40.592  26.452  26.572  1.00  0.00     0.200 A 
ATOM     73  F   UNL A   1      41.990  28.057  25.548  1.00  0.00    -0.200 F 
ATOM     74  F   UNL A   1      40.644  25.686  25.474  1.00  0.00    -0.200 F 
ENDBRANCH  50  64
BRANCH  51  75
ATOM     75  C   UNL A   1      39.533  33.929  36.880  1.00  0.00     0.064 A 
ATOM     76  C   UNL A   1      40.158  35.181  36.959  1.00  0.00     0.173 A 
ATOM     77  C   UNL A   1      38.770  33.510  37.979  1.00  0.00     0.173 A 
ATOM     78  F   UNL A   1      40.916  35.617  35.943  1.00  0.00    -0.203 F 
ATOM     79  C   UNL A   1      40.042  35.972  38.101  1.00  0.00     0.198 A 
ATOM     80  C   UNL A   1      38.631  34.314  39.107  1.00  0.00     0.198 A 
ATOM     81  F   UNL A   1      38.149  32.321  37.952  1.00  0.00    -0.203 F 
ATOM     82  F   UNL A   1      40.688  37.144  38.168  1.00  0.00    -0.200 F 
ATOM     83  C   UNL A   1      39.274  35.541  39.171  1.00  0.00     0.200 A 
ATOM     84  F   UNL A   1      37.875  33.900  40.134  1.00  0.00    -0.200 F 
ATOM     85  F   UNL A   1      39.158  36.304  40.266  1.00  0.00    -0.200 F 
ENDBRANCH  51  75
BRANCH  63  86
ATOM     86  C   UNL A   1      43.956  28.822  35.162  1.00  0.00     0.064 A 
ATOM     87  C   UNL A   1      43.808  27.739  36.041  1.00  0.00     0.173 A 
ATOM     88  C   UNL A   1      45.254  29.298  34.921  1.00  0.00     0.173 A 
ATOM     89  F   UNL A   1      42.587  27.256  36.317  1.00  0.00    -0.203 F 
ATOM     90  C   UNL A   1      44.914  27.169  36.667  1.00  0.00     0.198 A 
ATOM     91  C   UNL A   1      46.360  28.707  35.526  1.00  0.00     0.198 A 
ATOM     92  F   UNL A   1      45.451  30.329  34.086  1.00  0.00    -0.203 F 
ATOM     93  F   UNL A   1      44.744  26.163  37.537  1.00  0.00    -0.200 F 
ATOM     94  C   UNL A   1      46.188  27.648  36.403  1.00  0.00     0.200 A 
ATOM     95  F   UNL A   1      47.591  29.162  35.258  1.00  0.00    -0.200 F 
ATOM     96  F   UNL A   1      47.251  27.091  36.999  1.00  0.00    -0.200 F 
ENDBRANCH  63  86
ENDBRANCH  37  38
ENDBRANCH  29  32
ENDBRANCH  27  28
ENDBRANCH  26  27
ENDBRANCH   1  26
TORSDOF 15
ENDMDL
MODEL 2
REMARK VINA RESULT:     -12.4      5.742     11.102
REMARK SMILES CC[C@](C)(NC(=O)CNC(=O)c1cccc(Cl)c1)C(=O)NCCCNC(=O)c1ccc(-c2c3nc(c(-c4c(F)c(F)c(F)c(F)c4F)c4ccc([nH]4)c(-c4c(F)c(F)c(F)c(F)c4F)c4nc(c(-c5c(F)c(F)c(F)c(F)c5F)c5ccc2[nH]5)C=C4)C=C3)cc1
REMARK SMILES IDX 22 1 21 2 19 3 20 4 3 6 4 7 2 8 1 9 5 10 6 11 7 13 8 14 9 15
REMARK SMILES IDX 10 16 11 18 12 19 13 20 18 21 14 22 16 23 15 24 17 25 23 26
REMARK SMILES IDX 24 27 25 28 26 29 27 31 28 32 29 33 90 34 30 35 89 36 31 37
REMARK SMILES IDX 32 38 33 39 83 40 34 41 88 42 82 43 84 44 35 45 87 46 81 47
REMARK SMILES IDX 80 48 36 50 68 51 48 52 67 53 49 54 52 55 66 56 85 57 50 58
REMARK SMILES IDX 51 59 65 61 86 62 53 63 37 64 38 65 46 66 39 67 40 68 44 69
REMARK SMILES IDX 47 70 41 71 42 72 45 73 43 74 69 75 70 76 78 77 71 78 72 79
REMARK SMILES IDX 76 80 79 81 73 82 74 83 77 84 75 85 54 86 55 87 63 88 56 89
REMARK SMILES IDX 57 90 61 91 64 92 58 93 59 94 62 95 60 96
REMARK H PARENT 21 5 5 12 9 17 25 30 84 49 52 60
REMARK Flexibility Score: inf
ROOT
ATOM      1  C   UNL A   1      36.608  20.666  25.005  1.00  0.00     0.117 C 
ENDROOT
BRANCH   1   2
ATOM      2  N   UNL A   1      35.275  20.135  25.265  1.00  0.00    -0.354 N 
ATOM      3  C   UNL A   1      34.052  20.755  25.364  1.00  0.00     0.245 C 
ATOM      4  O   UNL A   1      33.062  20.104  25.023  1.00  0.00    -0.272 OA
ATOM      5  H   UNL A   1      35.246  19.159  25.390  1.00  0.00     0.163 HD
BRANCH   3   6
ATOM      6  C   UNL A   1      33.899  22.247  25.717  1.00  0.00     0.116 C 
ATOM      7  C   UNL A   1      34.425  22.599  27.126  1.00  0.00     0.045 C 
BRANCH   6   8
ATOM      8  C   UNL A   1      32.358  22.521  25.674  1.00  0.00     0.035 C 
ATOM      9  C   UNL A   1      31.747  22.983  27.002  1.00  0.00     0.007 C 
ENDBRANCH   6   8
BRANCH   6  10
ATOM     10  N   UNL A   1      34.630  23.090  24.753  1.00  0.00    -0.340 N 
ATOM     11  C   UNL A   1      34.493  23.144  23.388  1.00  0.00     0.240 C 
ATOM     12  H   UNL A   1      35.304  23.693  25.139  1.00  0.00     0.164 HD
ATOM     13  O   UNL A   1      35.477  23.531  22.749  1.00  0.00    -0.273 OA
BRANCH  11  14
ATOM     14  C   UNL A   1      33.135  22.925  22.664  1.00  0.00     0.216 C 
BRANCH  14  15
ATOM     15  N   UNL A   1      32.528  23.945  21.830  1.00  0.00    -0.343 N 
ATOM     16  C   UNL A   1      32.079  25.210  22.153  1.00  0.00     0.251 C 
ATOM     17  H   UNL A   1      32.419  23.696  20.883  1.00  0.00     0.164 HD
ATOM     18  O   UNL A   1      31.916  26.036  21.258  1.00  0.00    -0.269 OA
BRANCH  16  19
ATOM     19  C   UNL A   1      31.672  25.583  23.531  1.00  0.00     0.041 A 
ATOM     20  C   UNL A   1      30.390  25.387  24.049  1.00  0.00     0.014 A 
ATOM     21  C   UNL A   1      32.660  26.161  24.339  1.00  0.00     0.034 A 
ATOM     22  C   UNL A   1      30.068  25.886  25.321  1.00  0.00     0.002 A 
ATOM     23  C   UNL A   1      32.328  26.686  25.586  1.00  0.00     0.041 A 
ATOM     24  C   UNL A   1      31.029  26.566  26.075  1.00  0.00     0.020 A 
ATOM     25  Cl  UNL A   1      33.503  27.556  26.494  1.00  0.00    -0.084 Cl
ENDBRANCH  16  19
ENDBRANCH  14  15
ENDBRANCH  11  14
ENDBRANCH   6  10
ENDBRANCH   3   6
ENDBRANCH   1   2
BRANCH   1  26
ATOM     26  C   UNL A   1      37.794  19.701  25.019  1.00  0.00     0.042 C 
BRANCH  26  27
ATOM     27  C   UNL A   1      39.074  20.123  25.729  1.00  0.00     0.118 C 
BRANCH  27  28
ATOM     28  N   UNL A   1      40.096  19.099  25.801  1.00  0.00    -0.352 N 
ATOM     29  C   UNL A   1      41.427  19.211  26.123  1.00  0.00     0.251 C 
ATOM     30  H   UNL A   1      39.792  18.187  25.588  1.00  0.00     0.163 HD
ATOM     31  O   UNL A   1      42.140  18.211  26.109  1.00  0.00    -0.269 OA
BRANCH  29  32
ATOM     32  C   UNL A   1      42.026  20.529  26.441  1.00  0.00     0.039 A 
ATOM     33  C   UNL A   1      42.427  21.344  25.377  1.00  0.00     0.014 A 
ATOM     34  C   UNL A   1      42.207  20.966  27.757  1.00  0.00     0.014 A 
ATOM     35  C   UNL A   1      42.938  22.620  25.627  1.00  0.00     0.010 A 
ATOM     36  C   UNL A   1      42.666  22.264  28.004  1.00  0.00     0.010 A 
ATOM     37  C   UNL A   1      43.025  23.108  26.941  1.00  0.00    -0.014 A 
BRANCH  37  38
ATOM     38  C   UNL A   1      43.460  24.508  27.203  1.00  0.00     0.031 A 
ATOM     39  C   UNL A   1      42.495  25.526  27.744  1.00  0.00     0.074 A 
ATOM     40  C   UNL A   1      44.724  24.876  26.914  1.00  0.00     0.049 A 
ATOM     41  N   UNL A   1      42.691  26.796  28.004  1.00  0.00    -0.248 NA
ATOM     42  C   UNL A   1      41.127  25.063  28.011  1.00  0.00     0.031 C 
ATOM     43  C   UNL A   1      45.750  23.996  26.350  1.00  0.00     0.029 A 
ATOM     44  N   UNL A   1      45.361  26.085  27.045  1.00  0.00    -0.354 N 
ATOM     45  C   UNL A   1      41.472  27.282  28.458  1.00  0.00     0.074 A 
ATOM     46  C   UNL A   1      40.531  26.184  28.393  1.00  0.00     0.031 C 
ATOM     47  C   UNL A   1      46.891  24.688  26.202  1.00  0.00     0.029 A 
ATOM     48  C   UNL A   1      46.670  26.069  26.624  1.00  0.00     0.049 A 
ATOM     49  H   UNL A   1      44.923  26.889  27.406  1.00  0.00     0.167 HD
ATOM     50  C   UNL A   1      41.170  28.526  28.906  1.00  0.00     0.037 A 
ATOM     51  C   UNL A   1      47.587  27.054  26.575  1.00  0.00     0.037 A 
ATOM     52  C   UNL A   1      42.110  29.615  28.984  1.00  0.00     0.049 A 
ATOM     53  C   UNL A   1      47.220  28.432  27.059  1.00  0.00     0.074 A 
ATOM     54  C   UNL A   1      41.908  30.894  29.474  1.00  0.00     0.029 A 
ATOM     55  N   UNL A   1      43.427  29.557  28.554  1.00  0.00    -0.354 N 
ATOM     56  N   UNL A   1      46.083  28.859  27.552  1.00  0.00    -0.248 NA
ATOM     57  C   UNL A   1      48.266  29.462  26.985  1.00  0.00     0.031 C 
ATOM     58  C   UNL A   1      43.087  31.624  29.293  1.00  0.00     0.029 A 
ATOM     59  C   UNL A   1      44.042  30.785  28.744  1.00  0.00     0.049 A 
ATOM     60  H   UNL A   1      43.861  28.761  28.169  1.00  0.00     0.167 HD
ATOM     61  C   UNL A   1      46.287  30.193  27.877  1.00  0.00     0.074 A 
ATOM     62  C   UNL A   1      47.658  30.504  27.535  1.00  0.00     0.031 C 
ATOM     63  C   UNL A   1      45.412  31.081  28.413  1.00  0.00     0.037 A 
BRANCH  50  64
ATOM     64  C   UNL A   1      39.758  28.781  29.350  1.00  0.00     0.064 A 
ATOM     65  C   UNL A   1      39.360  28.590  30.682  1.00  0.00     0.173 A 
ATOM     66  C   UNL A   1      38.803  29.268  28.444  1.00  0.00     0.173 A 
ATOM     67  F   UNL A   1      40.232  28.119  31.586  1.00  0.00    -0.203 F 
ATOM     68  C   UNL A   1      38.051  28.849  31.084  1.00  0.00     0.198 A 
ATOM     69  C   UNL A   1      37.504  29.556  28.857  1.00  0.00     0.198 A 
ATOM     70  F   UNL A   1      39.133  29.478  27.162  1.00  0.00    -0.203 F 
ATOM     71  F   UNL A   1      37.683  28.614  32.350  1.00  0.00    -0.200 F 
ATOM     72  C   UNL A   1      37.127  29.339  30.174  1.00  0.00     0.200 A 
ATOM     73  F   UNL A   1      36.617  30.043  27.979  1.00  0.00    -0.200 F 
ATOM     74  F   UNL A   1      35.872  29.595  30.563  1.00  0.00    -0.200 F 
ENDBRANCH  50  64
BRANCH  51  75
ATOM     75  C   UNL A   1      48.955  26.772  26.063  1.00  0.00     0.064 A 
ATOM     76  C   UNL A   1      49.280  26.998  24.718  1.00  0.00     0.173 A 
ATOM     77  C   UNL A   1      49.958  26.265  26.900  1.00  0.00     0.173 A 
ATOM     78  F   UNL A   1      48.348  27.461  23.872  1.00  0.00    -0.203 F 
ATOM     79  C   UNL A   1      50.551  26.706  24.226  1.00  0.00     0.198 A 
ATOM     80  C   UNL A   1      51.237  26.002  26.415  1.00  0.00     0.198 A 
ATOM     81  F   UNL A   1      49.699  26.035  28.197  1.00  0.00    -0.203 F 
ATOM     82  F   UNL A   1      50.822  26.888  22.927  1.00  0.00    -0.200 F 
ATOM     83  C   UNL A   1      51.530  26.215  25.076  1.00  0.00     0.200 A 
ATOM     84  F   UNL A   1      52.185  25.542  27.243  1.00  0.00    -0.200 F 
ATOM     85  F   UNL A   1      52.754  25.940  24.605  1.00  0.00    -0.200 F 
ENDBRANCH  51  75
BRANCH  63  86
ATOM     86  C   UNL A   1      45.921  32.463  28.707  1.00  0.00     0.064 A 
ATOM     87  C   UNL A   1      45.809  33.506  27.776  1.00  0.00     0.173 A 
ATOM     88  C   UNL A   1      46.486  32.759  29.957  1.00  0.00     0.173 A 
ATOM     89  F   UNL A   1      45.291  33.273  26.560  1.00  0.00    -0.203 F 
ATOM     90  C   UNL A   1      46.263  34.788  28.078  1.00  0.00     0.198 A 
ATOM     91  C   UNL A   1      46.911  34.047  30.267  1.00  0.00     0.198 A 
ATOM     92  F   UNL A   1      46.611  31.798  30.886  1.00  0.00    -0.203 F 
ATOM     93  F   UNL A   1      46.186  35.758  27.157  1.00  0.00    -0.200 F 
ATOM     94  C   UNL A   1      46.806  35.058  29.325  1.00  0.00     0.200 A 
ATOM     95  F   UNL A   1      47.422  34.309  31.478  1.00  0.00    -0.200 F 
ATOM     96  F   UNL A   1      47.232  36.295  29.618  1.00  0.00    -0.200 F 
ENDBRANCH  63  86
ENDBRANCH  37  38
ENDBRANCH  29  32
ENDBRANCH  27  28
ENDBRANCH  26  27
ENDBRANCH   1  26
TORSDOF 15
ENDMDL
MODEL 3
REMARK VINA RESULT:     -12.2      5.500     10.519
REMARK SMILES CC[C@](C)(NC(=O)CNC(=O)c1cccc(Cl)c1)C(=O)NCCCNC(=O)c1ccc(-c2c3nc(c(-c4c(F)c(F)c(F)c(F)c4F)c4ccc([nH]4)c(-c4c(F)c(F)c(F)c(F)c4F)c4nc(c(-c5c(F)c(F)c(F)c(F)c5F)c5ccc2[nH]5)C=C4)C=C3)cc1
REMARK SMILES IDX 22 1 21 2 19 3 20 4 3 6 4 7 2 8 1 9 5 10 6 11 7 13 8 14 9 15
REMARK SMILES IDX 10 16 11 18 12 19 13 20 18 21 14 22 16 23 15 24 17 25 23 26
REMARK SMILES IDX 24 27 25 28 26 29 27 31 28 32 29 33 90 34 30 35 89 36 31 37
REMARK SMILES IDX 32 38 33 39 83 40 34 41 88 42 82 43 84 44 35 45 87 46 81 47
REMARK SMILES IDX 80 48 36 50 68 51 48 52 67 53 49 54 52 55 66 56 85 57 50 58
REMARK SMILES IDX 51 59 65 61 86 62 53 63 37 64 38 65 46 66 39 67 40 68 44 69
REMARK SMILES IDX 47 70 41 71 42 72 45 73 43 74 69 75 70 76 78 77 71 78 72 79
REMARK SMILES IDX 76 80 79 81 73 82 74 83 77 84 75 85 54 86 55 87 63 88 56 89
REMARK SMILES IDX 57 90 61 91 64 92 58 93 59 94 62 95 60 96
REMARK H PARENT 21 5 5 12 9 17 25 30 84 49 52 60
REMARK Flexibility Score: inf
ROOT
ATOM      1  C   UNL A   1      36.371  20.328  25.235  1.00  0.00     0.117 C 
ENDROOT
BRANCH   1   2
ATOM      2  N   UNL A   1      36.078  21.531  26.005  1.00  0.00    -0.354 N 
ATOM      3  C   UNL A   1      35.286  22.620  25.725  1.00  0.00     0.245 C 
ATOM      4  O   UNL A   1      34.755  23.190  26.681  1.00  0.00    -0.272 OA
ATOM      5  H   UNL A   1      36.524  21.569  26.881  1.00  0.00     0.163 HD
BRANCH   3   6
ATOM      6  C   UNL A   1      34.920  23.038  24.288  1.00  0.00     0.116 C 
ATOM      7  C   UNL A   1      36.151  23.270  23.385  1.00  0.00     0.045 C 
BRANCH   6   8
ATOM      8  C   UNL A   1      34.148  24.391  24.441  1.00  0.00     0.035 C 
ATOM      9  C   UNL A   1      33.976  25.187  23.142  1.00  0.00     0.007 C 
ENDBRANCH   6   8
BRANCH   6  10
ATOM     10  N   UNL A   1      34.089  22.006  23.640  1.00  0.00    -0.340 N 
ATOM     11  C   UNL A   1      32.776  21.688  23.884  1.00  0.00     0.240 C 
ATOM     12  H   UNL A   1      34.534  21.476  22.940  1.00  0.00     0.164 HD
ATOM     13  O   UNL A   1      32.424  20.537  23.601  1.00  0.00    -0.273 OA
BRANCH  11  14
ATOM     14  C   UNL A   1      31.714  22.740  24.308  1.00  0.00     0.216 C 
BRANCH  14  15
ATOM     15  N   UNL A   1      31.224  22.842  25.669  1.00  0.00    -0.343 N 
ATOM     16  C   UNL A   1      30.624  23.898  26.324  1.00  0.00     0.251 C 
ATOM     17  H   UNL A   1      31.338  22.028  26.213  1.00  0.00     0.164 HD
ATOM     18  O   UNL A   1      29.980  23.683  27.348  1.00  0.00    -0.269 OA
BRANCH  16  19
ATOM     19  C   UNL A   1      30.819  25.309  25.905  1.00  0.00     0.041 A 
ATOM     20  C   UNL A   1      30.079  25.937  24.901  1.00  0.00     0.014 A 
ATOM     21  C   UNL A   1      31.812  26.030  26.582  1.00  0.00     0.034 A 
ATOM     22  C   UNL A   1      30.420  27.236  24.492  1.00  0.00     0.002 A 
ATOM     23  C   UNL A   1      32.171  27.304  26.150  1.00  0.00     0.041 A 
ATOM     24  C   UNL A   1      31.490  27.905  25.094  1.00  0.00     0.020 A 
ATOM     25  Cl  UNL A   1      33.513  28.109  26.867  1.00  0.00    -0.084 Cl
ENDBRANCH  16  19
ENDBRANCH  14  15
ENDBRANCH  11  14
ENDBRANCH   6  10
ENDBRANCH   3   6
ENDBRANCH   1   2
BRANCH   1  26
ATOM     26  C   UNL A   1      37.814  20.076  24.795  1.00  0.00     0.042 C 
BRANCH  26  27
ATOM     27  C   UNL A   1      38.933  20.256  25.812  1.00  0.00     0.118 C 
BRANCH  27  28
ATOM     28  N   UNL A   1      39.970  19.247  25.762  1.00  0.00    -0.352 N 
ATOM     29  C   UNL A   1      41.303  19.344  26.083  1.00  0.00     0.251 C 
ATOM     30  H   UNL A   1      39.677  18.359  25.454  1.00  0.00     0.163 HD
ATOM     31  O   UNL A   1      42.030  18.362  25.952  1.00  0.00    -0.269 OA
BRANCH  29  32
ATOM     32  C   UNL A   1      41.886  20.628  26.538  1.00  0.00     0.039 A 
ATOM     33  C   UNL A   1      42.406  21.494  25.570  1.00  0.00     0.014 A 
ATOM     34  C   UNL A   1      41.939  20.985  27.889  1.00  0.00     0.014 A 
ATOM     35  C   UNL A   1      42.908  22.743  25.946  1.00  0.00     0.010 A 
ATOM     36  C   UNL A   1      42.389  22.256  28.257  1.00  0.00     0.010 A 
ATOM     37  C   UNL A   1      42.868  23.152  27.288  1.00  0.00    -0.014 A 
BRANCH  37  38
ATOM     38  C   UNL A   1      43.295  24.525  27.676  1.00  0.00     0.031 A 
ATOM     39  C   UNL A   1      42.280  25.584  28.004  1.00  0.00     0.074 A 
ATOM     40  C   UNL A   1      44.608  24.832  27.694  1.00  0.00     0.049 A 
ATOM     41  N   UNL A   1      42.469  26.839  28.331  1.00  0.00    -0.248 NA
ATOM     42  C   UNL A   1      40.867  25.188  27.938  1.00  0.00     0.031 C 
ATOM     43  C   UNL A   1      45.694  23.908  27.362  1.00  0.00     0.029 A 
ATOM     44  N   UNL A   1      45.253  26.006  27.996  1.00  0.00    -0.354 N 
ATOM     45  C   UNL A   1      41.202  27.382  28.503  1.00  0.00     0.074 A 
ATOM     46  C   UNL A   1      40.251  26.333  28.198  1.00  0.00     0.031 C 
ATOM     47  C   UNL A   1      46.869  24.543  27.496  1.00  0.00     0.029 A 
ATOM     48  C   UNL A   1      46.621  25.928  27.888  1.00  0.00     0.049 A 
ATOM     49  H   UNL A   1      44.781  26.827  28.266  1.00  0.00     0.167 HD
ATOM     50  C   UNL A   1      40.863  28.633  28.898  1.00  0.00     0.037 A 
ATOM     51  C   UNL A   1      47.569  26.867  28.075  1.00  0.00     0.037 A 
ATOM     52  C   UNL A   1      41.809  29.673  29.216  1.00  0.00     0.049 A 
ATOM     53  C   UNL A   1      47.165  28.255  28.493  1.00  0.00     0.074 A 
ATOM     54  C   UNL A   1      41.559  30.954  29.676  1.00  0.00     0.029 A 
ATOM     55  N   UNL A   1      43.186  29.554  29.099  1.00  0.00    -0.354 N 
ATOM     56  N   UNL A   1      45.966  28.733  28.720  1.00  0.00    -0.248 NA
ATOM     57  C   UNL A   1      48.247  29.232  28.685  1.00  0.00     0.031 C 
ATOM     58  C   UNL A   1      42.781  31.626  29.788  1.00  0.00     0.029 A 
ATOM     59  C   UNL A   1      43.797  30.746  29.454  1.00  0.00     0.049 A 
ATOM     60  H   UNL A   1      43.660  28.741  28.807  1.00  0.00     0.167 HD
ATOM     61  C   UNL A   1      46.151  30.052  29.114  1.00  0.00     0.074 A 
ATOM     62  C   UNL A   1      47.577  30.296  29.105  1.00  0.00     0.031 C 
ATOM     63  C   UNL A   1      45.219  30.976  29.454  1.00  0.00     0.037 A 
BRANCH  50  64
ATOM     64  C   UNL A   1      39.400  28.954  29.012  1.00  0.00     0.064 A 
ATOM     65  C   UNL A   1      38.726  28.893  30.241  1.00  0.00     0.173 A 
ATOM     66  C   UNL A   1      38.674  29.375  27.887  1.00  0.00     0.173 A 
ATOM     67  F   UNL A   1      39.372  28.489  31.345  1.00  0.00    -0.203 F 
ATOM     68  C   UNL A   1      37.373  29.211  30.334  1.00  0.00     0.198 A 
ATOM     69  C   UNL A   1      37.329  29.724  27.990  1.00  0.00     0.198 A 
ATOM     70  F   UNL A   1      39.271  29.462  26.689  1.00  0.00    -0.203 F 
ATOM     71  F   UNL A   1      36.740  29.099  31.509  1.00  0.00    -0.200 F 
ATOM     72  C   UNL A   1      36.678  29.634  29.211  1.00  0.00     0.200 A 
ATOM     73  F   UNL A   1      36.664  30.146  26.906  1.00  0.00    -0.200 F 
ATOM     74  F   UNL A   1      35.379  29.948  29.304  1.00  0.00    -0.200 F 
ENDBRANCH  50  64
BRANCH  51  75
ATOM     75  C   UNL A   1      49.004  26.521  27.884  1.00  0.00     0.064 A 
ATOM     76  C   UNL A   1      49.836  26.272  28.984  1.00  0.00     0.173 A 
ATOM     77  C   UNL A   1      49.572  26.441  26.605  1.00  0.00     0.173 A 
ATOM     78  F   UNL A   1      49.345  26.359  30.229  1.00  0.00    -0.203 F 
ATOM     79  C   UNL A   1      51.188  25.978  28.812  1.00  0.00     0.198 A 
ATOM     80  C   UNL A   1      50.915  26.117  26.433  1.00  0.00     0.198 A 
ATOM     81  F   UNL A   1      48.817  26.666  25.519  1.00  0.00    -0.203 F 
ATOM     82  F   UNL A   1      51.971  25.791  29.883  1.00  0.00    -0.200 F 
ATOM     83  C   UNL A   1      51.724  25.893  27.537  1.00  0.00     0.200 A 
ATOM     84  F   UNL A   1      51.427  26.021  25.198  1.00  0.00    -0.200 F 
ATOM     85  F   UNL A   1      53.022  25.605  27.371  1.00  0.00    -0.200 F 
ENDBRANCH  51  75
BRANCH  63  86
ATOM     86  C   UNL A   1      45.709  32.327  29.890  1.00  0.00     0.064 A 
ATOM     87  C   UNL A   1      45.858  33.387  28.983  1.00  0.00     0.173 A 
ATOM     88  C   UNL A   1      45.989  32.577  31.242  1.00  0.00     0.173 A 
ATOM     89  F   UNL A   1      45.619  33.197  27.677  1.00  0.00    -0.203 F 
ATOM     90  C   UNL A   1      46.290  34.641  29.412  1.00  0.00     0.198 A 
ATOM     91  C   UNL A   1      46.391  33.839  31.672  1.00  0.00     0.198 A 
ATOM     92  F   UNL A   1      45.858  31.599  32.151  1.00  0.00    -0.203 F 
ATOM     93  F   UNL A   1      46.467  35.626  28.521  1.00  0.00    -0.200 F 
ATOM     94  C   UNL A   1      46.547  34.867  30.755  1.00  0.00     0.200 A 
ATOM     95  F   UNL A   1      46.625  34.058  32.972  1.00  0.00    -0.200 F 
ATOM     96  F   UNL A   1      46.952  36.077  31.167  1.00  0.00    -0.200 F 
ENDBRANCH  63  86
ENDBRANCH  37  38
ENDBRANCH  29  32
ENDBRANCH  27  28
ENDBRANCH  26  27
ENDBRANCH   1  26
TORSDOF 15
ENDMDL
