MODEL 1
REMARK VINA RESULT:     -14.0      0.000      0.000
REMARK SMILES CC(C)C(=O)Nc1ccc2c([C@@H](C(=O)NCCCNC(=O)c3ccc(-c4c5nc(c(-c6c(F)c(F)c(F)c(F)c6F)c6ccc([nH]6)c(-c6c(F)c(F)c(F)c(F)c6F)c6nc(c(-c7c(F)c(F)c(F)c(F)c7F)c7ccc4[nH]7)C=C6)C=C5)cc3)[NH+]3CC[NH+](Cc4ccccc4)CC3)c[nH]c2c1
REMARK SMILES IDX 16 1 15 2 13 3 14 4 12 6 11 7 7 8 8 9 101 10 9 11 100 12
REMARK SMILES IDX 10 13 99 14 98 15 6 17 4 18 5 19 2 21 1 22 3 23 85 24 86 25
REMARK SMILES IDX 97 26 87 28 96 29 88 30 89 32 90 33 91 34 95 35 92 36 94 37
REMARK SMILES IDX 93 38 17 39 18 40 19 41 20 42 21 44 22 45 23 46 84 47 24 48
REMARK SMILES IDX 83 49 25 50 26 51 27 52 77 53 28 54 82 55 76 56 78 57 29 58
REMARK SMILES IDX 81 59 75 60 74 61 30 63 62 64 42 65 61 66 43 67 46 68 60 69
REMARK SMILES IDX 79 70 44 71 45 72 59 74 80 75 47 76 31 77 32 78 40 79 33 80
REMARK SMILES IDX 34 81 38 82 41 83 35 84 36 85 39 86 37 87 63 88 64 89 72 90
REMARK SMILES IDX 65 91 66 92 70 93 73 94 67 95 68 96 71 97 69 98 48 99 49 100
REMARK SMILES IDX 57 101 50 102 51 103 55 104 58 105 52 106 53 107 56 108
REMARK SMILES IDX 54 109
REMARK H PARENT 15 5 99 16 6 20 85 27 88 31 19 43 78 62 46 73
REMARK Flexibility Score: inf
ROOT
ATOM      1  C   UNL A   1      33.595  26.254  25.777  1.00  0.00     0.118 C 
ENDROOT
BRANCH   1   2
ATOM      2  N   UNL A   1      34.045  26.069  24.413  1.00  0.00    -0.351 N 
ATOM      3  C   UNL A   1      33.573  25.228  23.439  1.00  0.00     0.283 C 
ATOM      4  O   UNL A   1      34.228  25.213  22.391  1.00  0.00    -0.268 OA
ATOM      5  H   UNL A   1      34.806  26.633  24.144  1.00  0.00     0.163 HD
BRANCH   3   6
ATOM      6  C   UNL A   1      32.250  24.435  23.665  1.00  0.00     0.308 C 
BRANCH   6   7
ATOM      7  C   UNL A   1      32.305  22.994  23.225  1.00  0.00     0.044 A 
ATOM      8  C   UNL A   1      32.705  19.377  25.319  1.00  0.00     0.043 A 
ATOM      9  C   UNL A   1      33.100  20.516  26.003  1.00  0.00     0.027 A 
ATOM     10  C   UNL A   1      32.423  19.437  23.950  1.00  0.00     0.052 A 
ATOM     11  C   UNL A   1      32.981  21.777  25.429  1.00  0.00     0.013 A 
ATOM     12  C   UNL A   1      32.370  20.711  23.362  1.00  0.00     0.048 A 
ATOM     13  C   UNL A   1      32.576  21.883  24.089  1.00  0.00     0.009 A 
ATOM     14  N   UNL A   1      32.097  21.090  22.070  1.00  0.00    -0.361 N 
ATOM     15  C   UNL A   1      32.129  22.454  21.963  1.00  0.00     0.094 A 
ATOM     16  H   UNL A   1      31.906  20.470  21.329  1.00  0.00     0.166 HD
BRANCH   8  17
ATOM     17  N   UNL A   1      32.611  18.148  25.977  1.00  0.00    -0.326 N 
ATOM     18  C   UNL A   1      33.186  16.944  25.680  1.00  0.00     0.226 C 
ATOM     19  O   UNL A   1      32.734  15.944  26.252  1.00  0.00    -0.274 OA
ATOM     20  H   UNL A   1      32.042  18.151  26.781  1.00  0.00     0.169 HD
BRANCH  18  21
ATOM     21  C   UNL A   1      34.430  16.799  24.779  1.00  0.00     0.072 C 
ATOM     22  C   UNL A   1      35.539  15.890  25.294  1.00  0.00     0.018 C 
ATOM     23  C   UNL A   1      34.099  16.541  23.309  1.00  0.00     0.018 C 
ENDBRANCH  18  21
ENDBRANCH   8  17
ENDBRANCH   6   7
BRANCH   6  24
ATOM     24  N   UNL A   1      31.079  25.133  23.100  1.00  0.00    -0.312 N 
ATOM     25  C   UNL A   1      29.958  25.417  23.996  1.00  0.00     0.325 C 
ATOM     26  C   UNL A   1      31.363  26.222  22.163  1.00  0.00     0.325 C 
ATOM     27  H   UNL A   1      30.719  24.375  22.520  1.00  0.00     0.349 HD
ATOM     28  C   UNL A   1      29.783  26.879  24.485  1.00  0.00     0.324 C 
ATOM     29  C   UNL A   1      31.241  27.660  22.718  1.00  0.00     0.324 C 
ATOM     30  N   UNL A   1      30.055  27.952  23.528  1.00  0.00    -0.322 N 
ATOM     31  H   UNL A   1      30.303  28.774  24.077  1.00  0.00     0.348 HD
BRANCH  30  32
ATOM     32  C   UNL A   1      28.885  28.464  22.810  1.00  0.00     0.299 C 
BRANCH  32  33
ATOM     33  C   UNL A   1      28.810  29.955  22.587  1.00  0.00     0.006 A 
ATOM     34  C   UNL A   1      28.404  30.468  21.346  1.00  0.00     0.009 A 
ATOM     35  C   UNL A   1      29.107  30.852  23.622  1.00  0.00     0.009 A 
ATOM     36  C   UNL A   1      28.222  31.841  21.175  1.00  0.00     0.001 A 
ATOM     37  C   UNL A   1      28.901  32.221  23.458  1.00  0.00     0.001 A 
ATOM     38  C   UNL A   1      28.449  32.714  22.237  1.00  0.00     0.000 A 
ENDBRANCH  32  33
ENDBRANCH  30  32
ENDBRANCH   6  24
ENDBRANCH   3   6
ENDBRANCH   1   2
BRANCH   1  39
ATOM     39  C   UNL A   1      32.933  27.613  25.984  1.00  0.00     0.042 C 
BRANCH  39  40
ATOM     40  C   UNL A   1      33.724  28.769  25.391  1.00  0.00     0.118 C 
BRANCH  40  41
ATOM     41  N   UNL A   1      33.155  30.057  25.756  1.00  0.00    -0.352 N 
ATOM     42  C   UNL A   1      33.451  30.866  26.819  1.00  0.00     0.251 C 
ATOM     43  H   UNL A   1      32.455  30.395  25.151  1.00  0.00     0.163 HD
ATOM     44  O   UNL A   1      32.686  31.787  27.117  1.00  0.00    -0.269 OA
BRANCH  42  45
ATOM     45  C   UNL A   1      34.675  30.642  27.614  1.00  0.00     0.039 A 
ATOM     46  C   UNL A   1      34.803  29.452  28.336  1.00  0.00     0.014 A 
ATOM     47  C   UNL A   1      35.675  31.617  27.686  1.00  0.00     0.014 A 
ATOM     48  C   UNL A   1      35.951  29.224  29.095  1.00  0.00     0.010 A 
ATOM     49  C   UNL A   1      36.854  31.353  28.376  1.00  0.00     0.010 A 
ATOM     50  C   UNL A   1      36.996  30.162  29.102  1.00  0.00    -0.014 A 
BRANCH  50  51
ATOM     51  C   UNL A   1      38.233  29.929  29.886  1.00  0.00     0.031 A 
ATOM     52  C   UNL A   1      39.313  29.035  29.340  1.00  0.00     0.074 A 
ATOM     53  C   UNL A   1      38.358  30.475  31.110  1.00  0.00     0.049 A 
ATOM     54  N   UNL A   1      40.435  28.656  29.898  1.00  0.00    -0.248 NA
ATOM     55  C   UNL A   1      39.088  28.468  28.002  1.00  0.00     0.031 C 
ATOM     56  C   UNL A   1      37.357  31.320  31.764  1.00  0.00     0.029 A 
ATOM     57  N   UNL A   1      39.376  30.395  32.027  1.00  0.00    -0.354 N 
ATOM     58  C   UNL A   1      41.038  27.797  28.988  1.00  0.00     0.074 A 
ATOM     59  C   UNL A   1      40.134  27.666  27.867  1.00  0.00     0.031 C 
ATOM     60  C   UNL A   1      37.821  31.699  32.966  1.00  0.00     0.029 A 
ATOM     61  C   UNL A   1      39.132  31.096  33.182  1.00  0.00     0.049 A 
ATOM     62  H   UNL A   1      40.202  29.883  31.870  1.00  0.00     0.167 HD
ATOM     63  C   UNL A   1      42.247  27.194  29.069  1.00  0.00     0.037 A 
ATOM     64  C   UNL A   1      39.882  31.231  34.291  1.00  0.00     0.037 A 
ATOM     65  C   UNL A   1      43.156  27.353  30.174  1.00  0.00     0.049 A 
ATOM     66  C   UNL A   1      41.225  30.555  34.354  1.00  0.00     0.074 A 
ATOM     67  C   UNL A   1      44.429  26.835  30.326  1.00  0.00     0.029 A 
ATOM     68  N   UNL A   1      42.884  28.091  31.317  1.00  0.00    -0.354 N 
ATOM     69  N   UNL A   1      41.814  29.799  33.460  1.00  0.00    -0.248 NA
ATOM     70  C   UNL A   1      42.012  30.759  35.578  1.00  0.00     0.031 C 
ATOM     71  C   UNL A   1      44.912  27.224  31.580  1.00  0.00     0.029 A 
ATOM     72  C   UNL A   1      43.959  28.025  32.189  1.00  0.00     0.049 A 
ATOM     73  H   UNL A   1      42.050  28.587  31.484  1.00  0.00     0.167 HD
ATOM     74  C   UNL A   1      43.047  29.458  33.998  1.00  0.00     0.074 A 
ATOM     75  C   UNL A   1      43.129  30.104  35.292  1.00  0.00     0.031 C 
ATOM     76  C   UNL A   1      44.023  28.680  33.470  1.00  0.00     0.037 A 
BRANCH  63  77
ATOM     77  C   UNL A   1      42.660  26.309  27.928  1.00  0.00     0.064 A 
ATOM     78  C   UNL A   1      43.530  26.762  26.924  1.00  0.00     0.173 A 
ATOM     79  C   UNL A   1      42.207  24.984  27.853  1.00  0.00     0.173 A 
ATOM     80  F   UNL A   1      43.984  28.025  26.942  1.00  0.00    -0.203 F 
ATOM     81  C   UNL A   1      43.907  25.929  25.873  1.00  0.00     0.198 A 
ATOM     82  C   UNL A   1      42.610  24.144  26.818  1.00  0.00     0.198 A 
ATOM     83  F   UNL A   1      41.377  24.498  28.790  1.00  0.00    -0.203 F 
ATOM     84  F   UNL A   1      44.698  26.400  24.899  1.00  0.00    -0.200 F 
ATOM     85  C   UNL A   1      43.452  24.621  25.824  1.00  0.00     0.200 A 
ATOM     86  F   UNL A   1      42.180  22.876  26.779  1.00  0.00    -0.200 F 
ATOM     87  F   UNL A   1      43.821  23.819  24.815  1.00  0.00    -0.200 F 
ENDBRANCH  63  77
BRANCH  64  88
ATOM     88  C   UNL A   1      39.393  32.064  35.420  1.00  0.00     0.064 A 
ATOM     89  C   UNL A   1      38.585  31.512  36.424  1.00  0.00     0.173 A 
ATOM     90  C   UNL A   1      39.722  33.423  35.521  1.00  0.00     0.173 A 
ATOM     91  F   UNL A   1      38.228  30.221  36.361  1.00  0.00    -0.203 F 
ATOM     92  C   UNL A   1      38.108  32.293  37.475  1.00  0.00     0.198 A 
ATOM     93  C   UNL A   1      39.267  34.197  36.587  1.00  0.00     0.198 A 
ATOM     94  F   UNL A   1      40.498  33.998  34.590  1.00  0.00    -0.203 F 
ATOM     95  F   UNL A   1      37.301  31.751  38.396  1.00  0.00    -0.200 F 
ATOM     96  C   UNL A   1      38.454  33.633  37.558  1.00  0.00     0.200 A 
ATOM     97  F   UNL A   1      39.617  35.487  36.672  1.00  0.00    -0.200 F 
ATOM     98  F   UNL A   1      37.998  34.383  38.571  1.00  0.00    -0.200 F 
ENDBRANCH  64  88
BRANCH  76  99
ATOM     99  C   UNL A   1      45.276  28.510  34.278  1.00  0.00     0.064 A 
ATOM    100  C   UNL A   1      45.432  27.447  35.179  1.00  0.00     0.173 A 
ATOM    101  C   UNL A   1      46.348  29.401  34.118  1.00  0.00     0.173 A 
ATOM    102  F   UNL A   1      44.430  26.578  35.378  1.00  0.00    -0.203 F 
ATOM    103  C   UNL A   1      46.607  27.297  35.911  1.00  0.00     0.198 A 
ATOM    104  C   UNL A   1      47.533  29.231  34.830  1.00  0.00     0.198 A 
ATOM    105  F   UNL A   1      46.251  30.430  33.264  1.00  0.00    -0.203 F 
ATOM    106  F   UNL A   1      46.716  26.302  36.802  1.00  0.00    -0.200 F 
ATOM    107  C   UNL A   1      47.658  28.184  35.730  1.00  0.00     0.200 A 
ATOM    108  F   UNL A   1      48.552  30.081  34.645  1.00  0.00    -0.200 F 
ATOM    109  F   UNL A   1      48.790  28.034  36.430  1.00  0.00    -0.200 F 
ENDBRANCH  76  99
ENDBRANCH  50  51
ENDBRANCH  42  45
ENDBRANCH  40  41
ENDBRANCH  39  40
ENDBRANCH   1  39
TORSDOF 16
ENDMDL
MODEL 2
REMARK VINA RESULT:     -13.2      1.527      9.343
REMARK SMILES CC(C)C(=O)Nc1ccc2c([C@@H](C(=O)NCCCNC(=O)c3ccc(-c4c5nc(c(-c6c(F)c(F)c(F)c(F)c6F)c6ccc([nH]6)c(-c6c(F)c(F)c(F)c(F)c6F)c6nc(c(-c7c(F)c(F)c(F)c(F)c7F)c7ccc4[nH]7)C=C6)C=C5)cc3)[NH+]3CC[NH+](Cc4ccccc4)CC3)c[nH]c2c1
REMARK SMILES IDX 16 1 15 2 13 3 14 4 12 6 11 7 7 8 8 9 101 10 9 11 100 12
REMARK SMILES IDX 10 13 99 14 98 15 6 17 4 18 5 19 2 21 1 22 3 23 85 24 86 25
REMARK SMILES IDX 97 26 87 28 96 29 88 30 89 32 90 33 91 34 95 35 92 36 94 37
REMARK SMILES IDX 93 38 17 39 18 40 19 41 20 42 21 44 22 45 23 46 84 47 24 48
REMARK SMILES IDX 83 49 25 50 26 51 27 52 77 53 28 54 82 55 76 56 78 57 29 58
REMARK SMILES IDX 81 59 75 60 74 61 30 63 62 64 42 65 61 66 43 67 46 68 60 69
REMARK SMILES IDX 79 70 44 71 45 72 59 74 80 75 47 76 31 77 32 78 40 79 33 80
REMARK SMILES IDX 34 81 38 82 41 83 35 84 36 85 39 86 37 87 63 88 64 89 72 90
REMARK SMILES IDX 65 91 66 92 70 93 73 94 67 95 68 96 71 97 69 98 48 99 49 100
REMARK SMILES IDX 57 101 50 102 51 103 55 104 58 105 52 106 53 107 56 108
REMARK SMILES IDX 54 109
REMARK H PARENT 15 5 99 16 6 20 85 27 88 31 19 43 78 62 46 73
REMARK Flexibility Score: inf
ROOT
ATOM      1  C   UNL A   1      31.791  27.454  25.953  1.00  0.00     0.118 C 
ENDROOT
BRANCH   1   2
ATOM      2  N   UNL A   1      32.868  27.233  25.011  1.00  0.00    -0.351 N 
ATOM      3  C   UNL A   1      32.933  26.387  23.933  1.00  0.00     0.283 C 
ATOM      4  O   UNL A   1      34.030  26.337  23.367  1.00  0.00    -0.268 OA
ATOM      5  H   UNL A   1      33.677  27.772  25.167  1.00  0.00     0.163 HD
BRANCH   3   6
ATOM      6  C   UNL A   1      31.655  25.633  23.454  1.00  0.00     0.308 C 
BRANCH   6   7
ATOM      7  C   UNL A   1      30.396  26.463  23.481  1.00  0.00     0.044 A 
ATOM      8  C   UNL A   1      29.339  30.116  21.703  1.00  0.00     0.043 A 
ATOM      9  C   UNL A   1      30.698  29.860  21.792  1.00  0.00     0.027 A 
ATOM     10  C   UNL A   1      28.421  29.305  22.379  1.00  0.00     0.052 A 
ATOM     11  C   UNL A   1      31.172  28.668  22.328  1.00  0.00     0.013 A 
ATOM     12  C   UNL A   1      28.919  28.135  22.975  1.00  0.00     0.048 A 
ATOM     13  C   UNL A   1      30.262  27.768  22.904  1.00  0.00     0.009 A 
ATOM     14  N   UNL A   1      28.274  27.143  23.675  1.00  0.00    -0.361 N 
ATOM     15  C   UNL A   1      29.166  26.173  24.046  1.00  0.00     0.094 A 
ATOM     16  H   UNL A   1      27.311  27.132  23.880  1.00  0.00     0.166 HD
BRANCH   8  17
ATOM     17  N   UNL A   1      28.866  31.202  20.962  1.00  0.00    -0.326 N 
ATOM     18  C   UNL A   1      28.193  32.320  21.370  1.00  0.00     0.226 C 
ATOM     19  O   UNL A   1      27.644  33.001  20.496  1.00  0.00    -0.274 OA
ATOM     20  H   UNL A   1      29.046  31.154  19.995  1.00  0.00     0.169 HD
BRANCH  18  21
ATOM     21  C   UNL A   1      28.200  32.827  22.827  1.00  0.00     0.072 C 
ATOM     22  C   UNL A   1      27.641  31.876  23.879  1.00  0.00     0.018 C 
ATOM     23  C   UNL A   1      29.527  33.456  23.254  1.00  0.00     0.018 C 
ENDBRANCH  18  21
ENDBRANCH   8  17
ENDBRANCH   6   7
BRANCH   6  24
ATOM     24  N   UNL A   1      31.475  24.345  24.150  1.00  0.00    -0.312 N 
ATOM     25  C   UNL A   1      30.982  23.211  23.368  1.00  0.00     0.325 C 
ATOM     26  C   UNL A   1      32.515  23.977  25.113  1.00  0.00     0.325 C 
ATOM     27  H   UNL A   1      30.667  24.595  24.720  1.00  0.00     0.349 HD
ATOM     28  C   UNL A   1      32.005  22.116  22.969  1.00  0.00     0.324 C 
ATOM     29  C   UNL A   1      33.553  22.931  24.642  1.00  0.00     0.324 C 
ATOM     30  N   UNL A   1      33.026  21.751  23.952  1.00  0.00    -0.322 N 
ATOM     31  H   UNL A   1      33.814  21.375  23.425  1.00  0.00     0.348 HD
BRANCH  30  32
ATOM     32  C   UNL A   1      32.703  20.594  24.791  1.00  0.00     0.299 C 
BRANCH  32  33
ATOM     33  C   UNL A   1      33.141  19.237  24.295  1.00  0.00     0.006 A 
ATOM     34  C   UNL A   1      32.418  18.581  23.289  1.00  0.00     0.009 A 
ATOM     35  C   UNL A   1      34.296  18.626  24.802  1.00  0.00     0.009 A 
ATOM     36  C   UNL A   1      32.887  17.382  22.750  1.00  0.00     0.001 A 
ATOM     37  C   UNL A   1      34.777  17.441  24.246  1.00  0.00     0.001 A 
ATOM     38  C   UNL A   1      34.077  16.825  23.212  1.00  0.00     0.000 A 
ENDBRANCH  32  33
ENDBRANCH  30  32
ENDBRANCH   6  24
ENDBRANCH   3   6
ENDBRANCH   1   2
BRANCH   1  39
ATOM     39  C   UNL A   1      31.732  28.903  26.428  1.00  0.00     0.042 C 
BRANCH  39  40
ATOM     40  C   UNL A   1      32.947  29.723  26.023  1.00  0.00     0.118 C 
BRANCH  40  41
ATOM     41  N   UNL A   1      32.769  31.136  26.319  1.00  0.00    -0.352 N 
ATOM     42  C   UNL A   1      33.372  31.904  27.278  1.00  0.00     0.251 C 
ATOM     43  H   UNL A   1      32.121  31.608  25.748  1.00  0.00     0.163 HD
ATOM     44  O   UNL A   1      32.905  33.011  27.557  1.00  0.00    -0.269 OA
BRANCH  42  45
ATOM     45  C   UNL A   1      34.574  31.415  27.984  1.00  0.00     0.039 A 
ATOM     46  C   UNL A   1      35.646  32.288  28.179  1.00  0.00     0.014 A 
ATOM     47  C   UNL A   1      34.664  30.087  28.414  1.00  0.00     0.014 A 
ATOM     48  C   UNL A   1      36.791  31.842  28.841  1.00  0.00     0.010 A 
ATOM     49  C   UNL A   1      35.770  29.667  29.147  1.00  0.00     0.010 A 
ATOM     50  C   UNL A   1      36.852  30.536  29.352  1.00  0.00    -0.014 A 
BRANCH  50  51
ATOM     51  C   UNL A   1      38.051  30.049  30.077  1.00  0.00     0.031 A 
ATOM     52  C   UNL A   1      38.340  30.541  31.468  1.00  0.00     0.074 A 
ATOM     53  C   UNL A   1      38.905  29.210  29.461  1.00  0.00     0.049 A 
ATOM     54  N   UNL A   1      39.366  30.285  32.240  1.00  0.00    -0.248 NA
ATOM     55  C   UNL A   1      37.361  31.467  32.060  1.00  0.00     0.031 C 
ATOM     56  C   UNL A   1      38.755  28.703  28.096  1.00  0.00     0.029 A 
ATOM     57  N   UNL A   1      40.075  28.644  29.900  1.00  0.00    -0.354 N 
ATOM     58  C   UNL A   1      39.163  31.029  33.396  1.00  0.00     0.074 A 
ATOM     59  C   UNL A   1      37.947  31.788  33.203  1.00  0.00     0.031 C 
ATOM     60  C   UNL A   1      39.781  27.882  27.818  1.00  0.00     0.029 A 
ATOM     61  C   UNL A   1      40.677  27.834  28.968  1.00  0.00     0.049 A 
ATOM     62  H   UNL A   1      40.447  28.803  30.797  1.00  0.00     0.167 HD
ATOM     63  C   UNL A   1      39.910  31.056  34.525  1.00  0.00     0.037 A 
ATOM     64  C   UNL A   1      41.826  27.136  29.037  1.00  0.00     0.037 A 
ATOM     65  C   UNL A   1      41.102  30.274  34.722  1.00  0.00     0.049 A 
ATOM     66  C   UNL A   1      42.634  27.178  30.305  1.00  0.00     0.074 A 
ATOM     67  C   UNL A   1      41.897  30.182  35.851  1.00  0.00     0.029 A 
ATOM     68  N   UNL A   1      41.669  29.447  33.764  1.00  0.00    -0.354 N 
ATOM     69  N   UNL A   1      42.399  27.833  31.416  1.00  0.00    -0.248 NA
ATOM     70  C   UNL A   1      43.866  26.376  30.332  1.00  0.00     0.031 C 
ATOM     71  C   UNL A   1      42.969  29.332  35.561  1.00  0.00     0.029 A 
ATOM     72  C   UNL A   1      42.816  28.856  34.269  1.00  0.00     0.049 A 
ATOM     73  H   UNL A   1      41.310  29.301  32.859  1.00  0.00     0.167 HD
ATOM     74  C   UNL A   1      43.433  27.504  32.281  1.00  0.00     0.074 A 
ATOM     75  C   UNL A   1      44.291  26.578  31.571  1.00  0.00     0.031 C 
ATOM     76  C   UNL A   1      43.653  27.931  33.549  1.00  0.00     0.037 A 
BRANCH  63  77
ATOM     77  C   UNL A   1      39.455  31.956  35.637  1.00  0.00     0.064 A 
ATOM     78  C   UNL A   1      39.909  33.280  35.746  1.00  0.00     0.173 A 
ATOM     79  C   UNL A   1      38.530  31.501  36.589  1.00  0.00     0.173 A 
ATOM     80  F   UNL A   1      40.803  33.761  34.869  1.00  0.00    -0.203 F 
ATOM     81  C   UNL A   1      39.476  34.104  36.782  1.00  0.00     0.198 A 
ATOM     82  C   UNL A   1      38.075  32.338  37.605  1.00  0.00     0.198 A 
ATOM     83  F   UNL A   1      38.059  30.246  36.529  1.00  0.00    -0.203 F 
ATOM     84  F   UNL A   1      39.962  35.347  36.894  1.00  0.00    -0.200 F 
ATOM     85  C   UNL A   1      38.555  33.635  37.706  1.00  0.00     0.200 A 
ATOM     86  F   UNL A   1      37.175  31.887  38.490  1.00  0.00    -0.200 F 
ATOM     87  F   UNL A   1      38.134  34.431  38.698  1.00  0.00    -0.200 F 
ENDBRANCH  63  77
BRANCH  64  88
ATOM     88  C   UNL A   1      42.264  26.316  27.879  1.00  0.00     0.064 A 
ATOM     89  C   UNL A   1      43.219  26.800  26.973  1.00  0.00     0.173 A 
ATOM     90  C   UNL A   1      41.743  25.033  27.653  1.00  0.00     0.173 A 
ATOM     91  F   UNL A   1      43.733  28.028  27.136  1.00  0.00    -0.203 F 
ATOM     92  C   UNL A   1      43.619  26.041  25.874  1.00  0.00     0.198 A 
ATOM     93  C   UNL A   1      42.164  24.265  26.570  1.00  0.00     0.198 A 
ATOM     94  F   UNL A   1      40.832  24.521  28.493  1.00  0.00    -0.203 F 
ATOM     95  F   UNL A   1      44.499  26.547  25.000  1.00  0.00    -0.200 F 
ATOM     96  C   UNL A   1      43.096  24.773  25.677  1.00  0.00     0.200 A 
ATOM     97  F   UNL A   1      41.668  23.033  26.392  1.00  0.00    -0.200 F 
ATOM     98  F   UNL A   1      43.484  24.042  24.623  1.00  0.00    -0.200 F 
ENDBRANCH  64  88
BRANCH  76  99
ATOM     99  C   UNL A   1      44.852  27.377  34.260  1.00  0.00     0.064 A 
ATOM    100  C   UNL A   1      46.094  28.027  34.226  1.00  0.00     0.173 A 
ATOM    101  C   UNL A   1      44.746  26.199  35.015  1.00  0.00     0.173 A 
ATOM    102  F   UNL A   1      46.249  29.148  33.505  1.00  0.00    -0.203 F 
ATOM    103  C   UNL A   1      47.192  27.506  34.903  1.00  0.00     0.198 A 
ATOM    104  C   UNL A   1      45.839  25.696  35.715  1.00  0.00     0.198 A 
ATOM    105  F   UNL A   1      43.578  25.542  35.084  1.00  0.00    -0.203 F 
ATOM    106  F   UNL A   1      48.381  28.118  34.819  1.00  0.00    -0.200 F 
ATOM    107  C   UNL A   1      47.063  26.345  35.652  1.00  0.00     0.200 A 
ATOM    108  F   UNL A   1      45.709  24.582  36.448  1.00  0.00    -0.200 F 
ATOM    109  F   UNL A   1      48.120  25.848  36.308  1.00  0.00    -0.200 F 
ENDBRANCH  76  99
ENDBRANCH  50  51
ENDBRANCH  42  45
ENDBRANCH  40  41
ENDBRANCH  39  40
ENDBRANCH   1  39
TORSDOF 16
ENDMDL
MODEL 3
REMARK VINA RESULT:     -13.2      3.845      5.951
REMARK SMILES CC(C)C(=O)Nc1ccc2c([C@@H](C(=O)NCCCNC(=O)c3ccc(-c4c5nc(c(-c6c(F)c(F)c(F)c(F)c6F)c6ccc([nH]6)c(-c6c(F)c(F)c(F)c(F)c6F)c6nc(c(-c7c(F)c(F)c(F)c(F)c7F)c7ccc4[nH]7)C=C6)C=C5)cc3)[NH+]3CC[NH+](Cc4ccccc4)CC3)c[nH]c2c1
REMARK SMILES IDX 16 1 15 2 13 3 14 4 12 6 11 7 7 8 8 9 101 10 9 11 100 12
REMARK SMILES IDX 10 13 99 14 98 15 6 17 4 18 5 19 2 21 1 22 3 23 85 24 86 25
REMARK SMILES IDX 97 26 87 28 96 29 88 30 89 32 90 33 91 34 95 35 92 36 94 37
REMARK SMILES IDX 93 38 17 39 18 40 19 41 20 42 21 44 22 45 23 46 84 47 24 48
REMARK SMILES IDX 83 49 25 50 26 51 27 52 77 53 28 54 82 55 76 56 78 57 29 58
REMARK SMILES IDX 81 59 75 60 74 61 30 63 62 64 42 65 61 66 43 67 46 68 60 69
REMARK SMILES IDX 79 70 44 71 45 72 59 74 80 75 47 76 31 77 32 78 40 79 33 80
REMARK SMILES IDX 34 81 38 82 41 83 35 84 36 85 39 86 37 87 63 88 64 89 72 90
REMARK SMILES IDX 65 91 66 92 70 93 73 94 67 95 68 96 71 97 69 98 48 99 49 100
REMARK SMILES IDX 57 101 50 102 51 103 55 104 58 105 52 106 53 107 56 108
REMARK SMILES IDX 54 109
REMARK H PARENT 15 5 99 16 6 20 85 27 88 31 19 43 78 62 46 73
REMARK Flexibility Score: inf
ROOT
ATOM      1  C   UNL A   1      36.411  23.347  23.641  1.00  0.00     0.118 C 
ENDROOT
BRANCH   1   2
ATOM      2  N   UNL A   1      35.485  23.263  22.532  1.00  0.00    -0.351 N 
ATOM      3  C   UNL A   1      34.154  23.587  22.472  1.00  0.00     0.283 C 
ATOM      4  O   UNL A   1      33.590  23.310  21.407  1.00  0.00    -0.268 OA
ATOM      5  H   UNL A   1      35.869  22.922  21.692  1.00  0.00     0.163 HD
BRANCH   3   6
ATOM      6  C   UNL A   1      33.475  24.328  23.664  1.00  0.00     0.308 C 
BRANCH   6   7
ATOM      7  C   UNL A   1      33.482  23.557  24.960  1.00  0.00     0.044 A 
ATOM      8  C   UNL A   1      32.778  19.524  25.892  1.00  0.00     0.043 A 
ATOM      9  C   UNL A   1      32.289  19.954  24.668  1.00  0.00     0.027 A 
ATOM     10  C   UNL A   1      33.255  20.449  26.826  1.00  0.00     0.052 A 
ATOM     11  C   UNL A   1      32.492  21.258  24.231  1.00  0.00     0.013 A 
ATOM     12  C   UNL A   1      33.394  21.779  26.398  1.00  0.00     0.048 A 
ATOM     13  C   UNL A   1      33.087  22.186  25.100  1.00  0.00     0.009 A 
ATOM     14  N   UNL A   1      33.852  22.891  27.063  1.00  0.00    -0.361 N 
ATOM     15  C   UNL A   1      33.838  23.977  26.229  1.00  0.00     0.094 A 
ATOM     16  H   UNL A   1      34.148  22.904  28.003  1.00  0.00     0.166 HD
BRANCH   8  17
ATOM     17  N   UNL A   1      32.773  18.167  26.223  1.00  0.00    -0.326 N 
ATOM     18  C   UNL A   1      33.228  17.087  25.518  1.00  0.00     0.226 C 
ATOM     19  O   UNL A   1      32.864  15.968  25.899  1.00  0.00    -0.274 OA
ATOM     20  H   UNL A   1      32.382  17.956  27.101  1.00  0.00     0.169 HD
BRANCH  18  21
ATOM     21  C   UNL A   1      34.254  17.196  24.371  1.00  0.00     0.072 C 
ATOM     22  C   UNL A   1      33.688  17.308  22.961  1.00  0.00     0.018 C 
ATOM     23  C   UNL A   1      35.367  18.211  24.636  1.00  0.00     0.018 C 
ENDBRANCH  18  21
ENDBRANCH   8  17
ENDBRANCH   6   7
BRANCH   6  24
ATOM     24  N   UNL A   1      32.123  24.809  23.323  1.00  0.00    -0.312 N 
ATOM     25  C   UNL A   1      31.220  25.143  24.425  1.00  0.00     0.325 C 
ATOM     26  C   UNL A   1      32.031  25.740  22.196  1.00  0.00     0.325 C 
ATOM     27  H   UNL A   1      31.737  23.933  22.971  1.00  0.00     0.349 HD
ATOM     28  C   UNL A   1      30.978  26.646  24.725  1.00  0.00     0.324 C 
ATOM     29  C   UNL A   1      31.859  27.237  22.549  1.00  0.00     0.324 C 
ATOM     30  N   UNL A   1      30.872  27.556  23.584  1.00  0.00    -0.322 N 
ATOM     31  H   UNL A   1      31.134  28.481  23.926  1.00  0.00     0.348 HD
BRANCH  30  32
ATOM     32  C   UNL A   1      29.509  27.829  23.124  1.00  0.00     0.299 C 
BRANCH  32  33
ATOM     33  C   UNL A   1      29.097  29.276  23.002  1.00  0.00     0.006 A 
ATOM     34  C   UNL A   1      28.144  29.666  22.050  1.00  0.00     0.009 A 
ATOM     35  C   UNL A   1      29.630  30.249  23.859  1.00  0.00     0.009 A 
ATOM     36  C   UNL A   1      27.678  30.981  22.015  1.00  0.00     0.001 A 
ATOM     37  C   UNL A   1      29.146  31.556  23.839  1.00  0.00     0.001 A 
ATOM     38  C   UNL A   1      28.162  31.919  22.924  1.00  0.00     0.000 A 
ENDBRANCH  32  33
ENDBRANCH  30  32
ENDBRANCH   6  24
ENDBRANCH   3   6
ENDBRANCH   1   2
BRANCH   1  39
ATOM     39  C   UNL A   1      36.687  21.981  24.263  1.00  0.00     0.042 C 
BRANCH  39  40
ATOM     40  C   UNL A   1      37.098  22.053  25.726  1.00  0.00     0.118 C 
BRANCH  40  41
ATOM     41  N   UNL A   1      38.066  21.023  26.067  1.00  0.00    -0.352 N 
ATOM     42  C   UNL A   1      39.394  21.148  26.374  1.00  0.00     0.251 C 
ATOM     43  H   UNL A   1      37.717  20.103  26.079  1.00  0.00     0.163 HD
ATOM     44  O   UNL A   1      40.117  20.149  26.374  1.00  0.00    -0.269 OA
BRANCH  42  45
ATOM     45  C   UNL A   1      39.967  22.470  26.700  1.00  0.00     0.039 A 
ATOM     46  C   UNL A   1      40.965  22.553  27.674  1.00  0.00     0.014 A 
ATOM     47  C   UNL A   1      39.493  23.631  26.082  1.00  0.00     0.014 A 
ATOM     48  C   UNL A   1      41.515  23.794  27.998  1.00  0.00     0.010 A 
ATOM     49  C   UNL A   1      40.099  24.855  26.344  1.00  0.00     0.010 A 
ATOM     50  C   UNL A   1      41.104  24.951  27.318  1.00  0.00    -0.014 A 
BRANCH  50  51
ATOM     51  C   UNL A   1      41.691  26.277  27.632  1.00  0.00     0.031 A 
ATOM     52  C   UNL A   1      43.085  26.610  27.176  1.00  0.00     0.074 A 
ATOM     53  C   UNL A   1      40.991  27.156  28.374  1.00  0.00     0.049 A 
ATOM     54  N   UNL A   1      43.796  27.684  27.404  1.00  0.00    -0.248 NA
ATOM     55  C   UNL A   1      43.783  25.586  26.382  1.00  0.00     0.031 C 
ATOM     56  C   UNL A   1      39.650  26.926  28.914  1.00  0.00     0.029 A 
ATOM     57  N   UNL A   1      41.314  28.415  28.811  1.00  0.00    -0.354 N 
ATOM     58  C   UNL A   1      45.026  27.458  26.799  1.00  0.00     0.074 A 
ATOM     59  C   UNL A   1      44.985  26.124  26.241  1.00  0.00     0.031 C 
ATOM     60  C   UNL A   1      39.255  28.018  29.589  1.00  0.00     0.029 A 
ATOM     61  C   UNL A   1      40.328  29.007  29.561  1.00  0.00     0.049 A 
ATOM     62  H   UNL A   1      42.172  28.852  28.606  1.00  0.00     0.167 HD
ATOM     63  C   UNL A   1      46.084  28.297  26.696  1.00  0.00     0.037 A 
ATOM     64  C   UNL A   1      40.297  30.211  30.162  1.00  0.00     0.037 A 
ATOM     65  C   UNL A   1      46.107  29.635  27.226  1.00  0.00     0.049 A 
ATOM     66  C   UNL A   1      41.483  31.128  30.026  1.00  0.00     0.074 A 
ATOM     67  C   UNL A   1      47.104  30.588  27.122  1.00  0.00     0.029 A 
ATOM     68  N   UNL A   1      45.079  30.209  27.960  1.00  0.00    -0.354 N 
ATOM     69  N   UNL A   1      42.615  30.929  29.395  1.00  0.00    -0.248 NA
ATOM     70  C   UNL A   1      41.383  32.440  30.680  1.00  0.00     0.031 C 
ATOM     71  C   UNL A   1      46.698  31.724  27.830  1.00  0.00     0.029 A 
ATOM     72  C   UNL A   1      45.428  31.498  28.333  1.00  0.00     0.049 A 
ATOM     73  H   UNL A   1      44.229  29.767  28.183  1.00  0.00     0.167 HD
ATOM     74  C   UNL A   1      43.350  32.096  29.552  1.00  0.00     0.074 A 
ATOM     75  C   UNL A   1      42.529  33.005  30.326  1.00  0.00     0.031 C 
ATOM     76  C   UNL A   1      44.593  32.388  29.098  1.00  0.00     0.037 A 
BRANCH  63  77
ATOM     77  C   UNL A   1      47.302  27.794  25.976  1.00  0.00     0.064 A 
ATOM     78  C   UNL A   1      47.399  27.836  24.576  1.00  0.00     0.173 A 
ATOM     79  C   UNL A   1      48.398  27.293  26.694  1.00  0.00     0.173 A 
ATOM     80  F   UNL A   1      46.374  28.294  23.841  1.00  0.00    -0.203 F 
ATOM     81  C   UNL A   1      48.536  27.368  23.922  1.00  0.00     0.198 A 
ATOM     82  C   UNL A   1      49.546  26.855  26.038  1.00  0.00     0.198 A 
ATOM     83  F   UNL A   1      48.360  27.236  28.034  1.00  0.00    -0.203 F 
ATOM     84  F   UNL A   1      48.586  27.371  22.583  1.00  0.00    -0.200 F 
ATOM     85  C   UNL A   1      49.610  26.885  24.653  1.00  0.00     0.200 A 
ATOM     86  F   UNL A   1      50.588  26.401  26.747  1.00  0.00    -0.200 F 
ATOM     87  F   UNL A   1      50.707  26.441  24.023  1.00  0.00    -0.200 F 
ENDBRANCH  63  77
BRANCH  64  88
ATOM     88  C   UNL A   1      39.091  30.630  30.920  1.00  0.00     0.064 A 
ATOM     89  C   UNL A   1      38.024  31.273  30.277  1.00  0.00     0.173 A 
ATOM     90  C   UNL A   1      38.976  30.397  32.298  1.00  0.00     0.173 A 
ATOM     91  F   UNL A   1      38.094  31.535  28.963  1.00  0.00    -0.203 F 
ATOM     92  C   UNL A   1      36.897  31.685  30.987  1.00  0.00     0.198 A 
ATOM     93  C   UNL A   1      37.838  30.784  33.002  1.00  0.00     0.198 A 
ATOM     94  F   UNL A   1      39.966  29.780  32.960  1.00  0.00    -0.203 F 
ATOM     95  F   UNL A   1      35.912  32.336  30.355  1.00  0.00    -0.200 F 
ATOM     96  C   UNL A   1      36.803  31.435  32.347  1.00  0.00     0.200 A 
ATOM     97  F   UNL A   1      37.744  30.527  34.313  1.00  0.00    -0.200 F 
ATOM     98  F   UNL A   1      35.718  31.828  33.029  1.00  0.00    -0.200 F 
ENDBRANCH  64  88
BRANCH  76  99
ATOM     99  C   UNL A   1      45.128  33.757  29.399  1.00  0.00     0.064 A 
ATOM    100  C   UNL A   1      44.897  34.843  28.543  1.00  0.00     0.173 A 
ATOM    101  C   UNL A   1      45.850  33.991  30.580  1.00  0.00     0.173 A 
ATOM    102  F   UNL A   1      44.226  34.666  27.395  1.00  0.00    -0.203 F 
ATOM    103  C   UNL A   1      45.389  36.109  28.845  1.00  0.00     0.198 A 
ATOM    104  C   UNL A   1      46.316  35.265  30.894  1.00  0.00     0.198 A 
ATOM    105  F   UNL A   1      46.093  32.987  31.435  1.00  0.00    -0.203 F 
ATOM    106  F   UNL A   1      45.196  37.123  27.990  1.00  0.00    -0.200 F 
ATOM    107  C   UNL A   1      46.092  36.321  30.023  1.00  0.00     0.200 A 
ATOM    108  F   UNL A   1      46.983  35.471  32.037  1.00  0.00    -0.200 F 
ATOM    109  F   UNL A   1      46.559  37.542  30.315  1.00  0.00    -0.200 F 
ENDBRANCH  76  99
ENDBRANCH  50  51
ENDBRANCH  42  45
ENDBRANCH  40  41
ENDBRANCH  39  40
ENDBRANCH   1  39
TORSDOF 16
ENDMDL
