MODEL 1
REMARK VINA RESULT:     -11.1      0.000      0.000
REMARK SMILES CC[NH2+]C[C@@H](C)C(=O)N1CCO[C@@H](CC(=O)NCCCNC(=O)c2ccc(-c3c4nc(c(-c5c(F)c(F)c(F)c(F)c5F)c5ccc([nH]5)c(-c5c(F)c(F)c(F)c(F)c5F)c5nc(c(-c6c(F)c(F)c(F)c(F)c6F)c6ccc3[nH]6)C=C5)C=C4)cc2)C1
REMARK SMILES IDX 15 1 16 2 17 3 14 5 13 6 9 7 10 8 87 9 11 10 12 11 7 12 8 13
REMARK SMILES IDX 5 14 6 15 4 16 3 17 2 20 1 21 18 22 19 23 20 24 21 25 22 26
REMARK SMILES IDX 23 28 24 29 25 30 86 31 26 32 85 33 27 34 28 35 29 36 79 37
REMARK SMILES IDX 30 38 84 39 78 40 80 41 31 42 83 43 77 44 76 45 32 47 64 48
REMARK SMILES IDX 44 49 63 50 45 51 48 52 62 53 81 54 46 55 47 56 61 58 82 59
REMARK SMILES IDX 49 60 33 61 34 62 42 63 35 64 36 65 40 66 43 67 37 68 38 69
REMARK SMILES IDX 41 70 39 71 65 72 66 73 74 74 67 75 68 76 72 77 75 78 69 79
REMARK SMILES IDX 70 80 73 81 71 82 50 83 51 84 59 85 52 86 53 87 57 88 60 89
REMARK SMILES IDX 54 90 55 91 58 92 56 93
REMARK H PARENT 17 4 3 18 3 19 21 27 80 46 48 57
REMARK Flexibility Score: inf
ROOT
ATOM      1  C   UNL A   1      33.115  26.303  21.806  1.00  0.00     0.222 C 
ATOM      2  O   UNL A   1      33.296  25.934  20.644  1.00  0.00    -0.275 OA
ATOM      3  N   UNL A   1      32.371  27.427  22.012  1.00  0.00    -0.356 N 
ATOM      4  H   UNL A   1      32.001  27.823  21.191  1.00  0.00     0.163 HD
ENDROOT
BRANCH   1   5
ATOM      5  C   UNL A   1      33.745  25.557  22.960  1.00  0.00     0.133 C 
BRANCH   5   6
ATOM      6  C   UNL A   1      32.928  24.325  23.353  1.00  0.00     0.147 C 
ATOM      7  N   UNL A   1      32.248  22.960  25.335  1.00  0.00    -0.337 N 
ATOM      8  C   UNL A   1      30.852  23.248  25.016  1.00  0.00     0.148 C 
ATOM      9  C   UNL A   1      33.155  23.974  24.828  1.00  0.00     0.152 C 
ATOM     10  C   UNL A   1      30.690  23.541  23.523  1.00  0.00     0.182 C 
ATOM     11  O   UNL A   1      31.536  24.631  23.121  1.00  0.00    -0.374 OA
BRANCH   7  12
ATOM     12  C   UNL A   1      32.593  22.418  26.567  1.00  0.00     0.231 C 
ATOM     13  O   UNL A   1      32.243  22.942  27.626  1.00  0.00    -0.274 OA
BRANCH  12  14
ATOM     14  C   UNL A   1      33.578  21.250  26.559  1.00  0.00     0.130 C 
ATOM     15  C   UNL A   1      35.016  21.763  26.484  1.00  0.00     0.024 C 
BRANCH  14  16
ATOM     16  C   UNL A   1      33.236  20.208  25.490  1.00  0.00     0.273 C 
BRANCH  16  17
ATOM     17  N   UNL A   1      34.327  19.318  25.081  1.00  0.00    -0.346 N 
ATOM     18  H   UNL A   1      34.923  19.821  24.424  1.00  0.00     0.346 HD
ATOM     19  H   UNL A   1      34.825  19.047  25.929  1.00  0.00     0.346 HD
BRANCH  17  20
ATOM     20  C   UNL A   1      33.871  18.088  24.441  1.00  0.00     0.257 C 
ATOM     21  C   UNL A   1      32.730  18.417  23.491  1.00  0.00     0.071 C 
ENDBRANCH  17  20
ENDBRANCH  16  17
ENDBRANCH  14  16
ENDBRANCH  12  14
ENDBRANCH   7  12
ENDBRANCH   5   6
ENDBRANCH   1   5
BRANCH   3  22
ATOM     22  C   UNL A   1      32.025  28.145  23.235  1.00  0.00     0.117 C 
BRANCH  22  23
ATOM     23  C   UNL A   1      33.139  29.087  23.698  1.00  0.00     0.042 C 
BRANCH  23  24
ATOM     24  C   UNL A   1      33.289  29.200  25.211  1.00  0.00     0.118 C 
BRANCH  24  25
ATOM     25  N   UNL A   1      32.813  30.478  25.707  1.00  0.00    -0.352 N 
ATOM     26  C   UNL A   1      33.228  31.223  26.785  1.00  0.00     0.251 C 
ATOM     27  H   UNL A   1      32.075  30.874  25.190  1.00  0.00     0.163 HD
ATOM     28  O   UNL A   1      32.521  32.155  27.165  1.00  0.00    -0.269 OA
BRANCH  26  29
ATOM     29  C   UNL A   1      34.500  30.943  27.502  1.00  0.00     0.039 A 
ATOM     30  C   UNL A   1      34.730  29.641  27.961  1.00  0.00     0.014 A 
ATOM     31  C   UNL A   1      35.417  31.948  27.821  1.00  0.00     0.014 A 
ATOM     32  C   UNL A   1      35.877  29.343  28.706  1.00  0.00     0.010 A 
ATOM     33  C   UNL A   1      36.597  31.638  28.503  1.00  0.00     0.010 A 
ATOM     34  C   UNL A   1      36.831  30.337  28.973  1.00  0.00    -0.014 A 
BRANCH  34  35
ATOM     35  C   UNL A   1      38.046  30.040  29.779  1.00  0.00     0.031 A 
ATOM     36  C   UNL A   1      39.114  29.125  29.236  1.00  0.00     0.074 A 
ATOM     37  C   UNL A   1      38.181  30.554  31.017  1.00  0.00     0.049 A 
ATOM     38  N   UNL A   1      40.210  28.695  29.810  1.00  0.00    -0.248 NA
ATOM     39  C   UNL A   1      38.908  28.605  27.875  1.00  0.00     0.031 C 
ATOM     40  C   UNL A   1      37.210  31.422  31.682  1.00  0.00     0.029 A 
ATOM     41  N   UNL A   1      39.189  30.413  31.939  1.00  0.00    -0.354 N 
ATOM     42  C   UNL A   1      40.807  27.837  28.896  1.00  0.00     0.074 A 
ATOM     43  C   UNL A   1      39.935  27.778  27.742  1.00  0.00     0.031 C 
ATOM     44  C   UNL A   1      37.676  31.750  32.898  1.00  0.00     0.029 A 
ATOM     45  C   UNL A   1      38.963  31.093  33.111  1.00  0.00     0.049 A 
ATOM     46  H   UNL A   1      39.998  29.873  31.777  1.00  0.00     0.167 HD
ATOM     47  C   UNL A   1      41.982  27.170  28.999  1.00  0.00     0.037 A 
ATOM     48  C   UNL A   1      39.705  31.176  34.231  1.00  0.00     0.037 A 
ATOM     49  C   UNL A   1      42.878  27.261  30.121  1.00  0.00     0.049 A 
ATOM     50  C   UNL A   1      41.024  30.455  34.308  1.00  0.00     0.074 A 
ATOM     51  C   UNL A   1      44.124  26.678  30.281  1.00  0.00     0.029 A 
ATOM     52  N   UNL A   1      42.626  27.989  31.274  1.00  0.00    -0.354 N 
ATOM     53  N   UNL A   1      41.600  29.688  33.414  1.00  0.00    -0.248 NA
ATOM     54  C   UNL A   1      41.798  30.614  35.548  1.00  0.00     0.031 C 
ATOM     55  C   UNL A   1      44.614  27.028  31.544  1.00  0.00     0.029 A 
ATOM     56  C   UNL A   1      43.688  27.857  32.157  1.00  0.00     0.049 A 
ATOM     57  H   UNL A   1      41.815  28.520  31.442  1.00  0.00     0.167 HD
ATOM     58  C   UNL A   1      42.807  29.293  33.972  1.00  0.00     0.074 A 
ATOM     59  C   UNL A   1      42.890  29.913  35.278  1.00  0.00     0.031 C 
ATOM     60  C   UNL A   1      43.761  28.485  33.450  1.00  0.00     0.037 A 
BRANCH  47  61
ATOM     61  C   UNL A   1      42.375  26.277  27.859  1.00  0.00     0.064 A 
ATOM     62  C   UNL A   1      41.844  24.985  27.721  1.00  0.00     0.173 A 
ATOM     63  C   UNL A   1      43.258  26.735  26.870  1.00  0.00     0.173 A 
ATOM     64  F   UNL A   1      41.004  24.499  28.647  1.00  0.00    -0.203 F 
ATOM     65  C   UNL A   1      42.204  24.175  26.647  1.00  0.00     0.198 A 
ATOM     66  C   UNL A   1      43.595  25.931  25.785  1.00  0.00     0.198 A 
ATOM     67  F   UNL A   1      43.786  27.966  26.951  1.00  0.00    -0.203 F 
ATOM     68  F   UNL A   1      41.718  22.930  26.557  1.00  0.00    -0.200 F 
ATOM     69  C   UNL A   1      43.073  24.650  25.677  1.00  0.00     0.200 A 
ATOM     70  F   UNL A   1      44.426  26.395  24.840  1.00  0.00    -0.200 F 
ATOM     71  F   UNL A   1      43.414  23.872  24.642  1.00  0.00    -0.200 F 
ENDBRANCH  47  61
BRANCH  48  72
ATOM     72  C   UNL A   1      39.229  32.001  35.369  1.00  0.00     0.064 A 
ATOM     73  C   UNL A   1      39.566  33.358  35.462  1.00  0.00     0.173 A 
ATOM     74  C   UNL A   1      38.426  31.453  36.381  1.00  0.00     0.173 A 
ATOM     75  F   UNL A   1      40.350  33.917  34.529  1.00  0.00    -0.203 F 
ATOM     76  C   UNL A   1      39.130  34.135  36.533  1.00  0.00     0.198 A 
ATOM     77  C   UNL A   1      37.972  32.237  37.439  1.00  0.00     0.198 A 
ATOM     78  F   UNL A   1      38.074  30.160  36.334  1.00  0.00    -0.203 F 
ATOM     79  F   UNL A   1      39.498  35.421  36.617  1.00  0.00    -0.200 F 
ATOM     80  C   UNL A   1      38.329  33.575  37.517  1.00  0.00     0.200 A 
ATOM     81  F   UNL A   1      37.191  31.695  38.383  1.00  0.00    -0.200 F 
ATOM     82  F   UNL A   1      37.908  34.325  38.545  1.00  0.00    -0.200 F 
ENDBRANCH  48  72
BRANCH  60  83
ATOM     83  C   UNL A   1      44.987  28.241  34.277  1.00  0.00     0.064 A 
ATOM     84  C   UNL A   1      45.073  27.152  35.156  1.00  0.00     0.173 A 
ATOM     85  C   UNL A   1      46.106  29.080  34.156  1.00  0.00     0.173 A 
ATOM     86  F   UNL A   1      44.025  26.330  35.315  1.00  0.00    -0.203 F 
ATOM     87  C   UNL A   1      46.228  26.922  35.898  1.00  0.00     0.198 A 
ATOM     88  C   UNL A   1      47.267  28.834  34.883  1.00  0.00     0.198 A 
ATOM     89  F   UNL A   1      46.075  30.132  33.324  1.00  0.00    -0.203 F 
ATOM     90  F   UNL A   1      46.276  25.896  36.758  1.00  0.00    -0.200 F 
ATOM     91  C   UNL A   1      47.325  27.758  35.757  1.00  0.00     0.200 A 
ATOM     92  F   UNL A   1      48.329  29.638  34.739  1.00  0.00    -0.200 F 
ATOM     93  F   UNL A   1      48.439  27.531  36.468  1.00  0.00    -0.200 F 
ENDBRANCH  60  83
ENDBRANCH  34  35
ENDBRANCH  26  29
ENDBRANCH  24  25
ENDBRANCH  23  24
ENDBRANCH  22  23
ENDBRANCH   3  22
TORSDOF 16
ENDMDL
MODEL 2
REMARK VINA RESULT:     -11.1      1.214      2.067
REMARK SMILES CC[NH2+]C[C@@H](C)C(=O)N1CCO[C@@H](CC(=O)NCCCNC(=O)c2ccc(-c3c4nc(c(-c5c(F)c(F)c(F)c(F)c5F)c5ccc([nH]5)c(-c5c(F)c(F)c(F)c(F)c5F)c5nc(c(-c6c(F)c(F)c(F)c(F)c6F)c6ccc3[nH]6)C=C5)C=C4)cc2)C1
REMARK SMILES IDX 15 1 16 2 17 3 14 5 13 6 9 7 10 8 87 9 11 10 12 11 7 12 8 13
REMARK SMILES IDX 5 14 6 15 4 16 3 17 2 20 1 21 18 22 19 23 20 24 21 25 22 26
REMARK SMILES IDX 23 28 24 29 25 30 86 31 26 32 85 33 27 34 28 35 29 36 79 37
REMARK SMILES IDX 30 38 84 39 78 40 80 41 31 42 83 43 77 44 76 45 32 47 64 48
REMARK SMILES IDX 44 49 63 50 45 51 48 52 62 53 81 54 46 55 47 56 61 58 82 59
REMARK SMILES IDX 49 60 33 61 34 62 42 63 35 64 36 65 40 66 43 67 37 68 38 69
REMARK SMILES IDX 41 70 39 71 65 72 66 73 74 74 67 75 68 76 72 77 75 78 69 79
REMARK SMILES IDX 70 80 73 81 71 82 50 83 51 84 59 85 52 86 53 87 57 88 60 89
REMARK SMILES IDX 54 90 55 91 58 92 56 93
REMARK H PARENT 17 4 3 18 3 19 21 27 80 46 48 57
REMARK Flexibility Score: inf
ROOT
ATOM      1  C   UNL A   1      31.140  27.762  22.295  1.00  0.00     0.222 C 
ATOM      2  O   UNL A   1      30.060  28.308  22.067  1.00  0.00    -0.275 OA
ATOM      3  N   UNL A   1      32.208  28.555  22.595  1.00  0.00    -0.356 N 
ATOM      4  H   UNL A   1      31.997  29.515  22.646  1.00  0.00     0.163 HD
ENDROOT
BRANCH   1   5
ATOM      5  C   UNL A   1      31.283  26.261  22.192  1.00  0.00     0.133 C 
BRANCH   5   6
ATOM      6  C   UNL A   1      31.074  25.577  23.544  1.00  0.00     0.147 C 
ATOM      7  N   UNL A   1      32.319  24.463  25.406  1.00  0.00    -0.337 N 
ATOM      8  C   UNL A   1      31.791  25.471  26.321  1.00  0.00     0.148 C 
ATOM      9  C   UNL A   1      32.378  24.935  24.033  1.00  0.00     0.152 C 
ATOM     10  C   UNL A   1      30.468  26.034  25.798  1.00  0.00     0.182 C 
ATOM     11  O   UNL A   1      30.632  26.584  24.480  1.00  0.00    -0.374 OA
BRANCH   7  12
ATOM     12  C   UNL A   1      33.367  23.637  25.794  1.00  0.00     0.231 C 
ATOM     13  O   UNL A   1      33.482  23.240  26.955  1.00  0.00    -0.274 OA
BRANCH  12  14
ATOM     14  C   UNL A   1      34.472  23.391  24.768  1.00  0.00     0.130 C 
ATOM     15  C   UNL A   1      34.559  21.904  24.422  1.00  0.00     0.024 C 
BRANCH  14  16
ATOM     16  C   UNL A   1      35.808  24.005  25.194  1.00  0.00     0.273 C 
BRANCH  16  17
ATOM     17  N   UNL A   1      36.526  23.313  26.269  1.00  0.00    -0.346 N 
ATOM     18  H   UNL A   1      36.459  23.877  27.116  1.00  0.00     0.346 HD
ATOM     19  H   UNL A   1      36.091  22.397  26.376  1.00  0.00     0.346 HD
BRANCH  17  20
ATOM     20  C   UNL A   1      37.938  23.084  25.978  1.00  0.00     0.257 C 
ATOM     21  C   UNL A   1      38.753  24.239  26.541  1.00  0.00     0.071 C 
ENDBRANCH  17  20
ENDBRANCH  16  17
ENDBRANCH  14  16
ENDBRANCH  12  14
ENDBRANCH   7  12
ENDBRANCH   5   6
ENDBRANCH   1   5
BRANCH   3  22
ATOM     22  C   UNL A   1      33.608  28.233  22.855  1.00  0.00     0.117 C 
BRANCH  22  23
ATOM     23  C   UNL A   1      34.140  28.911  24.120  1.00  0.00     0.042 C 
BRANCH  23  24
ATOM     24  C   UNL A   1      33.221  28.808  25.332  1.00  0.00     0.118 C 
BRANCH  24  25
ATOM     25  N   UNL A   1      32.744  30.111  25.761  1.00  0.00    -0.352 N 
ATOM     26  C   UNL A   1      33.169  30.920  26.787  1.00  0.00     0.251 C 
ATOM     27  H   UNL A   1      31.996  30.472  25.232  1.00  0.00     0.163 HD
ATOM     28  O   UNL A   1      32.461  31.868  27.123  1.00  0.00    -0.269 OA
BRANCH  26  29
ATOM     29  C   UNL A   1      34.453  30.689  27.500  1.00  0.00     0.039 A 
ATOM     30  C   UNL A   1      34.723  29.403  27.982  1.00  0.00     0.014 A 
ATOM     31  C   UNL A   1      35.343  31.726  27.793  1.00  0.00     0.014 A 
ATOM     32  C   UNL A   1      35.883  29.151  28.723  1.00  0.00     0.010 A 
ATOM     33  C   UNL A   1      36.537  31.462  28.473  1.00  0.00     0.010 A 
ATOM     34  C   UNL A   1      36.810  30.177  28.965  1.00  0.00    -0.014 A 
BRANCH  34  35
ATOM     35  C   UNL A   1      38.039  29.930  29.768  1.00  0.00     0.031 A 
ATOM     36  C   UNL A   1      39.137  29.050  29.226  1.00  0.00     0.074 A 
ATOM     37  C   UNL A   1      38.160  30.457  31.001  1.00  0.00     0.049 A 
ATOM     38  N   UNL A   1      40.250  28.664  29.798  1.00  0.00    -0.248 NA
ATOM     39  C   UNL A   1      38.944  28.514  27.870  1.00  0.00     0.031 C 
ATOM     40  C   UNL A   1      37.161  31.293  31.665  1.00  0.00     0.029 A 
ATOM     41  N   UNL A   1      39.176  30.359  31.920  1.00  0.00    -0.354 N 
ATOM     42  C   UNL A   1      40.874  27.822  28.887  1.00  0.00     0.074 A 
ATOM     43  C   UNL A   1      40.000  27.724  27.737  1.00  0.00     0.031 C 
ATOM     44  C   UNL A   1      37.620  31.647  32.877  1.00  0.00     0.029 A 
ATOM     45  C   UNL A   1      38.931  31.038  33.088  1.00  0.00     0.049 A 
ATOM     46  H   UNL A   1      40.003  29.848  31.758  1.00  0.00     0.167 HD
ATOM     47  C   UNL A   1      42.073  27.199  28.990  1.00  0.00     0.037 A 
ATOM     48  C   UNL A   1      39.674  31.156  34.204  1.00  0.00     0.037 A 
ATOM     49  C   UNL A   1      42.970  27.330  30.107  1.00  0.00     0.049 A 
ATOM     50  C   UNL A   1      41.018  30.484  34.280  1.00  0.00     0.074 A 
ATOM     51  C   UNL A   1      44.236  26.794  30.266  1.00  0.00     0.029 A 
ATOM     52  N   UNL A   1      42.696  28.056  31.257  1.00  0.00    -0.354 N 
ATOM     53  N   UNL A   1      41.618  29.732  33.389  1.00  0.00    -0.248 NA
ATOM     54  C   UNL A   1      41.791  30.680  35.516  1.00  0.00     0.031 C 
ATOM     55  C   UNL A   1      44.718  27.170  31.524  1.00  0.00     0.029 A 
ATOM     56  C   UNL A   1      43.766  27.969  32.135  1.00  0.00     0.049 A 
ATOM     57  H   UNL A   1      41.867  28.559  31.424  1.00  0.00     0.167 HD
ATOM     58  C   UNL A   1      42.841  29.384  33.945  1.00  0.00     0.074 A 
ATOM     59  C   UNL A   1      42.907  30.017  35.246  1.00  0.00     0.031 C 
ATOM     60  C   UNL A   1      43.821  28.608  33.423  1.00  0.00     0.037 A 
BRANCH  47  61
ATOM     61  C   UNL A   1      42.493  26.313  27.854  1.00  0.00     0.064 A 
ATOM     62  C   UNL A   1      43.358  26.769  26.848  1.00  0.00     0.173 A 
ATOM     63  C   UNL A   1      42.059  24.980  27.795  1.00  0.00     0.173 A 
ATOM     64  F   UNL A   1      43.792  28.038  26.856  1.00  0.00    -0.203 F 
ATOM     65  C   UNL A   1      43.754  25.929  25.810  1.00  0.00     0.198 A 
ATOM     66  C   UNL A   1      42.477  24.137  26.770  1.00  0.00     0.198 A 
ATOM     67  F   UNL A   1      41.237  24.493  28.738  1.00  0.00    -0.203 F 
ATOM     68  F   UNL A   1      44.547  26.397  24.837  1.00  0.00    -0.200 F 
ATOM     69  C   UNL A   1      43.318  24.613  25.775  1.00  0.00     0.200 A 
ATOM     70  F   UNL A   1      42.066  22.861  26.743  1.00  0.00    -0.200 F 
ATOM     71  F   UNL A   1      43.704  23.805  24.779  1.00  0.00    -0.200 F 
ENDBRANCH  47  61
BRANCH  48  72
ATOM     72  C   UNL A   1      39.173  31.971  35.339  1.00  0.00     0.064 A 
ATOM     73  C   UNL A   1      39.459  33.341  35.420  1.00  0.00     0.173 A 
ATOM     74  C   UNL A   1      38.396  31.401  36.359  1.00  0.00     0.173 A 
ATOM     75  F   UNL A   1      40.217  33.922  34.479  1.00  0.00    -0.203 F 
ATOM     76  C   UNL A   1      39.000  34.109  36.488  1.00  0.00     0.198 A 
ATOM     77  C   UNL A   1      37.919  32.176  37.414  1.00  0.00     0.198 A 
ATOM     78  F   UNL A   1      38.093  30.095  36.323  1.00  0.00    -0.203 F 
ATOM     79  F   UNL A   1      39.320  35.408  36.561  1.00  0.00    -0.200 F 
ATOM     80  C   UNL A   1      38.226  33.527  37.480  1.00  0.00     0.200 A 
ATOM     81  F   UNL A   1      37.163  31.612  38.366  1.00  0.00    -0.200 F 
ATOM     82  F   UNL A   1      37.781  34.267  38.505  1.00  0.00    -0.200 F 
ENDBRANCH  48  72
BRANCH  60  83
ATOM     83  C   UNL A   1      45.059  28.414  34.247  1.00  0.00     0.064 A 
ATOM     84  C   UNL A   1      45.179  27.348  35.148  1.00  0.00     0.173 A 
ATOM     85  C   UNL A   1      46.154  29.280  34.100  1.00  0.00     0.173 A 
ATOM     86  F   UNL A   1      44.154  26.502  35.333  1.00  0.00    -0.203 F 
ATOM     87  C   UNL A   1      46.345  27.164  35.887  1.00  0.00     0.198 A 
ATOM     88  C   UNL A   1      47.326  29.080  34.824  1.00  0.00     0.198 A 
ATOM     89  F   UNL A   1      46.090  30.313  33.246  1.00  0.00    -0.203 F 
ATOM     90  F   UNL A   1      46.426  26.158  36.769  1.00  0.00    -0.200 F 
ATOM     91  C   UNL A   1      47.419  28.026  35.720  1.00  0.00     0.200 A 
ATOM     92  F   UNL A   1      48.366  29.909  34.655  1.00  0.00    -0.200 F 
ATOM     93  F   UNL A   1      48.542  27.843  36.428  1.00  0.00    -0.200 F 
ENDBRANCH  60  83
ENDBRANCH  34  35
ENDBRANCH  26  29
ENDBRANCH  24  25
ENDBRANCH  23  24
ENDBRANCH  22  23
ENDBRANCH   3  22
TORSDOF 16
ENDMDL
MODEL 3
REMARK VINA RESULT:     -11.0      4.705      9.962
REMARK SMILES CC[NH2+]C[C@@H](C)C(=O)N1CCO[C@@H](CC(=O)NCCCNC(=O)c2ccc(-c3c4nc(c(-c5c(F)c(F)c(F)c(F)c5F)c5ccc([nH]5)c(-c5c(F)c(F)c(F)c(F)c5F)c5nc(c(-c6c(F)c(F)c(F)c(F)c6F)c6ccc3[nH]6)C=C5)C=C4)cc2)C1
REMARK SMILES IDX 15 1 16 2 17 3 14 5 13 6 9 7 10 8 87 9 11 10 12 11 7 12 8 13
REMARK SMILES IDX 5 14 6 15 4 16 3 17 2 20 1 21 18 22 19 23 20 24 21 25 22 26
REMARK SMILES IDX 23 28 24 29 25 30 86 31 26 32 85 33 27 34 28 35 29 36 79 37
REMARK SMILES IDX 30 38 84 39 78 40 80 41 31 42 83 43 77 44 76 45 32 47 64 48
REMARK SMILES IDX 44 49 63 50 45 51 48 52 62 53 81 54 46 55 47 56 61 58 82 59
REMARK SMILES IDX 49 60 33 61 34 62 42 63 35 64 36 65 40 66 43 67 37 68 38 69
REMARK SMILES IDX 41 70 39 71 65 72 66 73 74 74 67 75 68 76 72 77 75 78 69 79
REMARK SMILES IDX 70 80 73 81 71 82 50 83 51 84 59 85 52 86 53 87 57 88 60 89
REMARK SMILES IDX 54 90 55 91 58 92 56 93
REMARK H PARENT 17 4 3 18 3 19 21 27 80 46 48 57
REMARK Flexibility Score: inf
ROOT
ATOM      1  C   UNL A   1      36.784  22.753  25.306  1.00  0.00     0.222 C 
ATOM      2  O   UNL A   1      37.029  23.639  26.126  1.00  0.00    -0.275 OA
ATOM      3  N   UNL A   1      36.907  21.456  25.708  1.00  0.00    -0.356 N 
ATOM      4  H   UNL A   1      37.145  21.348  26.657  1.00  0.00     0.163 HD
ENDROOT
BRANCH   1   5
ATOM      5  C   UNL A   1      36.409  23.101  23.884  1.00  0.00     0.133 C 
BRANCH   5   6
ATOM      6  C   UNL A   1      34.904  23.335  23.735  1.00  0.00     0.147 C 
ATOM      7  N   UNL A   1      33.174  25.139  23.787  1.00  0.00    -0.337 N 
ATOM      8  C   UNL A   1      32.818  24.795  22.412  1.00  0.00     0.148 C 
ATOM      9  C   UNL A   1      34.541  24.775  24.115  1.00  0.00     0.152 C 
ATOM     10  C   UNL A   1      33.162  23.334  22.116  1.00  0.00     0.182 C 
ATOM     11  O   UNL A   1      34.556  23.079  22.357  1.00  0.00    -0.374 OA
BRANCH   7  12
ATOM     12  C   UNL A   1      32.722  26.323  24.356  1.00  0.00     0.231 C 
ATOM     13  O   UNL A   1      33.503  27.192  24.749  1.00  0.00    -0.274 OA
BRANCH  12  14
ATOM     14  C   UNL A   1      31.226  26.426  24.647  1.00  0.00     0.130 C 
ATOM     15  C   UNL A   1      30.659  27.728  24.078  1.00  0.00     0.024 C 
BRANCH  14  16
ATOM     16  C   UNL A   1      30.904  26.207  26.127  1.00  0.00     0.273 C 
BRANCH  16  17
ATOM     17  N   UNL A   1      31.362  24.943  26.710  1.00  0.00    -0.346 N 
ATOM     18  H   UNL A   1      32.258  24.699  26.288  1.00  0.00     0.346 HD
ATOM     19  H   UNL A   1      31.432  25.086  27.717  1.00  0.00     0.346 HD
BRANCH  17  20
ATOM     20  C   UNL A   1      30.437  23.832  26.501  1.00  0.00     0.257 C 
ATOM     21  C   UNL A   1      31.101  22.797  25.605  1.00  0.00     0.071 C 
ENDBRANCH  17  20
ENDBRANCH  16  17
ENDBRANCH  14  16
ENDBRANCH  12  14
ENDBRANCH   7  12
ENDBRANCH   5   6
ENDBRANCH   1   5
BRANCH   3  22
ATOM     22  C   UNL A   1      36.748  20.201  24.980  1.00  0.00     0.117 C 
BRANCH  22  23
ATOM     23  C   UNL A   1      38.017  19.345  25.001  1.00  0.00     0.042 C 
BRANCH  23  24
ATOM     24  C   UNL A   1      39.173  19.943  25.795  1.00  0.00     0.118 C 
BRANCH  24  25
ATOM     25  N   UNL A   1      40.278  19.010  25.926  1.00  0.00    -0.352 N 
ATOM     26  C   UNL A   1      41.630  19.240  26.017  1.00  0.00     0.251 C 
ATOM     27  H   UNL A   1      40.017  18.061  25.954  1.00  0.00     0.163 HD
ATOM     28  O   UNL A   1      42.401  18.292  25.873  1.00  0.00    -0.269 OA
BRANCH  26  29
ATOM     29  C   UNL A   1      42.189  20.591  26.285  1.00  0.00     0.039 A 
ATOM     30  C   UNL A   1      42.252  21.032  27.612  1.00  0.00     0.014 A 
ATOM     31  C   UNL A   1      42.554  21.468  25.259  1.00  0.00     0.014 A 
ATOM     32  C   UNL A   1      42.700  22.324  27.911  1.00  0.00     0.010 A 
ATOM     33  C   UNL A   1      43.068  22.733  25.560  1.00  0.00     0.010 A 
ATOM     34  C   UNL A   1      43.127  23.184  26.887  1.00  0.00    -0.014 A 
BRANCH  34  35
ATOM     35  C   UNL A   1      43.589  24.567  27.188  1.00  0.00     0.031 A 
ATOM     36  C   UNL A   1      42.621  25.593  27.720  1.00  0.00     0.074 A 
ATOM     37  C   UNL A   1      44.865  24.922  26.946  1.00  0.00     0.049 A 
ATOM     38  N   UNL A   1      42.816  26.862  27.981  1.00  0.00    -0.248 NA
ATOM     39  C   UNL A   1      41.246  25.136  27.970  1.00  0.00     0.031 C 
ATOM     40  C   UNL A   1      45.898  24.045  26.396  1.00  0.00     0.029 A 
ATOM     41  N   UNL A   1      45.509  26.123  27.126  1.00  0.00    -0.354 N 
ATOM     42  C   UNL A   1      41.587  27.358  28.396  1.00  0.00     0.074 A 
ATOM     43  C   UNL A   1      40.643  26.263  28.320  1.00  0.00     0.031 C 
ATOM     44  C   UNL A   1      47.049  24.730  26.299  1.00  0.00     0.029 A 
ATOM     45  C   UNL A   1      46.830  26.101  26.751  1.00  0.00     0.049 A 
ATOM     46  H   UNL A   1      45.065  26.924  27.488  1.00  0.00     0.167 HD
ATOM     47  C   UNL A   1      41.275  28.607  28.818  1.00  0.00     0.037 A 
ATOM     48  C   UNL A   1      47.759  27.076  26.766  1.00  0.00     0.037 A 
ATOM     49  C   UNL A   1      42.216  29.687  28.944  1.00  0.00     0.049 A 
ATOM     50  C   UNL A   1      47.396  28.445  27.273  1.00  0.00     0.074 A 
ATOM     51  C   UNL A   1      42.004  30.966  29.431  1.00  0.00     0.029 A 
ATOM     52  N   UNL A   1      43.554  29.613  28.585  1.00  0.00    -0.354 N 
ATOM     53  N   UNL A   1      46.242  28.885  27.711  1.00  0.00    -0.248 NA
ATOM     54  C   UNL A   1      48.468  29.452  27.291  1.00  0.00     0.031 C 
ATOM     55  C   UNL A   1      43.206  31.676  29.339  1.00  0.00     0.029 A 
ATOM     56  C   UNL A   1      44.175  30.829  28.826  1.00  0.00     0.049 A 
ATOM     57  H   UNL A   1      43.996  28.816  28.214  1.00  0.00     0.167 HD
ATOM     58  C   UNL A   1      46.452  30.208  28.075  1.00  0.00     0.074 A 
ATOM     59  C   UNL A   1      47.847  30.499  27.819  1.00  0.00     0.031 C 
ATOM     60  C   UNL A   1      45.565  31.103  28.574  1.00  0.00     0.037 A 
BRANCH  47  61
ATOM     61  C   UNL A   1      39.844  28.878  29.182  1.00  0.00     0.064 A 
ATOM     62  C   UNL A   1      39.381  28.729  30.498  1.00  0.00     0.173 A 
ATOM     63  C   UNL A   1      38.938  29.332  28.213  1.00  0.00     0.173 A 
ATOM     64  F   UNL A   1      40.207  28.287  31.458  1.00  0.00    -0.203 F 
ATOM     65  C   UNL A   1      38.055  29.001  30.825  1.00  0.00     0.198 A 
ATOM     66  C   UNL A   1      37.620  29.628  28.549  1.00  0.00     0.198 A 
ATOM     67  F   UNL A   1      39.334  29.499  26.942  1.00  0.00    -0.203 F 
ATOM     68  F   UNL A   1      37.623  28.813  32.079  1.00  0.00    -0.200 F 
ATOM     69  C   UNL A   1      37.178  29.456  29.852  1.00  0.00     0.200 A 
ATOM     70  F   UNL A   1      36.775  30.080  27.610  1.00  0.00    -0.200 F 
ATOM     71  F   UNL A   1      35.904  29.724  30.169  1.00  0.00    -0.200 F 
ENDBRANCH  47  61
BRANCH  48  72
ATOM     72  C   UNL A   1      49.140  26.781  26.309  1.00  0.00     0.064 A 
ATOM     73  C   UNL A   1      49.513  26.987  24.973  1.00  0.00     0.173 A 
ATOM     74  C   UNL A   1      50.112  26.292  27.194  1.00  0.00     0.173 A 
ATOM     75  F   UNL A   1      48.609  27.431  24.088  1.00  0.00    -0.203 F 
ATOM     76  C   UNL A   1      50.805  26.703  24.536  1.00  0.00     0.198 A 
ATOM     77  C   UNL A   1      51.410  26.030  26.760  1.00  0.00     0.198 A 
ATOM     78  F   UNL A   1      49.804  26.082  28.482  1.00  0.00    -0.203 F 
ATOM     79  F   UNL A   1      51.125  26.873  23.246  1.00  0.00    -0.200 F 
ATOM     80  C   UNL A   1      51.753  26.230  25.431  1.00  0.00     0.200 A 
ATOM     81  F   UNL A   1      52.326  25.582  27.630  1.00  0.00    -0.200 F 
ATOM     82  F   UNL A   1      52.996  25.960  25.010  1.00  0.00    -0.200 F 
ENDBRANCH  48  72
BRANCH  60  83
ATOM     83  C   UNL A   1      46.078  32.473  28.900  1.00  0.00     0.064 A 
ATOM     84  C   UNL A   1      46.636  32.768  30.151  1.00  0.00     0.173 A 
ATOM     85  C   UNL A   1      46.050  33.491  27.934  1.00  0.00     0.173 A 
ATOM     86  F   UNL A   1      46.672  31.832  31.111  1.00  0.00    -0.203 F 
ATOM     87  C   UNL A   1      47.133  34.039  30.431  1.00  0.00     0.198 A 
ATOM     88  C   UNL A   1      46.568  34.754  28.210  1.00  0.00     0.198 A 
ATOM     89  F   UNL A   1      45.531  33.257  26.719  1.00  0.00    -0.203 F 
ATOM     90  F   UNL A   1      47.631  34.309  31.645  1.00  0.00    -0.200 F 
ATOM     91  C   UNL A   1      47.105  35.028  29.459  1.00  0.00     0.200 A 
ATOM     92  F   UNL A   1      46.547  35.706  27.267  1.00  0.00    -0.200 F 
ATOM     93  F   UNL A   1      47.589  36.248  29.728  1.00  0.00    -0.200 F 
ENDBRANCH  60  83
ENDBRANCH  34  35
ENDBRANCH  26  29
ENDBRANCH  24  25
ENDBRANCH  23  24
ENDBRANCH  22  23
ENDBRANCH   3  22
TORSDOF 16
ENDMDL
