MODEL 1
REMARK VINA RESULT:     -12.5      0.000      0.000
REMARK SMILES O=C(NCCCNC(=O)[C@@H]1C=C[C@@H](NC(=O)c2c[nH]c(=O)[nH]2)C1)c1ccc(-c2c3nc(c(-c4c(F)c(F)c(F)c(F)c4F)c4ccc([nH]4)c(-c4c(F)c(F)c(F)c(F)c4F)c4nc(c(-c5c(F)c(F)c(F)c(F)c5F)c5ccc2[nH]5)C=C4)C=C3)cc1
REMARK SMILES IDX 5 1 4 2 3 3 1 4 2 5 24 7 25 8 86 9 26 10 85 11 27 12 28 13
REMARK SMILES IDX 29 14 79 15 30 16 84 17 78 18 80 19 31 20 83 21 77 22 76 23
REMARK SMILES IDX 32 25 64 26 44 27 63 28 45 29 48 30 62 31 81 32 46 33 47 34
REMARK SMILES IDX 61 36 82 37 49 38 33 39 34 40 42 41 35 42 36 43 40 44 43 45
REMARK SMILES IDX 37 46 38 47 41 48 39 49 65 50 66 51 74 52 67 53 68 54 72 55
REMARK SMILES IDX 75 56 69 57 70 58 73 59 71 60 50 61 51 62 59 63 52 64 53 65
REMARK SMILES IDX 57 66 60 67 54 68 55 69 58 70 56 71 6 72 7 73 8 74 9 76
REMARK SMILES IDX 10 77 11 78 23 79 12 80 13 81 14 82 15 83 16 85 17 86 18 87
REMARK SMILES IDX 22 88 19 89 20 90 21 93
REMARK H PARENT 3 6 80 24 48 35 7 75 14 84 22 91 19 92
REMARK Flexibility Score: inf
ROOT
ATOM      1  C   UNL A   1      33.419  31.335  26.691  1.00  0.00     0.042 C 
ENDROOT
BRANCH   1   2
ATOM      2  C   UNL A   1      32.152  31.889  27.324  1.00  0.00     0.118 C 
BRANCH   2   3
ATOM      3  N   UNL A   1      32.186  33.344  27.412  1.00  0.00    -0.352 N 
ATOM      4  O   UNL A   1      32.700  35.348  28.291  1.00  0.00    -0.269 OA
ATOM      5  C   UNL A   1      32.991  34.162  28.167  1.00  0.00     0.251 C 
ATOM      6  H   UNL A   1      31.533  33.811  26.842  1.00  0.00     0.163 HD
BRANCH   5   7
ATOM      7  C   UNL A   1      34.201  33.617  28.817  1.00  0.00     0.039 A 
ATOM      8  C   UNL A   1      34.086  32.718  29.879  1.00  0.00     0.014 A 
ATOM      9  C   UNL A   1      35.464  33.976  28.338  1.00  0.00     0.014 A 
ATOM     10  C   UNL A   1      35.221  32.303  30.559  1.00  0.00     0.010 A 
ATOM     11  C   UNL A   1      36.610  33.460  28.952  1.00  0.00     0.010 A 
ATOM     12  C   UNL A   1      36.497  32.638  30.083  1.00  0.00    -0.014 A 
BRANCH  12  13
ATOM     13  C   UNL A   1      37.685  32.049  30.750  1.00  0.00     0.031 A 
ATOM     14  C   UNL A   1      38.093  32.471  32.133  1.00  0.00     0.074 A 
ATOM     15  C   UNL A   1      38.370  31.086  30.102  1.00  0.00     0.049 A 
ATOM     16  N   UNL A   1      39.088  32.036  32.865  1.00  0.00    -0.248 NA
ATOM     17  C   UNL A   1      37.288  33.518  32.778  1.00  0.00     0.031 C 
ATOM     18  C   UNL A   1      38.068  30.605  28.749  1.00  0.00     0.029 A 
ATOM     19  N   UNL A   1      39.440  30.323  30.491  1.00  0.00    -0.354 N 
ATOM     20  C   UNL A   1      39.033  32.756  34.050  1.00  0.00     0.074 A 
ATOM     21  C   UNL A   1      37.931  33.688  33.926  1.00  0.00     0.031 C 
ATOM     22  C   UNL A   1      38.896  29.598  28.444  1.00  0.00     0.029 A 
ATOM     23  C   UNL A   1      39.838  29.414  29.540  1.00  0.00     0.049 A 
ATOM     24  H   UNL A   1      39.882  30.416  31.365  1.00  0.00     0.167 HD
ATOM     25  C   UNL A   1      39.822  32.640  35.145  1.00  0.00     0.037 A 
ATOM     26  C   UNL A   1      40.866  28.546  29.537  1.00  0.00     0.037 A 
ATOM     27  C   UNL A   1      40.922  31.714  35.255  1.00  0.00     0.049 A 
ATOM     28  C   UNL A   1      41.758  28.482  30.744  1.00  0.00     0.074 A 
ATOM     29  C   UNL A   1      41.782  31.515  36.322  1.00  0.00     0.029 A 
ATOM     30  N   UNL A   1      41.320  30.834  34.257  1.00  0.00    -0.354 N 
ATOM     31  N   UNL A   1      41.675  29.148  31.870  1.00  0.00    -0.248 NA
ATOM     32  C   UNL A   1      42.885  27.545  30.680  1.00  0.00     0.031 C 
ATOM     33  C   UNL A   1      42.730  30.556  35.950  1.00  0.00     0.029 A 
ATOM     34  C   UNL A   1      42.423  30.107  34.676  1.00  0.00     0.049 A 
ATOM     35  H   UNL A   1      40.881  30.741  33.380  1.00  0.00     0.167 HD
ATOM     36  C   UNL A   1      42.724  28.696  32.657  1.00  0.00     0.074 A 
ATOM     37  C   UNL A   1      43.411  27.677  31.889  1.00  0.00     0.031 C 
ATOM     38  C   UNL A   1      43.090  29.091  33.901  1.00  0.00     0.037 A 
BRANCH  25  39
ATOM     39  C   UNL A   1      39.536  33.542  36.312  1.00  0.00     0.064 A 
ATOM     40  C   UNL A   1      38.733  33.125  37.386  1.00  0.00     0.173 A 
ATOM     41  C   UNL A   1      40.112  34.821  36.386  1.00  0.00     0.173 A 
ATOM     42  F   UNL A   1      38.151  31.917  37.365  1.00  0.00    -0.203 F 
ATOM     43  C   UNL A   1      38.498  33.962  38.475  1.00  0.00     0.198 A 
ATOM     44  C   UNL A   1      39.901  35.642  37.491  1.00  0.00     0.198 A 
ATOM     45  F   UNL A   1      40.896  35.268  35.394  1.00  0.00    -0.203 F 
ATOM     46  F   UNL A   1      37.694  33.557  39.467  1.00  0.00    -0.200 F 
ATOM     47  C   UNL A   1      39.089  35.216  38.531  1.00  0.00     0.200 A 
ATOM     48  F   UNL A   1      40.487  36.846  37.551  1.00  0.00    -0.200 F 
ATOM     49  F   UNL A   1      38.873  36.014  39.586  1.00  0.00    -0.200 F 
ENDBRANCH  25  39
BRANCH  26  50
ATOM     50  C   UNL A   1      41.120  27.693  28.346  1.00  0.00     0.064 A 
ATOM     51  C   UNL A   1      41.960  28.121  27.311  1.00  0.00     0.173 A 
ATOM     52  C   UNL A   1      40.509  26.435  28.212  1.00  0.00     0.173 A 
ATOM     53  F   UNL A   1      42.556  29.321  27.383  1.00  0.00    -0.203 F 
ATOM     54  C   UNL A   1      42.154  27.340  26.172  1.00  0.00     0.198 A 
ATOM     55  C   UNL A   1      40.735  25.639  27.092  1.00  0.00     0.198 A 
ATOM     56  F   UNL A   1      39.701  25.973  29.177  1.00  0.00    -0.203 F 
ATOM     57  F   UNL A   1      42.914  27.801  25.169  1.00  0.00    -0.200 F 
ATOM     58  C   UNL A   1      41.547  26.098  26.066  1.00  0.00     0.200 A 
ATOM     59  F   UNL A   1      40.164  24.430  27.006  1.00  0.00    -0.200 F 
ATOM     60  F   UNL A   1      41.735  25.348  24.973  1.00  0.00    -0.200 F 
ENDBRANCH  26  50
BRANCH  38  61
ATOM     61  C   UNL A   1      44.261  28.385  34.521  1.00  0.00     0.064 A 
ATOM     62  C   UNL A   1      45.570  28.875  34.401  1.00  0.00     0.173 A 
ATOM     63  C   UNL A   1      44.067  27.206  35.257  1.00  0.00     0.173 A 
ATOM     64  F   UNL A   1      45.813  29.988  33.693  1.00  0.00    -0.203 F 
ATOM     65  C   UNL A   1      46.645  28.191  34.962  1.00  0.00     0.198 A 
ATOM     66  C   UNL A   1      45.140  26.545  35.849  1.00  0.00     0.198 A 
ATOM     67  F   UNL A   1      42.835  26.697  35.408  1.00  0.00    -0.203 F 
ATOM     68  F   UNL A   1      47.893  28.642  34.780  1.00  0.00    -0.200 F 
ATOM     69  C   UNL A   1      46.428  27.031  35.692  1.00  0.00     0.200 A 
ATOM     70  F   UNL A   1      44.926  25.432  36.565  1.00  0.00    -0.200 F 
ATOM     71  F   UNL A   1      47.463  26.375  36.234  1.00  0.00    -0.200 F 
ENDBRANCH  38  61
ENDBRANCH  12  13
ENDBRANCH   5   7
ENDBRANCH   2   3
ENDBRANCH   1   2
BRANCH   1  72
ATOM     72  C   UNL A   1      33.327  29.837  26.412  1.00  0.00     0.117 C 
BRANCH  72  73
ATOM     73  N   UNL A   1      33.856  29.499  25.109  1.00  0.00    -0.356 N 
ATOM     74  C   UNL A   1      33.405  28.689  24.117  1.00  0.00     0.227 C 
ATOM     75  H   UNL A   1      34.710  29.943  24.901  1.00  0.00     0.163 HD
ATOM     76  O   UNL A   1      34.063  28.711  23.069  1.00  0.00    -0.274 OA
BRANCH  74  77
ATOM     77  C   UNL A   1      32.153  27.799  24.202  1.00  0.00     0.103 C 
ATOM     78  C   UNL A   1      31.912  26.944  22.993  1.00  0.00    -0.016 C 
ATOM     79  C   UNL A   1      30.791  28.466  24.430  1.00  0.00     0.047 C 
ATOM     80  C   UNL A   1      30.738  27.223  22.412  1.00  0.00    -0.006 C 
ATOM     81  C   UNL A   1      30.063  28.369  23.086  1.00  0.00     0.106 C 
BRANCH  81  82
ATOM     82  N   UNL A   1      28.646  28.147  23.168  1.00  0.00    -0.344 N 
ATOM     83  C   UNL A   1      27.646  29.055  22.938  1.00  0.00     0.269 C 
ATOM     84  H   UNL A   1      28.360  27.238  23.418  1.00  0.00     0.164 HD
ATOM     85  O   UNL A   1      26.487  28.790  23.249  1.00  0.00    -0.268 OA
BRANCH  83  86
ATOM     86  C   UNL A   1      27.986  30.396  22.394  1.00  0.00     0.124 A 
ATOM     87  C   UNL A   1      28.285  30.768  21.138  1.00  0.00     0.119 A 
ATOM     88  N   UNL A   1      28.015  31.516  23.192  1.00  0.00    -0.302 N 
ATOM     89  N   UNL A   1      28.561  32.114  21.132  1.00  0.00    -0.312 N 
ATOM     90  C   UNL A   1      28.396  32.624  22.430  1.00  0.00     0.323 A 
ATOM     91  H   UNL A   1      27.801  31.535  24.154  1.00  0.00     0.172 HD
ATOM     92  H   UNL A   1      28.832  32.637  20.344  1.00  0.00     0.171 HD
ATOM     93  O   UNL A   1      28.567  33.765  22.805  1.00  0.00    -0.248 OA
ENDBRANCH  83  86
ENDBRANCH  81  82
ENDBRANCH  74  77
ENDBRANCH  72  73
ENDBRANCH   1  72
TORSDOF 12
ENDMDL
MODEL 2
REMARK VINA RESULT:     -12.5      1.982      3.465
REMARK SMILES O=C(NCCCNC(=O)[C@@H]1C=C[C@@H](NC(=O)c2c[nH]c(=O)[nH]2)C1)c1ccc(-c2c3nc(c(-c4c(F)c(F)c(F)c(F)c4F)c4ccc([nH]4)c(-c4c(F)c(F)c(F)c(F)c4F)c4nc(c(-c5c(F)c(F)c(F)c(F)c5F)c5ccc2[nH]5)C=C4)C=C3)cc1
REMARK SMILES IDX 5 1 4 2 3 3 1 4 2 5 24 7 25 8 86 9 26 10 85 11 27 12 28 13
REMARK SMILES IDX 29 14 79 15 30 16 84 17 78 18 80 19 31 20 83 21 77 22 76 23
REMARK SMILES IDX 32 25 64 26 44 27 63 28 45 29 48 30 62 31 81 32 46 33 47 34
REMARK SMILES IDX 61 36 82 37 49 38 33 39 34 40 42 41 35 42 36 43 40 44 43 45
REMARK SMILES IDX 37 46 38 47 41 48 39 49 65 50 66 51 74 52 67 53 68 54 72 55
REMARK SMILES IDX 75 56 69 57 70 58 73 59 71 60 50 61 51 62 59 63 52 64 53 65
REMARK SMILES IDX 57 66 60 67 54 68 55 69 58 70 56 71 6 72 7 73 8 74 9 76
REMARK SMILES IDX 10 77 11 78 23 79 12 80 13 81 14 82 15 83 16 85 17 86 18 87
REMARK SMILES IDX 22 88 19 89 20 90 21 93
REMARK H PARENT 3 6 80 24 48 35 7 75 14 84 22 91 19 92
REMARK Flexibility Score: inf
ROOT
ATOM      1  C   UNL A   1      31.509  32.105  26.754  1.00  0.00     0.042 C 
ENDROOT
BRANCH   1   2
ATOM      2  C   UNL A   1      32.788  32.907  26.939  1.00  0.00     0.118 C 
BRANCH   2   3
ATOM      3  N   UNL A   1      32.533  34.184  27.595  1.00  0.00    -0.352 N 
ATOM      4  O   UNL A   1      32.539  35.684  29.269  1.00  0.00    -0.269 OA
ATOM      5  C   UNL A   1      33.065  34.704  28.749  1.00  0.00     0.251 C 
ATOM      6  H   UNL A   1      31.879  34.762  27.139  1.00  0.00     0.163 HD
BRANCH   5   7
ATOM      7  C   UNL A   1      34.265  34.090  29.355  1.00  0.00     0.039 A 
ATOM      8  C   UNL A   1      34.135  33.072  30.300  1.00  0.00     0.014 A 
ATOM      9  C   UNL A   1      35.535  34.507  28.946  1.00  0.00     0.014 A 
ATOM     10  C   UNL A   1      35.260  32.583  30.949  1.00  0.00     0.010 A 
ATOM     11  C   UNL A   1      36.672  33.927  29.517  1.00  0.00     0.010 A 
ATOM     12  C   UNL A   1      36.543  32.976  30.540  1.00  0.00    -0.014 A 
BRANCH  12  13
ATOM     13  C   UNL A   1      37.721  32.317  31.157  1.00  0.00     0.031 A 
ATOM     14  C   UNL A   1      38.180  32.673  32.542  1.00  0.00     0.074 A 
ATOM     15  C   UNL A   1      38.349  31.349  30.458  1.00  0.00     0.049 A 
ATOM     16  N   UNL A   1      39.174  32.173  33.233  1.00  0.00    -0.248 NA
ATOM     17  C   UNL A   1      37.435  33.729  33.242  1.00  0.00     0.031 C 
ATOM     18  C   UNL A   1      37.995  30.928  29.099  1.00  0.00     0.029 A 
ATOM     19  N   UNL A   1      39.396  30.530  30.794  1.00  0.00    -0.354 N 
ATOM     20  C   UNL A   1      39.178  32.854  34.442  1.00  0.00     0.074 A 
ATOM     21  C   UNL A   1      38.113  33.833  34.378  1.00  0.00     0.031 C 
ATOM     22  C   UNL A   1      38.772  29.899  28.739  1.00  0.00     0.029 A 
ATOM     23  C   UNL A   1      39.732  29.639  29.803  1.00  0.00     0.049 A 
ATOM     24  H   UNL A   1      39.862  30.575  31.659  1.00  0.00     0.167 HD
ATOM     25  C   UNL A   1      39.989  32.667  35.512  1.00  0.00     0.037 A 
ATOM     26  C   UNL A   1      40.723  28.731  29.744  1.00  0.00     0.037 A 
ATOM     27  C   UNL A   1      41.051  31.694  35.562  1.00  0.00     0.049 A 
ATOM     28  C   UNL A   1      41.640  28.589  30.925  1.00  0.00     0.074 A 
ATOM     29  C   UNL A   1      41.928  31.423  36.599  1.00  0.00     0.029 A 
ATOM     30  N   UNL A   1      41.387  30.833  34.525  1.00  0.00    -0.354 N 
ATOM     31  N   UNL A   1      41.613  29.218  32.074  1.00  0.00    -0.248 NA
ATOM     32  C   UNL A   1      42.726  27.609  30.800  1.00  0.00     0.031 C 
ATOM     33  C   UNL A   1      42.826  30.440  36.171  1.00  0.00     0.029 A 
ATOM     34  C   UNL A   1      42.469  30.048  34.891  1.00  0.00     0.049 A 
ATOM     35  H   UNL A   1      40.924  30.789  33.657  1.00  0.00     0.167 HD
ATOM     36  C   UNL A   1      42.661  28.696  32.818  1.00  0.00     0.074 A 
ATOM     37  C   UNL A   1      43.286  27.677  31.999  1.00  0.00     0.031 C 
ATOM     38  C   UNL A   1      43.074  29.033  34.065  1.00  0.00     0.037 A 
BRANCH  25  39
ATOM     39  C   UNL A   1      39.769  33.539  36.716  1.00  0.00     0.064 A 
ATOM     40  C   UNL A   1      40.436  34.766  36.868  1.00  0.00     0.173 A 
ATOM     41  C   UNL A   1      38.844  33.172  37.706  1.00  0.00     0.173 A 
ATOM     42  F   UNL A   1      41.336  35.162  35.956  1.00  0.00    -0.203 F 
ATOM     43  C   UNL A   1      40.203  35.578  37.975  1.00  0.00     0.198 A 
ATOM     44  C   UNL A   1      38.589  34.002  38.795  1.00  0.00     0.198 A 
ATOM     45  F   UNL A   1      38.170  32.016  37.608  1.00  0.00    -0.203 F 
ATOM     46  F   UNL A   1      40.882  36.724  38.118  1.00  0.00    -0.200 F 
ATOM     47  C   UNL A   1      39.273  35.200  38.933  1.00  0.00     0.200 A 
ATOM     48  F   UNL A   1      37.678  33.644  39.711  1.00  0.00    -0.200 F 
ATOM     49  F   UNL A   1      39.040  35.990  39.991  1.00  0.00    -0.200 F 
ENDBRANCH  25  39
BRANCH  26  50
ATOM     50  C   UNL A   1      40.911  27.909  28.519  1.00  0.00     0.064 A 
ATOM     51  C   UNL A   1      41.704  28.360  27.456  1.00  0.00     0.173 A 
ATOM     52  C   UNL A   1      40.285  26.660  28.380  1.00  0.00     0.173 A 
ATOM     53  F   UNL A   1      42.312  29.554  27.532  1.00  0.00    -0.203 F 
ATOM     54  C   UNL A   1      41.836  27.611  26.289  1.00  0.00     0.198 A 
ATOM     55  C   UNL A   1      40.450  25.894  27.229  1.00  0.00     0.198 A 
ATOM     56  F   UNL A   1      39.521  26.176  29.371  1.00  0.00    -0.203 F 
ATOM     57  F   UNL A   1      42.550  28.094  25.263  1.00  0.00    -0.200 F 
ATOM     58  C   UNL A   1      41.214  26.376  26.178  1.00  0.00     0.200 A 
ATOM     59  F   UNL A   1      39.865  24.692  27.138  1.00  0.00    -0.200 F 
ATOM     60  F   UNL A   1      41.343  25.656  25.056  1.00  0.00    -0.200 F 
ENDBRANCH  26  50
BRANCH  38  61
ATOM     61  C   UNL A   1      44.229  28.258  34.630  1.00  0.00     0.064 A 
ATOM     62  C   UNL A   1      45.555  28.698  34.492  1.00  0.00     0.173 A 
ATOM     63  C   UNL A   1      44.004  27.064  35.332  1.00  0.00     0.173 A 
ATOM     64  F   UNL A   1      45.826  29.824  33.815  1.00  0.00    -0.203 F 
ATOM     65  C   UNL A   1      46.613  27.952  35.002  1.00  0.00     0.198 A 
ATOM     66  C   UNL A   1      45.063  26.340  35.873  1.00  0.00     0.198 A 
ATOM     67  F   UNL A   1      42.756  26.601  35.498  1.00  0.00    -0.203 F 
ATOM     68  F   UNL A   1      47.875  28.358  34.802  1.00  0.00    -0.200 F 
ATOM     69  C   UNL A   1      46.366  26.778  35.698  1.00  0.00     0.200 A 
ATOM     70  F   UNL A   1      44.821  25.213  36.558  1.00  0.00    -0.200 F 
ATOM     71  F   UNL A   1      47.386  26.062  36.191  1.00  0.00    -0.200 F 
ENDBRANCH  38  61
ENDBRANCH  12  13
ENDBRANCH   5   7
ENDBRANCH   2   3
ENDBRANCH   1   2
BRANCH   1  72
ATOM     72  C   UNL A   1      31.777  30.620  26.527  1.00  0.00     0.117 C 
BRANCH  72  73
ATOM     73  N   UNL A   1      31.311  30.181  25.231  1.00  0.00    -0.356 N 
ATOM     74  C   UNL A   1      31.813  29.304  24.324  1.00  0.00     0.227 C 
ATOM     75  H   UNL A   1      30.464  30.598  24.952  1.00  0.00     0.163 HD
ATOM     76  O   UNL A   1      31.090  29.076  23.345  1.00  0.00    -0.274 OA
BRANCH  74  77
ATOM     77  C   UNL A   1      33.163  28.578  24.449  1.00  0.00     0.103 C 
ATOM     78  C   UNL A   1      33.579  27.819  23.224  1.00  0.00    -0.016 C 
ATOM     79  C   UNL A   1      33.344  27.548  25.570  1.00  0.00     0.047 C 
ATOM     80  C   UNL A   1      33.721  26.510  23.473  1.00  0.00    -0.006 C 
ATOM     81  C   UNL A   1      33.329  26.183  24.873  1.00  0.00     0.106 C 
BRANCH  81  82
ATOM     82  N   UNL A   1      34.213  25.197  25.431  1.00  0.00    -0.344 N 
ATOM     83  C   UNL A   1      33.867  24.023  26.047  1.00  0.00     0.269 C 
ATOM     84  H   UNL A   1      35.176  25.387  25.363  1.00  0.00     0.164 HD
ATOM     85  O   UNL A   1      34.711  23.377  26.664  1.00  0.00    -0.268 OA
BRANCH  83  86
ATOM     86  C   UNL A   1      32.448  23.583  26.039  1.00  0.00     0.124 A 
ATOM     87  C   UNL A   1      31.742  22.958  25.082  1.00  0.00     0.119 A 
ATOM     88  N   UNL A   1      31.626  23.768  27.128  1.00  0.00    -0.302 N 
ATOM     89  N   UNL A   1      30.453  22.788  25.527  1.00  0.00    -0.312 N 
ATOM     90  C   UNL A   1      30.345  23.293  26.832  1.00  0.00     0.323 A 
ATOM     91  H   UNL A   1      31.898  24.173  27.984  1.00  0.00     0.172 HD
ATOM     92  H   UNL A   1      29.722  22.377  25.011  1.00  0.00     0.171 HD
ATOM     93  O   UNL A   1      29.355  23.328  27.534  1.00  0.00    -0.248 OA
ENDBRANCH  83  86
ENDBRANCH  81  82
ENDBRANCH  74  77
ENDBRANCH  72  73
ENDBRANCH   1  72
TORSDOF 12
ENDMDL
MODEL 3
REMARK VINA RESULT:     -12.5      1.948      3.794
REMARK SMILES O=C(NCCCNC(=O)[C@@H]1C=C[C@@H](NC(=O)c2c[nH]c(=O)[nH]2)C1)c1ccc(-c2c3nc(c(-c4c(F)c(F)c(F)c(F)c4F)c4ccc([nH]4)c(-c4c(F)c(F)c(F)c(F)c4F)c4nc(c(-c5c(F)c(F)c(F)c(F)c5F)c5ccc2[nH]5)C=C4)C=C3)cc1
REMARK SMILES IDX 5 1 4 2 3 3 1 4 2 5 24 7 25 8 86 9 26 10 85 11 27 12 28 13
REMARK SMILES IDX 29 14 79 15 30 16 84 17 78 18 80 19 31 20 83 21 77 22 76 23
REMARK SMILES IDX 32 25 64 26 44 27 63 28 45 29 48 30 62 31 81 32 46 33 47 34
REMARK SMILES IDX 61 36 82 37 49 38 33 39 34 40 42 41 35 42 36 43 40 44 43 45
REMARK SMILES IDX 37 46 38 47 41 48 39 49 65 50 66 51 74 52 67 53 68 54 72 55
REMARK SMILES IDX 75 56 69 57 70 58 73 59 71 60 50 61 51 62 59 63 52 64 53 65
REMARK SMILES IDX 57 66 60 67 54 68 55 69 58 70 56 71 6 72 7 73 8 74 9 76
REMARK SMILES IDX 10 77 11 78 23 79 12 80 13 81 14 82 15 83 16 85 17 86 18 87
REMARK SMILES IDX 22 88 19 89 20 90 21 93
REMARK H PARENT 3 6 80 24 48 35 7 75 14 84 22 91 19 92
REMARK Flexibility Score: inf
ROOT
ATOM      1  C   UNL A   1      31.394  32.101  26.499  1.00  0.00     0.042 C 
ENDROOT
BRANCH   1   2
ATOM      2  C   UNL A   1      32.705  32.774  26.879  1.00  0.00     0.118 C 
BRANCH   2   3
ATOM      3  N   UNL A   1      32.482  34.068  27.512  1.00  0.00    -0.352 N 
ATOM      4  O   UNL A   1      32.534  35.599  29.157  1.00  0.00    -0.269 OA
ATOM      5  C   UNL A   1      33.034  34.599  28.652  1.00  0.00     0.251 C 
ATOM      6  H   UNL A   1      31.836  34.651  27.051  1.00  0.00     0.163 HD
BRANCH   5   7
ATOM      7  C   UNL A   1      34.227  33.971  29.259  1.00  0.00     0.039 A 
ATOM      8  C   UNL A   1      34.086  32.908  30.152  1.00  0.00     0.014 A 
ATOM      9  C   UNL A   1      35.501  34.422  28.903  1.00  0.00     0.014 A 
ATOM     10  C   UNL A   1      35.200  32.403  30.807  1.00  0.00     0.010 A 
ATOM     11  C   UNL A   1      36.631  33.829  29.476  1.00  0.00     0.010 A 
ATOM     12  C   UNL A   1      36.488  32.830  30.451  1.00  0.00    -0.014 A 
BRANCH  12  13
ATOM     13  C   UNL A   1      37.659  32.156  31.066  1.00  0.00     0.031 A 
ATOM     14  C   UNL A   1      38.113  32.496  32.457  1.00  0.00     0.074 A 
ATOM     15  C   UNL A   1      38.283  31.191  30.361  1.00  0.00     0.049 A 
ATOM     16  N   UNL A   1      39.100  31.982  33.148  1.00  0.00    -0.248 NA
ATOM     17  C   UNL A   1      37.372  33.551  33.164  1.00  0.00     0.031 C 
ATOM     18  C   UNL A   1      37.932  30.785  28.996  1.00  0.00     0.029 A 
ATOM     19  N   UNL A   1      39.322  30.361  30.694  1.00  0.00    -0.354 N 
ATOM     20  C   UNL A   1      39.103  32.651  34.364  1.00  0.00     0.074 A 
ATOM     21  C   UNL A   1      38.045  33.638  34.303  1.00  0.00     0.031 C 
ATOM     22  C   UNL A   1      38.704  29.754  28.630  1.00  0.00     0.029 A 
ATOM     23  C   UNL A   1      39.657  29.477  29.697  1.00  0.00     0.049 A 
ATOM     24  H   UNL A   1      39.785  30.394  31.562  1.00  0.00     0.167 HD
ATOM     25  C   UNL A   1      39.907  32.448  35.435  1.00  0.00     0.037 A 
ATOM     26  C   UNL A   1      40.641  28.562  29.633  1.00  0.00     0.037 A 
ATOM     27  C   UNL A   1      40.962  31.467  35.481  1.00  0.00     0.049 A 
ATOM     28  C   UNL A   1      41.552  28.402  30.817  1.00  0.00     0.074 A 
ATOM     29  C   UNL A   1      41.832  31.181  36.519  1.00  0.00     0.029 A 
ATOM     30  N   UNL A   1      41.297  30.614  34.437  1.00  0.00    -0.354 N 
ATOM     31  N   UNL A   1      41.524  29.021  31.972  1.00  0.00    -0.248 NA
ATOM     32  C   UNL A   1      42.631  27.417  30.688  1.00  0.00     0.031 C 
ATOM     33  C   UNL A   1      42.725  30.195  36.086  1.00  0.00     0.029 A 
ATOM     34  C   UNL A   1      42.372  29.818  34.800  1.00  0.00     0.049 A 
ATOM     35  H   UNL A   1      40.838  30.581  33.567  1.00  0.00     0.167 HD
ATOM     36  C   UNL A   1      42.564  28.485  32.716  1.00  0.00     0.074 A 
ATOM     37  C   UNL A   1      43.186  27.469  31.890  1.00  0.00     0.031 C 
ATOM     38  C   UNL A   1      42.974  28.807  33.968  1.00  0.00     0.037 A 
BRANCH  25  39
ATOM     39  C   UNL A   1      39.688  33.311  36.646  1.00  0.00     0.064 A 
ATOM     40  C   UNL A   1      40.356  34.535  36.809  1.00  0.00     0.173 A 
ATOM     41  C   UNL A   1      38.762  32.936  37.633  1.00  0.00     0.173 A 
ATOM     42  F   UNL A   1      41.258  34.937  35.902  1.00  0.00    -0.203 F 
ATOM     43  C   UNL A   1      40.124  35.338  37.924  1.00  0.00     0.198 A 
ATOM     44  C   UNL A   1      38.508  33.757  38.729  1.00  0.00     0.198 A 
ATOM     45  F   UNL A   1      38.087  31.782  37.525  1.00  0.00    -0.203 F 
ATOM     46  F   UNL A   1      40.805  36.481  38.077  1.00  0.00    -0.200 F 
ATOM     47  C   UNL A   1      39.193  34.953  38.878  1.00  0.00     0.200 A 
ATOM     48  F   UNL A   1      37.595  33.392  39.641  1.00  0.00    -0.200 F 
ATOM     49  F   UNL A   1      38.960  35.734  39.942  1.00  0.00    -0.200 F 
ENDBRANCH  25  39
BRANCH  26  50
ATOM     50  C   UNL A   1      40.830  27.752  28.401  1.00  0.00     0.064 A 
ATOM     51  C   UNL A   1      40.236  26.491  28.263  1.00  0.00     0.173 A 
ATOM     52  C   UNL A   1      41.624  28.217  27.341  1.00  0.00     0.173 A 
ATOM     53  F   UNL A   1      39.479  25.993  29.253  1.00  0.00    -0.203 F 
ATOM     54  C   UNL A   1      40.456  25.712  27.128  1.00  0.00     0.198 A 
ATOM     55  C   UNL A   1      41.811  27.455  26.191  1.00  0.00     0.198 A 
ATOM     56  F   UNL A   1      42.209  29.421  27.417  1.00  0.00    -0.203 F 
ATOM     57  F   UNL A   1      39.927  24.483  27.049  1.00  0.00    -0.200 F 
ATOM     58  C   UNL A   1      41.239  26.197  26.091  1.00  0.00     0.200 A 
ATOM     59  F   UNL A   1      42.550  27.938  25.183  1.00  0.00    -0.200 F 
ATOM     60  F   UNL A   1      41.448  25.448  25.000  1.00  0.00    -0.200 F 
ENDBRANCH  26  50
BRANCH  38  61
ATOM     61  C   UNL A   1      44.121  28.018  34.531  1.00  0.00     0.064 A 
ATOM     62  C   UNL A   1      43.924  26.811  35.219  1.00  0.00     0.173 A 
ATOM     63  C   UNL A   1      45.439  28.472  34.367  1.00  0.00     0.173 A 
ATOM     64  F   UNL A   1      42.683  26.342  35.418  1.00  0.00    -0.203 F 
ATOM     65  C   UNL A   1      44.999  26.109  35.755  1.00  0.00     0.198 A 
ATOM     66  C   UNL A   1      46.514  27.748  34.872  1.00  0.00     0.198 A 
ATOM     67  F   UNL A   1      45.684  29.617  33.713  1.00  0.00    -0.203 F 
ATOM     68  F   UNL A   1      44.782  24.993  36.465  1.00  0.00    -0.200 F 
ATOM     69  C   UNL A   1      46.294  26.574  35.575  1.00  0.00     0.200 A 
ATOM     70  F   UNL A   1      47.766  28.191  34.684  1.00  0.00    -0.200 F 
ATOM     71  F   UNL A   1      47.329  25.895  36.090  1.00  0.00    -0.200 F 
ENDBRANCH  38  61
ENDBRANCH  12  13
ENDBRANCH   5   7
ENDBRANCH   2   3
ENDBRANCH   1   2
BRANCH   1  72
ATOM     72  C   UNL A   1      31.542  30.594  26.316  1.00  0.00     0.117 C 
BRANCH  72  73
ATOM     73  N   UNL A   1      31.109  30.166  25.004  1.00  0.00    -0.356 N 
ATOM     74  C   UNL A   1      31.653  29.324  24.087  1.00  0.00     0.227 C 
ATOM     75  H   UNL A   1      30.254  30.561  24.720  1.00  0.00     0.163 HD
ATOM     76  O   UNL A   1      30.953  29.093  23.093  1.00  0.00    -0.274 OA
BRANCH  74  77
ATOM     77  C   UNL A   1      33.024  28.640  24.219  1.00  0.00     0.103 C 
ATOM     78  C   UNL A   1      33.480  27.914  22.987  1.00  0.00    -0.016 C 
ATOM     79  C   UNL A   1      33.223  27.598  25.326  1.00  0.00     0.047 C 
ATOM     80  C   UNL A   1      33.660  26.607  23.218  1.00  0.00    -0.006 C 
ATOM     81  C   UNL A   1      33.261  26.245  24.608  1.00  0.00     0.106 C 
BRANCH  81  82
ATOM     82  N   UNL A   1      34.169  25.279  25.161  1.00  0.00    -0.344 N 
ATOM     83  C   UNL A   1      33.851  24.129  25.836  1.00  0.00     0.269 C 
ATOM     84  H   UNL A   1      35.129  25.464  25.043  1.00  0.00     0.164 HD
ATOM     85  O   UNL A   1      34.722  23.505  26.438  1.00  0.00    -0.268 OA
BRANCH  83  86
ATOM     86  C   UNL A   1      32.432  23.692  25.910  1.00  0.00     0.124 A 
ATOM     87  C   UNL A   1      31.648  23.141  24.968  1.00  0.00     0.119 A 
ATOM     88  N   UNL A   1      31.701  23.796  27.071  1.00  0.00    -0.302 N 
ATOM     89  N   UNL A   1      30.398  22.940  25.501  1.00  0.00    -0.312 N 
ATOM     90  C   UNL A   1      30.398  23.346  26.844  1.00  0.00     0.323 A 
ATOM     91  H   UNL A   1      32.044  24.135  27.930  1.00  0.00     0.172 HD
ATOM     92  H   UNL A   1      29.625  22.570  25.016  1.00  0.00     0.171 HD
ATOM     93  O   UNL A   1      29.468  23.328  27.624  1.00  0.00    -0.248 OA
ENDBRANCH  83  86
ENDBRANCH  81  82
ENDBRANCH  74  77
ENDBRANCH  72  73
ENDBRANCH   1  72
TORSDOF 12
ENDMDL
