MODEL 1
REMARK VINA RESULT:     -11.9      0.000      0.000
REMARK SMILES C[N@H+]1CCO[C@@H](CN2C[C@H](C(=O)NCCCNC(=O)c3ccc(-c4c5nc(c(-c6c(F)c(F)c(F)c(F)c6F)c6ccc([nH]6)c(-c6c(F)c(F)c(F)c(F)c6F)c6nc(c(-c7c(F)c(F)c(F)c(F)c7F)c7ccc4[nH]7)C=C6)C=C5)cc3)CC2=O)C1
REMARK SMILES IDX 15 1 14 2 13 3 11 4 12 5 10 7 8 8 9 9 84 10 83 11 85 12 7 13
REMARK SMILES IDX 6 14 1 15 2 16 3 17 86 18 4 20 5 21 16 22 17 23 18 24 19 26
REMARK SMILES IDX 20 27 21 28 82 29 22 30 81 31 23 32 24 33 25 34 75 35 26 36
REMARK SMILES IDX 80 37 74 38 76 39 27 40 79 41 73 42 72 43 28 45 60 46 40 47
REMARK SMILES IDX 59 48 41 49 44 50 58 51 77 52 42 53 43 54 57 56 78 57 45 58
REMARK SMILES IDX 29 59 30 60 38 61 31 62 32 63 36 64 39 65 33 66 34 67 37 68
REMARK SMILES IDX 35 69 61 70 62 71 70 72 63 73 64 74 68 75 71 76 65 77 66 78
REMARK SMILES IDX 69 79 67 80 46 81 47 82 55 83 48 84 49 85 53 86 56 87 50 88
REMARK SMILES IDX 51 89 54 90 52 91
REMARK H PARENT 13 6 2 19 17 25 76 44 44 55
REMARK Flexibility Score: inf
ROOT
ATOM      1  C   UNL A   1      31.516  32.028  26.770  1.00  0.00     0.042 C 
ENDROOT
BRANCH   1   2
ATOM      2  C   UNL A   1      31.796  30.550  26.508  1.00  0.00     0.117 C 
BRANCH   2   3
ATOM      3  N   UNL A   1      31.159  30.074  25.296  1.00  0.00    -0.356 N 
ATOM      4  C   UNL A   1      31.628  29.386  24.226  1.00  0.00     0.225 C 
ATOM      5  O   UNL A   1      30.797  29.097  23.357  1.00  0.00    -0.275 OA
ATOM      6  H   UNL A   1      30.201  30.292  25.239  1.00  0.00     0.163 HD
BRANCH   4   7
ATOM      7  C   UNL A   1      33.078  28.957  24.040  1.00  0.00     0.107 C 
ATOM      8  N   UNL A   1      33.624  26.684  24.015  1.00  0.00    -0.339 N 
ATOM      9  C   UNL A   1      33.520  27.805  24.917  1.00  0.00     0.133 C 
ATOM     10  C   UNL A   1      33.652  27.068  22.684  1.00  0.00     0.223 C 
ATOM     11  C   UNL A   1      33.453  28.561  22.616  1.00  0.00     0.115 C 
ATOM     12  O   UNL A   1      33.767  26.327  21.726  1.00  0.00    -0.275 OA
BRANCH   8  13
ATOM     13  C   UNL A   1      33.536  25.301  24.456  1.00  0.00     0.157 C 
BRANCH  13  14
ATOM     14  C   UNL A   1      32.695  25.034  25.710  1.00  0.00     0.192 C 
ATOM     15  C   UNL A   1      30.654  23.703  23.501  1.00  0.00     0.332 C 
ATOM     16  N   UNL A   1      30.561  23.804  24.949  1.00  0.00    -0.333 N 
ATOM     17  C   UNL A   1      31.120  22.632  25.641  1.00  0.00     0.290 C 
ATOM     18  C   UNL A   1      31.162  25.033  25.502  1.00  0.00     0.296 C 
ATOM     19  H   UNL A   1      29.556  23.844  25.125  1.00  0.00     0.348 HD
ATOM     20  C   UNL A   1      32.651  22.633  25.714  1.00  0.00     0.222 C 
ATOM     21  O   UNL A   1      33.144  23.818  26.351  1.00  0.00    -0.365 OA
ENDBRANCH  13  14
ENDBRANCH   8  13
ENDBRANCH   4   7
ENDBRANCH   2   3
ENDBRANCH   1   2
BRANCH   1  22
ATOM     22  C   UNL A   1      32.782  32.866  26.876  1.00  0.00     0.118 C 
BRANCH  22  23
ATOM     23  N   UNL A   1      32.540  34.107  27.598  1.00  0.00    -0.352 N 
ATOM     24  C   UNL A   1      33.070  34.589  28.764  1.00  0.00     0.251 C 
ATOM     25  H   UNL A   1      31.881  34.704  27.174  1.00  0.00     0.163 HD
ATOM     26  O   UNL A   1      32.528  35.542  29.316  1.00  0.00    -0.269 OA
BRANCH  24  27
ATOM     27  C   UNL A   1      34.278  33.985  29.364  1.00  0.00     0.039 A 
ATOM     28  C   UNL A   1      34.112  32.952  30.290  1.00  0.00     0.014 A 
ATOM     29  C   UNL A   1      35.560  34.464  29.079  1.00  0.00     0.014 A 
ATOM     30  C   UNL A   1      35.228  32.380  30.898  1.00  0.00     0.010 A 
ATOM     31  C   UNL A   1      36.677  33.823  29.605  1.00  0.00     0.010 A 
ATOM     32  C   UNL A   1      36.523  32.788  30.535  1.00  0.00    -0.014 A 
BRANCH  32  33
ATOM     33  C   UNL A   1      37.712  32.133  31.130  1.00  0.00     0.031 A 
ATOM     34  C   UNL A   1      38.176  32.493  32.513  1.00  0.00     0.074 A 
ATOM     35  C   UNL A   1      38.386  31.224  30.399  1.00  0.00     0.049 A 
ATOM     36  N   UNL A   1      39.176  32.001  33.204  1.00  0.00    -0.248 NA
ATOM     37  C   UNL A   1      37.444  33.565  33.206  1.00  0.00     0.031 C 
ATOM     38  C   UNL A   1      38.067  30.846  29.020  1.00  0.00     0.029 A 
ATOM     39  N   UNL A   1      39.471  30.446  30.713  1.00  0.00    -0.354 N 
ATOM     40  C   UNL A   1      39.192  32.705  34.402  1.00  0.00     0.074 A 
ATOM     41  C   UNL A   1      38.150  33.705  34.318  1.00  0.00     0.031 C 
ATOM     42  C   UNL A   1      38.903  29.874  28.625  1.00  0.00     0.029 A 
ATOM     43  C   UNL A   1      39.841  29.589  29.706  1.00  0.00     0.049 A 
ATOM     44  H   UNL A   1      39.939  30.497  31.578  1.00  0.00     0.167 HD
ATOM     45  C   UNL A   1      39.984  32.515  35.483  1.00  0.00     0.037 A 
ATOM     46  C   UNL A   1      40.823  28.670  29.663  1.00  0.00     0.037 A 
ATOM     47  C   UNL A   1      41.010  31.506  35.560  1.00  0.00     0.049 A 
ATOM     48  C   UNL A   1      41.681  28.472  30.883  1.00  0.00     0.074 A 
ATOM     49  C   UNL A   1      41.836  31.192  36.624  1.00  0.00     0.029 A 
ATOM     50  N   UNL A   1      41.353  30.650  34.522  1.00  0.00    -0.354 N 
ATOM     51  N   UNL A   1      41.635  29.090  32.039  1.00  0.00    -0.248 NA
ATOM     52  C   UNL A   1      42.717  27.436  30.795  1.00  0.00     0.031 C 
ATOM     53  C   UNL A   1      42.718  30.187  36.212  1.00  0.00     0.029 A 
ATOM     54  C   UNL A   1      42.396  29.824  34.914  1.00  0.00     0.049 A 
ATOM     55  H   UNL A   1      40.920  30.632  33.638  1.00  0.00     0.167 HD
ATOM     56  C   UNL A   1      42.615  28.500  32.825  1.00  0.00     0.074 A 
ATOM     57  C   UNL A   1      43.217  27.456  32.020  1.00  0.00     0.031 C 
ATOM     58  C   UNL A   1      42.987  28.795  34.096  1.00  0.00     0.037 A 
BRANCH  45  59
ATOM     59  C   UNL A   1      39.773  33.414  36.670  1.00  0.00     0.064 A 
ATOM     60  C   UNL A   1      40.452  34.637  36.801  1.00  0.00     0.173 A 
ATOM     61  C   UNL A   1      38.857  33.067  37.675  1.00  0.00     0.173 A 
ATOM     62  F   UNL A   1      41.349  35.014  35.877  1.00  0.00    -0.203 F 
ATOM     63  C   UNL A   1      40.246  35.459  37.906  1.00  0.00     0.198 A 
ATOM     64  C   UNL A   1      38.627  33.908  38.760  1.00  0.00     0.198 A 
ATOM     65  F   UNL A   1      38.178  31.912  37.602  1.00  0.00    -0.203 F 
ATOM     66  F   UNL A   1      40.947  36.593  38.036  1.00  0.00    -0.200 F 
ATOM     67  C   UNL A   1      39.327  35.099  38.879  1.00  0.00     0.200 A 
ATOM     68  F   UNL A   1      37.729  33.565  39.694  1.00  0.00    -0.200 F 
ATOM     69  F   UNL A   1      39.123  35.895  39.938  1.00  0.00    -0.200 F 
ENDBRANCH  45  59
BRANCH  46  70
ATOM     70  C   UNL A   1      41.020  27.848  28.441  1.00  0.00     0.064 A 
ATOM     71  C   UNL A   1      41.888  28.263  27.422  1.00  0.00     0.173 A 
ATOM     72  C   UNL A   1      40.346  26.629  28.266  1.00  0.00     0.173 A 
ATOM     73  F   UNL A   1      42.545  29.427  27.536  1.00  0.00    -0.203 F 
ATOM     74  C   UNL A   1      42.052  27.509  26.261  1.00  0.00     0.198 A 
ATOM     75  C   UNL A   1      40.538  25.858  27.121  1.00  0.00     0.198 A 
ATOM     76  F   UNL A   1      39.514  26.179  29.215  1.00  0.00    -0.203 F 
ATOM     77  F   UNL A   1      42.845  27.958  25.280  1.00  0.00    -0.200 F 
ATOM     78  C   UNL A   1      41.381  26.305  26.115  1.00  0.00     0.200 A 
ATOM     79  F   UNL A   1      39.904  24.685  26.994  1.00  0.00    -0.200 F 
ATOM     80  F   UNL A   1      41.541  25.577  25.001  1.00  0.00    -0.200 F 
ENDBRANCH  46  70
BRANCH  58  81
ATOM     81  C   UNL A   1      44.074  27.949  34.698  1.00  0.00     0.064 A 
ATOM     82  C   UNL A   1      45.429  28.299  34.594  1.00  0.00     0.173 A 
ATOM     83  C   UNL A   1      43.754  26.766  35.382  1.00  0.00     0.173 A 
ATOM     84  F   UNL A   1      45.790  29.414  33.939  1.00  0.00    -0.203 F 
ATOM     85  C   UNL A   1      46.424  27.469  35.103  1.00  0.00     0.198 A 
ATOM     86  C   UNL A   1      44.749  25.960  35.926  1.00  0.00     0.198 A 
ATOM     87  F   UNL A   1      42.474  26.389  35.522  1.00  0.00    -0.203 F 
ATOM     88  F   UNL A   1      47.714  27.784  34.919  1.00  0.00    -0.200 F 
ATOM     89  C   UNL A   1      46.084  26.303  35.772  1.00  0.00     0.200 A 
ATOM     90  F   UNL A   1      44.418  24.844  36.589  1.00  0.00    -0.200 F 
ATOM     91  F   UNL A   1      47.043  25.503  36.256  1.00  0.00    -0.200 F 
ENDBRANCH  58  81
ENDBRANCH  32  33
ENDBRANCH  24  27
ENDBRANCH  22  23
ENDBRANCH   1  22
TORSDOF 12
ENDMDL
MODEL 2
REMARK VINA RESULT:     -11.9      4.046      9.066
REMARK SMILES C[N@H+]1CCO[C@@H](CN2C[C@H](C(=O)NCCCNC(=O)c3ccc(-c4c5nc(c(-c6c(F)c(F)c(F)c(F)c6F)c6ccc([nH]6)c(-c6c(F)c(F)c(F)c(F)c6F)c6nc(c(-c7c(F)c(F)c(F)c(F)c7F)c7ccc4[nH]7)C=C6)C=C5)cc3)CC2=O)C1
REMARK SMILES IDX 15 1 14 2 13 3 11 4 12 5 10 7 8 8 9 9 84 10 83 11 85 12 7 13
REMARK SMILES IDX 6 14 1 15 2 16 3 17 86 18 4 20 5 21 16 22 17 23 18 24 19 26
REMARK SMILES IDX 20 27 21 28 82 29 22 30 81 31 23 32 24 33 25 34 75 35 26 36
REMARK SMILES IDX 80 37 74 38 76 39 27 40 79 41 73 42 72 43 28 45 60 46 40 47
REMARK SMILES IDX 59 48 41 49 44 50 58 51 77 52 42 53 43 54 57 56 78 57 45 58
REMARK SMILES IDX 29 59 30 60 38 61 31 62 32 63 36 64 39 65 33 66 34 67 37 68
REMARK SMILES IDX 35 69 61 70 62 71 70 72 63 73 64 74 68 75 71 76 65 77 66 78
REMARK SMILES IDX 69 79 67 80 46 81 47 82 55 83 48 84 49 85 53 86 56 87 50 88
REMARK SMILES IDX 51 89 54 90 52 91
REMARK H PARENT 13 6 2 19 17 25 76 44 44 55
REMARK Flexibility Score: inf
ROOT
ATOM      1  C   UNL A   1      35.448  23.797  26.059  1.00  0.00     0.042 C 
ENDROOT
BRANCH   1   2
ATOM      2  C   UNL A   1      34.105  23.734  25.336  1.00  0.00     0.117 C 
BRANCH   2   3
ATOM      3  N   UNL A   1      33.060  24.442  26.049  1.00  0.00    -0.356 N 
ATOM      4  C   UNL A   1      32.552  25.692  25.923  1.00  0.00     0.225 C 
ATOM      5  O   UNL A   1      31.618  25.980  26.680  1.00  0.00    -0.275 OA
ATOM      6  H   UNL A   1      32.639  23.912  26.763  1.00  0.00     0.163 HD
BRANCH   4   7
ATOM      7  C   UNL A   1      33.047  26.731  24.925  1.00  0.00     0.107 C 
ATOM      8  N   UNL A   1      31.687  28.547  24.364  1.00  0.00    -0.339 N 
ATOM      9  C   UNL A   1      32.009  27.210  23.933  1.00  0.00     0.133 C 
ATOM     10  C   UNL A   1      32.622  29.066  25.245  1.00  0.00     0.223 C 
ATOM     11  C   UNL A   1      33.636  27.992  25.549  1.00  0.00     0.115 C 
ATOM     12  O   UNL A   1      32.607  30.180  25.734  1.00  0.00    -0.275 OA
BRANCH   8  13
ATOM     13  C   UNL A   1      30.430  29.204  24.040  1.00  0.00     0.157 C 
BRANCH  13  14
ATOM     14  C   UNL A   1      29.617  28.598  22.890  1.00  0.00     0.192 C 
ATOM     15  C   UNL A   1      27.571  31.059  23.646  1.00  0.00     0.332 C 
ATOM     16  N   UNL A   1      27.500  30.042  22.609  1.00  0.00    -0.333 N 
ATOM     17  C   UNL A   1      28.099  30.479  21.338  1.00  0.00     0.290 C 
ATOM     18  C   UNL A   1      28.082  28.745  23.003  1.00  0.00     0.296 C 
ATOM     19  H   UNL A   1      26.499  29.904  22.472  1.00  0.00     0.348 HD
ATOM     20  C   UNL A   1      29.631  30.421  21.325  1.00  0.00     0.222 C 
ATOM     21  O   UNL A   1      30.107  29.103  21.626  1.00  0.00    -0.365 OA
ENDBRANCH  13  14
ENDBRANCH   8  13
ENDBRANCH   4   7
ENDBRANCH   2   3
ENDBRANCH   1   2
BRANCH   1  22
ATOM     22  C   UNL A   1      36.640  23.722  25.116  1.00  0.00     0.118 C 
BRANCH  22  23
ATOM     23  N   UNL A   1      37.602  22.719  25.550  1.00  0.00    -0.352 N 
ATOM     24  C   UNL A   1      38.831  22.844  26.139  1.00  0.00     0.251 C 
ATOM     25  H   UNL A   1      37.319  21.788  25.393  1.00  0.00     0.163 HD
ATOM     26  O   UNL A   1      39.574  21.868  26.181  1.00  0.00    -0.269 OA
BRANCH  24  27
ATOM     27  C   UNL A   1      39.273  24.127  26.723  1.00  0.00     0.039 A 
ATOM     28  C   UNL A   1      38.940  24.401  28.052  1.00  0.00     0.014 A 
ATOM     29  C   UNL A   1      39.950  25.087  25.965  1.00  0.00     0.014 A 
ATOM     30  C   UNL A   1      39.316  25.614  28.626  1.00  0.00     0.010 A 
ATOM     31  C   UNL A   1      40.417  26.251  26.568  1.00  0.00     0.010 A 
ATOM     32  C   UNL A   1      40.087  26.536  27.898  1.00  0.00    -0.014 A 
BRANCH  32  33
ATOM     33  C   UNL A   1      40.547  27.797  28.529  1.00  0.00     0.031 A 
ATOM     34  C   UNL A   1      41.993  27.995  28.885  1.00  0.00     0.074 A 
ATOM     35  C   UNL A   1      39.640  28.754  28.802  1.00  0.00     0.049 A 
ATOM     36  N   UNL A   1      42.579  29.042  29.413  1.00  0.00    -0.248 NA
ATOM     37  C   UNL A   1      42.902  26.862  28.644  1.00  0.00     0.031 C 
ATOM     38  C   UNL A   1      38.198  28.644  28.563  1.00  0.00     0.029 A 
ATOM     39  N   UNL A   1      39.793  30.011  29.329  1.00  0.00    -0.354 N 
ATOM     40  C   UNL A   1      43.914  28.690  29.570  1.00  0.00     0.074 A 
ATOM     41  C   UNL A   1      44.040  27.312  29.149  1.00  0.00     0.031 C 
ATOM     42  C   UNL A   1      37.607  29.802  28.893  1.00  0.00     0.029 A 
ATOM     43  C   UNL A   1      38.619  30.720  29.404  1.00  0.00     0.049 A 
ATOM     44  H   UNL A   1      40.661  30.370  29.623  1.00  0.00     0.167 HD
ATOM     45  C   UNL A   1      44.944  29.457  29.999  1.00  0.00     0.037 A 
ATOM     46  C   UNL A   1      38.388  31.974  29.832  1.00  0.00     0.037 A 
ATOM     47  C   UNL A   1      44.808  30.832  30.404  1.00  0.00     0.049 A 
ATOM     48  C   UNL A   1      39.552  32.807  30.293  1.00  0.00     0.074 A 
ATOM     49  C   UNL A   1      45.792  31.717  30.807  1.00  0.00     0.029 A 
ATOM     50  N   UNL A   1      43.604  31.522  30.462  1.00  0.00    -0.354 N 
ATOM     51  N   UNL A   1      40.823  32.490  30.363  1.00  0.00    -0.248 NA
ATOM     52  C   UNL A   1      39.250  34.179  30.720  1.00  0.00     0.031 C 
ATOM     53  C   UNL A   1      45.178  32.922  31.165  1.00  0.00     0.029 A 
ATOM     54  C   UNL A   1      43.818  32.814  30.918  1.00  0.00     0.049 A 
ATOM     55  H   UNL A   1      42.727  31.148  30.216  1.00  0.00     0.167 HD
ATOM     56  C   UNL A   1      41.476  33.629  30.813  1.00  0.00     0.074 A 
ATOM     57  C   UNL A   1      40.460  34.651  30.971  1.00  0.00     0.031 C 
ATOM     58  C   UNL A   1      42.794  33.815  31.076  1.00  0.00     0.037 A 
BRANCH  45  59
ATOM     59  C   UNL A   1      46.309  28.826  30.053  1.00  0.00     0.064 A 
ATOM     60  C   UNL A   1      46.775  28.170  31.204  1.00  0.00     0.173 A 
ATOM     61  C   UNL A   1      47.150  28.848  28.931  1.00  0.00     0.173 A 
ATOM     62  F   UNL A   1      46.018  28.129  32.312  1.00  0.00    -0.203 F 
ATOM     63  C   UNL A   1      48.040  27.591  31.239  1.00  0.00     0.198 A 
ATOM     64  C   UNL A   1      48.400  28.237  28.956  1.00  0.00     0.198 A 
ATOM     65  F   UNL A   1      46.757  29.459  27.802  1.00  0.00    -0.203 F 
ATOM     66  F   UNL A   1      48.484  27.020  32.367  1.00  0.00    -0.200 F 
ATOM     67  C   UNL A   1      48.848  27.616  30.113  1.00  0.00     0.200 A 
ATOM     68  F   UNL A   1      49.175  28.251  27.863  1.00  0.00    -0.200 F 
ATOM     69  F   UNL A   1      50.063  27.050  30.144  1.00  0.00    -0.200 F 
ENDBRANCH  45  59
BRANCH  46  70
ATOM     70  C   UNL A   1      37.008  32.527  29.808  1.00  0.00     0.064 A 
ATOM     71  C   UNL A   1      36.527  33.225  28.692  1.00  0.00     0.173 A 
ATOM     72  C   UNL A   1      36.141  32.368  30.900  1.00  0.00     0.173 A 
ATOM     73  F   UNL A   1      37.322  33.415  27.628  1.00  0.00    -0.203 F 
ATOM     74  C   UNL A   1      35.245  33.770  28.679  1.00  0.00     0.198 A 
ATOM     75  C   UNL A   1      34.846  32.883  30.872  1.00  0.00     0.198 A 
ATOM     76  F   UNL A   1      36.545  31.698  31.988  1.00  0.00    -0.203 F 
ATOM     77  F   UNL A   1      34.831  34.480  27.620  1.00  0.00    -0.200 F 
ATOM     78  C   UNL A   1      34.403  33.593  29.767  1.00  0.00     0.200 A 
ATOM     79  F   UNL A   1      34.030  32.691  31.917  1.00  0.00    -0.200 F 
ATOM     80  F   UNL A   1      33.169  34.113  29.753  1.00  0.00    -0.200 F 
ENDBRANCH  46  70
BRANCH  58  81
ATOM     81  C   UNL A   1      43.208  35.187  31.527  1.00  0.00     0.064 A 
ATOM     82  C   UNL A   1      43.684  36.153  30.626  1.00  0.00     0.173 A 
ATOM     83  C   UNL A   1      43.134  35.540  32.884  1.00  0.00     0.173 A 
ATOM     84  F   UNL A   1      43.785  35.863  29.319  1.00  0.00    -0.203 F 
ATOM     85  C   UNL A   1      44.122  37.396  31.073  1.00  0.00     0.198 A 
ATOM     86  C   UNL A   1      43.534  36.798  33.321  1.00  0.00     0.198 A 
ATOM     87  F   UNL A   1      42.676  34.661  33.788  1.00  0.00    -0.203 F 
ATOM     88  F   UNL A   1      44.648  38.269  30.204  1.00  0.00    -0.200 F 
ATOM     89  C   UNL A   1      44.043  37.719  32.419  1.00  0.00     0.200 A 
ATOM     90  F   UNL A   1      43.440  37.117  34.620  1.00  0.00    -0.200 F 
ATOM     91  F   UNL A   1      44.471  38.915  32.847  1.00  0.00    -0.200 F 
ENDBRANCH  58  81
ENDBRANCH  32  33
ENDBRANCH  24  27
ENDBRANCH  22  23
ENDBRANCH   1  22
TORSDOF 12
ENDMDL
MODEL 3
REMARK VINA RESULT:     -11.8      1.236      1.747
REMARK SMILES C[N@H+]1CCO[C@@H](CN2C[C@H](C(=O)NCCCNC(=O)c3ccc(-c4c5nc(c(-c6c(F)c(F)c(F)c(F)c6F)c6ccc([nH]6)c(-c6c(F)c(F)c(F)c(F)c6F)c6nc(c(-c7c(F)c(F)c(F)c(F)c7F)c7ccc4[nH]7)C=C6)C=C5)cc3)CC2=O)C1
REMARK SMILES IDX 15 1 14 2 13 3 11 4 12 5 10 7 8 8 9 9 84 10 83 11 85 12 7 13
REMARK SMILES IDX 6 14 1 15 2 16 3 17 86 18 4 20 5 21 16 22 17 23 18 24 19 26
REMARK SMILES IDX 20 27 21 28 82 29 22 30 81 31 23 32 24 33 25 34 75 35 26 36
REMARK SMILES IDX 80 37 74 38 76 39 27 40 79 41 73 42 72 43 28 45 60 46 40 47
REMARK SMILES IDX 59 48 41 49 44 50 58 51 77 52 42 53 43 54 57 56 78 57 45 58
REMARK SMILES IDX 29 59 30 60 38 61 31 62 32 63 36 64 39 65 33 66 34 67 37 68
REMARK SMILES IDX 35 69 61 70 62 71 70 72 63 73 64 74 68 75 71 76 65 77 66 78
REMARK SMILES IDX 69 79 67 80 46 81 47 82 55 83 48 84 49 85 53 86 56 87 50 88
REMARK SMILES IDX 51 89 54 90 52 91
REMARK H PARENT 13 6 2 19 17 25 76 44 44 55
REMARK Flexibility Score: inf
ROOT
ATOM      1  C   UNL A   1      31.299  31.861  26.496  1.00  0.00     0.042 C 
ENDROOT
BRANCH   1   2
ATOM      2  C   UNL A   1      31.417  30.574  25.683  1.00  0.00     0.117 C 
BRANCH   2   3
ATOM      3  N   UNL A   1      32.572  29.785  26.063  1.00  0.00    -0.356 N 
ATOM      4  C   UNL A   1      32.857  28.465  25.944  1.00  0.00     0.225 C 
ATOM      5  O   UNL A   1      33.972  28.110  26.345  1.00  0.00    -0.275 OA
ATOM      6  H   UNL A   1      33.286  30.309  26.491  1.00  0.00     0.163 HD
BRANCH   4   7
ATOM      7  C   UNL A   1      31.912  27.424  25.356  1.00  0.00     0.107 C 
ATOM      8  N   UNL A   1      32.543  25.174  25.308  1.00  0.00    -0.339 N 
ATOM      9  C   UNL A   1      32.577  26.368  24.501  1.00  0.00     0.133 C 
ATOM     10  C   UNL A   1      31.652  25.268  26.365  1.00  0.00     0.223 C 
ATOM     11  C   UNL A   1      31.078  26.663  26.381  1.00  0.00     0.115 C 
ATOM     12  O   UNL A   1      31.407  24.396  27.177  1.00  0.00    -0.275 OA
BRANCH   8  13
ATOM     13  C   UNL A   1      33.468  24.067  25.127  1.00  0.00     0.157 C 
BRANCH  13  14
ATOM     14  C   UNL A   1      34.641  23.986  26.112  1.00  0.00     0.192 C 
ATOM     15  C   UNL A   1      34.160  20.757  25.709  1.00  0.00     0.332 C 
ATOM     16  N   UNL A   1      35.145  21.486  26.491  1.00  0.00    -0.333 N 
ATOM     17  C   UNL A   1      36.391  21.737  25.749  1.00  0.00     0.290 C 
ATOM     18  C   UNL A   1      34.644  22.756  27.050  1.00  0.00     0.296 C 
ATOM     19  H   UNL A   1      35.346  20.861  27.272  1.00  0.00     0.348 HD
ATOM     20  C   UNL A   1      36.292  22.895  24.750  1.00  0.00     0.222 C 
ATOM     21  O   UNL A   1      35.890  24.110  25.396  1.00  0.00    -0.365 OA
ENDBRANCH  13  14
ENDBRANCH   8  13
ENDBRANCH   4   7
ENDBRANCH   2   3
ENDBRANCH   1   2
BRANCH   1  22
ATOM     22  C   UNL A   1      32.630  32.335  27.062  1.00  0.00     0.118 C 
BRANCH  22  23
ATOM     23  N   UNL A   1      32.555  33.718  27.512  1.00  0.00    -0.352 N 
ATOM     24  C   UNL A   1      33.227  34.379  28.505  1.00  0.00     0.251 C 
ATOM     25  H   UNL A   1      31.911  34.274  27.016  1.00  0.00     0.163 HD
ATOM     26  O   UNL A   1      32.815  35.476  28.874  1.00  0.00    -0.269 OA
BRANCH  24  27
ATOM     27  C   UNL A   1      34.431  33.799  29.134  1.00  0.00     0.039 A 
ATOM     28  C   UNL A   1      34.261  32.790  30.085  1.00  0.00     0.014 A 
ATOM     29  C   UNL A   1      35.713  34.278  28.851  1.00  0.00     0.014 A 
ATOM     30  C   UNL A   1      35.373  32.241  30.721  1.00  0.00     0.010 A 
ATOM     31  C   UNL A   1      36.828  33.658  29.406  1.00  0.00     0.010 A 
ATOM     32  C   UNL A   1      36.670  32.648  30.362  1.00  0.00    -0.014 A 
BRANCH  32  33
ATOM     33  C   UNL A   1      37.856  32.016  30.987  1.00  0.00     0.031 A 
ATOM     34  C   UNL A   1      38.285  32.394  32.377  1.00  0.00     0.074 A 
ATOM     35  C   UNL A   1      38.559  31.112  30.279  1.00  0.00     0.049 A 
ATOM     36  N   UNL A   1      39.277  31.923  33.093  1.00  0.00    -0.248 NA
ATOM     37  C   UNL A   1      37.522  33.460  33.045  1.00  0.00     0.031 C 
ATOM     38  C   UNL A   1      38.275  30.717  28.896  1.00  0.00     0.029 A 
ATOM     39  N   UNL A   1      39.649  30.353  30.623  1.00  0.00    -0.354 N 
ATOM     40  C   UNL A   1      39.256  32.638  34.285  1.00  0.00     0.074 A 
ATOM     41  C   UNL A   1      38.201  33.621  34.170  1.00  0.00     0.031 C 
ATOM     42  C   UNL A   1      39.134  29.755  28.528  1.00  0.00     0.029 A 
ATOM     43  C   UNL A   1      40.053  29.494  29.631  1.00  0.00     0.049 A 
ATOM     44  H   UNL A   1      40.097  30.419  31.496  1.00  0.00     0.167 HD
ATOM     45  C   UNL A   1      40.028  32.468  35.384  1.00  0.00     0.037 A 
ATOM     46  C   UNL A   1      41.050  28.590  29.617  1.00  0.00     0.037 A 
ATOM     47  C   UNL A   1      41.067  31.477  35.491  1.00  0.00     0.049 A 
ATOM     48  C   UNL A   1      41.885  28.416  30.856  1.00  0.00     0.074 A 
ATOM     49  C   UNL A   1      41.875  31.185  36.575  1.00  0.00     0.029 A 
ATOM     50  N   UNL A   1      41.446  30.618  34.468  1.00  0.00    -0.354 N 
ATOM     51  N   UNL A   1      41.805  29.042  32.005  1.00  0.00    -0.248 NA
ATOM     52  C   UNL A   1      42.938  27.395  30.798  1.00  0.00     0.031 C 
ATOM     53  C   UNL A   1      42.781  30.190  36.191  1.00  0.00     0.029 A 
ATOM     54  C   UNL A   1      42.492  29.812  34.889  1.00  0.00     0.049 A 
ATOM     55  H   UNL A   1      41.032  30.586  33.576  1.00  0.00     0.167 HD
ATOM     56  C   UNL A   1      42.777  28.474  32.817  1.00  0.00     0.074 A 
ATOM     57  C   UNL A   1      43.412  27.433  32.034  1.00  0.00     0.031 C 
ATOM     58  C   UNL A   1      43.117  28.785  34.093  1.00  0.00     0.037 A 
BRANCH  45  59
ATOM     59  C   UNL A   1      39.778  33.374  36.559  1.00  0.00     0.064 A 
ATOM     60  C   UNL A   1      40.457  34.595  36.709  1.00  0.00     0.173 A 
ATOM     61  C   UNL A   1      38.825  33.035  37.531  1.00  0.00     0.173 A 
ATOM     62  F   UNL A   1      41.389  34.964  35.816  1.00  0.00    -0.203 F 
ATOM     63  C   UNL A   1      40.214  35.423  37.802  1.00  0.00     0.198 A 
ATOM     64  C   UNL A   1      38.559  33.882  38.604  1.00  0.00     0.198 A 
ATOM     65  F   UNL A   1      38.143  31.883  37.438  1.00  0.00    -0.203 F 
ATOM     66  F   UNL A   1      40.915  36.555  37.952  1.00  0.00    -0.200 F 
ATOM     67  C   UNL A   1      39.259  35.071  38.743  1.00  0.00     0.200 A 
ATOM     68  F   UNL A   1      37.625  33.547  39.506  1.00  0.00    -0.200 F 
ATOM     69  F   UNL A   1      39.020  35.873  39.790  1.00  0.00    -0.200 F 
ENDBRANCH  45  59
BRANCH  46  70
ATOM     70  C   UNL A   1      41.286  27.761  28.406  1.00  0.00     0.064 A 
ATOM     71  C   UNL A   1      42.179  28.175  27.408  1.00  0.00     0.173 A 
ATOM     72  C   UNL A   1      40.625  26.537  28.220  1.00  0.00     0.173 A 
ATOM     73  F   UNL A   1      42.826  29.344  27.532  1.00  0.00    -0.203 F 
ATOM     74  C   UNL A   1      42.379  27.415  26.258  1.00  0.00     0.198 A 
ATOM     75  C   UNL A   1      40.852  25.760  27.087  1.00  0.00     0.198 A 
ATOM     76  F   UNL A   1      39.769  26.088  29.150  1.00  0.00    -0.203 F 
ATOM     77  F   UNL A   1      43.197  27.862  25.295  1.00  0.00    -0.200 F 
ATOM     78  C   UNL A   1      41.720  26.205  26.101  1.00  0.00     0.200 A 
ATOM     79  F   UNL A   1      40.229  24.582  26.950  1.00  0.00    -0.200 F 
ATOM     80  F   UNL A   1      41.916  25.471  24.997  1.00  0.00    -0.200 F 
ENDBRANCH  46  70
BRANCH  58  81
ATOM     81  C   UNL A   1      44.203  27.961  34.725  1.00  0.00     0.064 A 
ATOM     82  C   UNL A   1      45.553  28.344  34.668  1.00  0.00     0.173 A 
ATOM     83  C   UNL A   1      43.890  26.765  35.391  1.00  0.00     0.173 A 
ATOM     84  F   UNL A   1      45.908  29.473  34.033  1.00  0.00    -0.203 F 
ATOM     85  C   UNL A   1      46.550  27.535  35.205  1.00  0.00     0.198 A 
ATOM     86  C   UNL A   1      44.886  25.980  35.962  1.00  0.00     0.198 A 
ATOM     87  F   UNL A   1      42.616  26.357  35.485  1.00  0.00    -0.203 F 
ATOM     88  F   UNL A   1      47.837  27.882  35.065  1.00  0.00    -0.200 F 
ATOM     89  C   UNL A   1      46.216  26.356  35.854  1.00  0.00     0.200 A 
ATOM     90  F   UNL A   1      44.561  24.851  36.606  1.00  0.00    -0.200 F 
ATOM     91  F   UNL A   1      47.179  25.576  36.364  1.00  0.00    -0.200 F 
ENDBRANCH  58  81
ENDBRANCH  32  33
ENDBRANCH  24  27
ENDBRANCH  22  23
ENDBRANCH   1  22
TORSDOF 12
ENDMDL
