MODEL 1
REMARK VINA RESULT:     -10.6      0.000      0.000
REMARK SMILES CCCCC[NH2+][C@](C)(C(=O)NCCCNC(=O)c1ccc(-c2c3nc(c(-c4c(F)c(F)c(F)c(F)c4F)c4ccc([nH]4)c(-c4c(F)c(F)c(F)c(F)c4F)c4nc(c(-c5c(F)c(F)c(F)c(F)c5F)c5ccc2[nH]5)C=C4)C=C3)cc1)C(F)(F)F
REMARK SMILES IDX 9 1 10 2 11 3 7 5 8 6 6 7 5 10 4 11 3 12 2 13 1 14 81 15
REMARK SMILES IDX 82 16 83 17 84 18 12 19 13 20 14 21 15 22 16 23 17 25 18 26
REMARK SMILES IDX 19 27 80 28 20 29 79 30 21 31 22 32 23 33 73 34 24 35 78 36
REMARK SMILES IDX 72 37 74 38 25 39 77 40 71 41 70 42 26 44 58 45 38 46 57 47
REMARK SMILES IDX 39 48 42 49 56 50 75 51 40 52 41 53 55 55 76 56 43 57 27 58
REMARK SMILES IDX 28 59 36 60 29 61 30 62 34 63 37 64 31 65 32 66 35 67 33 68
REMARK SMILES IDX 59 69 60 70 68 71 61 72 62 73 66 74 69 75 63 76 64 77 67 78
REMARK SMILES IDX 65 79 44 80 45 81 53 82 46 83 47 84 51 85 54 86 48 87 49 88
REMARK SMILES IDX 52 89 50 90
REMARK H PARENT 11 4 6 8 6 9 15 24 74 43 42 54
REMARK Flexibility Score: inf
ROOT
ATOM      1  C   UNL A   1      31.661  28.430  26.982  1.00  0.00     0.290 C 
ATOM      2  O   UNL A   1      31.420  27.836  28.037  1.00  0.00    -0.267 OA
ATOM      3  N   UNL A   1      31.433  29.780  27.011  1.00  0.00    -0.350 N 
ATOM      4  H   UNL A   1      31.024  30.103  27.846  1.00  0.00     0.163 HD
ENDROOT
BRANCH   1   5
ATOM      5  C   UNL A   1      32.093  27.688  25.692  1.00  0.00     0.268 C 
ATOM      6  C   UNL A   1      31.701  26.206  25.846  1.00  0.00     0.101 C 
BRANCH   5   7
ATOM      7  N   UNL A   1      31.487  28.399  24.506  1.00  0.00    -0.326 N 
ATOM      8  H   UNL A   1      30.987  29.216  24.855  1.00  0.00     0.347 HD
ATOM      9  H   UNL A   1      32.272  28.614  23.890  1.00  0.00     0.347 HD
BRANCH   7  10
ATOM     10  C   UNL A   1      30.559  27.625  23.692  1.00  0.00     0.261 C 
BRANCH  10  11
ATOM     11  C   UNL A   1      29.891  28.522  22.644  1.00  0.00     0.061 C 
BRANCH  11  12
ATOM     12  C   UNL A   1      28.650  29.265  23.143  1.00  0.00     0.006 C 
BRANCH  12  13
ATOM     13  C   UNL A   1      28.880  30.737  23.505  1.00  0.00    -0.003 C 
ATOM     14  C   UNL A   1      27.880  31.692  22.868  1.00  0.00     0.004 C 
ENDBRANCH  12  13
ENDBRANCH  11  12
ENDBRANCH  10  11
ENDBRANCH   7  10
ENDBRANCH   5   7
BRANCH   5  15
ATOM     15  C   UNL A   1      33.648  27.752  25.649  1.00  0.00     0.453 C 
ATOM     16  F   UNL A   1      34.213  28.112  26.819  1.00  0.00    -0.164 F 
ATOM     17  F   UNL A   1      34.144  26.518  25.347  1.00  0.00    -0.164 F 
ATOM     18  F   UNL A   1      34.095  28.578  24.674  1.00  0.00    -0.164 F 
ENDBRANCH   5  15
ENDBRANCH   1   5
BRANCH   3  19
ATOM     19  C   UNL A   1      31.686  30.822  26.031  1.00  0.00     0.118 C 
BRANCH  19  20
ATOM     20  C   UNL A   1      31.453  32.220  26.584  1.00  0.00     0.042 C 
BRANCH  20  21
ATOM     21  C   UNL A   1      32.689  32.814  27.240  1.00  0.00     0.118 C 
BRANCH  21  22
ATOM     22  N   UNL A   1      32.486  34.200  27.646  1.00  0.00    -0.352 N 
ATOM     23  C   UNL A   1      33.052  34.919  28.668  1.00  0.00     0.251 C 
ATOM     24  H   UNL A   1      31.839  34.700  27.098  1.00  0.00     0.163 HD
ATOM     25  O   UNL A   1      32.585  36.012  28.973  1.00  0.00    -0.269 OA
BRANCH  23  26
ATOM     26  C   UNL A   1      34.210  34.380  29.411  1.00  0.00     0.039 A 
ATOM     27  C   UNL A   1      33.981  33.650  30.582  1.00  0.00     0.014 A 
ATOM     28  C   UNL A   1      35.516  34.612  28.977  1.00  0.00     0.014 A 
ATOM     29  C   UNL A   1      35.059  33.101  31.277  1.00  0.00     0.010 A 
ATOM     30  C   UNL A   1      36.581  33.984  29.613  1.00  0.00     0.010 A 
ATOM     31  C   UNL A   1      36.365  33.231  30.777  1.00  0.00    -0.014 A 
BRANCH  31  32
ATOM     32  C   UNL A   1      37.523  32.608  31.462  1.00  0.00     0.031 A 
ATOM     33  C   UNL A   1      38.256  31.466  30.812  1.00  0.00     0.074 A 
ATOM     34  C   UNL A   1      37.870  33.023  32.697  1.00  0.00     0.049 A 
ATOM     35  N   UNL A   1      39.229  30.730  31.284  1.00  0.00    -0.248 NA
ATOM     36  C   UNL A   1      37.814  31.080  29.462  1.00  0.00     0.031 C 
ATOM     37  C   UNL A   1      37.204  34.087  33.449  1.00  0.00     0.029 A 
ATOM     38  N   UNL A   1      38.861  32.590  33.541  1.00  0.00    -0.354 N 
ATOM     39  C   UNL A   1      39.501  29.788  30.300  1.00  0.00     0.074 A 
ATOM     40  C   UNL A   1      38.553  30.006  29.231  1.00  0.00     0.031 C 
ATOM     41  C   UNL A   1      37.820  34.241  34.633  1.00  0.00     0.029 A 
ATOM     42  C   UNL A   1      38.895  33.259  34.739  1.00  0.00     0.049 A 
ATOM     43  H   UNL A   1      39.488  31.867  33.310  1.00  0.00     0.167 HD
ATOM     44  C   UNL A   1      40.471  28.845  30.279  1.00  0.00     0.037 A 
ATOM     45  C   UNL A   1      39.697  33.092  35.808  1.00  0.00     0.037 A 
ATOM     46  C   UNL A   1      41.432  28.653  31.333  1.00  0.00     0.049 A 
ATOM     47  C   UNL A   1      40.765  32.032  35.759  1.00  0.00     0.074 A 
ATOM     48  C   UNL A   1      42.490  27.764  31.386  1.00  0.00     0.029 A 
ATOM     49  N   UNL A   1      41.449  29.368  32.522  1.00  0.00    -0.354 N 
ATOM     50  N   UNL A   1      41.054  31.191  34.797  1.00  0.00    -0.248 NA
ATOM     51  C   UNL A   1      41.624  31.904  36.945  1.00  0.00     0.031 C 
ATOM     52  C   UNL A   1      43.122  27.909  32.626  1.00  0.00     0.029 A 
ATOM     53  C   UNL A   1      42.490  28.927  33.323  1.00  0.00     0.049 A 
ATOM     54  H   UNL A   1      40.817  30.083  32.762  1.00  0.00     0.167 HD
ATOM     55  C   UNL A   1      42.144  30.457  35.245  1.00  0.00     0.074 A 
ATOM     56  C   UNL A   1      42.475  30.964  36.560  1.00  0.00     0.031 C 
ATOM     57  C   UNL A   1      42.812  29.453  34.625  1.00  0.00     0.037 A 
BRANCH  44  58
ATOM     58  C   UNL A   1      40.552  27.954  29.073  1.00  0.00     0.064 A 
ATOM     59  C   UNL A   1      39.800  26.772  28.981  1.00  0.00     0.173 A 
ATOM     60  C   UNL A   1      41.356  28.306  27.979  1.00  0.00     0.173 A 
ATOM     61  F   UNL A   1      39.026  26.383  30.005  1.00  0.00    -0.203 F 
ATOM     62  C   UNL A   1      39.871  25.963  27.850  1.00  0.00     0.198 A 
ATOM     63  C   UNL A   1      41.399  27.512  26.836  1.00  0.00     0.198 A 
ATOM     64  F   UNL A   1      42.091  29.428  28.012  1.00  0.00    -0.203 F 
ATOM     65  F   UNL A   1      39.182  24.815  27.805  1.00  0.00    -0.200 F 
ATOM     66  C   UNL A   1      40.664  26.338  26.775  1.00  0.00     0.200 A 
ATOM     67  F   UNL A   1      42.155  27.881  25.793  1.00  0.00    -0.200 F 
ATOM     68  F   UNL A   1      40.722  25.564  25.683  1.00  0.00    -0.200 F 
ENDBRANCH  44  58
BRANCH  45  69
ATOM     69  C   UNL A   1      39.540  33.960  37.004  1.00  0.00     0.064 A 
ATOM     70  C   UNL A   1      40.154  35.219  37.066  1.00  0.00     0.173 A 
ATOM     71  C   UNL A   1      38.789  33.546  38.115  1.00  0.00     0.173 A 
ATOM     72  F   UNL A   1      40.897  35.652  36.037  1.00  0.00    -0.203 F 
ATOM     73  C   UNL A   1      40.046  36.019  38.202  1.00  0.00     0.198 A 
ATOM     74  C   UNL A   1      38.657  34.360  39.237  1.00  0.00     0.198 A 
ATOM     75  F   UNL A   1      38.175  32.353  38.105  1.00  0.00    -0.203 F 
ATOM     76  F   UNL A   1      40.686  37.194  38.254  1.00  0.00    -0.200 F 
ATOM     77  C   UNL A   1      39.293  35.590  39.285  1.00  0.00     0.200 A 
ATOM     78  F   UNL A   1      37.916  33.950  40.276  1.00  0.00    -0.200 F 
ATOM     79  F   UNL A   1      39.190  36.360  40.377  1.00  0.00    -0.200 F 
ENDBRANCH  45  69
BRANCH  57  80
ATOM     80  C   UNL A   1      43.992  28.866  35.342  1.00  0.00     0.064 A 
ATOM     81  C   UNL A   1      45.289  29.368  35.162  1.00  0.00     0.173 A 
ATOM     82  C   UNL A   1      43.814  27.812  36.252  1.00  0.00     0.173 A 
ATOM     83  F   UNL A   1      45.512  30.365  34.291  1.00  0.00    -0.203 F 
ATOM     84  C   UNL A   1      46.368  28.820  35.847  1.00  0.00     0.198 A 
ATOM     85  C   UNL A   1      44.892  27.288  36.959  1.00  0.00     0.198 A 
ATOM     86  F   UNL A   1      42.592  27.301  36.465  1.00  0.00    -0.203 F 
ATOM     87  F   UNL A   1      47.606  29.282  35.623  1.00  0.00    -0.200 F 
ATOM     88  C   UNL A   1      46.168  27.786  36.751  1.00  0.00     0.200 A 
ATOM     89  F   UNL A   1      44.694  26.300  37.843  1.00  0.00    -0.200 F 
ATOM     90  F   UNL A   1      47.208  27.264  37.416  1.00  0.00    -0.200 F 
ENDBRANCH  57  80
ENDBRANCH  31  32
ENDBRANCH  23  26
ENDBRANCH  21  22
ENDBRANCH  20  21
ENDBRANCH  19  20
ENDBRANCH   3  19
TORSDOF 16
ENDMDL
MODEL 2
REMARK VINA RESULT:     -10.6      5.525     10.301
REMARK SMILES CCCCC[NH2+][C@](C)(C(=O)NCCCNC(=O)c1ccc(-c2c3nc(c(-c4c(F)c(F)c(F)c(F)c4F)c4ccc([nH]4)c(-c4c(F)c(F)c(F)c(F)c4F)c4nc(c(-c5c(F)c(F)c(F)c(F)c5F)c5ccc2[nH]5)C=C4)C=C3)cc1)C(F)(F)F
REMARK SMILES IDX 9 1 10 2 11 3 7 5 8 6 6 7 5 10 4 11 3 12 2 13 1 14 81 15
REMARK SMILES IDX 82 16 83 17 84 18 12 19 13 20 14 21 15 22 16 23 17 25 18 26
REMARK SMILES IDX 19 27 80 28 20 29 79 30 21 31 22 32 23 33 73 34 24 35 78 36
REMARK SMILES IDX 72 37 74 38 25 39 77 40 71 41 70 42 26 44 58 45 38 46 57 47
REMARK SMILES IDX 39 48 42 49 56 50 75 51 40 52 41 53 55 55 76 56 43 57 27 58
REMARK SMILES IDX 28 59 36 60 29 61 30 62 34 63 37 64 31 65 32 66 35 67 33 68
REMARK SMILES IDX 59 69 60 70 68 71 61 72 62 73 66 74 69 75 63 76 64 77 67 78
REMARK SMILES IDX 65 79 44 80 45 81 53 82 46 83 47 84 51 85 54 86 48 87 49 88
REMARK SMILES IDX 52 89 50 90
REMARK H PARENT 11 4 6 8 6 9 15 24 74 43 42 54
REMARK Flexibility Score: inf
ROOT
ATOM      1  C   UNL A   1      43.456  23.397  25.153  1.00  0.00     0.290 C 
ATOM      2  O   UNL A   1      42.996  24.442  24.683  1.00  0.00    -0.267 OA
ATOM      3  N   UNL A   1      42.543  22.392  25.337  1.00  0.00    -0.350 N 
ATOM      4  H   UNL A   1      41.613  22.652  25.151  1.00  0.00     0.163 HD
ENDROOT
BRANCH   1   5
ATOM      5  C   UNL A   1      44.936  23.266  25.594  1.00  0.00     0.268 C 
ATOM      6  C   UNL A   1      45.551  24.678  25.602  1.00  0.00     0.101 C 
BRANCH   5   7
ATOM      7  N   UNL A   1      44.979  22.532  26.911  1.00  0.00    -0.326 N 
ATOM      8  H   UNL A   1      44.174  21.907  26.946  1.00  0.00     0.347 HD
ATOM      9  H   UNL A   1      45.883  22.059  26.928  1.00  0.00     0.347 HD
BRANCH   7  10
ATOM     10  C   UNL A   1      44.953  23.356  28.113  1.00  0.00     0.261 C 
BRANCH  10  11
ATOM     11  C   UNL A   1      43.666  23.103  28.907  1.00  0.00     0.061 C 
BRANCH  11  12
ATOM     12  C   UNL A   1      43.795  23.336  30.414  1.00  0.00     0.006 C 
BRANCH  12  13
ATOM     13  C   UNL A   1      44.840  24.381  30.820  1.00  0.00    -0.003 C 
ATOM     14  C   UNL A   1      44.378  25.317  31.928  1.00  0.00     0.004 C 
ENDBRANCH  12  13
ENDBRANCH  11  12
ENDBRANCH  10  11
ENDBRANCH   7  10
ENDBRANCH   5   7
BRANCH   5  15
ATOM     15  C   UNL A   1      45.656  22.455  24.477  1.00  0.00     0.453 C 
ATOM     16  F   UNL A   1      44.901  22.245  23.379  1.00  0.00    -0.164 F 
ATOM     17  F   UNL A   1      46.758  23.140  24.058  1.00  0.00    -0.164 F 
ATOM     18  F   UNL A   1      46.112  21.263  24.928  1.00  0.00    -0.164 F 
ENDBRANCH   5  15
ENDBRANCH   1   5
BRANCH   3  19
ATOM     19  C   UNL A   1      42.702  21.011  25.759  1.00  0.00     0.118 C 
BRANCH  19  20
ATOM     20  C   UNL A   1      41.401  20.391  26.247  1.00  0.00     0.042 C 
BRANCH  20  21
ATOM     21  C   UNL A   1      40.514  21.378  26.990  1.00  0.00     0.118 C 
BRANCH  21  22
ATOM     22  N   UNL A   1      39.311  21.713  26.236  1.00  0.00    -0.352 N 
ATOM     23  C   UNL A   1      38.595  22.882  26.178  1.00  0.00     0.251 C 
ATOM     24  H   UNL A   1      38.955  20.983  25.680  1.00  0.00     0.163 HD
ATOM     25  O   UNL A   1      37.488  22.891  25.649  1.00  0.00    -0.269 OA
BRANCH  23  26
ATOM     26  C   UNL A   1      39.143  24.125  26.761  1.00  0.00     0.039 A 
ATOM     27  C   UNL A   1      39.910  24.970  25.953  1.00  0.00     0.014 A 
ATOM     28  C   UNL A   1      38.927  24.448  28.102  1.00  0.00     0.014 A 
ATOM     29  C   UNL A   1      40.403  26.166  26.474  1.00  0.00     0.010 A 
ATOM     30  C   UNL A   1      39.334  25.682  28.592  1.00  0.00     0.010 A 
ATOM     31  C   UNL A   1      40.087  26.550  27.787  1.00  0.00    -0.014 A 
BRANCH  31  32
ATOM     32  C   UNL A   1      40.548  27.843  28.349  1.00  0.00     0.031 A 
ATOM     33  C   UNL A   1      42.000  28.040  28.690  1.00  0.00     0.074 A 
ATOM     34  C   UNL A   1      39.650  28.812  28.616  1.00  0.00     0.049 A 
ATOM     35  N   UNL A   1      42.585  29.056  29.271  1.00  0.00    -0.248 NA
ATOM     36  C   UNL A   1      42.913  26.932  28.361  1.00  0.00     0.031 C 
ATOM     37  C   UNL A   1      38.209  28.719  28.376  1.00  0.00     0.029 A 
ATOM     38  N   UNL A   1      39.815  30.060  29.162  1.00  0.00    -0.354 N 
ATOM     39  C   UNL A   1      43.922  28.702  29.393  1.00  0.00     0.074 A 
ATOM     40  C   UNL A   1      44.054  27.357  28.880  1.00  0.00     0.031 C 
ATOM     41  C   UNL A   1      37.625  29.870  28.748  1.00  0.00     0.029 A 
ATOM     42  C   UNL A   1      38.643  30.763  29.292  1.00  0.00     0.049 A 
ATOM     43  H   UNL A   1      40.691  30.417  29.434  1.00  0.00     0.167 HD
ATOM     44  C   UNL A   1      44.952  29.444  29.864  1.00  0.00     0.037 A 
ATOM     45  C   UNL A   1      38.415  31.988  29.804  1.00  0.00     0.037 A 
ATOM     46  C   UNL A   1      44.820  30.794  30.344  1.00  0.00     0.049 A 
ATOM     47  C   UNL A   1      39.579  32.789  30.325  1.00  0.00     0.074 A 
ATOM     48  C   UNL A   1      45.808  31.653  30.789  1.00  0.00     0.029 A 
ATOM     49  N   UNL A   1      43.619  31.482  30.438  1.00  0.00    -0.354 N 
ATOM     50  N   UNL A   1      40.848  32.469  30.374  1.00  0.00    -0.248 NA
ATOM     51  C   UNL A   1      39.275  34.126  30.856  1.00  0.00     0.031 C 
ATOM     52  C   UNL A   1      45.200  32.846  31.197  1.00  0.00     0.029 A 
ATOM     53  C   UNL A   1      43.839  32.749  30.953  1.00  0.00     0.049 A 
ATOM     54  H   UNL A   1      42.739  31.124  30.178  1.00  0.00     0.167 HD
ATOM     55  C   UNL A   1      41.499  33.572  30.909  1.00  0.00     0.074 A 
ATOM     56  C   UNL A   1      40.485  34.576  31.154  1.00  0.00     0.031 C 
ATOM     57  C   UNL A   1      42.818  33.740  31.176  1.00  0.00     0.037 A 
BRANCH  44  58
ATOM     58  C   UNL A   1      46.316  28.817  29.873  1.00  0.00     0.064 A 
ATOM     59  C   UNL A   1      47.154  28.862  28.748  1.00  0.00     0.173 A 
ATOM     60  C   UNL A   1      46.811  28.202  31.033  1.00  0.00     0.173 A 
ATOM     61  F   UNL A   1      46.724  29.427  27.609  1.00  0.00    -0.203 F 
ATOM     62  C   UNL A   1      48.423  28.291  28.775  1.00  0.00     0.198 A 
ATOM     63  C   UNL A   1      48.093  27.661  31.067  1.00  0.00     0.198 A 
ATOM     64  F   UNL A   1      46.054  28.135  32.139  1.00  0.00    -0.203 F 
ATOM     65  F   UNL A   1      49.186  28.304  27.673  1.00  0.00    -0.200 F 
ATOM     66  C   UNL A   1      48.896  27.699  29.937  1.00  0.00     0.200 A 
ATOM     67  F   UNL A   1      48.553  27.100  32.194  1.00  0.00    -0.200 F 
ATOM     68  F   UNL A   1      50.122  27.160  29.965  1.00  0.00    -0.200 F 
ENDBRANCH  44  58
BRANCH  45  69
ATOM     69  C   UNL A   1      37.037  32.543  29.829  1.00  0.00     0.064 A 
ATOM     70  C   UNL A   1      36.530  33.261  28.736  1.00  0.00     0.173 A 
ATOM     71  C   UNL A   1      36.204  32.384  30.946  1.00  0.00     0.173 A 
ATOM     72  F   UNL A   1      37.294  33.455  27.651  1.00  0.00    -0.203 F 
ATOM     73  C   UNL A   1      35.254  33.820  28.770  1.00  0.00     0.198 A 
ATOM     74  C   UNL A   1      34.917  32.918  30.966  1.00  0.00     0.198 A 
ATOM     75  F   UNL A   1      36.636  31.700  32.016  1.00  0.00    -0.203 F 
ATOM     76  F   UNL A   1      34.816  34.546  27.732  1.00  0.00    -0.200 F 
ATOM     77  C   UNL A   1      34.447  33.645  29.884  1.00  0.00     0.200 A 
ATOM     78  F   UNL A   1      34.134  32.733  32.038  1.00  0.00    -0.200 F 
ATOM     79  F   UNL A   1      33.221  34.184  29.915  1.00  0.00    -0.200 F 
ENDBRANCH  45  69
BRANCH  57  80
ATOM     80  C   UNL A   1      43.246  35.071  31.722  1.00  0.00     0.064 A 
ATOM     81  C   UNL A   1      43.315  35.314  33.101  1.00  0.00     0.173 A 
ATOM     82  C   UNL A   1      43.632  36.102  30.851  1.00  0.00     0.173 A 
ATOM     83  F   UNL A   1      42.942  34.366  33.974  1.00  0.00    -0.203 F 
ATOM     84  C   UNL A   1      43.729  36.550  33.589  1.00  0.00     0.198 A 
ATOM     85  C   UNL A   1      44.077  37.325  31.343  1.00  0.00     0.198 A 
ATOM     86  F   UNL A   1      43.591  35.916  29.523  1.00  0.00    -0.203 F 
ATOM     87  F   UNL A   1      43.740  36.778  34.909  1.00  0.00    -0.200 F 
ATOM     88  C   UNL A   1      44.117  37.552  32.710  1.00  0.00     0.200 A 
ATOM     89  F   UNL A   1      44.465  38.286  30.493  1.00  0.00    -0.200 F 
ATOM     90  F   UNL A   1      44.523  38.738  33.181  1.00  0.00    -0.200 F 
ENDBRANCH  57  80
ENDBRANCH  31  32
ENDBRANCH  23  26
ENDBRANCH  21  22
ENDBRANCH  20  21
ENDBRANCH  19  20
ENDBRANCH   3  19
TORSDOF 16
ENDMDL
MODEL 3
REMARK VINA RESULT:     -10.6      0.799      2.133
REMARK SMILES CCCCC[NH2+][C@](C)(C(=O)NCCCNC(=O)c1ccc(-c2c3nc(c(-c4c(F)c(F)c(F)c(F)c4F)c4ccc([nH]4)c(-c4c(F)c(F)c(F)c(F)c4F)c4nc(c(-c5c(F)c(F)c(F)c(F)c5F)c5ccc2[nH]5)C=C4)C=C3)cc1)C(F)(F)F
REMARK SMILES IDX 9 1 10 2 11 3 7 5 8 6 6 7 5 10 4 11 3 12 2 13 1 14 81 15
REMARK SMILES IDX 82 16 83 17 84 18 12 19 13 20 14 21 15 22 16 23 17 25 18 26
REMARK SMILES IDX 19 27 80 28 20 29 79 30 21 31 22 32 23 33 73 34 24 35 78 36
REMARK SMILES IDX 72 37 74 38 25 39 77 40 71 41 70 42 26 44 58 45 38 46 57 47
REMARK SMILES IDX 39 48 42 49 56 50 75 51 40 52 41 53 55 55 76 56 43 57 27 58
REMARK SMILES IDX 28 59 36 60 29 61 30 62 34 63 37 64 31 65 32 66 35 67 33 68
REMARK SMILES IDX 59 69 60 70 68 71 61 72 62 73 66 74 69 75 63 76 64 77 67 78
REMARK SMILES IDX 65 79 44 80 45 81 53 82 46 83 47 84 51 85 54 86 48 87 49 88
REMARK SMILES IDX 52 89 50 90
REMARK H PARENT 11 4 6 8 6 9 15 24 74 43 42 54
REMARK Flexibility Score: inf
ROOT
ATOM      1  C   UNL A   1      31.780  28.385  27.028  1.00  0.00     0.290 C 
ATOM      2  O   UNL A   1      31.716  27.835  28.131  1.00  0.00    -0.267 OA
ATOM      3  N   UNL A   1      31.550  29.736  27.038  1.00  0.00    -0.350 N 
ATOM      4  H   UNL A   1      31.278  30.092  27.914  1.00  0.00     0.163 HD
ENDROOT
BRANCH   1   5
ATOM      5  C   UNL A   1      32.005  27.591  25.716  1.00  0.00     0.268 C 
ATOM      6  C   UNL A   1      31.914  26.090  26.052  1.00  0.00     0.101 C 
BRANCH   5   7
ATOM      7  N   UNL A   1      31.022  28.085  24.683  1.00  0.00    -0.326 N 
ATOM      8  H   UNL A   1      30.230  28.493  25.178  1.00  0.00     0.347 HD
ATOM      9  H   UNL A   1      31.544  28.744  24.105  1.00  0.00     0.347 HD
BRANCH   7  10
ATOM     10  C   UNL A   1      30.500  27.088  23.757  1.00  0.00     0.261 C 
BRANCH  10  11
ATOM     11  C   UNL A   1      31.042  27.335  22.344  1.00  0.00     0.061 C 
BRANCH  11  12
ATOM     12  C   UNL A   1      31.885  26.190  21.779  1.00  0.00     0.006 C 
BRANCH  12  13
ATOM     13  C   UNL A   1      31.892  24.913  22.626  1.00  0.00    -0.003 C 
ATOM     14  C   UNL A   1      33.257  24.246  22.724  1.00  0.00     0.004 C 
ENDBRANCH  12  13
ENDBRANCH  11  12
ENDBRANCH  10  11
ENDBRANCH   7  10
ENDBRANCH   5   7
BRANCH   5  15
ATOM     15  C   UNL A   1      33.471  27.877  25.276  1.00  0.00     0.453 C 
ATOM     16  F   UNL A   1      34.273  28.290  26.279  1.00  0.00    -0.164 F 
ATOM     17  F   UNL A   1      34.029  26.734  24.786  1.00  0.00    -0.164 F 
ATOM     18  F   UNL A   1      33.532  28.779  24.268  1.00  0.00    -0.164 F 
ENDBRANCH   5  15
ENDBRANCH   1   5
BRANCH   3  19
ATOM     19  C   UNL A   1      31.636  30.736  25.989  1.00  0.00     0.118 C 
BRANCH  19  20
ATOM     20  C   UNL A   1      31.409  32.150  26.503  1.00  0.00     0.042 C 
BRANCH  20  21
ATOM     21  C   UNL A   1      32.611  32.713  27.245  1.00  0.00     0.118 C 
BRANCH  21  22
ATOM     22  N   UNL A   1      32.422  34.108  27.623  1.00  0.00    -0.352 N 
ATOM     23  C   UNL A   1      32.996  34.843  28.629  1.00  0.00     0.251 C 
ATOM     24  H   UNL A   1      31.778  34.603  27.066  1.00  0.00     0.163 HD
ATOM     25  O   UNL A   1      32.540  35.946  28.913  1.00  0.00    -0.269 OA
BRANCH  23  26
ATOM     26  C   UNL A   1      34.150  34.307  29.382  1.00  0.00     0.039 A 
ATOM     27  C   UNL A   1      33.918  33.630  30.583  1.00  0.00     0.014 A 
ATOM     28  C   UNL A   1      35.456  34.493  28.926  1.00  0.00     0.014 A 
ATOM     29  C   UNL A   1      34.991  33.084  31.288  1.00  0.00     0.010 A 
ATOM     30  C   UNL A   1      36.514  33.868  29.576  1.00  0.00     0.010 A 
ATOM     31  C   UNL A   1      36.294  33.166  30.771  1.00  0.00    -0.014 A 
BRANCH  31  32
ATOM     32  C   UNL A   1      37.446  32.545  31.468  1.00  0.00     0.031 A 
ATOM     33  C   UNL A   1      38.178  31.395  30.833  1.00  0.00     0.074 A 
ATOM     34  C   UNL A   1      37.787  32.970  32.701  1.00  0.00     0.049 A 
ATOM     35  N   UNL A   1      39.146  30.659  31.317  1.00  0.00    -0.248 NA
ATOM     36  C   UNL A   1      37.743  30.998  29.483  1.00  0.00     0.031 C 
ATOM     37  C   UNL A   1      37.121  34.043  33.440  1.00  0.00     0.029 A 
ATOM     38  N   UNL A   1      38.772  32.541  33.555  1.00  0.00    -0.354 N 
ATOM     39  C   UNL A   1      39.420  29.707  30.343  1.00  0.00     0.074 A 
ATOM     40  C   UNL A   1      38.479  29.919  29.266  1.00  0.00     0.031 C 
ATOM     41  C   UNL A   1      37.730  34.206  34.626  1.00  0.00     0.029 A 
ATOM     42  C   UNL A   1      38.801  33.221  34.747  1.00  0.00     0.049 A 
ATOM     43  H   UNL A   1      39.397  31.813  33.334  1.00  0.00     0.167 HD
ATOM     44  C   UNL A   1      40.387  28.760  30.337  1.00  0.00     0.037 A 
ATOM     45  C   UNL A   1      39.597  33.060  35.822  1.00  0.00     0.037 A 
ATOM     46  C   UNL A   1      41.340  28.575  31.398  1.00  0.00     0.049 A 
ATOM     47  C   UNL A   1      40.661  31.996  35.789  1.00  0.00     0.074 A 
ATOM     48  C   UNL A   1      42.395  27.682  31.465  1.00  0.00     0.029 A 
ATOM     49  N   UNL A   1      41.354  29.300  32.581  1.00  0.00    -0.354 N 
ATOM     50  N   UNL A   1      40.952  31.146  34.836  1.00  0.00    -0.248 NA
ATOM     51  C   UNL A   1      41.512  31.876  36.981  1.00  0.00     0.031 C 
ATOM     52  C   UNL A   1      43.020  27.836  32.707  1.00  0.00     0.029 A 
ATOM     53  C   UNL A   1      42.388  28.862  33.392  1.00  0.00     0.049 A 
ATOM     54  H   UNL A   1      40.723  30.020  32.810  1.00  0.00     0.167 HD
ATOM     55  C   UNL A   1      42.037  30.412  35.297  1.00  0.00     0.074 A 
ATOM     56  C   UNL A   1      42.361  30.929  36.610  1.00  0.00     0.031 C 
ATOM     57  C   UNL A   1      42.704  29.400  34.690  1.00  0.00     0.037 A 
BRANCH  44  58
ATOM     58  C   UNL A   1      40.471  27.858  29.139  1.00  0.00     0.064 A 
ATOM     59  C   UNL A   1      41.320  28.145  28.060  1.00  0.00     0.173 A 
ATOM     60  C   UNL A   1      39.727  26.669  29.089  1.00  0.00     0.173 A 
ATOM     61  F   UNL A   1      42.043  29.276  28.053  1.00  0.00    -0.203 F 
ATOM     62  C   UNL A   1      41.402  27.292  26.963  1.00  0.00     0.198 A 
ATOM     63  C   UNL A   1      39.836  25.801  28.006  1.00  0.00     0.198 A 
ATOM     64  F   UNL A   1      38.904  26.342  30.096  1.00  0.00    -0.203 F 
ATOM     65  F   UNL A   1      42.183  27.612  25.923  1.00  0.00    -0.200 F 
ATOM     66  C   UNL A   1      40.666  26.116  26.941  1.00  0.00     0.200 A 
ATOM     67  F   UNL A   1      39.135  24.659  27.991  1.00  0.00    -0.200 F 
ATOM     68  F   UNL A   1      40.754  25.290  25.890  1.00  0.00    -0.200 F 
ENDBRANCH  44  58
BRANCH  45  69
ATOM     69  C   UNL A   1      39.435  33.940  37.009  1.00  0.00     0.064 A 
ATOM     70  C   UNL A   1      40.041  35.203  37.057  1.00  0.00     0.173 A 
ATOM     71  C   UNL A   1      38.689  33.532  38.126  1.00  0.00     0.173 A 
ATOM     72  F   UNL A   1      40.779  35.630  36.022  1.00  0.00    -0.203 F 
ATOM     73  C   UNL A   1      39.930  36.014  38.184  1.00  0.00     0.198 A 
ATOM     74  C   UNL A   1      38.553  34.357  39.240  1.00  0.00     0.198 A 
ATOM     75  F   UNL A   1      38.083  32.336  38.129  1.00  0.00    -0.203 F 
ATOM     76  F   UNL A   1      40.562  37.194  38.223  1.00  0.00    -0.200 F 
ATOM     77  C   UNL A   1      39.182  35.592  39.274  1.00  0.00     0.200 A 
ATOM     78  F   UNL A   1      37.817  33.953  40.284  1.00  0.00    -0.200 F 
ATOM     79  F   UNL A   1      39.076  36.373  40.358  1.00  0.00    -0.200 F 
ENDBRANCH  45  69
BRANCH  57  80
ATOM     80  C   UNL A   1      43.878  28.814  35.419  1.00  0.00     0.064 A 
ATOM     81  C   UNL A   1      43.730  27.747  36.318  1.00  0.00     0.173 A 
ATOM     82  C   UNL A   1      45.173  29.302  35.183  1.00  0.00     0.173 A 
ATOM     83  F   UNL A   1      42.511  27.256  36.588  1.00  0.00    -0.203 F 
ATOM     84  C   UNL A   1      44.832  27.207  36.973  1.00  0.00     0.198 A 
ATOM     85  C   UNL A   1      46.276  28.737  35.816  1.00  0.00     0.198 A 
ATOM     86  F   UNL A   1      45.368  30.316  34.327  1.00  0.00    -0.203 F 
ATOM     87  F   UNL A   1      44.663  26.221  37.864  1.00  0.00    -0.200 F 
ATOM     88  C   UNL A   1      46.105  27.697  36.716  1.00  0.00     0.200 A 
ATOM     89  F   UNL A   1      47.506  29.202  35.555  1.00  0.00    -0.200 F 
ATOM     90  F   UNL A   1      47.166  27.171  37.342  1.00  0.00    -0.200 F 
ENDBRANCH  57  80
ENDBRANCH  31  32
ENDBRANCH  23  26
ENDBRANCH  21  22
ENDBRANCH  20  21
ENDBRANCH  19  20
ENDBRANCH   3  19
TORSDOF 16
ENDMDL
