MODEL 1
REMARK VINA RESULT:     -12.0      0.000      0.000
REMARK SMILES N#C[C@H]1CN(C(=O)N2CCNC(=O)[C@@H]2CC(=O)NCCCNC(=O)c2ccc(-c3c4nc(c(-c5c(F)c(F)c(F)c(F)c5F)c5ccc([nH]5)c(-c5c(F)c(F)c(F)c(F)c5F)c5nc(c(-c6c(F)c(F)c(F)c(F)c6F)c6ccc3[nH]6)C=C5)C=C4)cc2)CCO1
REMARK SMILES IDX 19 1 18 2 16 3 17 4 15 6 14 7 8 8 9 9 10 10 12 11 11 12
REMARK SMILES IDX 13 13 6 15 7 16 5 17 3 18 4 19 90 20 89 21 88 22 2 23 1 24
REMARK SMILES IDX 20 25 21 26 22 27 23 28 24 30 25 31 26 32 87 33 27 34 86 35
REMARK SMILES IDX 28 36 29 37 30 38 80 39 31 40 85 41 79 42 81 43 32 44 84 45
REMARK SMILES IDX 78 46 77 47 33 49 65 50 45 51 64 52 46 53 49 54 63 55 82 56
REMARK SMILES IDX 47 57 48 58 62 60 83 61 50 62 34 63 35 64 43 65 36 66 37 67
REMARK SMILES IDX 41 68 44 69 38 70 39 71 42 72 40 73 66 74 67 75 75 76 68 77
REMARK SMILES IDX 69 78 73 79 76 80 70 81 71 82 74 83 72 84 51 85 52 86 60 87
REMARK SMILES IDX 53 88 54 89 58 90 61 91 55 92 56 93 59 94 57 95
REMARK H PARENT 18 5 11 14 22 29 81 48 49 59
REMARK Flexibility Score: inf
ROOT
ATOM      1  C   UNL A   1      37.376  20.913  24.690  1.00  0.00     0.117 C 
ENDROOT
BRANCH   1   2
ATOM      2  N   UNL A   1      37.925  22.122  25.278  1.00  0.00    -0.356 N 
ATOM      3  C   UNL A   1      37.293  23.249  25.703  1.00  0.00     0.222 C 
ATOM      4  O   UNL A   1      37.978  24.189  26.105  1.00  0.00    -0.275 OA
ATOM      5  H   UNL A   1      38.904  22.127  25.386  1.00  0.00     0.163 HD
BRANCH   3   6
ATOM      6  C   UNL A   1      35.790  23.298  25.756  1.00  0.00     0.135 C 
BRANCH   6   7
ATOM      7  C   UNL A   1      35.143  24.164  24.664  1.00  0.00     0.185 C 
ATOM      8  N   UNL A   1      33.849  24.767  25.036  1.00  0.00    -0.310 N 
ATOM      9  C   UNL A   1      32.759  23.821  25.255  1.00  0.00     0.143 C 
ATOM     10  C   UNL A   1      32.548  22.997  23.980  1.00  0.00     0.137 C 
ATOM     11  C   UNL A   1      34.972  23.246  23.443  1.00  0.00     0.243 C 
ATOM     12  N   UNL A   1      33.779  22.579  23.325  1.00  0.00    -0.353 N 
ATOM     13  O   UNL A   1      35.912  22.968  22.700  1.00  0.00    -0.273 OA
ATOM     14  H   UNL A   1      33.754  21.770  22.764  1.00  0.00     0.163 HD
BRANCH   8  15
ATOM     15  C   UNL A   1      33.609  26.108  25.226  1.00  0.00     0.320 C 
ATOM     16  O   UNL A   1      33.728  26.624  26.337  1.00  0.00    -0.248 OA
BRANCH  15  17
ATOM     17  N   UNL A   1      33.150  26.847  24.152  1.00  0.00    -0.319 N 
ATOM     18  C   UNL A   1      32.314  25.869  22.023  1.00  0.00     0.240 C 
ATOM     19  C   UNL A   1      33.490  26.559  22.749  1.00  0.00     0.169 C 
ATOM     20  O   UNL A   1      31.114  26.662  22.150  1.00  0.00    -0.360 OA
ATOM     21  C   UNL A   1      30.763  26.840  23.535  1.00  0.00     0.183 C 
ATOM     22  C   UNL A   1      31.880  27.572  24.288  1.00  0.00     0.150 C 
BRANCH  18  23
ATOM     23  C   UNL A   1      32.662  25.686  20.601  1.00  0.00     0.096 C 
ATOM     24  N   UNL A   1      32.903  25.578  19.468  1.00  0.00    -0.195 NA
ENDBRANCH  18  23
ENDBRANCH  15  17
ENDBRANCH   8  15
ENDBRANCH   6   7
ENDBRANCH   3   6
ENDBRANCH   1   2
BRANCH   1  25
ATOM     25  C   UNL A   1      38.261  19.708  25.001  1.00  0.00     0.042 C 
BRANCH  25  26
ATOM     26  C   UNL A   1      39.337  19.996  26.038  1.00  0.00     0.118 C 
BRANCH  26  27
ATOM     27  N   UNL A   1      40.405  19.011  26.014  1.00  0.00    -0.352 N 
ATOM     28  C   UNL A   1      41.765  19.189  26.040  1.00  0.00     0.251 C 
ATOM     29  H   UNL A   1      40.108  18.073  25.973  1.00  0.00     0.163 HD
ATOM     30  O   UNL A   1      42.508  18.247  25.787  1.00  0.00    -0.269 OA
BRANCH  28  31
ATOM     31  C   UNL A   1      42.335  20.517  26.349  1.00  0.00     0.039 A 
ATOM     32  C   UNL A   1      42.762  21.326  25.295  1.00  0.00     0.014 A 
ATOM     33  C   UNL A   1      42.462  20.961  27.668  1.00  0.00     0.014 A 
ATOM     34  C   UNL A   1      43.251  22.605  25.559  1.00  0.00     0.010 A 
ATOM     35  C   UNL A   1      42.864  22.268  27.925  1.00  0.00     0.010 A 
ATOM     36  C   UNL A   1      43.263  23.106  26.873  1.00  0.00    -0.014 A 
BRANCH  36  37
ATOM     37  C   UNL A   1      43.674  24.504  27.156  1.00  0.00     0.031 A 
ATOM     38  C   UNL A   1      42.667  25.514  27.632  1.00  0.00     0.074 A 
ATOM     39  C   UNL A   1      44.950  24.876  26.932  1.00  0.00     0.049 A 
ATOM     40  N   UNL A   1      42.826  26.791  27.872  1.00  0.00    -0.248 NA
ATOM     41  C   UNL A   1      41.294  25.030  27.849  1.00  0.00     0.031 C 
ATOM     42  C   UNL A   1      46.012  23.999  26.433  1.00  0.00     0.029 A 
ATOM     43  N   UNL A   1      45.572  26.090  27.088  1.00  0.00    -0.354 N 
ATOM     44  C   UNL A   1      41.579  27.260  28.265  1.00  0.00     0.074 A 
ATOM     45  C   UNL A   1      40.659  26.148  28.172  1.00  0.00     0.031 C 
ATOM     46  C   UNL A   1      47.156  24.695  26.350  1.00  0.00     0.029 A 
ATOM     47  C   UNL A   1      46.901  26.079  26.737  1.00  0.00     0.049 A 
ATOM     48  H   UNL A   1      45.110  26.894  27.419  1.00  0.00     0.167 HD
ATOM     49  C   UNL A   1      41.240  28.502  28.689  1.00  0.00     0.037 A 
ATOM     50  C   UNL A   1      47.807  27.075  26.711  1.00  0.00     0.037 A 
ATOM     51  C   UNL A   1      42.161  29.604  28.787  1.00  0.00     0.049 A 
ATOM     52  C   UNL A   1      47.385  28.456  27.140  1.00  0.00     0.074 A 
ATOM     53  C   UNL A   1      41.922  30.889  29.243  1.00  0.00     0.029 A 
ATOM     54  N   UNL A   1      43.497  29.554  28.415  1.00  0.00    -0.354 N 
ATOM     55  N   UNL A   1      46.220  28.870  27.573  1.00  0.00    -0.248 NA
ATOM     56  C   UNL A   1      48.408  29.509  27.076  1.00  0.00     0.031 C 
ATOM     57  C   UNL A   1      43.092  31.634  29.084  1.00  0.00     0.029 A 
ATOM     58  C   UNL A   1      44.084  30.797  28.601  1.00  0.00     0.049 A 
ATOM     59  H   UNL A   1      43.959  28.756  28.071  1.00  0.00     0.167 HD
ATOM     60  C   UNL A   1      46.380  30.219  27.867  1.00  0.00     0.074 A 
ATOM     61  C   UNL A   1      47.760  30.546  27.583  1.00  0.00     0.031 C 
ATOM     62  C   UNL A   1      45.464  31.107  28.327  1.00  0.00     0.037 A 
BRANCH  49  63
ATOM     63  C   UNL A   1      39.810  28.742  29.086  1.00  0.00     0.064 A 
ATOM     64  C   UNL A   1      39.371  28.556  30.405  1.00  0.00     0.173 A 
ATOM     65  C   UNL A   1      38.885  29.230  28.151  1.00  0.00     0.173 A 
ATOM     66  F   UNL A   1      40.214  28.082  31.337  1.00  0.00    -0.203 F 
ATOM     67  C   UNL A   1      38.056  28.828  30.769  1.00  0.00     0.198 A 
ATOM     68  C   UNL A   1      37.579  29.535  28.526  1.00  0.00     0.198 A 
ATOM     69  F   UNL A   1      39.251  29.433  26.876  1.00  0.00    -0.203 F 
ATOM     70  F   UNL A   1      37.650  28.603  32.027  1.00  0.00    -0.200 F 
ATOM     71  C   UNL A   1      37.164  29.328  29.833  1.00  0.00     0.200 A 
ATOM     72  F   UNL A   1      36.724  30.036  27.624  1.00  0.00    -0.200 F 
ATOM     73  F   UNL A   1      35.903  29.608  30.189  1.00  0.00    -0.200 F 
ENDBRANCH  49  63
BRANCH  50  74
ATOM     74  C   UNL A   1      49.202  26.814  26.261  1.00  0.00     0.064 A 
ATOM     75  C   UNL A   1      49.578  27.004  24.923  1.00  0.00     0.173 A 
ATOM     76  C   UNL A   1      50.175  26.324  27.145  1.00  0.00     0.173 A 
ATOM     77  F   UNL A   1      48.680  27.451  24.032  1.00  0.00    -0.203 F 
ATOM     78  C   UNL A   1      50.857  26.674  24.479  1.00  0.00     0.198 A 
ATOM     79  C   UNL A   1      51.465  26.032  26.709  1.00  0.00     0.198 A 
ATOM     80  F   UNL A   1      49.870  26.126  28.436  1.00  0.00    -0.203 F 
ATOM     81  F   UNL A   1      51.164  26.793  23.180  1.00  0.00    -0.200 F 
ATOM     82  C   UNL A   1      51.800  26.192  25.374  1.00  0.00     0.200 A 
ATOM     83  F   UNL A   1      52.377  25.578  27.580  1.00  0.00    -0.200 F 
ATOM     84  F   UNL A   1      53.028  25.866  24.944  1.00  0.00    -0.200 F 
ENDBRANCH  50  74
BRANCH  62  85
ATOM     85  C   UNL A   1      45.934  32.509  28.596  1.00  0.00     0.064 A 
ATOM     86  C   UNL A   1      46.481  32.883  29.833  1.00  0.00     0.173 A 
ATOM     87  C   UNL A   1      45.874  33.482  27.587  1.00  0.00     0.173 A 
ATOM     88  F   UNL A   1      46.550  31.995  30.837  1.00  0.00    -0.203 F 
ATOM     89  C   UNL A   1      46.916  34.186  30.060  1.00  0.00     0.198 A 
ATOM     90  C   UNL A   1      46.348  34.773  27.803  1.00  0.00     0.198 A 
ATOM     91  F   UNL A   1      45.370  33.177  26.381  1.00  0.00    -0.203 F 
ATOM     92  F   UNL A   1      47.379  34.535  31.268  1.00  0.00    -0.200 F 
ATOM     93  C   UNL A   1      46.859  35.127  29.042  1.00  0.00     0.200 A 
ATOM     94  F   UNL A   1      46.311  35.674  26.812  1.00  0.00    -0.200 F 
ATOM     95  F   UNL A   1      47.291  36.377  29.258  1.00  0.00    -0.200 F 
ENDBRANCH  62  85
ENDBRANCH  36  37
ENDBRANCH  28  31
ENDBRANCH  26  27
ENDBRANCH  25  26
ENDBRANCH   1  25
TORSDOF 14
ENDMDL
MODEL 2
REMARK VINA RESULT:     -12.0      5.529     11.082
REMARK SMILES N#C[C@H]1CN(C(=O)N2CCNC(=O)[C@@H]2CC(=O)NCCCNC(=O)c2ccc(-c3c4nc(c(-c5c(F)c(F)c(F)c(F)c5F)c5ccc([nH]5)c(-c5c(F)c(F)c(F)c(F)c5F)c5nc(c(-c6c(F)c(F)c(F)c(F)c6F)c6ccc3[nH]6)C=C5)C=C4)cc2)CCO1
REMARK SMILES IDX 19 1 18 2 16 3 17 4 15 6 14 7 8 8 9 9 10 10 12 11 11 12
REMARK SMILES IDX 13 13 6 15 7 16 5 17 3 18 4 19 90 20 89 21 88 22 2 23 1 24
REMARK SMILES IDX 20 25 21 26 22 27 23 28 24 30 25 31 26 32 87 33 27 34 86 35
REMARK SMILES IDX 28 36 29 37 30 38 80 39 31 40 85 41 79 42 81 43 32 44 84 45
REMARK SMILES IDX 78 46 77 47 33 49 65 50 45 51 64 52 46 53 49 54 63 55 82 56
REMARK SMILES IDX 47 57 48 58 62 60 83 61 50 62 34 63 35 64 43 65 36 66 37 67
REMARK SMILES IDX 41 68 44 69 38 70 39 71 42 72 40 73 66 74 67 75 75 76 68 77
REMARK SMILES IDX 69 78 73 79 76 80 70 81 71 82 74 83 72 84 51 85 52 86 60 87
REMARK SMILES IDX 53 88 54 89 58 90 61 91 55 92 56 93 59 94 57 95
REMARK H PARENT 18 5 11 14 22 29 81 48 49 59
REMARK Flexibility Score: inf
ROOT
ATOM      1  C   UNL A   1      31.595  30.630  26.292  1.00  0.00     0.117 C 
ENDROOT
BRANCH   1   2
ATOM      2  N   UNL A   1      32.921  30.166  26.659  1.00  0.00    -0.356 N 
ATOM      3  C   UNL A   1      33.665  29.153  26.137  1.00  0.00     0.222 C 
ATOM      4  O   UNL A   1      34.747  28.891  26.662  1.00  0.00    -0.275 OA
ATOM      5  H   UNL A   1      33.348  30.661  27.395  1.00  0.00     0.163 HD
BRANCH   3   6
ATOM      6  C   UNL A   1      33.203  28.438  24.897  1.00  0.00     0.135 C 
BRANCH   6   7
ATOM      7  C   UNL A   1      32.875  26.952  25.106  1.00  0.00     0.185 C 
ATOM      8  N   UNL A   1      32.793  26.154  23.867  1.00  0.00    -0.310 N 
ATOM      9  C   UNL A   1      31.699  26.507  22.967  1.00  0.00     0.143 C 
ATOM     10  C   UNL A   1      30.369  26.357  23.714  1.00  0.00     0.137 C 
ATOM     11  C   UNL A   1      31.531  26.916  25.852  1.00  0.00     0.243 C 
ATOM     12  N   UNL A   1      30.394  26.843  25.086  1.00  0.00    -0.353 N 
ATOM     13  O   UNL A   1      31.450  27.129  27.060  1.00  0.00    -0.273 OA
ATOM     14  H   UNL A   1      29.545  27.136  25.490  1.00  0.00     0.163 HD
BRANCH   8  15
ATOM     15  C   UNL A   1      33.667  25.162  23.487  1.00  0.00     0.320 C 
ATOM     16  O   UNL A   1      34.064  25.074  22.326  1.00  0.00    -0.248 OA
BRANCH  15  17
ATOM     17  N   UNL A   1      34.025  24.214  24.428  1.00  0.00    -0.319 N 
ATOM     18  C   UNL A   1      33.653  21.767  24.175  1.00  0.00     0.240 C 
ATOM     19  C   UNL A   1      33.170  23.083  24.824  1.00  0.00     0.169 C 
ATOM     20  O   UNL A   1      35.047  21.542  24.480  1.00  0.00    -0.360 OA
ATOM     21  C   UNL A   1      35.860  22.625  23.991  1.00  0.00     0.183 C 
ATOM     22  C   UNL A   1      35.452  23.948  24.650  1.00  0.00     0.150 C 
BRANCH  18  23
ATOM     23  C   UNL A   1      32.830  20.650  24.673  1.00  0.00     0.096 C 
ATOM     24  N   UNL A   1      32.141  19.791  25.048  1.00  0.00    -0.195 NA
ENDBRANCH  18  23
ENDBRANCH  15  17
ENDBRANCH   8  15
ENDBRANCH   6   7
ENDBRANCH   3   6
ENDBRANCH   1   2
BRANCH   1  25
ATOM     25  C   UNL A   1      31.443  32.122  26.578  1.00  0.00     0.042 C 
BRANCH  25  26
ATOM     26  C   UNL A   1      32.620  32.718  27.338  1.00  0.00     0.118 C 
BRANCH  26  27
ATOM     27  N   UNL A   1      32.422  34.124  27.648  1.00  0.00    -0.352 N 
ATOM     28  C   UNL A   1      33.023  34.906  28.601  1.00  0.00     0.251 C 
ATOM     29  H   UNL A   1      31.756  34.585  27.089  1.00  0.00     0.163 HD
ATOM     30  O   UNL A   1      32.564  36.014  28.859  1.00  0.00    -0.269 OA
BRANCH  28  31
ATOM     31  C   UNL A   1      34.205  34.408  29.334  1.00  0.00     0.039 A 
ATOM     32  C   UNL A   1      34.019  33.799  30.576  1.00  0.00     0.014 A 
ATOM     33  C   UNL A   1      35.494  34.548  28.810  1.00  0.00     0.014 A 
ATOM     34  C   UNL A   1      35.114  33.272  31.260  1.00  0.00     0.010 A 
ATOM     35  C   UNL A   1      36.572  33.943  29.448  1.00  0.00     0.010 A 
ATOM     36  C   UNL A   1      36.394  33.298  30.680  1.00  0.00    -0.014 A 
BRANCH  36  37
ATOM     37  C   UNL A   1      37.549  32.640  31.344  1.00  0.00     0.031 A 
ATOM     38  C   UNL A   1      38.262  31.497  30.677  1.00  0.00     0.074 A 
ATOM     39  C   UNL A   1      37.920  33.043  32.576  1.00  0.00     0.049 A 
ATOM     40  N   UNL A   1      39.249  30.762  31.128  1.00  0.00    -0.248 NA
ATOM     41  C   UNL A   1      37.795  31.115  29.335  1.00  0.00     0.031 C 
ATOM     42  C   UNL A   1      37.281  34.115  33.344  1.00  0.00     0.029 A 
ATOM     43  N   UNL A   1      38.920  32.596  33.404  1.00  0.00    -0.354 N 
ATOM     44  C   UNL A   1      39.516  29.835  30.129  1.00  0.00     0.074 A 
ATOM     45  C   UNL A   1      38.550  30.057  29.075  1.00  0.00     0.031 C 
ATOM     46  C   UNL A   1      37.921  34.259  34.515  1.00  0.00     0.029 A 
ATOM     47  C   UNL A   1      38.979  33.258  34.606  1.00  0.00     0.049 A 
ATOM     48  H   UNL A   1      39.537  31.869  33.159  1.00  0.00     0.167 HD
ATOM     49  C   UNL A   1      40.496  28.901  30.085  1.00  0.00     0.037 A 
ATOM     50  C   UNL A   1      39.781  33.068  35.671  1.00  0.00     0.037 A 
ATOM     51  C   UNL A   1      41.459  28.688  31.134  1.00  0.00     0.049 A 
ATOM     52  C   UNL A   1      40.827  31.985  35.612  1.00  0.00     0.074 A 
ATOM     53  C   UNL A   1      42.514  27.793  31.166  1.00  0.00     0.029 A 
ATOM     54  N   UNL A   1      41.481  29.375  32.340  1.00  0.00    -0.354 N 
ATOM     55  N   UNL A   1      41.113  31.161  34.634  1.00  0.00    -0.248 NA
ATOM     56  C   UNL A   1      41.663  31.809  36.807  1.00  0.00     0.031 C 
ATOM     57  C   UNL A   1      43.132  27.889  32.415  1.00  0.00     0.029 A 
ATOM     58  C   UNL A   1      42.512  28.898  33.135  1.00  0.00     0.049 A 
ATOM     59  H   UNL A   1      40.858  30.093  32.593  1.00  0.00     0.167 HD
ATOM     60  C   UNL A   1      42.182  30.395  35.082  1.00  0.00     0.074 A 
ATOM     61  C   UNL A   1      42.507  30.869  36.409  1.00  0.00     0.031 C 
ATOM     62  C   UNL A   1      42.834  29.387  34.451  1.00  0.00     0.037 A 
BRANCH  49  63
ATOM     63  C   UNL A   1      40.583  28.031  28.862  1.00  0.00     0.064 A 
ATOM     64  C   UNL A   1      39.871  26.827  28.763  1.00  0.00     0.173 A 
ATOM     65  C   UNL A   1      41.332  28.442  27.749  1.00  0.00     0.173 A 
ATOM     66  F   UNL A   1      39.146  26.383  29.802  1.00  0.00    -0.203 F 
ATOM     67  C   UNL A   1      39.923  26.055  27.606  1.00  0.00     0.198 A 
ATOM     68  C   UNL A   1      41.354  27.686  26.580  1.00  0.00     0.198 A 
ATOM     69  F   UNL A   1      42.028  29.589  27.786  1.00  0.00    -0.203 F 
ATOM     70  F   UNL A   1      39.267  24.887  27.551  1.00  0.00    -0.200 F 
ATOM     71  C   UNL A   1      40.654  26.490  26.511  1.00  0.00     0.200 A 
ATOM     72  F   UNL A   1      42.046  28.118  25.517  1.00  0.00    -0.200 F 
ATOM     73  F   UNL A   1      40.688  25.757  25.391  1.00  0.00    -0.200 F 
ENDBRANCH  49  63
BRANCH  50  74
ATOM     74  C   UNL A   1      39.631  33.911  36.889  1.00  0.00     0.064 A 
ATOM     75  C   UNL A   1      38.847  33.487  37.972  1.00  0.00     0.173 A 
ATOM     76  C   UNL A   1      40.227  35.179  36.976  1.00  0.00     0.173 A 
ATOM     77  F   UNL A   1      38.239  32.292  37.930  1.00  0.00    -0.203 F 
ATOM     78  C   UNL A   1      38.631  34.312  39.073  1.00  0.00     0.198 A 
ATOM     79  C   UNL A   1      40.043  35.987  38.095  1.00  0.00     0.198 A 
ATOM     80  F   UNL A   1      40.989  35.633  35.970  1.00  0.00    -0.203 F 
ATOM     81  F   UNL A   1      37.815  33.911  40.058  1.00  0.00    -0.200 F 
ATOM     82  C   UNL A   1      39.232  35.560  39.135  1.00  0.00     0.200 A 
ATOM     83  F   UNL A   1      40.636  37.187  38.157  1.00  0.00    -0.200 F 
ATOM     84  F   UNL A   1      39.016  36.357  40.191  1.00  0.00    -0.200 F 
ENDBRANCH  50  74
BRANCH  62  85
ATOM     85  C   UNL A   1      43.995  28.757  35.169  1.00  0.00     0.064 A 
ATOM     86  C   UNL A   1      45.299  29.262  35.055  1.00  0.00     0.173 A 
ATOM     87  C   UNL A   1      43.791  27.656  36.015  1.00  0.00     0.173 A 
ATOM     88  F   UNL A   1      45.552  30.305  34.250  1.00  0.00    -0.203 F 
ATOM     89  C   UNL A   1      46.359  28.667  35.734  1.00  0.00     0.198 A 
ATOM     90  C   UNL A   1      44.845  27.089  36.724  1.00  0.00     0.198 A 
ATOM     91  F   UNL A   1      42.563  27.139  36.168  1.00  0.00    -0.203 F 
ATOM     92  F   UNL A   1      47.605  29.130  35.563  1.00  0.00    -0.200 F 
ATOM     93  C   UNL A   1      46.130  27.588  36.576  1.00  0.00     0.200 A 
ATOM     94  F   UNL A   1      44.618  26.061  37.552  1.00  0.00    -0.200 F 
ATOM     95  F   UNL A   1      47.150  27.024  37.238  1.00  0.00    -0.200 F 
ENDBRANCH  62  85
ENDBRANCH  36  37
ENDBRANCH  28  31
ENDBRANCH  26  27
ENDBRANCH  25  26
ENDBRANCH   1  25
TORSDOF 14
ENDMDL
MODEL 3
REMARK VINA RESULT:     -12.0      5.474      9.900
REMARK SMILES N#C[C@H]1CN(C(=O)N2CCNC(=O)[C@@H]2CC(=O)NCCCNC(=O)c2ccc(-c3c4nc(c(-c5c(F)c(F)c(F)c(F)c5F)c5ccc([nH]5)c(-c5c(F)c(F)c(F)c(F)c5F)c5nc(c(-c6c(F)c(F)c(F)c(F)c6F)c6ccc3[nH]6)C=C5)C=C4)cc2)CCO1
REMARK SMILES IDX 19 1 18 2 16 3 17 4 15 6 14 7 8 8 9 9 10 10 12 11 11 12
REMARK SMILES IDX 13 13 6 15 7 16 5 17 3 18 4 19 90 20 89 21 88 22 2 23 1 24
REMARK SMILES IDX 20 25 21 26 22 27 23 28 24 30 25 31 26 32 87 33 27 34 86 35
REMARK SMILES IDX 28 36 29 37 30 38 80 39 31 40 85 41 79 42 81 43 32 44 84 45
REMARK SMILES IDX 78 46 77 47 33 49 65 50 45 51 64 52 46 53 49 54 63 55 82 56
REMARK SMILES IDX 47 57 48 58 62 60 83 61 50 62 34 63 35 64 43 65 36 66 37 67
REMARK SMILES IDX 41 68 44 69 38 70 39 71 42 72 40 73 66 74 67 75 75 76 68 77
REMARK SMILES IDX 69 78 73 79 76 80 70 81 71 82 74 83 72 84 51 85 52 86 60 87
REMARK SMILES IDX 53 88 54 89 58 90 61 91 55 92 56 93 59 94 57 95
REMARK H PARENT 18 5 11 14 22 29 81 48 49 59
REMARK Flexibility Score: inf
ROOT
ATOM      1  C   UNL A   1      31.770  30.671  26.597  1.00  0.00     0.117 C 
ENDROOT
BRANCH   1   2
ATOM      2  N   UNL A   1      33.018  30.265  27.219  1.00  0.00    -0.356 N 
ATOM      3  C   UNL A   1      33.799  29.178  26.976  1.00  0.00     0.222 C 
ATOM      4  O   UNL A   1      34.789  28.998  27.685  1.00  0.00    -0.275 OA
ATOM      5  H   UNL A   1      33.350  30.869  27.922  1.00  0.00     0.163 HD
BRANCH   3   6
ATOM      6  C   UNL A   1      33.497  28.276  25.811  1.00  0.00     0.135 C 
BRANCH   6   7
ATOM      7  C   UNL A   1      32.992  26.879  26.203  1.00  0.00     0.185 C 
ATOM      8  N   UNL A   1      33.212  25.831  25.187  1.00  0.00    -0.310 N 
ATOM      9  C   UNL A   1      32.470  26.003  23.942  1.00  0.00     0.143 C 
ATOM     10  C   UNL A   1      30.970  26.049  24.256  1.00  0.00     0.137 C 
ATOM     11  C   UNL A   1      31.490  27.037  26.489  1.00  0.00     0.243 C 
ATOM     12  N   UNL A   1      30.630  26.823  25.441  1.00  0.00    -0.353 N 
ATOM     13  O   UNL A   1      31.074  27.511  27.544  1.00  0.00    -0.273 OA
ATOM     14  H   UNL A   1      29.728  27.216  25.495  1.00  0.00     0.163 HD
BRANCH   8  15
ATOM     15  C   UNL A   1      34.068  24.761  25.304  1.00  0.00     0.320 C 
ATOM     16  O   UNL A   1      35.202  24.798  24.826  1.00  0.00    -0.248 OA
BRANCH  15  17
ATOM     17  N   UNL A   1      33.594  23.609  25.902  1.00  0.00    -0.319 N 
ATOM     18  C   UNL A   1      31.191  22.977  26.034  1.00  0.00     0.240 C 
ATOM     19  C   UNL A   1      32.412  23.563  26.779  1.00  0.00     0.169 C 
ATOM     20  O   UNL A   1      31.519  21.685  25.478  1.00  0.00    -0.360 OA
ATOM     21  C   UNL A   1      32.618  21.790  24.554  1.00  0.00     0.183 C 
ATOM     22  C   UNL A   1      33.872  22.318  25.261  1.00  0.00     0.150 C 
BRANCH  18  23
ATOM     23  C   UNL A   1      30.061  22.860  26.973  1.00  0.00     0.096 C 
ATOM     24  N   UNL A   1      29.200  22.775  27.752  1.00  0.00    -0.195 NA
ENDBRANCH  18  23
ENDBRANCH  15  17
ENDBRANCH   8  15
ENDBRANCH   6   7
ENDBRANCH   3   6
ENDBRANCH   1   2
BRANCH   1  25
ATOM     25  C   UNL A   1      31.532  32.167  26.783  1.00  0.00     0.042 C 
BRANCH  25  26
ATOM     26  C   UNL A   1      32.800  32.950  27.093  1.00  0.00     0.118 C 
BRANCH  26  27
ATOM     27  N   UNL A   1      32.517  34.266  27.642  1.00  0.00    -0.352 N 
ATOM     28  C   UNL A   1      33.032  34.884  28.753  1.00  0.00     0.251 C 
ATOM     29  H   UNL A   1      31.855  34.794  27.140  1.00  0.00     0.163 HD
ATOM     30  O   UNL A   1      32.506  35.905  29.181  1.00  0.00    -0.269 OA
BRANCH  28  31
ATOM     31  C   UNL A   1      34.203  34.309  29.448  1.00  0.00     0.039 A 
ATOM     32  C   UNL A   1      33.991  33.503  30.567  1.00  0.00     0.014 A 
ATOM     33  C   UNL A   1      35.504  34.570  29.009  1.00  0.00     0.014 A 
ATOM     34  C   UNL A   1      35.078  32.904  31.204  1.00  0.00     0.010 A 
ATOM     35  C   UNL A   1      36.578  33.901  29.588  1.00  0.00     0.010 A 
ATOM     36  C   UNL A   1      36.377  33.061  30.693  1.00  0.00    -0.014 A 
BRANCH  36  37
ATOM     37  C   UNL A   1      37.528  32.339  31.292  1.00  0.00     0.031 A 
ATOM     38  C   UNL A   1      38.059  32.736  32.641  1.00  0.00     0.074 A 
ATOM     39  C   UNL A   1      38.130  31.357  30.591  1.00  0.00     0.049 A 
ATOM     40  N   UNL A   1      39.090  32.263  33.296  1.00  0.00    -0.248 NA
ATOM     41  C   UNL A   1      37.351  33.819  33.341  1.00  0.00     0.031 C 
ATOM     42  C   UNL A   1      37.733  30.907  29.255  1.00  0.00     0.029 A 
ATOM     43  N   UNL A   1      39.206  30.562  30.900  1.00  0.00    -0.354 N 
ATOM     44  C   UNL A   1      39.153  32.990  34.478  1.00  0.00     0.074 A 
ATOM     45  C   UNL A   1      38.097  33.978  34.425  1.00  0.00     0.031 C 
ATOM     46  C   UNL A   1      38.535  29.901  28.872  1.00  0.00     0.029 A 
ATOM     47  C   UNL A   1      39.535  29.670  29.909  1.00  0.00     0.049 A 
ATOM     48  H   UNL A   1      39.696  30.626  31.751  1.00  0.00     0.167 HD
ATOM     49  C   UNL A   1      40.000  32.830  35.523  1.00  0.00     0.037 A 
ATOM     50  C   UNL A   1      40.543  28.779  29.834  1.00  0.00     0.037 A 
ATOM     51  C   UNL A   1      41.045  31.842  35.574  1.00  0.00     0.049 A 
ATOM     52  C   UNL A   1      41.500  28.661  30.991  1.00  0.00     0.074 A 
ATOM     53  C   UNL A   1      41.930  31.575  36.605  1.00  0.00     0.029 A 
ATOM     54  N   UNL A   1      41.353  30.961  34.546  1.00  0.00    -0.354 N 
ATOM     55  N   UNL A   1      41.507  29.308  32.131  1.00  0.00    -0.248 NA
ATOM     56  C   UNL A   1      42.590  27.686  30.851  1.00  0.00     0.031 C 
ATOM     57  C   UNL A   1      42.814  30.582  36.177  1.00  0.00     0.029 A 
ATOM     58  C   UNL A   1      42.435  30.174  34.909  1.00  0.00     0.049 A 
ATOM     59  H   UNL A   1      40.874  30.904  33.689  1.00  0.00     0.167 HD
ATOM     60  C   UNL A   1      42.576  28.794  32.855  1.00  0.00     0.074 A 
ATOM     61  C   UNL A   1      43.179  27.767  32.034  1.00  0.00     0.031 C 
ATOM     62  C   UNL A   1      43.020  29.144  34.088  1.00  0.00     0.037 A 
BRANCH  49  63
ATOM     63  C   UNL A   1      39.836  33.743  36.706  1.00  0.00     0.064 A 
ATOM     64  C   UNL A   1      40.466  34.995  36.762  1.00  0.00     0.173 A 
ATOM     65  C   UNL A   1      38.983  33.392  37.763  1.00  0.00     0.173 A 
ATOM     66  F   UNL A   1      41.299  35.377  35.781  1.00  0.00    -0.203 F 
ATOM     67  C   UNL A   1      40.267  35.851  37.841  1.00  0.00     0.198 A 
ATOM     68  C   UNL A   1      38.759  34.264  38.825  1.00  0.00     0.198 A 
ATOM     69  F   UNL A   1      38.350  32.209  37.759  1.00  0.00    -0.203 F 
ATOM     70  F   UNL A   1      40.913  37.025  37.893  1.00  0.00    -0.200 F 
ATOM     71  C   UNL A   1      39.405  35.491  38.866  1.00  0.00     0.200 A 
ATOM     72  F   UNL A   1      37.911  33.922  39.804  1.00  0.00    -0.200 F 
ATOM     73  F   UNL A   1      39.199  36.323  39.895  1.00  0.00    -0.200 F 
ENDBRANCH  49  63
BRANCH  50  74
ATOM     74  C   UNL A   1      40.709  27.928  28.623  1.00  0.00     0.064 A 
ATOM     75  C   UNL A   1      41.468  28.367  27.529  1.00  0.00     0.173 A 
ATOM     76  C   UNL A   1      40.074  26.681  28.515  1.00  0.00     0.173 A 
ATOM     77  F   UNL A   1      42.078  29.560  27.573  1.00  0.00    -0.203 F 
ATOM     78  C   UNL A   1      41.551  27.613  26.360  1.00  0.00     0.198 A 
ATOM     79  C   UNL A   1      40.189  25.911  27.361  1.00  0.00     0.198 A 
ATOM     80  F   UNL A   1      39.338  26.212  29.533  1.00  0.00    -0.203 F 
ATOM     81  F   UNL A   1      42.219  28.094  25.302  1.00  0.00    -0.200 F 
ATOM     82  C   UNL A   1      40.914  26.384  26.278  1.00  0.00     0.200 A 
ATOM     83  F   UNL A   1      39.584  24.717  27.291  1.00  0.00    -0.200 F 
ATOM     84  F   UNL A   1      40.986  25.665  25.150  1.00  0.00    -0.200 F 
ENDBRANCH  50  74
BRANCH  62  85
ATOM     85  C   UNL A   1      44.188  28.381  34.645  1.00  0.00     0.064 A 
ATOM     86  C   UNL A   1      45.508  28.831  34.495  1.00  0.00     0.173 A 
ATOM     87  C   UNL A   1      43.978  27.202  35.377  1.00  0.00     0.173 A 
ATOM     88  F   UNL A   1      45.766  29.945  33.794  1.00  0.00    -0.203 F 
ATOM     89  C   UNL A   1      46.575  28.110  35.026  1.00  0.00     0.198 A 
ATOM     90  C   UNL A   1      45.043  26.506  35.941  1.00  0.00     0.198 A 
ATOM     91  F   UNL A   1      42.735  26.730  35.560  1.00  0.00    -0.203 F 
ATOM     92  F   UNL A   1      47.831  28.528  34.818  1.00  0.00    -0.200 F 
ATOM     93  C   UNL A   1      46.341  26.955  35.757  1.00  0.00     0.200 A 
ATOM     94  F   UNL A   1      44.813  25.402  36.664  1.00  0.00    -0.200 F 
ATOM     95  F   UNL A   1      47.369  26.270  36.277  1.00  0.00    -0.200 F 
ENDBRANCH  62  85
ENDBRANCH  36  37
ENDBRANCH  28  31
ENDBRANCH  26  27
ENDBRANCH  25  26
ENDBRANCH   1  25
TORSDOF 14
ENDMDL
