MODEL 1
REMARK VINA RESULT:     -14.1      0.000      0.000
REMARK SMILES Cc1cc2nc(NC(=O)[C@H]3[C@@H](C(=O)NCCCNC(=O)c4ccc(-c5c6nc(c(-c7c(F)c(F)c(F)c(F)c7F)c7ccc([nH]7)c(-c7c(F)c(F)c(F)c(F)c7F)c7nc(c(-c8c(F)c(F)c(F)c(F)c8F)c8ccc5[nH]8)C=C7)C=C6)cc4)[C@@H]4C=C[C@H]3C4)sc2cc1C
REMARK SMILES IDX 16 1 15 2 14 3 12 4 13 5 11 7 10 8 87 9 84 10 86 11 88 12
REMARK SMILES IDX 85 13 8 14 7 15 9 17 6 18 1 19 2 20 3 21 92 22 4 23 91 24
REMARK SMILES IDX 93 25 5 26 90 27 89 28 17 29 18 30 19 31 20 33 21 34 22 35
REMARK SMILES IDX 83 36 23 37 82 38 24 39 25 40 26 41 76 42 27 43 81 44 75 45
REMARK SMILES IDX 77 46 28 47 80 48 74 49 73 50 29 52 61 53 41 54 60 55 42 56
REMARK SMILES IDX 45 57 59 58 78 59 43 60 44 61 58 63 79 64 46 65 30 66 31 67
REMARK SMILES IDX 39 68 32 69 33 70 37 71 40 72 34 73 35 74 38 75 36 76 62 77
REMARK SMILES IDX 63 78 71 79 64 80 65 81 69 82 72 83 66 84 67 85 70 86 68 87
REMARK SMILES IDX 47 88 48 89 56 90 49 91 50 92 54 93 57 94 51 95 52 96 55 97
REMARK SMILES IDX 53 98
REMARK H PARENT 14 6 7 16 18 32 77 51 45 62
REMARK Flexibility Score: inf
ROOT
ATOM      1  C   UNL A   1      35.135  29.491  27.435  1.00  0.00     0.042 C 
ENDROOT
BRANCH   1   2
ATOM      2  C   UNL A   1      34.393  28.456  26.568  1.00  0.00     0.117 C 
BRANCH   2   3
ATOM      3  N   UNL A   1      33.117  28.078  27.152  1.00  0.00    -0.356 N 
ATOM      4  C   UNL A   1      31.837  27.962  26.757  1.00  0.00     0.224 C 
ATOM      5  O   UNL A   1      31.053  27.795  27.703  1.00  0.00    -0.275 OA
ATOM      6  H   UNL A   1      33.219  27.837  28.100  1.00  0.00     0.163 HD
BRANCH   4   7
ATOM      7  C   UNL A   1      31.268  27.979  25.342  1.00  0.00     0.098 C 
ATOM      8  C   UNL A   1      30.556  26.607  24.972  1.00  0.00     0.099 C 
ATOM      9  C   UNL A   1      31.231  26.246  23.635  1.00  0.00     0.025 C 
ATOM     10  C   UNL A   1      32.141  28.251  24.096  1.00  0.00     0.025 C 
ATOM     11  C   UNL A   1      30.721  27.222  22.592  1.00  0.00    -0.027 C 
ATOM     12  C   UNL A   1      32.640  26.850  23.786  1.00  0.00     0.017 C 
ATOM     13  C   UNL A   1      31.257  28.419  22.873  1.00  0.00    -0.027 C 
BRANCH   8  14
ATOM     14  C   UNL A   1      30.372  25.556  26.090  1.00  0.00     0.230 C 
ATOM     15  N   UNL A   1      31.322  24.768  26.652  1.00  0.00    -0.302 N 
ATOM     16  H   UNL A   1      31.132  24.464  27.569  1.00  0.00     0.172 HD
ATOM     17  O   UNL A   1      29.252  25.482  26.624  1.00  0.00    -0.274 OA
BRANCH  15  18
ATOM     18  C   UNL A   1      32.500  24.339  26.130  1.00  0.00     0.190 A 
ATOM     19  C   UNL A   1      38.361  23.483  26.146  1.00  0.00     0.044 C 
ATOM     20  C   UNL A   1      36.939  23.273  25.705  1.00  0.00    -0.046 A 
ATOM     21  C   UNL A   1      36.014  24.289  25.974  1.00  0.00     0.033 A 
ATOM     22  C   UNL A   1      36.497  22.089  25.089  1.00  0.00    -0.047 A 
ATOM     23  C   UNL A   1      34.640  24.068  25.782  1.00  0.00     0.084 A 
ATOM     24  C   UNL A   1      35.118  21.875  24.852  1.00  0.00     0.025 A 
ATOM     25  C   UNL A   1      37.458  21.026  24.627  1.00  0.00     0.044 C 
ATOM     26  N   UNL A   1      33.648  24.943  26.152  1.00  0.00    -0.220 NA
ATOM     27  C   UNL A   1      34.202  22.852  25.267  1.00  0.00     0.057 A 
ATOM     28  S   UNL A   1      32.469  22.844  25.305  1.00  0.00    -0.097 S 
ENDBRANCH  15  18
ENDBRANCH   8  14
ENDBRANCH   4   7
ENDBRANCH   2   3
ENDBRANCH   1   2
BRANCH   1  29
ATOM     29  C   UNL A   1      34.539  30.906  27.432  1.00  0.00     0.118 C 
BRANCH  29  30
ATOM     30  N   UNL A   1      34.404  31.494  28.750  1.00  0.00    -0.352 N 
ATOM     31  C   UNL A   1      35.237  31.718  29.808  1.00  0.00     0.251 C 
ATOM     32  H   UNL A   1      33.487  31.810  28.925  1.00  0.00     0.163 HD
ATOM     33  O   UNL A   1      34.795  32.483  30.675  1.00  0.00    -0.269 OA
BRANCH  31  34
ATOM     34  C   UNL A   1      36.563  31.082  30.042  1.00  0.00     0.039 A 
ATOM     35  C   UNL A   1      37.797  31.573  29.618  1.00  0.00     0.014 A 
ATOM     36  C   UNL A   1      36.529  29.813  30.659  1.00  0.00     0.014 A 
ATOM     37  C   UNL A   1      38.942  30.777  29.719  1.00  0.00     0.010 A 
ATOM     38  C   UNL A   1      37.667  29.018  30.761  1.00  0.00     0.010 A 
ATOM     39  C   UNL A   1      38.868  29.476  30.235  1.00  0.00    -0.014 A 
BRANCH  39  40
ATOM     40  C   UNL A   1      40.073  28.642  30.209  1.00  0.00     0.031 A 
ATOM     41  C   UNL A   1      40.779  28.467  31.512  1.00  0.00     0.074 A 
ATOM     42  C   UNL A   1      40.530  28.003  29.110  1.00  0.00     0.049 A 
ATOM     43  N   UNL A   1      41.981  28.834  31.825  1.00  0.00    -0.248 NA
ATOM     44  C   UNL A   1      40.031  27.860  32.622  1.00  0.00     0.031 C 
ATOM     45  C   UNL A   1      39.877  27.828  27.810  1.00  0.00     0.029 A 
ATOM     46  N   UNL A   1      41.696  27.305  28.960  1.00  0.00    -0.354 N 
ATOM     47  C   UNL A   1      42.199  28.397  33.132  1.00  0.00     0.074 A 
ATOM     48  C   UNL A   1      40.939  27.877  33.600  1.00  0.00     0.031 C 
ATOM     49  C   UNL A   1      40.561  26.916  27.079  1.00  0.00     0.029 A 
ATOM     50  C   UNL A   1      41.776  26.562  27.790  1.00  0.00     0.049 A 
ATOM     51  H   UNL A   1      42.421  27.327  29.627  1.00  0.00     0.167 HD
ATOM     52  C   UNL A   1      43.442  28.365  33.688  1.00  0.00     0.037 A 
ATOM     53  C   UNL A   1      42.761  25.697  27.442  1.00  0.00     0.037 A 
ATOM     54  C   UNL A   1      44.369  29.199  32.973  1.00  0.00     0.049 A 
ATOM     55  C   UNL A   1      43.969  26.057  28.218  1.00  0.00     0.074 A 
ATOM     56  C   UNL A   1      44.485  30.557  32.748  1.00  0.00     0.029 A 
ATOM     57  N   UNL A   1      45.225  28.608  32.082  1.00  0.00    -0.354 N 
ATOM     58  N   UNL A   1      44.660  27.144  28.035  1.00  0.00    -0.248 NA
ATOM     59  C   UNL A   1      44.192  25.377  29.484  1.00  0.00     0.031 C 
ATOM     60  C   UNL A   1      45.012  30.670  31.428  1.00  0.00     0.029 A 
ATOM     61  C   UNL A   1      45.217  29.378  30.946  1.00  0.00     0.049 A 
ATOM     62  H   UNL A   1      45.747  27.787  32.227  1.00  0.00     0.167 HD
ATOM     63  C   UNL A   1      45.061  27.521  29.307  1.00  0.00     0.074 A 
ATOM     64  C   UNL A   1      44.838  26.343  30.140  1.00  0.00     0.031 C 
ATOM     65  C   UNL A   1      45.279  28.832  29.613  1.00  0.00     0.037 A 
BRANCH  52  66
ATOM     66  C   UNL A   1      43.897  27.369  34.724  1.00  0.00     0.064 A 
ATOM     67  C   UNL A   1      43.926  25.994  34.411  1.00  0.00     0.173 A 
ATOM     68  C   UNL A   1      44.025  27.685  36.092  1.00  0.00     0.173 A 
ATOM     69  F   UNL A   1      43.788  25.577  33.143  1.00  0.00    -0.203 F 
ATOM     70  C   UNL A   1      44.012  25.012  35.403  1.00  0.00     0.198 A 
ATOM     71  C   UNL A   1      44.160  26.704  37.074  1.00  0.00     0.198 A 
ATOM     72  F   UNL A   1      43.915  28.943  36.537  1.00  0.00    -0.203 F 
ATOM     73  F   UNL A   1      43.922  23.716  35.069  1.00  0.00    -0.200 F 
ATOM     74  C   UNL A   1      44.125  25.369  36.734  1.00  0.00     0.200 A 
ATOM     75  F   UNL A   1      44.248  27.067  38.362  1.00  0.00    -0.200 F 
ATOM     76  F   UNL A   1      44.149  24.430  37.690  1.00  0.00    -0.200 F 
ENDBRANCH  52  66
BRANCH  53  77
ATOM     77  C   UNL A   1      42.647  24.398  26.740  1.00  0.00     0.064 A 
ATOM     78  C   UNL A   1      43.291  24.180  25.510  1.00  0.00     0.173 A 
ATOM     79  C   UNL A   1      42.176  23.255  27.413  1.00  0.00     0.173 A 
ATOM     80  F   UNL A   1      43.805  25.213  24.825  1.00  0.00    -0.203 F 
ATOM     81  C   UNL A   1      43.494  22.891  25.007  1.00  0.00     0.198 A 
ATOM     82  C   UNL A   1      42.374  21.969  26.908  1.00  0.00     0.198 A 
ATOM     83  F   UNL A   1      41.610  23.357  28.625  1.00  0.00    -0.203 F 
ATOM     84  F   UNL A   1      44.180  22.716  23.868  1.00  0.00    -0.200 F 
ATOM     85  C   UNL A   1      43.048  21.786  25.714  1.00  0.00     0.200 A 
ATOM     86  F   UNL A   1      41.973  20.907  27.619  1.00  0.00    -0.200 F 
ATOM     87  F   UNL A   1      43.307  20.548  25.271  1.00  0.00    -0.200 F 
ENDBRANCH  53  77
BRANCH  65  88
ATOM     88  C   UNL A   1      45.335  29.808  28.468  1.00  0.00     0.064 A 
ATOM     89  C   UNL A   1      44.198  30.374  27.863  1.00  0.00     0.173 A 
ATOM     90  C   UNL A   1      46.587  30.271  28.041  1.00  0.00     0.173 A 
ATOM     91  F   UNL A   1      42.966  30.066  28.286  1.00  0.00    -0.203 F 
ATOM     92  C   UNL A   1      44.313  31.315  26.840  1.00  0.00     0.198 A 
ATOM     93  C   UNL A   1      46.698  31.240  27.046  1.00  0.00     0.198 A 
ATOM     94  F   UNL A   1      47.707  29.813  28.620  1.00  0.00    -0.203 F 
ATOM     95  F   UNL A   1      43.212  31.824  26.267  1.00  0.00    -0.200 F 
ATOM     96  C   UNL A   1      45.563  31.750  26.436  1.00  0.00     0.200 A 
ATOM     97  F   UNL A   1      47.907  31.697  26.695  1.00  0.00    -0.200 F 
ATOM     98  F   UNL A   1      45.674  32.683  25.480  1.00  0.00    -0.200 F 
ENDBRANCH  65  88
ENDBRANCH  39  40
ENDBRANCH  31  34
ENDBRANCH  29  30
ENDBRANCH   1  29
TORSDOF 12
ENDMDL
MODEL 2
REMARK VINA RESULT:     -14.1      2.056      2.969
REMARK SMILES Cc1cc2nc(NC(=O)[C@H]3[C@@H](C(=O)NCCCNC(=O)c4ccc(-c5c6nc(c(-c7c(F)c(F)c(F)c(F)c7F)c7ccc([nH]7)c(-c7c(F)c(F)c(F)c(F)c7F)c7nc(c(-c8c(F)c(F)c(F)c(F)c8F)c8ccc5[nH]8)C=C7)C=C6)cc4)[C@@H]4C=C[C@H]3C4)sc2cc1C
REMARK SMILES IDX 16 1 15 2 14 3 12 4 13 5 11 7 10 8 87 9 84 10 86 11 88 12
REMARK SMILES IDX 85 13 8 14 7 15 9 17 6 18 1 19 2 20 3 21 92 22 4 23 91 24
REMARK SMILES IDX 93 25 5 26 90 27 89 28 17 29 18 30 19 31 20 33 21 34 22 35
REMARK SMILES IDX 83 36 23 37 82 38 24 39 25 40 26 41 76 42 27 43 81 44 75 45
REMARK SMILES IDX 77 46 28 47 80 48 74 49 73 50 29 52 61 53 41 54 60 55 42 56
REMARK SMILES IDX 45 57 59 58 78 59 43 60 44 61 58 63 79 64 46 65 30 66 31 67
REMARK SMILES IDX 39 68 32 69 33 70 37 71 40 72 34 73 35 74 38 75 36 76 62 77
REMARK SMILES IDX 63 78 71 79 64 80 65 81 69 82 72 83 66 84 67 85 70 86 68 87
REMARK SMILES IDX 47 88 48 89 56 90 49 91 50 92 54 93 57 94 51 95 52 96 55 97
REMARK SMILES IDX 53 98
REMARK H PARENT 14 6 7 16 18 32 77 51 45 62
REMARK Flexibility Score: inf
ROOT
ATOM      1  C   UNL A   1      33.104  28.959  26.988  1.00  0.00     0.042 C 
ENDROOT
BRANCH   1   2
ATOM      2  C   UNL A   1      33.562  27.922  25.945  1.00  0.00     0.117 C 
BRANCH   2   3
ATOM      3  N   UNL A   1      33.170  26.573  26.316  1.00  0.00    -0.356 N 
ATOM      4  C   UNL A   1      33.538  25.313  26.021  1.00  0.00     0.224 C 
ATOM      5  O   UNL A   1      32.742  24.465  26.450  1.00  0.00    -0.275 OA
ATOM      6  H   UNL A   1      32.431  26.584  26.965  1.00  0.00     0.163 HD
BRANCH   4   7
ATOM      7  C   UNL A   1      34.779  24.829  25.280  1.00  0.00     0.098 C 
ATOM      8  C   UNL A   1      34.422  24.221  23.856  1.00  0.00     0.099 C 
ATOM      9  C   UNL A   1      35.127  22.851  23.906  1.00  0.00     0.025 C 
ATOM     10  C   UNL A   1      35.739  23.768  25.866  1.00  0.00     0.025 C 
ATOM     11  C   UNL A   1      36.619  23.107  23.835  1.00  0.00    -0.027 C 
ATOM     12  C   UNL A   1      35.067  22.487  25.402  1.00  0.00     0.017 C 
ATOM     13  C   UNL A   1      36.982  23.662  25.001  1.00  0.00    -0.027 C 
BRANCH   8  14
ATOM     14  C   UNL A   1      32.969  24.360  23.348  1.00  0.00     0.230 C 
ATOM     15  N   UNL A   1      31.944  23.486  23.514  1.00  0.00    -0.302 N 
ATOM     16  H   UNL A   1      31.043  23.881  23.485  1.00  0.00     0.172 HD
ATOM     17  O   UNL A   1      32.652  25.437  22.813  1.00  0.00    -0.274 OA
BRANCH  15  18
ATOM     18  C   UNL A   1      31.986  22.144  23.716  1.00  0.00     0.190 A 
ATOM     19  C   UNL A   1      34.041  16.662  22.814  1.00  0.00     0.044 C 
ATOM     20  C   UNL A   1      33.308  17.758  23.538  1.00  0.00    -0.046 A 
ATOM     21  C   UNL A   1      32.902  18.875  22.798  1.00  0.00     0.033 A 
ATOM     22  C   UNL A   1      33.065  17.728  24.923  1.00  0.00    -0.047 A 
ATOM     23  C   UNL A   1      32.409  20.017  23.449  1.00  0.00     0.084 A 
ATOM     24  C   UNL A   1      32.528  18.859  25.582  1.00  0.00     0.025 A 
ATOM     25  C   UNL A   1      33.328  16.498  25.751  1.00  0.00     0.044 C 
ATOM     26  N   UNL A   1      32.124  21.209  22.828  1.00  0.00    -0.220 NA
ATOM     27  C   UNL A   1      32.268  20.017  24.833  1.00  0.00     0.057 A 
ATOM     28  S   UNL A   1      31.794  21.609  25.327  1.00  0.00    -0.097 S 
ENDBRANCH  15  18
ENDBRANCH   8  14
ENDBRANCH   4   7
ENDBRANCH   2   3
ENDBRANCH   1   2
BRANCH   1  29
ATOM     29  C   UNL A   1      33.419  30.423  26.649  1.00  0.00     0.118 C 
BRANCH  29  30
ATOM     30  N   UNL A   1      33.759  31.237  27.800  1.00  0.00    -0.352 N 
ATOM     31  C   UNL A   1      34.908  31.545  28.471  1.00  0.00     0.251 C 
ATOM     32  H   UNL A   1      32.970  31.674  28.194  1.00  0.00     0.163 HD
ATOM     33  O   UNL A   1      34.817  32.489  29.267  1.00  0.00    -0.269 OA
BRANCH  31  34
ATOM     34  C   UNL A   1      36.205  30.818  28.387  1.00  0.00     0.039 A 
ATOM     35  C   UNL A   1      36.392  29.524  27.904  1.00  0.00     0.014 A 
ATOM     36  C   UNL A   1      37.314  31.483  28.954  1.00  0.00     0.014 A 
ATOM     37  C   UNL A   1      37.624  28.883  28.072  1.00  0.00     0.010 A 
ATOM     38  C   UNL A   1      38.540  30.847  29.125  1.00  0.00     0.010 A 
ATOM     39  C   UNL A   1      38.680  29.521  28.737  1.00  0.00    -0.014 A 
BRANCH  39  40
ATOM     40  C   UNL A   1      39.908  28.762  28.992  1.00  0.00     0.031 A 
ATOM     41  C   UNL A   1      40.261  28.546  30.425  1.00  0.00     0.074 A 
ATOM     42  C   UNL A   1      40.681  28.222  28.024  1.00  0.00     0.049 A 
ATOM     43  N   UNL A   1      41.310  28.962  31.061  1.00  0.00    -0.248 NA
ATOM     44  C   UNL A   1      39.296  27.827  31.269  1.00  0.00     0.031 C 
ATOM     45  C   UNL A   1      40.403  28.093  26.592  1.00  0.00     0.029 A 
ATOM     46  N   UNL A   1      41.893  27.605  28.155  1.00  0.00    -0.354 N 
ATOM     47  C   UNL A   1      41.211  28.457  32.357  1.00  0.00     0.074 A 
ATOM     48  C   UNL A   1      39.914  27.835  32.452  1.00  0.00     0.031 C 
ATOM     49  C   UNL A   1      41.318  27.271  26.026  1.00  0.00     0.029 A 
ATOM     50  C   UNL A   1      42.330  26.944  27.015  1.00  0.00     0.049 A 
ATOM     51  H   UNL A   1      42.416  27.627  28.990  1.00  0.00     0.167 HD
ATOM     52  C   UNL A   1      42.266  28.462  33.221  1.00  0.00     0.037 A 
ATOM     53  C   UNL A   1      43.432  26.162  26.900  1.00  0.00     0.037 A 
ATOM     54  C   UNL A   1      43.283  29.392  32.815  1.00  0.00     0.049 A 
ATOM     55  C   UNL A   1      44.366  26.541  27.984  1.00  0.00     0.074 A 
ATOM     56  C   UNL A   1      43.354  30.766  32.691  1.00  0.00     0.029 A 
ATOM     57  N   UNL A   1      44.383  28.911  32.155  1.00  0.00    -0.354 N 
ATOM     58  N   UNL A   1      44.999  27.676  28.040  1.00  0.00    -0.248 NA
ATOM     59  C   UNL A   1      44.300  25.796  29.230  1.00  0.00     0.031 C 
ATOM     60  C   UNL A   1      44.197  30.994  31.563  1.00  0.00     0.029 A 
ATOM     61  C   UNL A   1      44.615  29.749  31.094  1.00  0.00     0.049 A 
ATOM     62  H   UNL A   1      44.908  28.113  32.395  1.00  0.00     0.167 HD
ATOM     63  C   UNL A   1      45.027  27.994  29.388  1.00  0.00     0.074 A 
ATOM     64  C   UNL A   1      44.682  26.755  30.077  1.00  0.00     0.031 C 
ATOM     65  C   UNL A   1      45.062  29.294  29.801  1.00  0.00     0.037 A 
BRANCH  52  66
ATOM     66  C   UNL A   1      42.507  27.430  34.292  1.00  0.00     0.064 A 
ATOM     67  C   UNL A   1      43.114  26.201  33.961  1.00  0.00     0.173 A 
ATOM     68  C   UNL A   1      41.903  27.486  35.565  1.00  0.00     0.173 A 
ATOM     69  F   UNL A   1      43.698  26.026  32.765  1.00  0.00    -0.203 F 
ATOM     70  C   UNL A   1      43.062  25.096  34.816  1.00  0.00     0.198 A 
ATOM     71  C   UNL A   1      41.895  26.398  36.436  1.00  0.00     0.198 A 
ATOM     72  F   UNL A   1      41.206  28.557  35.966  1.00  0.00    -0.203 F 
ATOM     73  F   UNL A   1      43.555  23.916  34.413  1.00  0.00    -0.200 F 
ATOM     74  C   UNL A   1      42.449  25.195  36.052  1.00  0.00     0.200 A 
ATOM     75  F   UNL A   1      41.279  26.504  37.621  1.00  0.00    -0.200 F 
ATOM     76  F   UNL A   1      42.347  24.121  36.848  1.00  0.00    -0.200 F 
ENDBRANCH  52  66
BRANCH  53  77
ATOM     77  C   UNL A   1      43.599  24.905  26.134  1.00  0.00     0.064 A 
ATOM     78  C   UNL A   1      44.666  24.744  25.232  1.00  0.00     0.173 A 
ATOM     79  C   UNL A   1      42.912  23.736  26.509  1.00  0.00     0.173 A 
ATOM     80  F   UNL A   1      45.397  25.803  24.856  1.00  0.00    -0.203 F 
ATOM     81  C   UNL A   1      45.050  23.481  24.771  1.00  0.00     0.198 A 
ATOM     82  C   UNL A   1      43.293  22.476  26.044  1.00  0.00     0.198 A 
ATOM     83  F   UNL A   1      41.926  23.782  27.417  1.00  0.00    -0.203 F 
ATOM     84  F   UNL A   1      46.119  23.356  23.972  1.00  0.00    -0.200 F 
ATOM     85  C   UNL A   1      44.372  22.347  25.189  1.00  0.00     0.200 A 
ATOM     86  F   UNL A   1      42.654  21.384  26.486  1.00  0.00    -0.200 F 
ATOM     87  F   UNL A   1      44.786  21.131  24.808  1.00  0.00    -0.200 F 
ENDBRANCH  53  77
BRANCH  65  88
ATOM     88  C   UNL A   1      45.342  30.342  28.757  1.00  0.00     0.064 A 
ATOM     89  C   UNL A   1      44.361  30.888  27.910  1.00  0.00     0.173 A 
ATOM     90  C   UNL A   1      46.628  30.894  28.689  1.00  0.00     0.173 A 
ATOM     91  F   UNL A   1      43.085  30.493  27.987  1.00  0.00    -0.203 F 
ATOM     92  C   UNL A   1      44.670  31.896  26.998  1.00  0.00     0.198 A 
ATOM     93  C   UNL A   1      46.924  31.928  27.805  1.00  0.00     0.198 A 
ATOM     94  F   UNL A   1      47.593  30.457  29.513  1.00  0.00    -0.203 F 
ATOM     95  F   UNL A   1      43.719  32.385  26.187  1.00  0.00    -0.200 F 
ATOM     96  C   UNL A   1      45.951  32.419  26.950  1.00  0.00     0.200 A 
ATOM     97  F   UNL A   1      48.151  32.468  27.798  1.00  0.00    -0.200 F 
ATOM     98  F   UNL A   1      46.239  33.415  26.100  1.00  0.00    -0.200 F 
ENDBRANCH  65  88
ENDBRANCH  39  40
ENDBRANCH  31  34
ENDBRANCH  29  30
ENDBRANCH   1  29
TORSDOF 12
ENDMDL
MODEL 3
REMARK VINA RESULT:     -14.1      3.500      9.077
REMARK SMILES Cc1cc2nc(NC(=O)[C@H]3[C@@H](C(=O)NCCCNC(=O)c4ccc(-c5c6nc(c(-c7c(F)c(F)c(F)c(F)c7F)c7ccc([nH]7)c(-c7c(F)c(F)c(F)c(F)c7F)c7nc(c(-c8c(F)c(F)c(F)c(F)c8F)c8ccc5[nH]8)C=C7)C=C6)cc4)[C@@H]4C=C[C@H]3C4)sc2cc1C
REMARK SMILES IDX 16 1 15 2 14 3 12 4 13 5 11 7 10 8 87 9 84 10 86 11 88 12
REMARK SMILES IDX 85 13 8 14 7 15 9 17 6 18 1 19 2 20 3 21 92 22 4 23 91 24
REMARK SMILES IDX 93 25 5 26 90 27 89 28 17 29 18 30 19 31 20 33 21 34 22 35
REMARK SMILES IDX 83 36 23 37 82 38 24 39 25 40 26 41 76 42 27 43 81 44 75 45
REMARK SMILES IDX 77 46 28 47 80 48 74 49 73 50 29 52 61 53 41 54 60 55 42 56
REMARK SMILES IDX 45 57 59 58 78 59 43 60 44 61 58 63 79 64 46 65 30 66 31 67
REMARK SMILES IDX 39 68 32 69 33 70 37 71 40 72 34 73 35 74 38 75 36 76 62 77
REMARK SMILES IDX 63 78 71 79 64 80 65 81 69 82 72 83 66 84 67 85 70 86 68 87
REMARK SMILES IDX 47 88 48 89 56 90 49 91 50 92 54 93 57 94 51 95 52 96 55 97
REMARK SMILES IDX 53 98
REMARK H PARENT 14 6 7 16 18 32 77 51 45 62
REMARK Flexibility Score: inf
ROOT
ATOM      1  C   UNL A   1      37.438  22.509  24.611  1.00  0.00     0.042 C 
ENDROOT
BRANCH   1   2
ATOM      2  C   UNL A   1      36.000  21.978  24.456  1.00  0.00     0.117 C 
BRANCH   2   3
ATOM      3  N   UNL A   1      35.238  22.752  23.491  1.00  0.00    -0.356 N 
ATOM      4  C   UNL A   1      33.963  23.138  23.307  1.00  0.00     0.224 C 
ATOM      5  O   UNL A   1      33.765  23.634  22.189  1.00  0.00    -0.275 OA
ATOM      6  H   UNL A   1      35.818  23.091  22.772  1.00  0.00     0.163 HD
BRANCH   4   7
ATOM      7  C   UNL A   1      32.793  23.066  24.283  1.00  0.00     0.098 C 
ATOM      8  C   UNL A   1      32.796  24.285  25.303  1.00  0.00     0.099 C 
ATOM      9  C   UNL A   1      32.690  23.567  26.662  1.00  0.00     0.025 C 
ATOM     10  C   UNL A   1      32.555  21.853  25.211  1.00  0.00     0.025 C 
ATOM     11  C   UNL A   1      31.288  22.999  26.766  1.00  0.00    -0.027 C 
ATOM     12  C   UNL A   1      33.415  22.232  26.404  1.00  0.00     0.017 C 
ATOM     13  C   UNL A   1      31.205  21.983  25.894  1.00  0.00    -0.027 C 
BRANCH   8  14
ATOM     14  C   UNL A   1      33.814  25.426  25.073  1.00  0.00     0.230 C 
ATOM     15  N   UNL A   1      33.558  26.700  24.687  1.00  0.00    -0.302 N 
ATOM     16  H   UNL A   1      34.227  27.368  24.962  1.00  0.00     0.172 HD
ATOM     17  O   UNL A   1      34.999  25.201  25.374  1.00  0.00    -0.274 OA
BRANCH  15  18
ATOM     18  C   UNL A   1      32.509  27.186  23.974  1.00  0.00     0.190 A 
ATOM     19  C   UNL A   1      26.861  28.791  23.193  1.00  0.00     0.044 C 
ATOM     20  C   UNL A   1      28.333  28.737  22.890  1.00  0.00    -0.046 A 
ATOM     21  C   UNL A   1      29.070  27.668  23.414  1.00  0.00     0.033 A 
ATOM     22  C   UNL A   1      28.998  29.734  22.156  1.00  0.00    -0.047 A 
ATOM     23  C   UNL A   1      30.473  27.673  23.348  1.00  0.00     0.084 A 
ATOM     24  C   UNL A   1      30.409  29.724  22.048  1.00  0.00     0.025 A 
ATOM     25  C   UNL A   1      28.250  30.822  21.431  1.00  0.00     0.044 C 
ATOM     26  N   UNL A   1      31.287  26.749  23.957  1.00  0.00    -0.220 NA
ATOM     27  C   UNL A   1      31.131  28.718  22.708  1.00  0.00     0.057 A 
ATOM     28  S   UNL A   1      32.835  28.506  22.941  1.00  0.00    -0.097 S 
ENDBRANCH  15  18
ENDBRANCH   8  14
ENDBRANCH   4   7
ENDBRANCH   2   3
ENDBRANCH   1   2
BRANCH   1  29
ATOM     29  C   UNL A   1      37.967  22.575  26.051  1.00  0.00     0.118 C 
BRANCH  29  30
ATOM     30  N   UNL A   1      39.325  22.091  26.205  1.00  0.00    -0.352 N 
ATOM     31  C   UNL A   1      40.471  22.565  26.777  1.00  0.00     0.251 C 
ATOM     32  H   UNL A   1      39.452  21.203  25.799  1.00  0.00     0.163 HD
ATOM     33  O   UNL A   1      41.374  21.731  26.919  1.00  0.00    -0.269 OA
BRANCH  31  34
ATOM     34  C   UNL A   1      40.748  23.976  27.165  1.00  0.00     0.039 A 
ATOM     35  C   UNL A   1      41.504  24.394  28.259  1.00  0.00     0.014 A 
ATOM     36  C   UNL A   1      40.087  24.960  26.399  1.00  0.00     0.014 A 
ATOM     37  C   UNL A   1      41.516  25.742  28.631  1.00  0.00     0.010 A 
ATOM     38  C   UNL A   1      40.095  26.302  26.767  1.00  0.00     0.010 A 
ATOM     39  C   UNL A   1      40.762  26.688  27.923  1.00  0.00    -0.014 A 
BRANCH  39  40
ATOM     40  C   UNL A   1      40.714  28.065  28.425  1.00  0.00     0.031 A 
ATOM     41  C   UNL A   1      41.820  28.964  27.984  1.00  0.00     0.074 A 
ATOM     42  C   UNL A   1      39.721  28.555  29.198  1.00  0.00     0.049 A 
ATOM     43  N   UNL A   1      42.711  29.552  28.717  1.00  0.00    -0.248 NA
ATOM     44  C   UNL A   1      41.990  29.188  26.542  1.00  0.00     0.031 C 
ATOM     45  C   UNL A   1      38.435  27.943  29.540  1.00  0.00     0.029 A 
ATOM     46  N   UNL A   1      39.647  29.777  29.806  1.00  0.00    -0.354 N 
ATOM     47  C   UNL A   1      43.485  30.326  27.852  1.00  0.00     0.074 A 
ATOM     48  C   UNL A   1      43.048  30.001  26.517  1.00  0.00     0.031 C 
ATOM     49  C   UNL A   1      37.635  28.867  30.124  1.00  0.00     0.029 A 
ATOM     50  C   UNL A   1      38.401  30.082  30.337  1.00  0.00     0.049 A 
ATOM     51  H   UNL A   1      40.415  30.392  29.864  1.00  0.00     0.167 HD
ATOM     52  C   UNL A   1      44.337  31.288  28.304  1.00  0.00     0.037 A 
ATOM     53  C   UNL A   1      38.019  31.261  30.889  1.00  0.00     0.037 A 
ATOM     54  C   UNL A   1      44.651  31.111  29.695  1.00  0.00     0.049 A 
ATOM     55  C   UNL A   1      39.243  31.970  31.323  1.00  0.00     0.074 A 
ATOM     56  C   UNL A   1      45.319  30.151  30.429  1.00  0.00     0.029 A 
ATOM     57  N   UNL A   1      43.987  31.876  30.618  1.00  0.00    -0.354 N 
ATOM     58  N   UNL A   1      40.000  31.587  32.309  1.00  0.00    -0.248 NA
ATOM     59  C   UNL A   1      39.847  32.913  30.396  1.00  0.00     0.031 C 
ATOM     60  C   UNL A   1      44.629  30.089  31.675  1.00  0.00     0.029 A 
ATOM     61  C   UNL A   1      43.609  31.040  31.637  1.00  0.00     0.049 A 
ATOM     62  H   UNL A   1      43.812  32.843  30.560  1.00  0.00     0.167 HD
ATOM     63  C   UNL A   1      41.289  31.882  31.895  1.00  0.00     0.074 A 
ATOM     64  C   UNL A   1      41.125  32.792  30.765  1.00  0.00     0.031 C 
ATOM     65  C   UNL A   1      42.352  31.150  32.335  1.00  0.00     0.037 A 
BRANCH  52  66
ATOM     66  C   UNL A   1      44.679  32.554  27.561  1.00  0.00     0.064 A 
ATOM     67  C   UNL A   1      45.895  32.648  26.853  1.00  0.00     0.173 A 
ATOM     68  C   UNL A   1      43.996  33.772  27.760  1.00  0.00     0.173 A 
ATOM     69  F   UNL A   1      46.642  31.555  26.628  1.00  0.00    -0.203 F 
ATOM     70  C   UNL A   1      46.415  33.876  26.435  1.00  0.00     0.198 A 
ATOM     71  C   UNL A   1      44.493  34.990  27.298  1.00  0.00     0.198 A 
ATOM     72  F   UNL A   1      42.882  33.841  28.500  1.00  0.00    -0.203 F 
ATOM     73  F   UNL A   1      47.628  33.929  25.866  1.00  0.00    -0.200 F 
ATOM     74  C   UNL A   1      45.715  35.047  26.661  1.00  0.00     0.200 A 
ATOM     75  F   UNL A   1      43.811  36.117  27.544  1.00  0.00    -0.200 F 
ATOM     76  F   UNL A   1      46.238  36.231  26.313  1.00  0.00    -0.200 F 
ENDBRANCH  52  66
BRANCH  53  77
ATOM     77  C   UNL A   1      36.715  31.955  30.779  1.00  0.00     0.064 A 
ATOM     78  C   UNL A   1      35.863  32.078  31.890  1.00  0.00     0.173 A 
ATOM     79  C   UNL A   1      36.432  32.783  29.676  1.00  0.00     0.173 A 
ATOM     80  F   UNL A   1      36.089  31.354  32.996  1.00  0.00    -0.203 F 
ATOM     81  C   UNL A   1      34.818  33.007  31.913  1.00  0.00     0.198 A 
ATOM     82  C   UNL A   1      35.386  33.707  29.699  1.00  0.00     0.198 A 
ATOM     83  F   UNL A   1      37.230  32.787  28.598  1.00  0.00    -0.203 F 
ATOM     84  F   UNL A   1      34.073  33.150  33.019  1.00  0.00    -0.200 F 
ATOM     85  C   UNL A   1      34.590  33.831  30.823  1.00  0.00     0.200 A 
ATOM     86  F   UNL A   1      35.200  34.524  28.653  1.00  0.00    -0.200 F 
ATOM     87  F   UNL A   1      33.639  34.773  30.872  1.00  0.00    -0.200 F 
ENDBRANCH  53  77
BRANCH  65  88
ATOM     88  C   UNL A   1      42.111  30.203  33.480  1.00  0.00     0.064 A 
ATOM     89  C   UNL A   1      41.696  28.868  33.320  1.00  0.00     0.173 A 
ATOM     90  C   UNL A   1      42.417  30.628  34.779  1.00  0.00     0.173 A 
ATOM     91  F   UNL A   1      41.487  28.352  32.103  1.00  0.00    -0.203 F 
ATOM     92  C   UNL A   1      41.541  28.021  34.416  1.00  0.00     0.198 A 
ATOM     93  C   UNL A   1      42.299  29.768  35.868  1.00  0.00     0.198 A 
ATOM     94  F   UNL A   1      42.874  31.873  34.990  1.00  0.00    -0.203 F 
ATOM     95  F   UNL A   1      41.125  26.758  34.237  1.00  0.00    -0.200 F 
ATOM     96  C   UNL A   1      41.847  28.471  35.689  1.00  0.00     0.200 A 
ATOM     97  F   UNL A   1      42.646  30.191  37.091  1.00  0.00    -0.200 F 
ATOM     98  F   UNL A   1      41.734  27.645  36.739  1.00  0.00    -0.200 F 
ENDBRANCH  65  88
ENDBRANCH  39  40
ENDBRANCH  31  34
ENDBRANCH  29  30
ENDBRANCH   1  29
TORSDOF 12
ENDMDL
