MODEL 1
REMARK VINA RESULT:     -12.3      0.000      0.000
REMARK SMILES COc1cccc(C[N@@H+]2C[C@H](C(=O)NCCCNC(=O)c3ccc(-c4c5nc(c(-c6c(F)c(F)c(F)c(F)c6F)c6ccc([nH]6)c(-c6c(F)c(F)c(F)c(F)c6F)c6nc(c(-c7c(F)c(F)c(F)c(F)c7F)c7ccc4[nH]7)C=C6)C=C5)cc3)C3(CC[NH+](C)CC3)C2)c1
REMARK SMILES IDX 15 1 14 2 12 3 13 4 11 6 9 7 10 8 91 9 84 11 85 12 90 13
REMARK SMILES IDX 86 14 89 15 87 16 88 17 8 19 7 20 3 21 4 22 92 23 5 24 6 25
REMARK SMILES IDX 2 26 1 27 16 28 17 29 18 30 19 31 20 33 21 34 22 35 83 36
REMARK SMILES IDX 23 37 82 38 24 39 25 40 26 41 76 42 27 43 81 44 75 45 77 46
REMARK SMILES IDX 28 47 80 48 74 49 73 50 29 52 61 53 41 54 60 55 42 56 45 57
REMARK SMILES IDX 59 58 78 59 43 60 44 61 58 63 79 64 46 65 30 66 31 67 39 68
REMARK SMILES IDX 32 69 33 70 37 71 40 72 34 73 35 74 38 75 36 76 62 77 63 78
REMARK SMILES IDX 71 79 64 80 65 81 69 82 72 83 66 84 67 85 70 86 68 87 47 88
REMARK SMILES IDX 48 89 56 90 49 91 50 92 54 93 57 94 51 95 52 96 55 97 53 98
REMARK H PARENT 14 5 9 10 87 18 18 32 77 51 45 62
REMARK Flexibility Score: inf
ROOT
ATOM      1  C   UNL A   1      32.072  26.442  26.174  1.00  0.00     0.117 C 
ENDROOT
BRANCH   1   2
ATOM      2  N   UNL A   1      31.900  25.194  26.888  1.00  0.00    -0.356 N 
ATOM      3  C   UNL A   1      31.687  23.926  26.457  1.00  0.00     0.229 C 
ATOM      4  O   UNL A   1      31.426  23.098  27.337  1.00  0.00    -0.275 OA
ATOM      5  H   UNL A   1      31.945  25.283  27.867  1.00  0.00     0.163 HD
BRANCH   3   6
ATOM      6  C   UNL A   1      31.801  23.472  25.005  1.00  0.00     0.145 C 
ATOM      7  N   UNL A   1      31.821  24.093  22.709  1.00  0.00    -0.330 N 
ATOM      8  C   UNL A   1      31.154  24.382  23.966  1.00  0.00     0.276 C 
ATOM      9  C   UNL A   1      33.050  23.345  22.929  1.00  0.00     0.270 C 
ATOM     10  H   UNL A   1      31.198  23.463  22.204  1.00  0.00     0.348 HD
ATOM     11  C   UNL A   1      33.192  23.053  24.447  1.00  0.00     0.047 C 
ATOM     12  C   UNL A   1      33.436  21.532  24.646  1.00  0.00     0.075 C 
ATOM     13  C   UNL A   1      34.440  23.793  24.993  1.00  0.00     0.075 C 
ATOM     14  C   UNL A   1      33.878  21.170  26.065  1.00  0.00     0.262 C 
ATOM     15  C   UNL A   1      34.910  23.334  26.380  1.00  0.00     0.262 C 
ATOM     16  N   UNL A   1      35.078  21.886  26.507  1.00  0.00    -0.337 N 
ATOM     17  C   UNL A   1      36.294  21.403  25.857  1.00  0.00     0.332 C 
ATOM     18  H   UNL A   1      35.199  21.683  27.499  1.00  0.00     0.347 HD
BRANCH   7  19
ATOM     19  C   UNL A   1      31.849  25.153  21.699  1.00  0.00     0.299 C 
BRANCH  19  20
ATOM     20  C   UNL A   1      32.158  26.548  22.210  1.00  0.00     0.010 A 
ATOM     21  C   UNL A   1      31.413  28.779  22.821  1.00  0.00     0.119 A 
ATOM     22  C   UNL A   1      32.733  29.219  22.879  1.00  0.00     0.046 A 
ATOM     23  C   UNL A   1      31.123  27.460  22.469  1.00  0.00     0.056 A 
ATOM     24  C   UNL A   1      33.770  28.310  22.690  1.00  0.00     0.004 A 
ATOM     25  C   UNL A   1      33.479  26.976  22.392  1.00  0.00     0.010 A 
BRANCH  21  26
ATOM     26  O   UNL A   1      30.433  29.705  23.049  1.00  0.00    -0.497 OA
ATOM     27  C   UNL A   1      29.700  29.994  21.858  1.00  0.00     0.278 C 
ENDBRANCH  21  26
ENDBRANCH  19  20
ENDBRANCH   7  19
ENDBRANCH   3   6
ENDBRANCH   1   2
BRANCH   1  28
ATOM     28  C   UNL A   1      32.337  27.582  27.150  1.00  0.00     0.042 C 
BRANCH  28  29
ATOM     29  C   UNL A   1      33.646  28.295  26.861  1.00  0.00     0.118 C 
BRANCH  29  30
ATOM     30  N   UNL A   1      33.558  29.719  27.168  1.00  0.00    -0.352 N 
ATOM     31  C   UNL A   1      34.425  30.528  27.859  1.00  0.00     0.251 C 
ATOM     32  H   UNL A   1      32.751  30.168  26.826  1.00  0.00     0.163 HD
ATOM     33  O   UNL A   1      34.064  31.643  28.212  1.00  0.00    -0.269 OA
BRANCH  31  34
ATOM     34  C   UNL A   1      35.783  30.047  28.197  1.00  0.00     0.039 A 
ATOM     35  C   UNL A   1      36.802  30.172  27.249  1.00  0.00     0.014 A 
ATOM     36  C   UNL A   1      36.052  29.465  29.438  1.00  0.00     0.014 A 
ATOM     37  C   UNL A   1      38.101  29.773  27.571  1.00  0.00     0.010 A 
ATOM     38  C   UNL A   1      37.362  29.165  29.794  1.00  0.00     0.010 A 
ATOM     39  C   UNL A   1      38.399  29.304  28.861  1.00  0.00    -0.014 A 
BRANCH  39  40
ATOM     40  C   UNL A   1      39.782  28.938  29.253  1.00  0.00     0.031 A 
ATOM     41  C   UNL A   1      40.593  29.869  30.111  1.00  0.00     0.074 A 
ATOM     42  C   UNL A   1      40.330  27.803  28.777  1.00  0.00     0.049 A 
ATOM     43  N   UNL A   1      41.841  29.770  30.493  1.00  0.00    -0.248 NA
ATOM     44  C   UNL A   1      39.921  31.095  30.571  1.00  0.00     0.031 C 
ATOM     45  C   UNL A   1      39.662  26.846  27.894  1.00  0.00     0.029 A 
ATOM     46  N   UNL A   1      41.581  27.268  28.961  1.00  0.00    -0.354 N 
ATOM     47  C   UNL A   1      42.104  30.924  31.221  1.00  0.00     0.074 A 
ATOM     48  C   UNL A   1      40.911  31.739  31.169  1.00  0.00     0.031 C 
ATOM     49  C   UNL A   1      40.496  25.825  27.641  1.00  0.00     0.029 A 
ATOM     50  C   UNL A   1      41.771  26.077  28.304  1.00  0.00     0.049 A 
ATOM     51  H   UNL A   1      42.275  27.697  29.511  1.00  0.00     0.167 HD
ATOM     52  C   UNL A   1      43.229  31.260  31.896  1.00  0.00     0.037 A 
ATOM     53  C   UNL A   1      42.855  25.281  28.240  1.00  0.00     0.037 A 
ATOM     54  C   UNL A   1      44.405  30.431  31.961  1.00  0.00     0.049 A 
ATOM     55  C   UNL A   1      44.099  25.683  28.987  1.00  0.00     0.074 A 
ATOM     56  C   UNL A   1      45.577  30.648  32.664  1.00  0.00     0.029 A 
ATOM     57  N   UNL A   1      44.557  29.224  31.291  1.00  0.00    -0.354 N 
ATOM     58  N   UNL A   1      44.313  26.740  29.731  1.00  0.00    -0.248 NA
ATOM     59  C   UNL A   1      45.249  24.774  28.889  1.00  0.00     0.031 C 
ATOM     60  C   UNL A   1      46.458  29.600  32.376  1.00  0.00     0.029 A 
ATOM     61  C   UNL A   1      45.813  28.698  31.543  1.00  0.00     0.049 A 
ATOM     62  H   UNL A   1      43.873  28.805  30.721  1.00  0.00     0.167 HD
ATOM     63  C   UNL A   1      45.609  26.612  30.213  1.00  0.00     0.074 A 
ATOM     64  C   UNL A   1      46.126  25.364  29.689  1.00  0.00     0.031 C 
ATOM     65  C   UNL A   1      46.309  27.451  31.015  1.00  0.00     0.037 A 
BRANCH  52  66
ATOM     66  C   UNL A   1      43.237  32.577  32.618  1.00  0.00     0.064 A 
ATOM     67  C   UNL A   1      42.820  32.691  33.953  1.00  0.00     0.173 A 
ATOM     68  C   UNL A   1      43.679  33.743  31.971  1.00  0.00     0.173 A 
ATOM     69  F   UNL A   1      42.377  31.611  34.616  1.00  0.00    -0.203 F 
ATOM     70  C   UNL A   1      42.804  33.924  34.600  1.00  0.00     0.198 A 
ATOM     71  C   UNL A   1      43.696  34.968  32.633  1.00  0.00     0.198 A 
ATOM     72  F   UNL A   1      44.095  33.693  30.697  1.00  0.00    -0.203 F 
ATOM     73  F   UNL A   1      42.340  34.015  35.854  1.00  0.00    -0.200 F 
ATOM     74  C   UNL A   1      43.248  35.060  33.942  1.00  0.00     0.200 A 
ATOM     75  F   UNL A   1      44.141  36.063  31.999  1.00  0.00    -0.200 F 
ATOM     76  F   UNL A   1      43.236  36.246  34.566  1.00  0.00    -0.200 F 
ENDBRANCH  52  66
BRANCH  53  77
ATOM     77  C   UNL A   1      42.801  24.012  27.469  1.00  0.00     0.064 A 
ATOM     78  C   UNL A   1      42.401  22.816  28.081  1.00  0.00     0.173 A 
ATOM     79  C   UNL A   1      43.139  23.965  26.108  1.00  0.00     0.173 A 
ATOM     80  F   UNL A   1      42.085  22.806  29.385  1.00  0.00    -0.203 F 
ATOM     81  C   UNL A   1      42.361  21.620  27.370  1.00  0.00     0.198 A 
ATOM     82  C   UNL A   1      43.069  22.773  25.390  1.00  0.00     0.198 A 
ATOM     83  F   UNL A   1      43.521  25.082  25.471  1.00  0.00    -0.203 F 
ATOM     84  F   UNL A   1      42.017  20.484  27.993  1.00  0.00    -0.200 F 
ATOM     85  C   UNL A   1      42.688  21.600  26.022  1.00  0.00     0.200 A 
ATOM     86  F   UNL A   1      43.369  22.762  24.084  1.00  0.00    -0.200 F 
ATOM     87  F   UNL A   1      42.642  20.450  25.336  1.00  0.00    -0.200 F 
ENDBRANCH  53  77
BRANCH  65  88
ATOM     88  C   UNL A   1      47.697  27.031  31.407  1.00  0.00     0.064 A 
ATOM     89  C   UNL A   1      47.928  26.144  32.470  1.00  0.00     0.173 A 
ATOM     90  C   UNL A   1      48.807  27.490  30.681  1.00  0.00     0.173 A 
ATOM     91  F   UNL A   1      46.901  25.689  33.204  1.00  0.00    -0.203 F 
ATOM     92  C   UNL A   1      49.221  25.758  32.810  1.00  0.00     0.198 A 
ATOM     93  C   UNL A   1      50.095  27.074  31.003  1.00  0.00     0.198 A 
ATOM     94  F   UNL A   1      48.641  28.333  29.651  1.00  0.00    -0.203 F 
ATOM     95  F   UNL A   1      49.423  24.953  33.862  1.00  0.00    -0.200 F 
ATOM     96  C   UNL A   1      50.303  26.216  32.072  1.00  0.00     0.200 A 
ATOM     97  F   UNL A   1      51.137  27.504  30.277  1.00  0.00    -0.200 F 
ATOM     98  F   UNL A   1      51.546  25.834  32.395  1.00  0.00    -0.200 F 
ENDBRANCH  65  88
ENDBRANCH  39  40
ENDBRANCH  31  34
ENDBRANCH  29  30
ENDBRANCH  28  29
ENDBRANCH   1  28
TORSDOF 13
ENDMDL
MODEL 2
REMARK VINA RESULT:     -12.3      2.990      8.541
REMARK SMILES COc1cccc(C[N@@H+]2C[C@H](C(=O)NCCCNC(=O)c3ccc(-c4c5nc(c(-c6c(F)c(F)c(F)c(F)c6F)c6ccc([nH]6)c(-c6c(F)c(F)c(F)c(F)c6F)c6nc(c(-c7c(F)c(F)c(F)c(F)c7F)c7ccc4[nH]7)C=C6)C=C5)cc3)C3(CC[NH+](C)CC3)C2)c1
REMARK SMILES IDX 15 1 14 2 12 3 13 4 11 6 9 7 10 8 91 9 84 11 85 12 90 13
REMARK SMILES IDX 86 14 89 15 87 16 88 17 8 19 7 20 3 21 4 22 92 23 5 24 6 25
REMARK SMILES IDX 2 26 1 27 16 28 17 29 18 30 19 31 20 33 21 34 22 35 83 36
REMARK SMILES IDX 23 37 82 38 24 39 25 40 26 41 76 42 27 43 81 44 75 45 77 46
REMARK SMILES IDX 28 47 80 48 74 49 73 50 29 52 61 53 41 54 60 55 42 56 45 57
REMARK SMILES IDX 59 58 78 59 43 60 44 61 58 63 79 64 46 65 30 66 31 67 39 68
REMARK SMILES IDX 32 69 33 70 37 71 40 72 34 73 35 74 38 75 36 76 62 77 63 78
REMARK SMILES IDX 71 79 64 80 65 81 69 82 72 83 66 84 67 85 70 86 68 87 47 88
REMARK SMILES IDX 48 89 56 90 49 91 50 92 54 93 57 94 51 95 52 96 55 97 53 98
REMARK H PARENT 14 5 9 10 87 18 18 32 77 51 45 62
REMARK Flexibility Score: inf
ROOT
ATOM      1  C   UNL A   1      34.483  24.450  24.377  1.00  0.00     0.117 C 
ENDROOT
BRANCH   1   2
ATOM      2  N   UNL A   1      34.370  25.701  23.658  1.00  0.00    -0.356 N 
ATOM      3  C   UNL A   1      33.342  26.575  23.518  1.00  0.00     0.229 C 
ATOM      4  O   UNL A   1      33.521  27.485  22.701  1.00  0.00    -0.275 OA
ATOM      5  H   UNL A   1      35.190  25.966  23.183  1.00  0.00     0.163 HD
BRANCH   3   6
ATOM      6  C   UNL A   1      32.047  26.529  24.322  1.00  0.00     0.145 C 
ATOM      7  N   UNL A   1      30.590  25.249  25.699  1.00  0.00    -0.330 N 
ATOM      8  C   UNL A   1      31.430  25.148  24.519  1.00  0.00     0.276 C 
ATOM      9  C   UNL A   1      30.892  26.456  26.455  1.00  0.00     0.270 C 
ATOM     10  H   UNL A   1      29.639  25.368  25.352  1.00  0.00     0.348 HD
ATOM     11  C   UNL A   1      31.977  27.264  25.692  1.00  0.00     0.047 C 
ATOM     12  C   UNL A   1      31.484  28.725  25.516  1.00  0.00     0.075 C 
ATOM     13  C   UNL A   1      33.268  27.315  26.548  1.00  0.00     0.075 C 
ATOM     14  C   UNL A   1      32.579  29.681  25.041  1.00  0.00     0.262 C 
ATOM     15  C   UNL A   1      34.303  28.355  26.097  1.00  0.00     0.262 C 
ATOM     16  N   UNL A   1      33.759  29.700  25.910  1.00  0.00    -0.337 N 
ATOM     17  C   UNL A   1      33.516  30.388  27.175  1.00  0.00     0.332 C 
ATOM     18  H   UNL A   1      34.473  30.250  25.432  1.00  0.00     0.347 HD
BRANCH   7  19
ATOM     19  C   UNL A   1      30.343  24.021  26.460  1.00  0.00     0.299 C 
BRANCH  19  20
ATOM     20  C   UNL A   1      31.451  22.986  26.424  1.00  0.00     0.010 A 
ATOM     21  C   UNL A   1      32.301  20.838  25.668  1.00  0.00     0.119 A 
ATOM     22  C   UNL A   1      33.359  20.924  26.568  1.00  0.00     0.046 A 
ATOM     23  C   UNL A   1      31.341  21.849  25.608  1.00  0.00     0.056 A 
ATOM     24  C   UNL A   1      33.518  22.074  27.336  1.00  0.00     0.004 A 
ATOM     25  C   UNL A   1      32.586  23.111  27.235  1.00  0.00     0.010 A 
BRANCH  21  26
ATOM     26  O   UNL A   1      32.211  19.701  24.913  1.00  0.00    -0.497 OA
ATOM     27  C   UNL A   1      32.478  19.966  23.535  1.00  0.00     0.278 C 
ENDBRANCH  21  26
ENDBRANCH  19  20
ENDBRANCH   7  19
ENDBRANCH   3   6
ENDBRANCH   1   2
BRANCH   1  28
ATOM     28  C   UNL A   1      35.937  23.998  24.435  1.00  0.00     0.042 C 
BRANCH  28  29
ATOM     29  C   UNL A   1      36.434  23.835  25.860  1.00  0.00     0.118 C 
BRANCH  29  30
ATOM     30  N   UNL A   1      37.437  22.779  25.959  1.00  0.00    -0.352 N 
ATOM     31  C   UNL A   1      38.766  22.855  26.292  1.00  0.00     0.251 C 
ATOM     32  H   UNL A   1      37.109  21.874  25.754  1.00  0.00     0.163 HD
ATOM     33  O   UNL A   1      39.498  21.893  26.093  1.00  0.00    -0.269 OA
BRANCH  31  34
ATOM     34  C   UNL A   1      39.320  24.100  26.869  1.00  0.00     0.039 A 
ATOM     35  C   UNL A   1      39.987  24.998  26.031  1.00  0.00     0.014 A 
ATOM     36  C   UNL A   1      39.195  24.379  28.232  1.00  0.00     0.014 A 
ATOM     37  C   UNL A   1      40.468  26.202  26.549  1.00  0.00     0.010 A 
ATOM     38  C   UNL A   1      39.582  25.620  28.724  1.00  0.00     0.010 A 
ATOM     39  C   UNL A   1      40.233  26.540  27.891  1.00  0.00    -0.014 A 
BRANCH  39  40
ATOM     40  C   UNL A   1      40.672  27.842  28.452  1.00  0.00     0.031 A 
ATOM     41  C   UNL A   1      42.115  28.057  28.815  1.00  0.00     0.074 A 
ATOM     42  C   UNL A   1      39.759  28.801  28.701  1.00  0.00     0.049 A 
ATOM     43  N   UNL A   1      42.681  29.088  29.389  1.00  0.00    -0.248 NA
ATOM     44  C   UNL A   1      43.041  26.950  28.526  1.00  0.00     0.031 C 
ATOM     45  C   UNL A   1      38.323  28.690  28.441  1.00  0.00     0.029 A 
ATOM     46  N   UNL A   1      39.903  30.056  29.238  1.00  0.00    -0.354 N 
ATOM     47  C   UNL A   1      44.019  28.746  29.544  1.00  0.00     0.074 A 
ATOM     48  C   UNL A   1      44.166  27.388  29.067  1.00  0.00     0.031 C 
ATOM     49  C   UNL A   1      37.723  29.839  28.788  1.00  0.00     0.029 A 
ATOM     50  C   UNL A   1      38.723  30.751  29.335  1.00  0.00     0.049 A 
ATOM     51  H   UNL A   1      40.770  30.422  29.527  1.00  0.00     0.167 HD
ATOM     52  C   UNL A   1      45.037  29.505  30.013  1.00  0.00     0.037 A 
ATOM     53  C   UNL A   1      38.475  31.983  29.818  1.00  0.00     0.037 A 
ATOM     54  C   UNL A   1      44.886  30.864  30.464  1.00  0.00     0.049 A 
ATOM     55  C   UNL A   1      39.622  32.802  30.347  1.00  0.00     0.074 A 
ATOM     56  C   UNL A   1      45.860  31.742  30.903  1.00  0.00     0.029 A 
ATOM     57  N   UNL A   1      43.675  31.539  30.538  1.00  0.00    -0.354 N 
ATOM     58  N   UNL A   1      40.894  32.496  30.422  1.00  0.00    -0.248 NA
ATOM     59  C   UNL A   1      39.295  34.142  30.855  1.00  0.00     0.031 C 
ATOM     60  C   UNL A   1      45.233  32.930  31.294  1.00  0.00     0.029 A 
ATOM     61  C   UNL A   1      43.875  32.815  31.040  1.00  0.00     0.049 A 
ATOM     62  H   UNL A   1      42.803  31.166  30.272  1.00  0.00     0.167 HD
ATOM     63  C   UNL A   1      41.525  33.612  30.956  1.00  0.00     0.074 A 
ATOM     64  C   UNL A   1      40.495  34.608  31.171  1.00  0.00     0.031 C 
ATOM     65  C   UNL A   1      42.837  33.795  31.243  1.00  0.00     0.037 A 
BRANCH  52  66
ATOM     66  C   UNL A   1      46.404  28.880  30.057  1.00  0.00     0.064 A 
ATOM     67  C   UNL A   1      46.872  28.207  31.196  1.00  0.00     0.173 A 
ATOM     68  C   UNL A   1      47.254  28.944  28.941  1.00  0.00     0.173 A 
ATOM     69  F   UNL A   1      46.106  28.126  32.295  1.00  0.00    -0.203 F 
ATOM     70  C   UNL A   1      48.151  27.658  31.233  1.00  0.00     0.198 A 
ATOM     71  C   UNL A   1      48.519  28.362  28.969  1.00  0.00     0.198 A 
ATOM     72  F   UNL A   1      46.857  29.569  27.823  1.00  0.00    -0.203 F 
ATOM     73  F   UNL A   1      48.597  27.078  32.355  1.00  0.00    -0.200 F 
ATOM     74  C   UNL A   1      48.971  27.730  30.118  1.00  0.00     0.200 A 
ATOM     75  F   UNL A   1      49.304  28.420  27.884  1.00  0.00    -0.200 F 
ATOM     76  F   UNL A   1      50.201  27.200  30.152  1.00  0.00    -0.200 F 
ENDBRANCH  52  66
BRANCH  53  77
ATOM     77  C   UNL A   1      37.093  32.527  29.791  1.00  0.00     0.064 A 
ATOM     78  C   UNL A   1      36.226  32.339  30.876  1.00  0.00     0.173 A 
ATOM     79  C   UNL A   1      36.610  33.251  28.690  1.00  0.00     0.173 A 
ATOM     80  F   UNL A   1      36.634  31.638  31.944  1.00  0.00    -0.203 F 
ATOM     81  C   UNL A   1      34.924  32.834  30.854  1.00  0.00     0.198 A 
ATOM     82  C   UNL A   1      35.318  33.772  28.682  1.00  0.00     0.198 A 
ATOM     83  F   UNL A   1      37.401  33.467  27.628  1.00  0.00    -0.203 F 
ATOM     84  F   UNL A   1      34.103  32.600  31.887  1.00  0.00    -0.200 F 
ATOM     85  C   UNL A   1      34.473  33.556  29.759  1.00  0.00     0.200 A 
ATOM     86  F   UNL A   1      34.891  34.484  27.630  1.00  0.00    -0.200 F 
ATOM     87  F   UNL A   1      33.223  34.039  29.742  1.00  0.00    -0.200 F 
ENDBRANCH  53  77
BRANCH  65  88
ATOM     88  C   UNL A   1      43.241  35.135  31.787  1.00  0.00     0.064 A 
ATOM     89  C   UNL A   1      43.635  36.186  30.945  1.00  0.00     0.173 A 
ATOM     90  C   UNL A   1      43.194  35.383  33.168  1.00  0.00     0.173 A 
ATOM     91  F   UNL A   1      43.711  35.996  29.619  1.00  0.00    -0.203 F 
ATOM     92  C   UNL A   1      43.995  37.425  31.467  1.00  0.00     0.198 A 
ATOM     93  C   UNL A   1      43.521  36.633  33.683  1.00  0.00     0.198 A 
ATOM     94  F   UNL A   1      42.817  34.415  34.017  1.00  0.00    -0.203 F 
ATOM     95  F   UNL A   1      44.420  38.398  30.649  1.00  0.00    -0.200 F 
ATOM     96  C   UNL A   1      43.930  37.650  32.835  1.00  0.00     0.200 A 
ATOM     97  F   UNL A   1      43.441  36.853  35.003  1.00  0.00    -0.200 F 
ATOM     98  F   UNL A   1      44.269  38.847  33.335  1.00  0.00    -0.200 F 
ENDBRANCH  65  88
ENDBRANCH  39  40
ENDBRANCH  31  34
ENDBRANCH  29  30
ENDBRANCH  28  29
ENDBRANCH   1  28
TORSDOF 13
ENDMDL
MODEL 3
REMARK VINA RESULT:     -12.3      1.671      3.910
REMARK SMILES COc1cccc(C[N@@H+]2C[C@H](C(=O)NCCCNC(=O)c3ccc(-c4c5nc(c(-c6c(F)c(F)c(F)c(F)c6F)c6ccc([nH]6)c(-c6c(F)c(F)c(F)c(F)c6F)c6nc(c(-c7c(F)c(F)c(F)c(F)c7F)c7ccc4[nH]7)C=C6)C=C5)cc3)C3(CC[NH+](C)CC3)C2)c1
REMARK SMILES IDX 15 1 14 2 12 3 13 4 11 6 9 7 10 8 91 9 84 11 85 12 90 13
REMARK SMILES IDX 86 14 89 15 87 16 88 17 8 19 7 20 3 21 4 22 92 23 5 24 6 25
REMARK SMILES IDX 2 26 1 27 16 28 17 29 18 30 19 31 20 33 21 34 22 35 83 36
REMARK SMILES IDX 23 37 82 38 24 39 25 40 26 41 76 42 27 43 81 44 75 45 77 46
REMARK SMILES IDX 28 47 80 48 74 49 73 50 29 52 61 53 41 54 60 55 42 56 45 57
REMARK SMILES IDX 59 58 78 59 43 60 44 61 58 63 79 64 46 65 30 66 31 67 39 68
REMARK SMILES IDX 32 69 33 70 37 71 40 72 34 73 35 74 38 75 36 76 62 77 63 78
REMARK SMILES IDX 71 79 64 80 65 81 69 82 72 83 66 84 67 85 70 86 68 87 47 88
REMARK SMILES IDX 48 89 56 90 49 91 50 92 54 93 57 94 51 95 52 96 55 97 53 98
REMARK H PARENT 14 5 9 10 87 18 18 32 77 51 45 62
REMARK Flexibility Score: inf
ROOT
ATOM      1  C   UNL A   1      31.809  28.454  27.152  1.00  0.00     0.117 C 
ENDROOT
BRANCH   1   2
ATOM      2  N   UNL A   1      31.000  27.279  26.907  1.00  0.00    -0.356 N 
ATOM      3  C   UNL A   1      30.970  26.400  25.874  1.00  0.00     0.229 C 
ATOM      4  O   UNL A   1      30.045  25.580  25.896  1.00  0.00    -0.275 OA
ATOM      5  H   UNL A   1      30.353  27.081  27.621  1.00  0.00     0.163 HD
BRANCH   3   6
ATOM      6  C   UNL A   1      32.008  26.336  24.758  1.00  0.00     0.145 C 
ATOM      7  N   UNL A   1      33.149  24.994  23.161  1.00  0.00    -0.330 N 
ATOM      8  C   UNL A   1      32.661  24.978  24.528  1.00  0.00     0.276 C 
ATOM      9  C   UNL A   1      32.562  26.093  22.408  1.00  0.00     0.270 C 
ATOM     10  H   UNL A   1      34.146  25.201  23.225  1.00  0.00     0.348 HD
ATOM     11  C   UNL A   1      31.654  26.920  23.359  1.00  0.00     0.047 C 
ATOM     12  C   UNL A   1      32.056  28.416  23.262  1.00  0.00     0.075 C 
ATOM     13  C   UNL A   1      30.183  26.808  22.882  1.00  0.00     0.075 C 
ATOM     14  C   UNL A   1      31.050  29.358  23.926  1.00  0.00     0.262 C 
ATOM     15  C   UNL A   1      29.223  27.833  23.500  1.00  0.00     0.262 C 
ATOM     16  N   UNL A   1      29.686  29.218  23.410  1.00  0.00    -0.337 N 
ATOM     17  C   UNL A   1      29.531  29.775  22.069  1.00  0.00     0.332 C 
ATOM     18  H   UNL A   1      29.081  29.777  24.011  1.00  0.00     0.347 HD
BRANCH   7  19
ATOM     19  C   UNL A   1      33.286  23.706  22.477  1.00  0.00     0.299 C 
BRANCH  19  20
ATOM     20  C   UNL A   1      33.675  22.529  23.351  1.00  0.00     0.010 A 
ATOM     21  C   UNL A   1      33.055  20.532  24.590  1.00  0.00     0.119 A 
ATOM     22  C   UNL A   1      34.306  20.505  25.201  1.00  0.00     0.046 A 
ATOM     23  C   UNL A   1      32.731  21.546  23.688  1.00  0.00     0.056 A 
ATOM     24  C   UNL A   1      35.274  21.433  24.826  1.00  0.00     0.004 A 
ATOM     25  C   UNL A   1      34.966  22.415  23.881  1.00  0.00     0.010 A 
BRANCH  21  26
ATOM     26  O   UNL A   1      32.153  19.576  24.968  1.00  0.00    -0.497 OA
ATOM     27  C   UNL A   1      32.805  18.373  25.375  1.00  0.00     0.278 C 
ENDBRANCH  21  26
ENDBRANCH  19  20
ENDBRANCH   7  19
ENDBRANCH   3   6
ENDBRANCH   1   2
BRANCH   1  28
ATOM     28  C   UNL A   1      33.291  28.110  27.057  1.00  0.00     0.042 C 
BRANCH  28  29
ATOM     29  C   UNL A   1      34.055  29.093  26.188  1.00  0.00     0.118 C 
BRANCH  29  30
ATOM     30  N   UNL A   1      33.967  30.452  26.715  1.00  0.00    -0.352 N 
ATOM     31  C   UNL A   1      34.703  31.067  27.697  1.00  0.00     0.251 C 
ATOM     32  H   UNL A   1      33.271  31.013  26.302  1.00  0.00     0.163 HD
ATOM     33  O   UNL A   1      34.325  32.135  28.160  1.00  0.00    -0.269 OA
BRANCH  31  34
ATOM     34  C   UNL A   1      35.936  30.431  28.212  1.00  0.00     0.039 A 
ATOM     35  C   UNL A   1      37.125  30.575  27.492  1.00  0.00     0.014 A 
ATOM     36  C   UNL A   1      35.922  29.686  29.394  1.00  0.00     0.014 A 
ATOM     37  C   UNL A   1      38.308  30.027  27.991  1.00  0.00     0.010 A 
ATOM     38  C   UNL A   1      37.116  29.231  29.941  1.00  0.00     0.010 A 
ATOM     39  C   UNL A   1      38.320  29.386  29.241  1.00  0.00    -0.014 A 
BRANCH  39  40
ATOM     40  C   UNL A   1      39.575  28.855  29.829  1.00  0.00     0.031 A 
ATOM     41  C   UNL A   1      40.204  29.544  31.007  1.00  0.00     0.074 A 
ATOM     42  C   UNL A   1      40.183  27.798  29.255  1.00  0.00     0.049 A 
ATOM     43  N   UNL A   1      41.336  29.286  31.611  1.00  0.00    -0.248 NA
ATOM     44  C   UNL A   1      39.482  30.702  31.558  1.00  0.00     0.031 C 
ATOM     45  C   UNL A   1      39.697  27.079  28.077  1.00  0.00     0.029 A 
ATOM     46  N   UNL A   1      41.349  27.151  29.581  1.00  0.00    -0.354 N 
ATOM     47  C   UNL A   1      41.466  30.255  32.598  1.00  0.00     0.074 A 
ATOM     48  C   UNL A   1      40.335  31.147  32.467  1.00  0.00     0.031 C 
ATOM     49  C   UNL A   1      40.538  26.071  27.799  1.00  0.00     0.029 A 
ATOM     50  C   UNL A   1      41.645  26.100  28.749  1.00  0.00     0.049 A 
ATOM     51  H   UNL A   1      41.918  27.416  30.339  1.00  0.00     0.167 HD
ATOM     52  C   UNL A   1      42.427  30.375  33.545  1.00  0.00     0.037 A 
ATOM     53  C   UNL A   1      42.695  25.258  28.751  1.00  0.00     0.037 A 
ATOM     54  C   UNL A   1      43.537  29.469  33.683  1.00  0.00     0.049 A 
ATOM     55  C   UNL A   1      43.758  25.419  29.806  1.00  0.00     0.074 A 
ATOM     56  C   UNL A   1      44.534  29.463  34.643  1.00  0.00     0.029 A 
ATOM     57  N   UNL A   1      43.799  28.407  32.827  1.00  0.00    -0.354 N 
ATOM     58  N   UNL A   1      43.834  26.295  30.778  1.00  0.00    -0.248 NA
ATOM     59  C   UNL A   1      44.877  24.468  29.765  1.00  0.00     0.031 C 
ATOM     60  C   UNL A   1      45.428  28.432  34.337  1.00  0.00     0.029 A 
ATOM     61  C   UNL A   1      44.956  27.756  33.222  1.00  0.00     0.049 A 
ATOM     62  H   UNL A   1      43.244  28.155  32.054  1.00  0.00     0.167 HD
ATOM     63  C   UNL A   1      44.990  25.986  31.481  1.00  0.00     0.074 A 
ATOM     64  C   UNL A   1      45.575  24.829  30.832  1.00  0.00     0.031 C 
ATOM     65  C   UNL A   1      45.520  26.603  32.565  1.00  0.00     0.037 A 
BRANCH  52  66
ATOM     66  C   UNL A   1      42.312  31.524  34.507  1.00  0.00     0.064 A 
ATOM     67  C   UNL A   1      42.954  32.750  34.272  1.00  0.00     0.173 A 
ATOM     68  C   UNL A   1      41.540  31.404  35.674  1.00  0.00     0.173 A 
ATOM     69  F   UNL A   1      43.713  32.917  33.179  1.00  0.00    -0.203 F 
ATOM     70  C   UNL A   1      42.862  33.797  35.186  1.00  0.00     0.198 A 
ATOM     71  C   UNL A   1      41.421  32.465  36.567  1.00  0.00     0.198 A 
ATOM     72  F   UNL A   1      40.900  30.258  35.946  1.00  0.00    -0.203 F 
ATOM     73  F   UNL A   1      43.537  34.934  34.970  1.00  0.00    -0.200 F 
ATOM     74  C   UNL A   1      42.091  33.656  36.330  1.00  0.00     0.200 A 
ATOM     75  F   UNL A   1      40.663  32.332  37.665  1.00  0.00    -0.200 F 
ATOM     76  F   UNL A   1      42.001  34.665  37.208  1.00  0.00    -0.200 F 
ENDBRANCH  52  66
BRANCH  53  77
ATOM     77  C   UNL A   1      42.776  24.169  27.743  1.00  0.00     0.064 A 
ATOM     78  C   UNL A   1      42.361  22.867  28.057  1.00  0.00     0.173 A 
ATOM     79  C   UNL A   1      43.262  24.402  26.447  1.00  0.00     0.173 A 
ATOM     80  F   UNL A   1      41.906  22.589  29.288  1.00  0.00    -0.203 F 
ATOM     81  C   UNL A   1      42.446  21.838  27.123  1.00  0.00     0.198 A 
ATOM     82  C   UNL A   1      43.318  23.378  25.504  1.00  0.00     0.198 A 
ATOM     83  F   UNL A   1      43.666  25.631  26.092  1.00  0.00    -0.203 F 
ATOM     84  F   UNL A   1      42.083  20.594  27.466  1.00  0.00    -0.200 F 
ATOM     85  C   UNL A   1      42.918  22.095  25.845  1.00  0.00     0.200 A 
ATOM     86  F   UNL A   1      43.759  23.634  24.265  1.00  0.00    -0.200 F 
ATOM     87  F   UNL A   1      42.993  21.106  24.944  1.00  0.00    -0.200 F 
ENDBRANCH  53  77
BRANCH  65  88
ATOM     88  C   UNL A   1      46.778  26.019  33.142  1.00  0.00     0.064 A 
ATOM     89  C   UNL A   1      46.746  24.979  34.083  1.00  0.00     0.173 A 
ATOM     90  C   UNL A   1      48.034  26.479  32.715  1.00  0.00     0.173 A 
ATOM     91  F   UNL A   1      45.571  24.514  34.535  1.00  0.00    -0.203 F 
ATOM     92  C   UNL A   1      47.923  24.443  34.598  1.00  0.00     0.198 A 
ATOM     93  C   UNL A   1      49.208  25.917  33.206  1.00  0.00     0.198 A 
ATOM     94  F   UNL A   1      48.121  27.467  31.811  1.00  0.00    -0.203 F 
ATOM     95  F   UNL A   1      47.869  23.487  35.535  1.00  0.00    -0.200 F 
ATOM     96  C   UNL A   1      49.153  24.906  34.153  1.00  0.00     0.200 A 
ATOM     97  F   UNL A   1      50.395  26.355  32.762  1.00  0.00    -0.200 F 
ATOM     98  F   UNL A   1      50.285  24.382  34.643  1.00  0.00    -0.200 F 
ENDBRANCH  65  88
ENDBRANCH  39  40
ENDBRANCH  31  34
ENDBRANCH  29  30
ENDBRANCH  28  29
ENDBRANCH   1  28
TORSDOF 13
ENDMDL
