MODEL 1
REMARK VINA RESULT:     -13.2      0.000      0.000
REMARK SMILES CC(C)N1C[C@@H](C(=O)N2CCC(C(=O)NCCCNC(=O)c3ccc(-c4c5nc(c(-c6c(F)c(F)c(F)c(F)c6F)c6ccc([nH]6)c(-c6c(F)c(F)c(F)c(F)c6F)c6nc(c(-c7c(F)c(F)c(F)c(F)c7F)c7ccc4[nH]7)C=C6)C=C5)cc3)CC2)CC1=O
REMARK SMILES IDX 17 1 16 2 15 3 13 4 14 5 12 7 7 8 8 9 9 10 10 11 86 12 11 13
REMARK SMILES IDX 85 14 6 15 4 16 5 17 88 18 87 19 89 20 2 21 1 22 3 23 18 24
REMARK SMILES IDX 19 25 20 26 21 28 22 29 23 30 84 31 24 32 83 33 25 34 26 35
REMARK SMILES IDX 27 36 77 37 28 38 82 39 76 40 78 41 29 42 81 43 75 44 74 45
REMARK SMILES IDX 30 47 62 48 42 49 61 50 43 51 46 52 60 53 79 54 44 55 45 56
REMARK SMILES IDX 59 58 80 59 47 60 31 61 32 62 40 63 33 64 34 65 38 66 41 67
REMARK SMILES IDX 35 68 36 69 39 70 37 71 63 72 64 73 72 74 65 75 66 76 70 77
REMARK SMILES IDX 73 78 67 79 68 80 71 81 69 82 48 83 49 84 57 85 50 86 51 87
REMARK SMILES IDX 55 88 58 89 52 90 53 91 56 92 54 93
REMARK H PARENT 15 6 19 27 78 46 46 57
REMARK Flexibility Score: inf
ROOT
ATOM      1  C   UNL A   1      31.588  31.999  26.563  1.00  0.00     0.042 C 
ENDROOT
BRANCH   1   2
ATOM      2  C   UNL A   1      31.815  30.509  26.357  1.00  0.00     0.117 C 
BRANCH   2   3
ATOM      3  N   UNL A   1      31.348  30.060  25.052  1.00  0.00    -0.356 N 
ATOM      4  C   UNL A   1      31.572  28.906  24.367  1.00  0.00     0.223 C 
ATOM      5  O   UNL A   1      31.077  28.798  23.243  1.00  0.00    -0.275 OA
ATOM      6  H   UNL A   1      30.767  30.704  24.585  1.00  0.00     0.163 HD
BRANCH   4   7
ATOM      7  C   UNL A   1      32.387  27.769  24.964  1.00  0.00     0.082 C 
ATOM      8  C   UNL A   1      32.463  23.837  24.207  1.00  0.00     0.227 C 
ATOM      9  O   UNL A   1      31.244  23.678  24.085  1.00  0.00    -0.274 OA
ATOM     10  N   UNL A   1      32.963  24.951  24.856  1.00  0.00    -0.342 N 
ATOM     11  C   UNL A   1      32.234  25.470  26.004  1.00  0.00     0.120 C 
ATOM     12  C   UNL A   1      33.965  25.852  24.310  1.00  0.00     0.120 C 
ATOM     13  C   UNL A   1      31.489  26.745  25.666  1.00  0.00     0.035 C 
ATOM     14  C   UNL A   1      33.361  27.199  23.924  1.00  0.00     0.035 C 
BRANCH   8  15
ATOM     15  C   UNL A   1      33.398  22.668  23.904  1.00  0.00     0.107 C 
ATOM     16  N   UNL A   1      33.590  20.352  24.231  1.00  0.00    -0.339 N 
ATOM     17  C   UNL A   1      32.606  21.367  23.947  1.00  0.00     0.133 C 
ATOM     18  C   UNL A   1      34.764  20.892  24.728  1.00  0.00     0.223 C 
ATOM     19  C   UNL A   1      34.639  22.394  24.738  1.00  0.00     0.115 C 
ATOM     20  O   UNL A   1      35.729  20.274  25.153  1.00  0.00    -0.275 OA
BRANCH  16  21
ATOM     21  C   UNL A   1      33.287  18.921  24.259  1.00  0.00     0.078 C 
ATOM     22  C   UNL A   1      32.693  18.517  25.609  1.00  0.00     0.031 C 
ATOM     23  C   UNL A   1      32.374  18.500  23.111  1.00  0.00     0.031 C 
ENDBRANCH  16  21
ENDBRANCH   8  15
ENDBRANCH   4   7
ENDBRANCH   2   3
ENDBRANCH   1   2
BRANCH   1  24
ATOM     24  C   UNL A   1      32.710  32.680  27.330  1.00  0.00     0.118 C 
BRANCH  24  25
ATOM     25  N   UNL A   1      32.432  34.084  27.602  1.00  0.00    -0.352 N 
ATOM     26  C   UNL A   1      32.988  34.917  28.543  1.00  0.00     0.251 C 
ATOM     27  H   UNL A   1      31.747  34.496  27.029  1.00  0.00     0.163 HD
ATOM     28  O   UNL A   1      32.499  36.021  28.760  1.00  0.00    -0.269 OA
BRANCH  26  29
ATOM     29  C   UNL A   1      34.167  34.465  29.308  1.00  0.00     0.039 A 
ATOM     30  C   UNL A   1      33.984  33.844  30.545  1.00  0.00     0.014 A 
ATOM     31  C   UNL A   1      35.451  34.635  28.787  1.00  0.00     0.014 A 
ATOM     32  C   UNL A   1      35.087  33.320  31.224  1.00  0.00     0.010 A 
ATOM     33  C   UNL A   1      36.531  34.027  29.412  1.00  0.00     0.010 A 
ATOM     34  C   UNL A   1      36.363  33.368  30.640  1.00  0.00    -0.014 A 
BRANCH  34  35
ATOM     35  C   UNL A   1      37.552  32.762  31.289  1.00  0.00     0.031 A 
ATOM     36  C   UNL A   1      38.251  31.610  30.622  1.00  0.00     0.074 A 
ATOM     37  C   UNL A   1      37.936  33.174  32.512  1.00  0.00     0.049 A 
ATOM     38  N   UNL A   1      39.195  30.830  31.086  1.00  0.00    -0.248 NA
ATOM     39  C   UNL A   1      37.800  31.266  29.264  1.00  0.00     0.031 C 
ATOM     40  C   UNL A   1      37.319  34.258  33.276  1.00  0.00     0.029 A 
ATOM     41  N   UNL A   1      38.928  32.708  33.341  1.00  0.00    -0.354 N 
ATOM     42  C   UNL A   1      39.428  29.893  30.088  1.00  0.00     0.074 A 
ATOM     43  C   UNL A   1      38.491  30.163  29.020  1.00  0.00     0.031 C 
ATOM     44  C   UNL A   1      37.952  34.384  34.453  1.00  0.00     0.029 A 
ATOM     45  C   UNL A   1      38.985  33.356  34.550  1.00  0.00     0.049 A 
ATOM     46  H   UNL A   1      39.540  31.979  33.090  1.00  0.00     0.167 HD
ATOM     47  C   UNL A   1      40.357  28.907  30.058  1.00  0.00     0.037 A 
ATOM     48  C   UNL A   1      39.766  33.131  35.624  1.00  0.00     0.037 A 
ATOM     49  C   UNL A   1      41.303  28.660  31.114  1.00  0.00     0.049 A 
ATOM     50  C   UNL A   1      40.777  32.015  35.574  1.00  0.00     0.074 A 
ATOM     51  C   UNL A   1      42.317  27.721  31.160  1.00  0.00     0.029 A 
ATOM     52  N   UNL A   1      41.346  29.358  32.312  1.00  0.00    -0.354 N 
ATOM     53  N   UNL A   1      41.026  31.166  34.607  1.00  0.00    -0.248 NA
ATOM     54  C   UNL A   1      41.617  31.828  36.765  1.00  0.00     0.031 C 
ATOM     55  C   UNL A   1      42.940  27.813  32.407  1.00  0.00     0.029 A 
ATOM     56  C   UNL A   1      42.359  28.855  33.113  1.00  0.00     0.049 A 
ATOM     57  H   UNL A   1      40.748  30.100  32.556  1.00  0.00     0.167 HD
ATOM     58  C   UNL A   1      42.078  30.376  35.053  1.00  0.00     0.074 A 
ATOM     59  C   UNL A   1      42.421  30.848  36.378  1.00  0.00     0.031 C 
ATOM     60  C   UNL A   1      42.704  29.354  34.419  1.00  0.00     0.037 A 
BRANCH  47  61
ATOM     61  C   UNL A   1      40.391  28.020  28.846  1.00  0.00     0.064 A 
ATOM     62  C   UNL A   1      41.145  28.351  27.709  1.00  0.00     0.173 A 
ATOM     63  C   UNL A   1      39.687  26.806  28.833  1.00  0.00     0.173 A 
ATOM     64  F   UNL A   1      41.827  29.505  27.663  1.00  0.00    -0.203 F 
ATOM     65  C   UNL A   1      41.163  27.518  26.593  1.00  0.00     0.198 A 
ATOM     66  C   UNL A   1      39.737  25.958  27.729  1.00  0.00     0.198 A 
ATOM     67  F   UNL A   1      38.954  26.437  29.895  1.00  0.00    -0.203 F 
ATOM     68  F   UNL A   1      41.843  27.884  25.497  1.00  0.00    -0.200 F 
ATOM     69  C   UNL A   1      40.466  26.319  26.607  1.00  0.00     0.200 A 
ATOM     70  F   UNL A   1      39.076  24.793  27.752  1.00  0.00    -0.200 F 
ATOM     71  F   UNL A   1      40.494  25.515  25.536  1.00  0.00    -0.200 F 
ENDBRANCH  47  61
BRANCH  48  72
ATOM     72  C   UNL A   1      39.637  33.988  36.834  1.00  0.00     0.064 A 
ATOM     73  C   UNL A   1      38.839  33.588  37.916  1.00  0.00     0.173 A 
ATOM     74  C   UNL A   1      40.295  35.222  36.932  1.00  0.00     0.173 A 
ATOM     75  F   UNL A   1      38.173  32.425  37.862  1.00  0.00    -0.203 F 
ATOM     76  C   UNL A   1      38.683  34.402  39.036  1.00  0.00     0.198 A 
ATOM     77  C   UNL A   1      40.164  36.020  38.066  1.00  0.00     0.198 A 
ATOM     78  F   UNL A   1      41.075  35.650  35.928  1.00  0.00    -0.203 F 
ATOM     79  F   UNL A   1      37.871  34.020  40.031  1.00  0.00    -0.200 F 
ATOM     80  C   UNL A   1      39.350  35.615  39.112  1.00  0.00     0.200 A 
ATOM     81  F   UNL A   1      40.823  37.185  38.143  1.00  0.00    -0.200 F 
ATOM     82  F   UNL A   1      39.201  36.397  40.191  1.00  0.00    -0.200 F 
ENDBRANCH  48  72
BRANCH  60  83
ATOM     83  C   UNL A   1      43.873  28.717  35.116  1.00  0.00     0.064 A 
ATOM     84  C   UNL A   1      43.726  27.592  35.940  1.00  0.00     0.173 A 
ATOM     85  C   UNL A   1      45.171  29.207  34.900  1.00  0.00     0.173 A 
ATOM     86  F   UNL A   1      42.505  27.093  36.190  1.00  0.00    -0.203 F 
ATOM     87  C   UNL A   1      44.831  26.994  36.539  1.00  0.00     0.198 A 
ATOM     88  C   UNL A   1      46.277  28.587  35.472  1.00  0.00     0.198 A 
ATOM     89  F   UNL A   1      45.368  30.275  34.113  1.00  0.00    -0.203 F 
ATOM     90  F   UNL A   1      44.663  25.948  37.359  1.00  0.00    -0.200 F 
ATOM     91  C   UNL A   1      46.106  27.486  36.295  1.00  0.00     0.200 A 
ATOM     92  F   UNL A   1      47.508  29.052  35.221  1.00  0.00    -0.200 F 
ATOM     93  F   UNL A   1      47.170  26.899  36.861  1.00  0.00    -0.200 F 
ENDBRANCH  60  83
ENDBRANCH  34  35
ENDBRANCH  26  29
ENDBRANCH  24  25
ENDBRANCH   1  24
TORSDOF 12
ENDMDL
MODEL 2
REMARK VINA RESULT:     -13.1      1.053      2.041
REMARK SMILES CC(C)N1C[C@@H](C(=O)N2CCC(C(=O)NCCCNC(=O)c3ccc(-c4c5nc(c(-c6c(F)c(F)c(F)c(F)c6F)c6ccc([nH]6)c(-c6c(F)c(F)c(F)c(F)c6F)c6nc(c(-c7c(F)c(F)c(F)c(F)c7F)c7ccc4[nH]7)C=C6)C=C5)cc3)CC2)CC1=O
REMARK SMILES IDX 17 1 16 2 15 3 13 4 14 5 12 7 7 8 8 9 9 10 10 11 86 12 11 13
REMARK SMILES IDX 85 14 6 15 4 16 5 17 88 18 87 19 89 20 2 21 1 22 3 23 18 24
REMARK SMILES IDX 19 25 20 26 21 28 22 29 23 30 84 31 24 32 83 33 25 34 26 35
REMARK SMILES IDX 27 36 77 37 28 38 82 39 76 40 78 41 29 42 81 43 75 44 74 45
REMARK SMILES IDX 30 47 62 48 42 49 61 50 43 51 46 52 60 53 79 54 44 55 45 56
REMARK SMILES IDX 59 58 80 59 47 60 31 61 32 62 40 63 33 64 34 65 38 66 41 67
REMARK SMILES IDX 35 68 36 69 39 70 37 71 63 72 64 73 72 74 65 75 66 76 70 77
REMARK SMILES IDX 73 78 67 79 68 80 71 81 69 82 48 83 49 84 57 85 50 86 51 87
REMARK SMILES IDX 55 88 58 89 52 90 53 91 56 92 54 93
REMARK H PARENT 15 6 19 27 78 46 46 57
REMARK Flexibility Score: inf
ROOT
ATOM      1  C   UNL A   1      31.647  31.945  26.494  1.00  0.00     0.042 C 
ENDROOT
BRANCH   1   2
ATOM      2  C   UNL A   1      31.968  30.501  26.136  1.00  0.00     0.117 C 
BRANCH   2   3
ATOM      3  N   UNL A   1      31.778  29.604  27.267  1.00  0.00    -0.356 N 
ATOM      4  C   UNL A   1      31.694  28.247  27.332  1.00  0.00     0.223 C 
ATOM      5  O   UNL A   1      31.489  27.735  28.435  1.00  0.00    -0.275 OA
ATOM      6  H   UNL A   1      31.699  30.059  28.138  1.00  0.00     0.163 HD
BRANCH   4   7
ATOM      7  C   UNL A   1      31.866  27.377  26.096  1.00  0.00     0.082 C 
ATOM      8  C   UNL A   1      32.432  23.438  25.646  1.00  0.00     0.227 C 
ATOM      9  O   UNL A   1      33.227  23.287  26.579  1.00  0.00    -0.274 OA
ATOM     10  N   UNL A   1      32.208  24.694  25.113  1.00  0.00    -0.342 N 
ATOM     11  C   UNL A   1      33.328  25.618  25.021  1.00  0.00     0.120 C 
ATOM     12  C   UNL A   1      30.899  25.301  24.936  1.00  0.00     0.120 C 
ATOM     13  C   UNL A   1      33.244  26.709  26.069  1.00  0.00     0.035 C 
ATOM     14  C   UNL A   1      30.665  26.436  25.928  1.00  0.00     0.035 C 
BRANCH   8  15
ATOM     15  C   UNL A   1      31.925  22.208  24.896  1.00  0.00     0.107 C 
ATOM     16  N   UNL A   1      32.607  20.060  24.242  1.00  0.00    -0.339 N 
ATOM     17  C   UNL A   1      32.719  20.986  25.341  1.00  0.00     0.133 C 
ATOM     18  C   UNL A   1      32.192  20.684  23.078  1.00  0.00     0.223 C 
ATOM     19  C   UNL A   1      31.923  22.136  23.378  1.00  0.00     0.115 C 
ATOM     20  O   UNL A   1      32.109  20.178  21.969  1.00  0.00    -0.275 OA
BRANCH  16  21
ATOM     21  C   UNL A   1      33.137  18.697  24.279  1.00  0.00     0.078 C 
ATOM     22  C   UNL A   1      34.643  18.704  24.540  1.00  0.00     0.031 C 
ATOM     23  C   UNL A   1      32.410  17.821  25.296  1.00  0.00     0.031 C 
ENDBRANCH  16  21
ENDBRANCH   8  15
ENDBRANCH   4   7
ENDBRANCH   2   3
ENDBRANCH   1   2
BRANCH   1  24
ATOM     24  C   UNL A   1      32.715  32.607  27.348  1.00  0.00     0.118 C 
BRANCH  24  25
ATOM     25  N   UNL A   1      32.440  34.015  27.600  1.00  0.00    -0.352 N 
ATOM     26  C   UNL A   1      32.998  34.862  28.528  1.00  0.00     0.251 C 
ATOM     27  H   UNL A   1      31.754  34.420  27.021  1.00  0.00     0.163 HD
ATOM     28  O   UNL A   1      32.512  35.969  28.728  1.00  0.00    -0.269 OA
BRANCH  26  29
ATOM     29  C   UNL A   1      34.177  34.419  29.298  1.00  0.00     0.039 A 
ATOM     30  C   UNL A   1      33.994  33.777  30.524  1.00  0.00     0.014 A 
ATOM     31  C   UNL A   1      35.463  34.621  28.792  1.00  0.00     0.014 A 
ATOM     32  C   UNL A   1      35.099  33.262  31.205  1.00  0.00     0.010 A 
ATOM     33  C   UNL A   1      36.548  34.024  29.419  1.00  0.00     0.010 A 
ATOM     34  C   UNL A   1      36.380  33.343  30.636  1.00  0.00    -0.014 A 
BRANCH  34  35
ATOM     35  C   UNL A   1      37.574  32.748  31.287  1.00  0.00     0.031 A 
ATOM     36  C   UNL A   1      38.293  31.612  30.616  1.00  0.00     0.074 A 
ATOM     37  C   UNL A   1      37.944  33.155  32.517  1.00  0.00     0.049 A 
ATOM     38  N   UNL A   1      39.245  30.842  31.079  1.00  0.00    -0.248 NA
ATOM     39  C   UNL A   1      37.856  31.273  29.252  1.00  0.00     0.031 C 
ATOM     40  C   UNL A   1      37.306  34.225  33.285  1.00  0.00     0.029 A 
ATOM     41  N   UNL A   1      38.937  32.697  33.348  1.00  0.00    -0.354 N 
ATOM     42  C   UNL A   1      39.498  29.916  30.076  1.00  0.00     0.074 A 
ATOM     43  C   UNL A   1      38.565  30.182  29.004  1.00  0.00     0.031 C 
ATOM     44  C   UNL A   1      37.930  34.350  34.467  1.00  0.00     0.029 A 
ATOM     45  C   UNL A   1      38.976  33.336  34.563  1.00  0.00     0.049 A 
ATOM     46  H   UNL A   1      39.561  31.979  33.096  1.00  0.00     0.167 HD
ATOM     47  C   UNL A   1      40.441  28.944  30.044  1.00  0.00     0.037 A 
ATOM     48  C   UNL A   1      39.754  33.114  35.640  1.00  0.00     0.037 A 
ATOM     49  C   UNL A   1      41.384  28.702  31.104  1.00  0.00     0.049 A 
ATOM     50  C   UNL A   1      40.781  32.013  35.588  1.00  0.00     0.074 A 
ATOM     51  C   UNL A   1      42.411  27.777  31.149  1.00  0.00     0.029 A 
ATOM     52  N   UNL A   1      41.409  29.391  32.308  1.00  0.00    -0.354 N 
ATOM     53  N   UNL A   1      41.048  31.175  34.616  1.00  0.00    -0.248 NA
ATOM     54  C   UNL A   1      41.616  31.828  36.783  1.00  0.00     0.031 C 
ATOM     55  C   UNL A   1      43.025  27.868  32.402  1.00  0.00     0.029 A 
ATOM     56  C   UNL A   1      42.424  28.896  33.112  1.00  0.00     0.049 A 
ATOM     57  H   UNL A   1      40.799  30.122  32.554  1.00  0.00     0.167 HD
ATOM     58  C   UNL A   1      42.108  30.396  35.062  1.00  0.00     0.074 A 
ATOM     59  C   UNL A   1      42.436  30.862  36.393  1.00  0.00     0.031 C 
ATOM     60  C   UNL A   1      42.754  29.389  34.425  1.00  0.00     0.037 A 
BRANCH  47  61
ATOM     61  C   UNL A   1      40.496  28.067  28.825  1.00  0.00     0.064 A 
ATOM     62  C   UNL A   1      39.781  26.861  28.750  1.00  0.00     0.173 A 
ATOM     63  C   UNL A   1      41.246  28.453  27.705  1.00  0.00     0.173 A 
ATOM     64  F   UNL A   1      39.056  26.438  29.797  1.00  0.00    -0.203 F 
ATOM     65  C   UNL A   1      39.845  26.059  27.613  1.00  0.00     0.198 A 
ATOM     66  C   UNL A   1      41.278  27.666  26.556  1.00  0.00     0.198 A 
ATOM     67  F   UNL A   1      41.945  29.598  27.719  1.00  0.00    -0.203 F 
ATOM     68  F   UNL A   1      39.201  24.884  27.588  1.00  0.00    -0.200 F 
ATOM     69  C   UNL A   1      40.587  26.466  26.515  1.00  0.00     0.200 A 
ATOM     70  F   UNL A   1      41.983  28.070  25.490  1.00  0.00    -0.200 F 
ATOM     71  F   UNL A   1      40.639  25.698  25.418  1.00  0.00    -0.200 F 
ENDBRANCH  47  61
BRANCH  48  72
ATOM     72  C   UNL A   1      39.605  33.959  36.856  1.00  0.00     0.064 A 
ATOM     73  C   UNL A   1      38.811  33.535  37.932  1.00  0.00     0.173 A 
ATOM     74  C   UNL A   1      40.238  35.204  36.965  1.00  0.00     0.173 A 
ATOM     75  F   UNL A   1      38.168  32.360  37.868  1.00  0.00    -0.203 F 
ATOM     76  C   UNL A   1      38.636  34.338  39.058  1.00  0.00     0.198 A 
ATOM     77  C   UNL A   1      40.088  35.991  38.105  1.00  0.00     0.198 A 
ATOM     78  F   UNL A   1      41.012  35.655  35.966  1.00  0.00    -0.203 F 
ATOM     79  F   UNL A   1      37.828  33.932  40.047  1.00  0.00    -0.200 F 
ATOM     80  C   UNL A   1      39.279  35.562  39.146  1.00  0.00     0.200 A 
ATOM     81  F   UNL A   1      40.724  37.168  38.193  1.00  0.00    -0.200 F 
ATOM     82  F   UNL A   1      39.111  36.333  40.229  1.00  0.00    -0.200 F 
ENDBRANCH  48  72
BRANCH  60  83
ATOM     83  C   UNL A   1      43.927  28.762  35.124  1.00  0.00     0.064 A 
ATOM     84  C   UNL A   1      45.225  29.278  35.008  1.00  0.00     0.173 A 
ATOM     85  C   UNL A   1      43.729  27.664  35.976  1.00  0.00     0.173 A 
ATOM     86  F   UNL A   1      45.469  30.318  34.196  1.00  0.00    -0.203 F 
ATOM     87  C   UNL A   1      46.287  28.704  35.702  1.00  0.00     0.198 A 
ATOM     88  C   UNL A   1      44.786  27.114  36.694  1.00  0.00     0.198 A 
ATOM     89  F   UNL A   1      42.505  27.138  36.129  1.00  0.00    -0.203 F 
ATOM     90  F   UNL A   1      47.527  29.184  35.541  1.00  0.00    -0.200 F 
ATOM     91  C   UNL A   1      46.065  27.629  36.552  1.00  0.00     0.200 A 
ATOM     92  F   UNL A   1      44.565  26.088  37.528  1.00  0.00    -0.200 F 
ATOM     93  F   UNL A   1      47.086  27.088  37.230  1.00  0.00    -0.200 F 
ENDBRANCH  60  83
ENDBRANCH  34  35
ENDBRANCH  26  29
ENDBRANCH  24  25
ENDBRANCH   1  24
TORSDOF 12
ENDMDL
MODEL 3
REMARK VINA RESULT:     -13.0      5.382     10.913
REMARK SMILES CC(C)N1C[C@@H](C(=O)N2CCC(C(=O)NCCCNC(=O)c3ccc(-c4c5nc(c(-c6c(F)c(F)c(F)c(F)c6F)c6ccc([nH]6)c(-c6c(F)c(F)c(F)c(F)c6F)c6nc(c(-c7c(F)c(F)c(F)c(F)c7F)c7ccc4[nH]7)C=C6)C=C5)cc3)CC2)CC1=O
REMARK SMILES IDX 17 1 16 2 15 3 13 4 14 5 12 7 7 8 8 9 9 10 10 11 86 12 11 13
REMARK SMILES IDX 85 14 6 15 4 16 5 17 88 18 87 19 89 20 2 21 1 22 3 23 18 24
REMARK SMILES IDX 19 25 20 26 21 28 22 29 23 30 84 31 24 32 83 33 25 34 26 35
REMARK SMILES IDX 27 36 77 37 28 38 82 39 76 40 78 41 29 42 81 43 75 44 74 45
REMARK SMILES IDX 30 47 62 48 42 49 61 50 43 51 46 52 60 53 79 54 44 55 45 56
REMARK SMILES IDX 59 58 80 59 47 60 31 61 32 62 40 63 33 64 34 65 38 66 41 67
REMARK SMILES IDX 35 68 36 69 39 70 37 71 63 72 64 73 72 74 65 75 66 76 70 77
REMARK SMILES IDX 73 78 67 79 68 80 71 81 69 82 48 83 49 84 57 85 50 86 51 87
REMARK SMILES IDX 55 88 58 89 52 90 53 91 56 92 54 93
REMARK H PARENT 15 6 19 27 78 46 46 57
REMARK Flexibility Score: inf
ROOT
ATOM      1  C   UNL A   1      37.779  20.109  25.006  1.00  0.00     0.042 C 
ENDROOT
BRANCH   1   2
ATOM      2  C   UNL A   1      36.840  21.288  24.801  1.00  0.00     0.117 C 
BRANCH   2   3
ATOM      3  N   UNL A   1      35.551  21.077  25.445  1.00  0.00    -0.356 N 
ATOM      4  C   UNL A   1      34.376  21.757  25.346  1.00  0.00     0.223 C 
ATOM      5  O   UNL A   1      33.432  21.381  26.044  1.00  0.00    -0.275 OA
ATOM      6  H   UNL A   1      35.524  20.306  26.058  1.00  0.00     0.163 HD
BRANCH   4   7
ATOM      7  C   UNL A   1      34.212  22.932  24.394  1.00  0.00     0.082 C 
ATOM      8  C   UNL A   1      31.205  25.512  23.809  1.00  0.00     0.227 C 
ATOM      9  O   UNL A   1      30.281  24.697  23.891  1.00  0.00    -0.274 OA
ATOM     10  N   UNL A   1      32.496  25.086  23.556  1.00  0.00    -0.342 N 
ATOM     11  C   UNL A   1      32.690  23.959  22.656  1.00  0.00     0.120 C 
ATOM     12  C   UNL A   1      33.660  25.439  24.352  1.00  0.00     0.120 C 
ATOM     13  C   UNL A   1      33.063  22.697  23.408  1.00  0.00     0.035 C 
ATOM     14  C   UNL A   1      34.164  24.255  25.171  1.00  0.00     0.035 C 
BRANCH   8  15
ATOM     15  C   UNL A   1      30.875  26.999  23.693  1.00  0.00     0.107 C 
ATOM     16  N   UNL A   1      29.161  28.438  22.989  1.00  0.00    -0.339 N 
ATOM     17  C   UNL A   1      29.362  27.176  23.655  1.00  0.00     0.133 C 
ATOM     18  C   UNL A   1      30.290  28.848  22.302  1.00  0.00     0.223 C 
ATOM     19  C   UNL A   1      31.393  27.851  22.546  1.00  0.00     0.115 C 
ATOM     20  O   UNL A   1      30.384  29.818  21.564  1.00  0.00    -0.275 OA
BRANCH  16  21
ATOM     21  C   UNL A   1      27.848  29.063  22.824  1.00  0.00     0.078 C 
ATOM     22  C   UNL A   1      26.750  28.190  23.431  1.00  0.00     0.031 C 
ATOM     23  C   UNL A   1      27.804  30.477  23.398  1.00  0.00     0.031 C 
ENDBRANCH  16  21
ENDBRANCH   8  15
ENDBRANCH   4   7
ENDBRANCH   2   3
ENDBRANCH   1   2
BRANCH   1  24
ATOM     24  C   UNL A   1      39.045  20.471  25.765  1.00  0.00     0.118 C 
BRANCH  24  25
ATOM     25  N   UNL A   1      40.000  19.371  25.822  1.00  0.00    -0.352 N 
ATOM     26  C   UNL A   1      41.357  19.404  26.031  1.00  0.00     0.251 C 
ATOM     27  H   UNL A   1      39.616  18.474  25.692  1.00  0.00     0.163 HD
ATOM     28  O   UNL A   1      42.036  18.397  25.858  1.00  0.00    -0.269 OA
BRANCH  26  29
ATOM     29  C   UNL A   1      41.999  20.667  26.445  1.00  0.00     0.039 A 
ATOM     30  C   UNL A   1      42.384  21.592  25.472  1.00  0.00     0.014 A 
ATOM     31  C   UNL A   1      42.195  20.945  27.799  1.00  0.00     0.014 A 
ATOM     32  C   UNL A   1      42.893  22.832  25.863  1.00  0.00     0.010 A 
ATOM     33  C   UNL A   1      42.607  22.212  28.187  1.00  0.00     0.010 A 
ATOM     34  C   UNL A   1      42.966  23.168  27.224  1.00  0.00    -0.014 A 
BRANCH  34  35
ATOM     35  C   UNL A   1      43.433  24.500  27.686  1.00  0.00     0.031 A 
ATOM     36  C   UNL A   1      42.423  25.552  28.048  1.00  0.00     0.074 A 
ATOM     37  C   UNL A   1      44.747  24.794  27.678  1.00  0.00     0.049 A 
ATOM     38  N   UNL A   1      42.603  26.822  28.312  1.00  0.00    -0.248 NA
ATOM     39  C   UNL A   1      41.014  25.125  28.084  1.00  0.00     0.031 C 
ATOM     40  C   UNL A   1      45.822  23.870  27.314  1.00  0.00     0.029 A 
ATOM     41  N   UNL A   1      45.402  25.968  27.963  1.00  0.00    -0.354 N 
ATOM     42  C   UNL A   1      41.333  27.345  28.516  1.00  0.00     0.074 A 
ATOM     43  C   UNL A   1      40.388  26.274  28.291  1.00  0.00     0.031 C 
ATOM     44  C   UNL A   1      47.001  24.506  27.411  1.00  0.00     0.029 A 
ATOM     45  C   UNL A   1      46.762  25.895  27.791  1.00  0.00     0.049 A 
ATOM     46  H   UNL A   1      44.939  26.783  28.264  1.00  0.00     0.167 HD
ATOM     47  C   UNL A   1      40.988  28.604  28.880  1.00  0.00     0.037 A 
ATOM     48  C   UNL A   1      47.707  26.848  27.906  1.00  0.00     0.037 A 
ATOM     49  C   UNL A   1      41.936  29.658  29.128  1.00  0.00     0.049 A 
ATOM     50  C   UNL A   1      47.296  28.245  28.291  1.00  0.00     0.074 A 
ATOM     51  C   UNL A   1      41.694  30.952  29.550  1.00  0.00     0.029 A 
ATOM     52  N   UNL A   1      43.309  29.536  28.970  1.00  0.00    -0.354 N 
ATOM     53  N   UNL A   1      46.099  28.719  28.533  1.00  0.00    -0.248 NA
ATOM     54  C   UNL A   1      48.370  29.240  28.423  1.00  0.00     0.031 C 
ATOM     55  C   UNL A   1      42.915  31.631  29.597  1.00  0.00     0.029 A 
ATOM     56  C   UNL A   1      43.926  30.741  29.268  1.00  0.00     0.049 A 
ATOM     57  H   UNL A   1      43.776  28.716  28.689  1.00  0.00     0.167 HD
ATOM     58  C   UNL A   1      46.278  30.051  28.887  1.00  0.00     0.074 A 
ATOM     59  C   UNL A   1      47.701  30.309  28.830  1.00  0.00     0.031 C 
ATOM     60  C   UNL A   1      45.347  30.973  29.232  1.00  0.00     0.037 A 
BRANCH  47  61
ATOM     61  C   UNL A   1      39.525  28.909  29.029  1.00  0.00     0.064 A 
ATOM     62  C   UNL A   1      38.872  28.812  30.268  1.00  0.00     0.173 A 
ATOM     63  C   UNL A   1      38.772  29.336  27.925  1.00  0.00     0.173 A 
ATOM     64  F   UNL A   1      39.542  28.398  31.354  1.00  0.00    -0.203 F 
ATOM     65  C   UNL A   1      37.514  29.097  30.387  1.00  0.00     0.198 A 
ATOM     66  C   UNL A   1      37.423  29.654  28.055  1.00  0.00     0.198 A 
ATOM     67  F   UNL A   1      39.346  29.451  26.717  1.00  0.00    -0.203 F 
ATOM     68  F   UNL A   1      36.900  28.940  31.568  1.00  0.00    -0.200 F 
ATOM     69  C   UNL A   1      36.793  29.525  29.283  1.00  0.00     0.200 A 
ATOM     70  F   UNL A   1      36.732  30.084  26.990  1.00  0.00    -0.200 F 
ATOM     71  F   UNL A   1      35.488  29.808  29.402  1.00  0.00    -0.200 F 
ENDBRANCH  47  61
BRANCH  48  72
ATOM     72  C   UNL A   1      49.138  26.513  27.668  1.00  0.00     0.064 A 
ATOM     73  C   UNL A   1      49.647  26.423  26.365  1.00  0.00     0.173 A 
ATOM     74  C   UNL A   1      50.019  26.267  28.730  1.00  0.00     0.173 A 
ATOM     75  F   UNL A   1      48.839  26.630  25.315  1.00  0.00    -0.203 F 
ATOM     76  C   UNL A   1      50.976  26.073  26.133  1.00  0.00     0.198 A 
ATOM     77  C   UNL A   1      51.356  25.949  28.498  1.00  0.00     0.198 A 
ATOM     78  F   UNL A   1      49.585  26.345  29.997  1.00  0.00    -0.203 F 
ATOM     79  F   UNL A   1      51.422  25.940  24.877  1.00  0.00    -0.200 F 
ATOM     80  C   UNL A   1      51.830  25.841  27.200  1.00  0.00     0.200 A 
ATOM     81  F   UNL A   1      52.182  25.741  29.533  1.00  0.00    -0.200 F 
ATOM     82  F   UNL A   1      53.109  25.506  26.977  1.00  0.00    -0.200 F 
ENDBRANCH  48  72
BRANCH  60  83
ATOM     83  C   UNL A   1      45.835  32.333  29.644  1.00  0.00     0.064 A 
ATOM     84  C   UNL A   1      46.243  32.612  30.956  1.00  0.00     0.173 A 
ATOM     85  C   UNL A   1      45.956  33.354  28.687  1.00  0.00     0.173 A 
ATOM     86  F   UNL A   1      46.135  31.676  31.911  1.00  0.00    -0.203 F 
ATOM     87  C   UNL A   1      46.732  33.869  31.301  1.00  0.00     0.198 A 
ATOM     88  C   UNL A   1      46.477  34.598  29.027  1.00  0.00     0.198 A 
ATOM     89  F   UNL A   1      45.588  33.136  27.416  1.00  0.00    -0.203 F 
ATOM     90  F   UNL A   1      47.074  34.128  32.570  1.00  0.00    -0.200 F 
ATOM     91  C   UNL A   1      46.859  34.857  30.334  1.00  0.00     0.200 A 
ATOM     92  F   UNL A   1      46.616  35.544  28.088  1.00  0.00    -0.200 F 
ATOM     93  F   UNL A   1      47.345  36.061  30.665  1.00  0.00    -0.200 F 
ENDBRANCH  60  83
ENDBRANCH  34  35
ENDBRANCH  26  29
ENDBRANCH  24  25
ENDBRANCH   1  24
TORSDOF 12
ENDMDL
