MODEL 1
REMARK VINA RESULT:     -12.2      0.000      0.000
REMARK SMILES N#Cc1cc(F)ccc1N1[C@@H]2CC[C@H]1C[C@H](CC(=O)NCCCNC(=O)c1ccc(-c3c4nc(c(-c5c(F)c(F)c(F)c(F)c5F)c5ccc([nH]5)c(-c5c(F)c(F)c(F)c(F)c5F)c5nc(c(-c6c(F)c(F)c(F)c(F)c6F)c6ccc3[nH]6)C=C5)C=C4)cc1)C2
REMARK SMILES IDX 21 1 20 2 18 3 19 4 17 6 16 7 10 8 11 9 14 10 12 11 90 12
REMARK SMILES IDX 13 13 15 14 9 15 3 16 4 17 5 18 8 19 6 20 7 21 2 22 1 23
REMARK SMILES IDX 22 24 23 25 24 26 25 27 26 29 27 30 28 31 89 32 29 33 88 34
REMARK SMILES IDX 30 35 31 36 32 37 82 38 33 39 87 40 81 41 83 42 34 43 86 44
REMARK SMILES IDX 80 45 79 46 35 48 67 49 47 50 66 51 48 52 51 53 65 54 84 55
REMARK SMILES IDX 49 56 50 57 64 59 85 60 52 61 36 62 37 63 45 64 38 65 39 66
REMARK SMILES IDX 43 67 46 68 40 69 41 70 44 71 42 72 68 73 69 74 77 75 70 76
REMARK SMILES IDX 71 77 75 78 78 79 72 80 73 81 76 82 74 83 53 84 54 85 62 86
REMARK SMILES IDX 55 87 56 88 60 89 63 90 57 91 58 92 61 93 59 94
REMARK H PARENT 20 5 24 28 83 47 51 58
REMARK Flexibility Score: inf
ROOT
ATOM      1  C   UNL A   1      34.951  22.462  26.020  1.00  0.00     0.117 C 
ENDROOT
BRANCH   1   2
ATOM      2  N   UNL A   1      33.787  22.660  26.876  1.00  0.00    -0.356 N 
ATOM      3  C   UNL A   1      32.697  23.471  26.755  1.00  0.00     0.220 C 
ATOM      4  O   UNL A   1      31.825  23.383  27.624  1.00  0.00    -0.275 OA
ATOM      5  H   UNL A   1      33.789  22.109  27.692  1.00  0.00     0.163 HD
BRANCH   3   6
ATOM      6  C   UNL A   1      32.550  24.480  25.623  1.00  0.00     0.103 C 
BRANCH   6   7
ATOM      7  C   UNL A   1      32.859  25.926  26.069  1.00  0.00     0.002 C 
ATOM      8  N   UNL A   1      32.056  28.543  25.154  1.00  0.00    -0.364 N 
ATOM      9  C   UNL A   1      31.780  28.209  26.548  1.00  0.00     0.083 C 
ATOM     10  C   UNL A   1      33.441  28.201  24.908  1.00  0.00     0.083 C 
ATOM     11  C   UNL A   1      33.064  28.697  27.252  1.00  0.00     0.027 C 
ATOM     12  C   UNL A   1      31.607  26.675  26.579  1.00  0.00     0.029 C 
ATOM     13  C   UNL A   1      34.133  28.775  26.151  1.00  0.00     0.027 C 
ATOM     14  C   UNL A   1      33.582  26.683  24.942  1.00  0.00     0.029 C 
BRANCH   8  15
ATOM     15  C   UNL A   1      31.071  28.993  24.321  1.00  0.00     0.055 A 
ATOM     16  C   UNL A   1      30.360  28.211  23.389  1.00  0.00     0.078 A 
ATOM     17  C   UNL A   1      29.201  28.715  22.768  1.00  0.00     0.060 A 
ATOM     18  C   UNL A   1      28.778  30.007  23.028  1.00  0.00     0.124 A 
ATOM     19  C   UNL A   1      30.638  30.322  24.505  1.00  0.00     0.030 A 
ATOM     20  F   UNL A   1      27.650  30.458  22.465  1.00  0.00    -0.207 F 
ATOM     21  C   UNL A   1      29.506  30.830  23.867  1.00  0.00     0.041 A 
BRANCH  16  22
ATOM     22  C   UNL A   1      30.710  26.869  23.046  1.00  0.00     0.101 C 
ATOM     23  N   UNL A   1      30.953  25.791  22.674  1.00  0.00    -0.192 NA
ENDBRANCH  16  22
ENDBRANCH   8  15
ENDBRANCH   6   7
ENDBRANCH   3   6
ENDBRANCH   1   2
BRANCH   1  24
ATOM     24  C   UNL A   1      35.914  23.652  26.037  1.00  0.00     0.042 C 
BRANCH  24  25
ATOM     25  C   UNL A   1      37.058  23.557  25.045  1.00  0.00     0.118 C 
BRANCH  25  26
ATOM     26  N   UNL A   1      38.072  22.630  25.501  1.00  0.00    -0.352 N 
ATOM     27  C   UNL A   1      39.268  22.874  26.126  1.00  0.00     0.251 C 
ATOM     28  H   UNL A   1      37.873  21.680  25.338  1.00  0.00     0.163 HD
ATOM     29  O   UNL A   1      40.117  21.986  26.151  1.00  0.00    -0.269 OA
BRANCH  27  30
ATOM     30  C   UNL A   1      39.562  24.182  26.769  1.00  0.00     0.039 A 
ATOM     31  C   UNL A   1      40.248  25.147  26.024  1.00  0.00     0.014 A 
ATOM     32  C   UNL A   1      39.257  24.443  28.108  1.00  0.00     0.014 A 
ATOM     33  C   UNL A   1      40.614  26.360  26.612  1.00  0.00     0.010 A 
ATOM     34  C   UNL A   1      39.532  25.693  28.664  1.00  0.00     0.010 A 
ATOM     35  C   UNL A   1      40.247  26.653  27.935  1.00  0.00    -0.014 A 
BRANCH  35  36
ATOM     36  C   UNL A   1      40.655  27.935  28.570  1.00  0.00     0.031 A 
ATOM     37  C   UNL A   1      42.094  28.172  28.951  1.00  0.00     0.074 A 
ATOM     38  C   UNL A   1      39.731  28.885  28.814  1.00  0.00     0.049 A 
ATOM     39  N   UNL A   1      42.643  29.226  29.503  1.00  0.00    -0.248 NA
ATOM     40  C   UNL A   1      43.039  27.072  28.702  1.00  0.00     0.031 C 
ATOM     41  C   UNL A   1      38.300  28.759  28.534  1.00  0.00     0.029 A 
ATOM     42  N   UNL A   1      39.856  30.143  29.347  1.00  0.00    -0.354 N 
ATOM     43  C   UNL A   1      43.986  28.910  29.673  1.00  0.00     0.074 A 
ATOM     44  C   UNL A   1      44.158  27.546  29.229  1.00  0.00     0.031 C 
ATOM     45  C   UNL A   1      37.686  29.908  28.861  1.00  0.00     0.029 A 
ATOM     46  C   UNL A   1      38.670  30.834  29.411  1.00  0.00     0.049 A 
ATOM     47  H   UNL A   1      40.714  30.516  29.654  1.00  0.00     0.167 HD
ATOM     48  C   UNL A   1      44.992  29.696  30.128  1.00  0.00     0.037 A 
ATOM     49  C   UNL A   1      38.406  32.075  29.864  1.00  0.00     0.037 A 
ATOM     50  C   UNL A   1      44.822  31.062  30.550  1.00  0.00     0.049 A 
ATOM     51  C   UNL A   1      39.539  32.921  30.381  1.00  0.00     0.074 A 
ATOM     52  C   UNL A   1      45.784  31.962  30.973  1.00  0.00     0.029 A 
ATOM     53  N   UNL A   1      43.603  31.724  30.606  1.00  0.00    -0.354 N 
ATOM     54  N   UNL A   1      40.817  32.637  30.462  1.00  0.00    -0.248 NA
ATOM     55  C   UNL A   1      39.193  34.267  30.859  1.00  0.00     0.031 C 
ATOM     56  C   UNL A   1      45.141  33.146  31.346  1.00  0.00     0.029 A 
ATOM     57  C   UNL A   1      43.786  33.010  31.091  1.00  0.00     0.049 A 
ATOM     58  H   UNL A   1      42.738  31.338  30.342  1.00  0.00     0.167 HD
ATOM     59  C   UNL A   1      41.428  33.773  30.977  1.00  0.00     0.074 A 
ATOM     60  C   UNL A   1      40.384  34.759  31.163  1.00  0.00     0.031 C 
ATOM     61  C   UNL A   1      42.736  33.980  31.272  1.00  0.00     0.037 A 
BRANCH  48  62
ATOM     62  C   UNL A   1      46.370  29.096  30.196  1.00  0.00     0.064 A 
ATOM     63  C   UNL A   1      47.259  29.159  29.111  1.00  0.00     0.173 A 
ATOM     64  C   UNL A   1      46.821  28.481  31.374  1.00  0.00     0.173 A 
ATOM     65  F   UNL A   1      46.876  29.726  27.956  1.00  0.00    -0.203 F 
ATOM     66  C   UNL A   1      48.532  28.599  29.192  1.00  0.00     0.198 A 
ATOM     67  C   UNL A   1      48.108  27.956  31.463  1.00  0.00     0.198 A 
ATOM     68  F   UNL A   1      46.019  28.399  32.446  1.00  0.00    -0.203 F 
ATOM     69  F   UNL A   1      49.341  28.622  28.123  1.00  0.00    -0.200 F 
ATOM     70  C   UNL A   1      48.959  28.006  30.369  1.00  0.00     0.200 A 
ATOM     71  F   UNL A   1      48.525  27.397  32.608  1.00  0.00    -0.200 F 
ATOM     72  F   UNL A   1      50.187  27.476  30.448  1.00  0.00    -0.200 F 
ENDBRANCH  48  62
BRANCH  49  73
ATOM     73  C   UNL A   1      37.015  32.599  29.832  1.00  0.00     0.064 A 
ATOM     74  C   UNL A   1      36.521  33.277  28.708  1.00  0.00     0.173 A 
ATOM     75  C   UNL A   1      36.153  32.445  30.928  1.00  0.00     0.173 A 
ATOM     76  F   UNL A   1      37.312  33.468  27.641  1.00  0.00    -0.203 F 
ATOM     77  C   UNL A   1      35.231  33.802  28.691  1.00  0.00     0.198 A 
ATOM     78  C   UNL A   1      34.851  32.940  30.897  1.00  0.00     0.198 A 
ATOM     79  F   UNL A   1      36.572  31.800  32.027  1.00  0.00    -0.203 F 
ATOM     80  F   UNL A   1      34.804  34.492  27.625  1.00  0.00    -0.200 F 
ATOM     81  C   UNL A   1      34.394  33.627  29.784  1.00  0.00     0.200 A 
ATOM     82  F   UNL A   1      34.041  32.754  31.949  1.00  0.00    -0.200 F 
ATOM     83  F   UNL A   1      33.152  34.129  29.766  1.00  0.00    -0.200 F 
ENDBRANCH  49  73
BRANCH  61  84
ATOM     84  C   UNL A   1      43.114  35.334  31.803  1.00  0.00     0.064 A 
ATOM     85  C   UNL A   1      43.046  35.636  33.172  1.00  0.00     0.173 A 
ATOM     86  C   UNL A   1      43.575  36.336  30.934  1.00  0.00     0.173 A 
ATOM     87  F   UNL A   1      42.598  34.720  34.044  1.00  0.00    -0.203 F 
ATOM     88  C   UNL A   1      43.389  36.899  33.645  1.00  0.00     0.198 A 
ATOM     89  C   UNL A   1      43.954  37.586  31.416  1.00  0.00     0.198 A 
ATOM     90  F   UNL A   1      43.670  36.098  29.617  1.00  0.00    -0.203 F 
ATOM     91  F   UNL A   1      43.255  37.184  34.949  1.00  0.00    -0.200 F 
ATOM     92  C   UNL A   1      43.850  37.870  32.768  1.00  0.00     0.200 A 
ATOM     93  F   UNL A   1      44.416  38.516  30.569  1.00  0.00    -0.200 F 
ATOM     94  F   UNL A   1      44.185  39.084  33.227  1.00  0.00    -0.200 F 
ENDBRANCH  61  84
ENDBRANCH  35  36
ENDBRANCH  27  30
ENDBRANCH  25  26
ENDBRANCH  24  25
ENDBRANCH   1  24
TORSDOF 13
ENDMDL
MODEL 2
REMARK VINA RESULT:     -12.1      4.206      9.027
REMARK SMILES N#Cc1cc(F)ccc1N1[C@@H]2CC[C@H]1C[C@H](CC(=O)NCCCNC(=O)c1ccc(-c3c4nc(c(-c5c(F)c(F)c(F)c(F)c5F)c5ccc([nH]5)c(-c5c(F)c(F)c(F)c(F)c5F)c5nc(c(-c6c(F)c(F)c(F)c(F)c6F)c6ccc3[nH]6)C=C5)C=C4)cc1)C2
REMARK SMILES IDX 21 1 20 2 18 3 19 4 17 6 16 7 10 8 11 9 14 10 12 11 90 12
REMARK SMILES IDX 13 13 15 14 9 15 3 16 4 17 5 18 8 19 6 20 7 21 2 22 1 23
REMARK SMILES IDX 22 24 23 25 24 26 25 27 26 29 27 30 28 31 89 32 29 33 88 34
REMARK SMILES IDX 30 35 31 36 32 37 82 38 33 39 87 40 81 41 83 42 34 43 86 44
REMARK SMILES IDX 80 45 79 46 35 48 67 49 47 50 66 51 48 52 51 53 65 54 84 55
REMARK SMILES IDX 49 56 50 57 64 59 85 60 52 61 36 62 37 63 45 64 38 65 39 66
REMARK SMILES IDX 43 67 46 68 40 69 41 70 44 71 42 72 68 73 69 74 77 75 70 76
REMARK SMILES IDX 71 77 75 78 78 79 72 80 73 81 76 82 74 83 53 84 54 85 62 86
REMARK SMILES IDX 55 87 56 88 60 89 63 90 57 91 58 92 61 93 59 94
REMARK H PARENT 20 5 24 28 83 47 51 58
REMARK Flexibility Score: inf
ROOT
ATOM      1  C   UNL A   1      32.194  27.102  26.646  1.00  0.00     0.117 C 
ENDROOT
BRANCH   1   2
ATOM      2  N   UNL A   1      31.042  26.240  26.885  1.00  0.00    -0.356 N 
ATOM      3  C   UNL A   1      30.506  25.219  26.158  1.00  0.00     0.220 C 
ATOM      4  O   UNL A   1      29.543  24.620  26.646  1.00  0.00    -0.275 OA
ATOM      5  H   UNL A   1      30.563  26.431  27.724  1.00  0.00     0.163 HD
BRANCH   3   6
ATOM      6  C   UNL A   1      31.028  24.833  24.780  1.00  0.00     0.103 C 
BRANCH   6   7
ATOM      7  C   UNL A   1      31.396  23.337  24.679  1.00  0.00     0.002 C 
ATOM      8  N   UNL A   1      33.875  21.867  24.513  1.00  0.00    -0.364 N 
ATOM      9  C   UNL A   1      32.974  21.536  25.612  1.00  0.00     0.083 C 
ATOM     10  C   UNL A   1      33.077  21.871  23.305  1.00  0.00     0.083 C 
ATOM     11  C   UNL A   1      32.110  20.419  24.989  1.00  0.00     0.027 C 
ATOM     12  C   UNL A   1      32.187  22.831  25.907  1.00  0.00     0.029 C 
ATOM     13  C   UNL A   1      32.251  20.588  23.469  1.00  0.00     0.027 C 
ATOM     14  C   UNL A   1      32.125  23.061  23.353  1.00  0.00     0.029 C 
BRANCH   8  15
ATOM     15  C   UNL A   1      35.183  22.190  24.735  1.00  0.00     0.055 A 
ATOM     16  C   UNL A   1      35.690  23.492  24.922  1.00  0.00     0.078 A 
ATOM     17  C   UNL A   1      37.001  23.689  25.395  1.00  0.00     0.060 A 
ATOM     18  C   UNL A   1      37.827  22.603  25.631  1.00  0.00     0.124 A 
ATOM     19  C   UNL A   1      36.081  21.120  24.930  1.00  0.00     0.030 A 
ATOM     20  F   UNL A   1      39.055  22.803  26.123  1.00  0.00    -0.207 F 
ATOM     21  C   UNL A   1      37.389  21.318  25.371  1.00  0.00     0.041 A 
BRANCH  16  22
ATOM     22  C   UNL A   1      34.927  24.680  24.706  1.00  0.00     0.101 C 
ATOM     23  N   UNL A   1      34.390  25.694  24.497  1.00  0.00    -0.192 NA
ENDBRANCH  16  22
ENDBRANCH   8  15
ENDBRANCH   6   7
ENDBRANCH   3   6
ENDBRANCH   1   2
BRANCH   1  24
ATOM     24  C   UNL A   1      31.844  28.357  25.841  1.00  0.00     0.042 C 
BRANCH  24  25
ATOM     25  C   UNL A   1      33.008  29.300  25.597  1.00  0.00     0.118 C 
BRANCH  25  26
ATOM     26  N   UNL A   1      32.689  30.647  26.021  1.00  0.00    -0.352 N 
ATOM     27  C   UNL A   1      33.225  31.398  27.036  1.00  0.00     0.251 C 
ATOM     28  H   UNL A   1      31.980  31.091  25.503  1.00  0.00     0.163 HD
ATOM     29  O   UNL A   1      32.613  32.388  27.428  1.00  0.00    -0.269 OA
BRANCH  27  30
ATOM     30  C   UNL A   1      34.522  31.044  27.670  1.00  0.00     0.039 A 
ATOM     31  C   UNL A   1      34.677  29.753  28.185  1.00  0.00     0.014 A 
ATOM     32  C   UNL A   1      35.549  31.977  27.846  1.00  0.00     0.014 A 
ATOM     33  C   UNL A   1      35.849  29.399  28.857  1.00  0.00     0.010 A 
ATOM     34  C   UNL A   1      36.758  31.594  28.427  1.00  0.00     0.010 A 
ATOM     35  C   UNL A   1      36.909  30.312  28.973  1.00  0.00    -0.014 A 
BRANCH  35  36
ATOM     36  C   UNL A   1      38.149  29.945  29.709  1.00  0.00     0.031 A 
ATOM     37  C   UNL A   1      38.392  30.469  31.102  1.00  0.00     0.074 A 
ATOM     38  C   UNL A   1      39.065  29.149  29.123  1.00  0.00     0.049 A 
ATOM     39  N   UNL A   1      39.405  30.253  31.905  1.00  0.00    -0.248 NA
ATOM     40  C   UNL A   1      37.375  31.374  31.659  1.00  0.00     0.031 C 
ATOM     41  C   UNL A   1      38.969  28.615  27.763  1.00  0.00     0.029 A 
ATOM     42  N   UNL A   1      40.251  28.646  29.595  1.00  0.00    -0.354 N 
ATOM     43  C   UNL A   1      39.149  30.999  33.049  1.00  0.00     0.074 A 
ATOM     44  C   UNL A   1      37.922  31.725  32.813  1.00  0.00     0.031 C 
ATOM     45  C   UNL A   1      40.030  27.828  27.525  1.00  0.00     0.029 A 
ATOM     46  C   UNL A   1      40.901  27.834  28.696  1.00  0.00     0.049 A 
ATOM     47  H   UNL A   1      40.603  28.846  30.492  1.00  0.00     0.167 HD
ATOM     48  C   UNL A   1      39.855  31.050  34.205  1.00  0.00     0.037 A 
ATOM     49  C   UNL A   1      42.069  27.172  28.804  1.00  0.00     0.037 A 
ATOM     50  C   UNL A   1      41.065  30.309  34.444  1.00  0.00     0.049 A 
ATOM     51  C   UNL A   1      42.843  27.260  30.093  1.00  0.00     0.074 A 
ATOM     52  C   UNL A   1      41.826  30.246  35.599  1.00  0.00     0.029 A 
ATOM     53  N   UNL A   1      41.696  29.503  33.506  1.00  0.00    -0.354 N 
ATOM     54  N   UNL A   1      42.549  27.907  31.195  1.00  0.00    -0.248 NA
ATOM     55  C   UNL A   1      44.108  26.514  30.156  1.00  0.00     0.031 C 
ATOM     56  C   UNL A   1      42.949  29.454  35.341  1.00  0.00     0.029 A 
ATOM     57  C   UNL A   1      42.855  28.966  34.047  1.00  0.00     0.049 A 
ATOM     58  H   UNL A   1      41.369  29.337  32.593  1.00  0.00     0.167 HD
ATOM     59  C   UNL A   1      43.576  27.628  32.087  1.00  0.00     0.074 A 
ATOM     60  C   UNL A   1      44.487  26.732  31.405  1.00  0.00     0.031 C 
ATOM     61  C   UNL A   1      43.753  28.077  33.354  1.00  0.00     0.037 A 
BRANCH  48  62
ATOM     62  C   UNL A   1      39.336  31.941  35.300  1.00  0.00     0.064 A 
ATOM     63  C   UNL A   1      38.504  31.453  36.320  1.00  0.00     0.173 A 
ATOM     64  C   UNL A   1      39.706  33.294  35.352  1.00  0.00     0.173 A 
ATOM     65  F   UNL A   1      38.111  30.170  36.314  1.00  0.00    -0.203 F 
ATOM     66  C   UNL A   1      38.034  32.292  37.327  1.00  0.00     0.198 A 
ATOM     67  C   UNL A   1      39.264  34.122  36.381  1.00  0.00     0.198 A 
ATOM     68  F   UNL A   1      40.506  33.815  34.408  1.00  0.00    -0.203 F 
ATOM     69  F   UNL A   1      37.195  31.815  38.257  1.00  0.00    -0.200 F 
ATOM     70  C   UNL A   1      38.421  33.623  37.363  1.00  0.00     0.200 A 
ATOM     71  F   UNL A   1      39.652  35.404  36.422  1.00  0.00    -0.200 F 
ATOM     72  F   UNL A   1      37.976  34.426  38.338  1.00  0.00    -0.200 F 
ENDBRANCH  48  62
BRANCH  49  73
ATOM     73  C   UNL A   1      42.568  26.352  27.668  1.00  0.00     0.064 A 
ATOM     74  C   UNL A   1      43.497  26.871  26.754  1.00  0.00     0.173 A 
ATOM     75  C   UNL A   1      42.121  25.038  27.466  1.00  0.00     0.173 A 
ATOM     76  F   UNL A   1      43.940  28.129  26.891  1.00  0.00    -0.203 F 
ATOM     77  C   UNL A   1      43.937  26.117  25.668  1.00  0.00     0.198 A 
ATOM     78  C   UNL A   1      42.588  24.273  26.400  1.00  0.00     0.198 A 
ATOM     79  F   UNL A   1      41.238  24.490  28.314  1.00  0.00    -0.203 F 
ATOM     80  F   UNL A   1      44.782  26.657  24.779  1.00  0.00    -0.200 F 
ATOM     81  C   UNL A   1      43.487  24.816  25.495  1.00  0.00     0.200 A 
ATOM     82  F   UNL A   1      42.164  23.011  26.247  1.00  0.00    -0.200 F 
ATOM     83  F   UNL A   1      43.914  24.090  24.453  1.00  0.00    -0.200 F 
ENDBRANCH  49  73
BRANCH  61  84
ATOM     84  C   UNL A   1      44.963  27.584  34.096  1.00  0.00     0.064 A 
ATOM     85  C   UNL A   1      44.943  26.387  34.828  1.00  0.00     0.173 A 
ATOM     86  C   UNL A   1      46.167  28.306  34.054  1.00  0.00     0.173 A 
ATOM     87  F   UNL A   1      43.815  25.665  34.913  1.00  0.00    -0.203 F 
ATOM     88  C   UNL A   1      46.070  25.951  35.519  1.00  0.00     0.198 A 
ATOM     89  C   UNL A   1      47.303  27.847  34.715  1.00  0.00     0.198 A 
ATOM     90  F   UNL A   1      46.245  29.452  33.361  1.00  0.00    -0.203 F 
ATOM     91  F   UNL A   1      46.008  24.837  36.263  1.00  0.00    -0.200 F 
ATOM     92  C   UNL A   1      47.250  26.676  35.455  1.00  0.00     0.200 A 
ATOM     93  F   UNL A   1      48.447  28.540  34.637  1.00  0.00    -0.200 F 
ATOM     94  F   UNL A   1      48.336  26.252  36.118  1.00  0.00    -0.200 F 
ENDBRANCH  61  84
ENDBRANCH  35  36
ENDBRANCH  27  30
ENDBRANCH  25  26
ENDBRANCH  24  25
ENDBRANCH   1  24
TORSDOF 13
ENDMDL
MODEL 3
REMARK VINA RESULT:     -12.0      3.725      8.989
REMARK SMILES N#Cc1cc(F)ccc1N1[C@@H]2CC[C@H]1C[C@H](CC(=O)NCCCNC(=O)c1ccc(-c3c4nc(c(-c5c(F)c(F)c(F)c(F)c5F)c5ccc([nH]5)c(-c5c(F)c(F)c(F)c(F)c5F)c5nc(c(-c6c(F)c(F)c(F)c(F)c6F)c6ccc3[nH]6)C=C5)C=C4)cc1)C2
REMARK SMILES IDX 21 1 20 2 18 3 19 4 17 6 16 7 10 8 11 9 14 10 12 11 90 12
REMARK SMILES IDX 13 13 15 14 9 15 3 16 4 17 5 18 8 19 6 20 7 21 2 22 1 23
REMARK SMILES IDX 22 24 23 25 24 26 25 27 26 29 27 30 28 31 89 32 29 33 88 34
REMARK SMILES IDX 30 35 31 36 32 37 82 38 33 39 87 40 81 41 83 42 34 43 86 44
REMARK SMILES IDX 80 45 79 46 35 48 67 49 47 50 66 51 48 52 51 53 65 54 84 55
REMARK SMILES IDX 49 56 50 57 64 59 85 60 52 61 36 62 37 63 45 64 38 65 39 66
REMARK SMILES IDX 43 67 46 68 40 69 41 70 44 71 42 72 68 73 69 74 77 75 70 76
REMARK SMILES IDX 71 77 75 78 78 79 72 80 73 81 76 82 74 83 53 84 54 85 62 86
REMARK SMILES IDX 55 87 56 88 60 89 63 90 57 91 58 92 61 93 59 94
REMARK H PARENT 20 5 24 28 83 47 51 58
REMARK Flexibility Score: inf
ROOT
ATOM      1  C   UNL A   1      31.398  27.165  26.153  1.00  0.00     0.117 C 
ENDROOT
BRANCH   1   2
ATOM      2  N   UNL A   1      30.678  26.008  26.669  1.00  0.00    -0.356 N 
ATOM      3  C   UNL A   1      30.523  24.743  26.183  1.00  0.00     0.220 C 
ATOM      4  O   UNL A   1      29.893  23.941  26.879  1.00  0.00    -0.275 OA
ATOM      5  H   UNL A   1      30.217  26.169  27.524  1.00  0.00     0.163 HD
BRANCH   3   6
ATOM      6  C   UNL A   1      31.064  24.317  24.824  1.00  0.00     0.103 C 
BRANCH   6   7
ATOM      7  C   UNL A   1      31.559  22.854  24.811  1.00  0.00     0.002 C 
ATOM      8  N   UNL A   1      34.155  21.596  24.696  1.00  0.00    -0.364 N 
ATOM      9  C   UNL A   1      33.299  21.259  25.829  1.00  0.00     0.083 C 
ATOM     10  C   UNL A   1      33.345  21.454  23.504  1.00  0.00     0.083 C 
ATOM     11  C   UNL A   1      32.528  20.035  25.292  1.00  0.00     0.027 C 
ATOM     12  C   UNL A   1      32.405  22.498  26.055  1.00  0.00     0.029 C 
ATOM     13  C   UNL A   1      32.636  20.118  23.762  1.00  0.00     0.027 C 
ATOM     14  C   UNL A   1      32.294  22.558  23.493  1.00  0.00     0.029 C 
BRANCH   8  15
ATOM     15  C   UNL A   1      35.432  22.044  24.876  1.00  0.00     0.055 A 
ATOM     16  C   UNL A   1      35.814  23.386  25.078  1.00  0.00     0.078 A 
ATOM     17  C   UNL A   1      37.117  23.703  25.505  1.00  0.00     0.060 A 
ATOM     18  C   UNL A   1      38.056  22.701  25.678  1.00  0.00     0.124 A 
ATOM     19  C   UNL A   1      36.439  21.066  25.005  1.00  0.00     0.030 A 
ATOM     20  F   UNL A   1      39.278  23.012  26.126  1.00  0.00    -0.207 F 
ATOM     21  C   UNL A   1      37.739  21.384  25.400  1.00  0.00     0.041 A 
BRANCH  16  22
ATOM     22  C   UNL A   1      34.927  24.495  24.926  1.00  0.00     0.101 C 
ATOM     23  N   UNL A   1      34.283  25.462  24.825  1.00  0.00    -0.192 NA
ENDBRANCH  16  22
ENDBRANCH   8  15
ENDBRANCH   6   7
ENDBRANCH   3   6
ENDBRANCH   1   2
BRANCH   1  24
ATOM     24  C   UNL A   1      32.178  27.915  27.237  1.00  0.00     0.042 C 
BRANCH  24  25
ATOM     25  C   UNL A   1      33.464  28.565  26.760  1.00  0.00     0.118 C 
BRANCH  25  26
ATOM     26  N   UNL A   1      33.474  29.983  27.052  1.00  0.00    -0.352 N 
ATOM     27  C   UNL A   1      34.363  30.720  27.792  1.00  0.00     0.251 C 
ATOM     28  H   UNL A   1      32.731  30.496  26.660  1.00  0.00     0.163 HD
ATOM     29  O   UNL A   1      34.033  31.840  28.174  1.00  0.00    -0.269 OA
BRANCH  27  30
ATOM     30  C   UNL A   1      35.711  30.200  28.141  1.00  0.00     0.039 A 
ATOM     31  C   UNL A   1      35.915  29.703  29.432  1.00  0.00     0.014 A 
ATOM     32  C   UNL A   1      36.794  30.273  27.259  1.00  0.00     0.014 A 
ATOM     33  C   UNL A   1      37.184  29.275  29.830  1.00  0.00     0.010 A 
ATOM     34  C   UNL A   1      38.037  29.752  27.622  1.00  0.00     0.010 A 
ATOM     35  C   UNL A   1      38.256  29.281  28.924  1.00  0.00    -0.014 A 
BRANCH  35  36
ATOM     36  C   UNL A   1      39.614  28.848  29.352  1.00  0.00     0.031 A 
ATOM     37  C   UNL A   1      40.423  29.699  30.297  1.00  0.00     0.074 A 
ATOM     38  C   UNL A   1      40.126  27.693  28.884  1.00  0.00     0.049 A 
ATOM     39  N   UNL A   1      41.617  29.485  30.790  1.00  0.00    -0.248 NA
ATOM     40  C   UNL A   1      39.822  30.971  30.727  1.00  0.00     0.031 C 
ATOM     41  C   UNL A   1      39.462  26.802  27.930  1.00  0.00     0.029 A 
ATOM     42  N   UNL A   1      41.317  27.066  29.149  1.00  0.00    -0.354 N 
ATOM     43  C   UNL A   1      41.909  30.594  31.576  1.00  0.00     0.074 A 
ATOM     44  C   UNL A   1      40.799  31.509  31.441  1.00  0.00     0.031 C 
ATOM     45  C   UNL A   1      40.238  25.727  27.720  1.00  0.00     0.029 A 
ATOM     46  C   UNL A   1      41.469  25.869  28.491  1.00  0.00     0.049 A 
ATOM     47  H   UNL A   1      41.999  27.438  29.755  1.00  0.00     0.167 HD
ATOM     48  C   UNL A   1      42.990  30.816  32.362  1.00  0.00     0.037 A 
ATOM     49  C   UNL A   1      42.487  24.988  28.505  1.00  0.00     0.037 A 
ATOM     50  C   UNL A   1      44.084  29.893  32.510  1.00  0.00     0.049 A 
ATOM     51  C   UNL A   1      43.684  25.268  29.375  1.00  0.00     0.074 A 
ATOM     52  C   UNL A   1      45.199  29.998  33.325  1.00  0.00     0.029 A 
ATOM     53  N   UNL A   1      44.204  28.695  31.821  1.00  0.00    -0.354 N 
ATOM     54  N   UNL A   1      43.911  26.283  30.172  1.00  0.00    -0.248 NA
ATOM     55  C   UNL A   1      44.763  24.270  29.353  1.00  0.00     0.031 C 
ATOM     56  C   UNL A   1      46.022  28.894  33.082  1.00  0.00     0.029 A 
ATOM     57  C   UNL A   1      45.392  28.067  32.167  1.00  0.00     0.049 A 
ATOM     58  H   UNL A   1      43.545  28.342  31.181  1.00  0.00     0.167 HD
ATOM     59  C   UNL A   1      45.143  26.036  30.763  1.00  0.00     0.074 A 
ATOM     60  C   UNL A   1      45.602  24.761  30.252  1.00  0.00     0.031 C 
ATOM     61  C   UNL A   1      45.835  26.798  31.647  1.00  0.00     0.037 A 
BRANCH  48  62
ATOM     62  C   UNL A   1      43.043  32.113  33.124  1.00  0.00     0.064 A 
ATOM     63  C   UNL A   1      43.639  33.264  32.586  1.00  0.00     0.173 A 
ATOM     64  C   UNL A   1      42.457  32.215  34.395  1.00  0.00     0.173 A 
ATOM     65  F   UNL A   1      44.224  33.220  31.378  1.00  0.00    -0.203 F 
ATOM     66  C   UNL A   1      43.678  34.456  33.305  1.00  0.00     0.198 A 
ATOM     67  C   UNL A   1      42.465  33.419  35.095  1.00  0.00     0.198 A 
ATOM     68  F   UNL A   1      41.865  31.150  34.957  1.00  0.00    -0.203 F 
ATOM     69  F   UNL A   1      44.303  35.526  32.792  1.00  0.00    -0.200 F 
ATOM     70  C   UNL A   1      43.084  34.536  34.554  1.00  0.00     0.200 A 
ATOM     71  F   UNL A   1      41.876  33.499  36.297  1.00  0.00    -0.200 F 
ATOM     72  F   UNL A   1      43.113  35.686  35.240  1.00  0.00    -0.200 F 
ENDBRANCH  48  62
BRANCH  49  73
ATOM     73  C   UNL A   1      42.412  23.749  27.685  1.00  0.00     0.064 A 
ATOM     74  C   UNL A   1      42.816  23.743  26.342  1.00  0.00     0.173 A 
ATOM     75  C   UNL A   1      41.925  22.548  28.222  1.00  0.00     0.173 A 
ATOM     76  F   UNL A   1      43.270  24.871  25.775  1.00  0.00    -0.203 F 
ATOM     77  C   UNL A   1      42.711  22.594  25.563  1.00  0.00     0.198 A 
ATOM     78  C   UNL A   1      41.853  21.390  27.452  1.00  0.00     0.198 A 
ATOM     79  F   UNL A   1      41.530  22.496  29.504  1.00  0.00    -0.203 F 
ATOM     80  F   UNL A   1      43.054  22.631  24.268  1.00  0.00    -0.200 F 
ATOM     81  C   UNL A   1      42.236  21.416  26.120  1.00  0.00     0.200 A 
ATOM     82  F   UNL A   1      41.409  20.250  28.000  1.00  0.00    -0.200 F 
ATOM     83  F   UNL A   1      42.139  20.309  25.371  1.00  0.00    -0.200 F 
ENDBRANCH  49  73
BRANCH  61  84
ATOM     84  C   UNL A   1      47.150  26.259  32.138  1.00  0.00     0.064 A 
ATOM     85  C   UNL A   1      48.365  26.618  31.536  1.00  0.00     0.173 A 
ATOM     86  C   UNL A   1      47.196  25.391  33.240  1.00  0.00     0.173 A 
ATOM     87  F   UNL A   1      48.377  27.433  30.470  1.00  0.00    -0.203 F 
ATOM     88  C   UNL A   1      49.573  26.100  31.996  1.00  0.00     0.198 A 
ATOM     89  C   UNL A   1      48.408  24.905  33.721  1.00  0.00     0.198 A 
ATOM     90  F   UNL A   1      46.064  25.023  33.859  1.00  0.00    -0.203 F 
ATOM     91  F   UNL A   1      50.715  26.408  31.366  1.00  0.00    -0.200 F 
ATOM     92  C   UNL A   1      49.594  25.251  33.092  1.00  0.00     0.200 A 
ATOM     93  F   UNL A   1      48.428  24.099  34.792  1.00  0.00    -0.200 F 
ATOM     94  F   UNL A   1      50.759  24.757  33.537  1.00  0.00    -0.200 F 
ENDBRANCH  61  84
ENDBRANCH  35  36
ENDBRANCH  27  30
ENDBRANCH  25  26
ENDBRANCH  24  25
ENDBRANCH   1  24
TORSDOF 13
ENDMDL
