MODEL 1
REMARK VINA RESULT:     -12.3      0.000      0.000
REMARK SMILES CC[C@@](C)(NC(=O)[C@@H]1CCS(=O)(=O)C1)C(=O)NCCCNC(=O)c1ccc(-c2c3nc(c(-c4c(F)c(F)c(F)c(F)c4F)c4ccc([nH]4)c(-c4c(F)c(F)c(F)c(F)c4F)c4nc(c(-c5c(F)c(F)c(F)c(F)c5F)c5ccc2[nH]5)C=C4)C=C3)cc1
REMARK SMILES IDX 19 1 18 2 17 3 15 4 16 5 3 7 4 8 2 9 1 10 5 11 6 12 7 14
REMARK SMILES IDX 8 15 9 16 14 17 10 18 11 19 12 20 13 21 20 22 21 23 22 24
REMARK SMILES IDX 23 26 24 27 25 28 86 29 26 30 85 31 27 32 28 33 29 34 79 35
REMARK SMILES IDX 30 36 84 37 78 38 80 39 31 40 83 41 77 42 76 43 32 45 64 46
REMARK SMILES IDX 44 47 63 48 45 49 48 50 62 51 81 52 46 53 47 54 61 56 82 57
REMARK SMILES IDX 49 58 33 59 34 60 42 61 35 62 36 63 40 64 43 65 37 66 38 67
REMARK SMILES IDX 41 68 39 69 65 70 66 71 74 72 67 73 68 74 72 75 75 76 69 77
REMARK SMILES IDX 70 78 73 79 71 80 50 81 51 82 59 83 52 84 53 85 57 86 60 87
REMARK SMILES IDX 54 88 55 89 58 90 56 91
REMARK H PARENT 17 6 5 13 21 25 80 44 48 55
REMARK Flexibility Score: inf
ROOT
ATOM      1  C   UNL A   1      31.614  31.930  26.652  1.00  0.00     0.042 C 
ENDROOT
BRANCH   1   2
ATOM      2  C   UNL A   1      31.872  30.448  26.362  1.00  0.00     0.117 C 
BRANCH   2   3
ATOM      3  N   UNL A   1      33.103  30.024  25.698  1.00  0.00    -0.354 N 
ATOM      4  C   UNL A   1      33.262  29.109  24.672  1.00  0.00     0.245 C 
ATOM      5  O   UNL A   1      33.978  29.446  23.728  1.00  0.00    -0.272 OA
ATOM      6  H   UNL A   1      33.930  30.446  26.025  1.00  0.00     0.163 HD
BRANCH   4   7
ATOM      7  C   UNL A   1      32.515  27.741  24.659  1.00  0.00     0.116 C 
ATOM      8  C   UNL A   1      33.597  26.646  24.825  1.00  0.00     0.045 C 
BRANCH   7   9
ATOM      9  C   UNL A   1      31.454  27.463  25.771  1.00  0.00     0.035 C 
ATOM     10  C   UNL A   1      31.135  26.014  26.109  1.00  0.00     0.007 C 
ENDBRANCH   7   9
BRANCH   7  11
ATOM     11  N   UNL A   1      31.840  27.611  23.358  1.00  0.00    -0.342 N 
ATOM     12  C   UNL A   1      30.634  27.991  22.885  1.00  0.00     0.225 C 
ATOM     13  H   UNL A   1      32.387  27.145  22.684  1.00  0.00     0.164 HD
ATOM     14  O   UNL A   1      30.379  27.537  21.758  1.00  0.00    -0.275 OA
BRANCH  12  15
ATOM     15  C   UNL A   1      29.576  28.915  23.525  1.00  0.00     0.094 C 
ATOM     16  C   UNL A   1      28.155  28.466  23.105  1.00  0.00     0.030 C 
ATOM     17  C   UNL A   1      29.586  30.443  23.579  1.00  0.00     0.150 C 
ATOM     18  C   UNL A   1      27.577  29.492  22.150  1.00  0.00     0.138 C 
ATOM     19  S   UNL A   1      28.122  31.051  22.751  1.00  0.00     0.151 S 
ATOM     20  O   UNL A   1      28.474  31.863  21.612  1.00  0.00    -0.229 OA
ATOM     21  O   UNL A   1      27.171  31.495  23.755  1.00  0.00    -0.229 OA
ENDBRANCH  12  15
ENDBRANCH   7  11
ENDBRANCH   4   7
ENDBRANCH   2   3
ENDBRANCH   1   2
BRANCH   1  22
ATOM     22  C   UNL A   1      32.664  32.852  27.276  1.00  0.00     0.118 C 
BRANCH  22  23
ATOM     23  N   UNL A   1      32.281  34.196  27.648  1.00  0.00    -0.352 N 
ATOM     24  C   UNL A   1      32.928  35.006  28.564  1.00  0.00     0.251 C 
ATOM     25  H   UNL A   1      31.485  34.571  27.206  1.00  0.00     0.163 HD
ATOM     26  O   UNL A   1      32.503  36.127  28.820  1.00  0.00    -0.269 OA
BRANCH  24  27
ATOM     27  C   UNL A   1      34.118  34.488  29.284  1.00  0.00     0.039 A 
ATOM     28  C   UNL A   1      33.931  33.840  30.508  1.00  0.00     0.014 A 
ATOM     29  C   UNL A   1      35.403  34.614  28.752  1.00  0.00     0.014 A 
ATOM     30  C   UNL A   1      35.020  33.247  31.157  1.00  0.00     0.010 A 
ATOM     31  C   UNL A   1      36.485  33.986  29.381  1.00  0.00     0.010 A 
ATOM     32  C   UNL A   1      36.302  33.278  30.580  1.00  0.00    -0.014 A 
BRANCH  32  33
ATOM     33  C   UNL A   1      37.433  32.525  31.194  1.00  0.00     0.031 A 
ATOM     34  C   UNL A   1      37.953  32.880  32.560  1.00  0.00     0.074 A 
ATOM     35  C   UNL A   1      38.031  31.540  30.493  1.00  0.00     0.049 A 
ATOM     36  N   UNL A   1      38.943  32.347  33.233  1.00  0.00    -0.248 NA
ATOM     37  C   UNL A   1      37.284  33.989  33.253  1.00  0.00     0.031 C 
ATOM     38  C   UNL A   1      37.658  31.121  29.142  1.00  0.00     0.029 A 
ATOM     39  N   UNL A   1      39.085  30.719  30.815  1.00  0.00    -0.354 N 
ATOM     40  C   UNL A   1      39.020  33.057  34.424  1.00  0.00     0.074 A 
ATOM     41  C   UNL A   1      38.005  34.088  34.362  1.00  0.00     0.031 C 
ATOM     42  C   UNL A   1      38.455  30.111  28.758  1.00  0.00     0.029 A 
ATOM     43  C   UNL A   1      39.417  29.830  29.820  1.00  0.00     0.049 A 
ATOM     44  H   UNL A   1      39.558  30.762  31.678  1.00  0.00     0.167 HD
ATOM     45  C   UNL A   1      39.846  32.856  35.481  1.00  0.00     0.037 A 
ATOM     46  C   UNL A   1      40.388  28.897  29.764  1.00  0.00     0.037 A 
ATOM     47  C   UNL A   1      40.851  31.825  35.552  1.00  0.00     0.049 A 
ATOM     48  C   UNL A   1      41.300  28.704  30.946  1.00  0.00     0.074 A 
ATOM     49  C   UNL A   1      41.701  31.517  36.600  1.00  0.00     0.029 A 
ATOM     50  N   UNL A   1      41.149  30.937  34.527  1.00  0.00    -0.354 N 
ATOM     51  N   UNL A   1      41.313  29.333  32.094  1.00  0.00    -0.248 NA
ATOM     52  C   UNL A   1      42.332  27.661  30.825  1.00  0.00     0.031 C 
ATOM     53  C   UNL A   1      42.542  30.475  36.195  1.00  0.00     0.029 A 
ATOM     54  C   UNL A   1      42.182  30.097  34.913  1.00  0.00     0.049 A 
ATOM     55  H   UNL A   1      40.692  30.909  33.655  1.00  0.00     0.167 HD
ATOM     56  C   UNL A   1      42.324  28.747  32.842  1.00  0.00     0.074 A 
ATOM     57  C   UNL A   1      42.898  27.700  32.022  1.00  0.00     0.031 C 
ATOM     58  C   UNL A   1      42.740  29.049  34.096  1.00  0.00     0.037 A 
BRANCH  45  59
ATOM     59  C   UNL A   1      39.702  33.777  36.659  1.00  0.00     0.064 A 
ATOM     60  C   UNL A   1      40.346  35.023  36.700  1.00  0.00     0.173 A 
ATOM     61  C   UNL A   1      38.876  33.430  37.740  1.00  0.00     0.173 A 
ATOM     62  F   UNL A   1      41.150  35.400  35.695  1.00  0.00    -0.203 F 
ATOM     63  C   UNL A   1      40.195  35.873  37.792  1.00  0.00     0.198 A 
ATOM     64  C   UNL A   1      38.703  34.296  38.817  1.00  0.00     0.198 A 
ATOM     65  F   UNL A   1      38.227  32.257  37.747  1.00  0.00    -0.203 F 
ATOM     66  F   UNL A   1      40.858  37.037  37.830  1.00  0.00    -0.200 F 
ATOM     67  C   UNL A   1      39.369  35.513  38.847  1.00  0.00     0.200 A 
ATOM     68  F   UNL A   1      37.892  33.954  39.828  1.00  0.00    -0.200 F 
ATOM     69  F   UNL A   1      39.220  36.334  39.895  1.00  0.00    -0.200 F 
ENDBRANCH  45  59
BRANCH  46  70
ATOM     70  C   UNL A   1      40.536  28.051  28.550  1.00  0.00     0.064 A 
ATOM     71  C   UNL A   1      39.914  26.797  28.466  1.00  0.00     0.173 A 
ATOM     72  C   UNL A   1      41.308  28.470  27.457  1.00  0.00     0.173 A 
ATOM     73  F   UNL A   1      39.184  26.342  29.495  1.00  0.00    -0.203 F 
ATOM     74  C   UNL A   1      40.076  25.985  27.345  1.00  0.00     0.198 A 
ATOM     75  C   UNL A   1      41.445  27.671  26.323  1.00  0.00     0.198 A 
ATOM     76  F   UNL A   1      41.921  29.662  27.486  1.00  0.00    -0.203 F 
ATOM     77  F   UNL A   1      39.510  24.772  27.311  1.00  0.00    -0.200 F 
ATOM     78  C   UNL A   1      40.837  26.426  26.272  1.00  0.00     0.200 A 
ATOM     79  F   UNL A   1      42.169  28.106  25.283  1.00  0.00    -0.200 F 
ATOM     80  F   UNL A   1      40.989  25.648  25.191  1.00  0.00    -0.200 F 
ENDBRANCH  46  70
BRANCH  58  81
ATOM     81  C   UNL A   1      43.843  28.214  34.682  1.00  0.00     0.064 A 
ATOM     82  C   UNL A   1      45.188  28.601  34.594  1.00  0.00     0.173 A 
ATOM     83  C   UNL A   1      43.544  27.030  35.374  1.00  0.00     0.173 A 
ATOM     84  F   UNL A   1      45.529  29.715  33.929  1.00  0.00    -0.203 F 
ATOM     85  C   UNL A   1      46.195  27.822  35.159  1.00  0.00     0.198 A 
ATOM     86  C   UNL A   1      44.550  26.269  35.962  1.00  0.00     0.198 A 
ATOM     87  F   UNL A   1      42.273  26.617  35.491  1.00  0.00    -0.203 F 
ATOM     88  F   UNL A   1      47.478  28.187  35.025  1.00  0.00    -0.200 F 
ATOM     89  C   UNL A   1      45.875  26.662  35.849  1.00  0.00     0.200 A 
ATOM     90  F   UNL A   1      44.237  25.156  36.640  1.00  0.00    -0.200 F 
ATOM     91  F   UNL A   1      46.845  25.918  36.400  1.00  0.00    -0.200 F 
ENDBRANCH  58  81
ENDBRANCH  32  33
ENDBRANCH  24  27
ENDBRANCH  22  23
ENDBRANCH   1  22
TORSDOF 13
ENDMDL
MODEL 2
REMARK VINA RESULT:     -12.2      1.928      7.956
REMARK SMILES CC[C@@](C)(NC(=O)[C@@H]1CCS(=O)(=O)C1)C(=O)NCCCNC(=O)c1ccc(-c2c3nc(c(-c4c(F)c(F)c(F)c(F)c4F)c4ccc([nH]4)c(-c4c(F)c(F)c(F)c(F)c4F)c4nc(c(-c5c(F)c(F)c(F)c(F)c5F)c5ccc2[nH]5)C=C4)C=C3)cc1
REMARK SMILES IDX 19 1 18 2 17 3 15 4 16 5 3 7 4 8 2 9 1 10 5 11 6 12 7 14
REMARK SMILES IDX 8 15 9 16 14 17 10 18 11 19 12 20 13 21 20 22 21 23 22 24
REMARK SMILES IDX 23 26 24 27 25 28 86 29 26 30 85 31 27 32 28 33 29 34 79 35
REMARK SMILES IDX 30 36 84 37 78 38 80 39 31 40 83 41 77 42 76 43 32 45 64 46
REMARK SMILES IDX 44 47 63 48 45 49 48 50 62 51 81 52 46 53 47 54 61 56 82 57
REMARK SMILES IDX 49 58 33 59 34 60 42 61 35 62 36 63 40 64 43 65 37 66 38 67
REMARK SMILES IDX 41 68 39 69 65 70 66 71 74 72 67 73 68 74 72 75 75 76 69 77
REMARK SMILES IDX 70 78 73 79 71 80 50 81 51 82 59 83 52 84 53 85 57 86 60 87
REMARK SMILES IDX 54 88 55 89 58 90 56 91
REMARK H PARENT 17 6 5 13 21 25 80 44 48 55
REMARK Flexibility Score: inf
ROOT
ATOM      1  C   UNL A   1      31.787  31.720  26.626  1.00  0.00     0.042 C 
ENDROOT
BRANCH   1   2
ATOM      2  C   UNL A   1      32.142  30.276  26.259  1.00  0.00     0.117 C 
BRANCH   2   3
ATOM      3  N   UNL A   1      33.161  29.996  25.250  1.00  0.00    -0.354 N 
ATOM      4  C   UNL A   1      33.202  28.968  24.324  1.00  0.00     0.245 C 
ATOM      5  O   UNL A   1      33.475  29.272  23.162  1.00  0.00    -0.272 OA
ATOM      6  H   UNL A   1      33.920  30.622  25.226  1.00  0.00     0.163 HD
BRANCH   4   7
ATOM      7  C   UNL A   1      32.846  27.497  24.701  1.00  0.00     0.116 C 
ATOM      8  C   UNL A   1      33.591  27.189  26.023  1.00  0.00     0.045 C 
BRANCH   7   9
ATOM      9  C   UNL A   1      31.349  27.140  24.963  1.00  0.00     0.035 C 
ATOM     10  C   UNL A   1      30.307  27.661  23.983  1.00  0.00     0.007 C 
ENDBRANCH   7   9
BRANCH   7  11
ATOM     11  N   UNL A   1      33.329  26.627  23.618  1.00  0.00    -0.342 N 
ATOM     12  C   UNL A   1      33.415  25.289  23.458  1.00  0.00     0.225 C 
ATOM     13  H   UNL A   1      33.663  27.129  22.839  1.00  0.00     0.164 HD
ATOM     14  O   UNL A   1      34.047  24.952  22.444  1.00  0.00    -0.275 OA
BRANCH  12  15
ATOM     15  C   UNL A   1      32.820  24.158  24.322  1.00  0.00     0.094 C 
ATOM     16  C   UNL A   1      33.957  23.295  24.923  1.00  0.00     0.030 C 
ATOM     17  C   UNL A   1      31.664  23.223  23.965  1.00  0.00     0.150 C 
ATOM     18  C   UNL A   1      33.957  21.939  24.245  1.00  0.00     0.138 C 
ATOM     19  S   UNL A   1      32.263  21.538  23.999  1.00  0.00     0.151 S 
ATOM     20  O   UNL A   1      32.141  20.921  22.702  1.00  0.00    -0.229 OA
ATOM     21  O   UNL A   1      31.780  20.899  25.210  1.00  0.00    -0.229 OA
ENDBRANCH  12  15
ENDBRANCH   7  11
ENDBRANCH   4   7
ENDBRANCH   2   3
ENDBRANCH   1   2
BRANCH   1  22
ATOM     22  C   UNL A   1      32.770  32.672  27.310  1.00  0.00     0.118 C 
BRANCH  22  23
ATOM     23  N   UNL A   1      32.343  34.020  27.611  1.00  0.00    -0.352 N 
ATOM     24  C   UNL A   1      32.951  34.891  28.498  1.00  0.00     0.251 C 
ATOM     25  H   UNL A   1      31.545  34.350  27.139  1.00  0.00     0.163 HD
ATOM     26  O   UNL A   1      32.491  36.011  28.693  1.00  0.00    -0.269 OA
BRANCH  24  27
ATOM     27  C   UNL A   1      34.143  34.443  29.261  1.00  0.00     0.039 A 
ATOM     28  C   UNL A   1      33.956  33.880  30.526  1.00  0.00     0.014 A 
ATOM     29  C   UNL A   1      35.430  34.550  28.729  1.00  0.00     0.014 A 
ATOM     30  C   UNL A   1      35.048  33.351  31.222  1.00  0.00     0.010 A 
ATOM     31  C   UNL A   1      36.516  33.983  29.408  1.00  0.00     0.010 A 
ATOM     32  C   UNL A   1      36.334  33.359  30.653  1.00  0.00    -0.014 A 
BRANCH  32  33
ATOM     33  C   UNL A   1      37.470  32.668  31.326  1.00  0.00     0.031 A 
ATOM     34  C   UNL A   1      38.180  31.516  30.670  1.00  0.00     0.074 A 
ATOM     35  C   UNL A   1      37.838  33.052  32.565  1.00  0.00     0.049 A 
ATOM     36  N   UNL A   1      39.170  30.786  31.122  1.00  0.00    -0.248 NA
ATOM     37  C   UNL A   1      37.703  31.121  29.337  1.00  0.00     0.031 C 
ATOM     38  C   UNL A   1      37.210  34.125  33.336  1.00  0.00     0.029 A 
ATOM     39  N   UNL A   1      38.824  32.579  33.399  1.00  0.00    -0.354 N 
ATOM     40  C   UNL A   1      39.432  29.845  30.135  1.00  0.00     0.074 A 
ATOM     41  C   UNL A   1      38.467  30.067  29.079  1.00  0.00     0.031 C 
ATOM     42  C   UNL A   1      37.835  34.241  34.520  1.00  0.00     0.029 A 
ATOM     43  C   UNL A   1      38.887  33.233  34.607  1.00  0.00     0.049 A 
ATOM     44  H   UNL A   1      39.429  31.841  33.154  1.00  0.00     0.167 HD
ATOM     45  C   UNL A   1      40.400  28.895  30.103  1.00  0.00     0.037 A 
ATOM     46  C   UNL A   1      39.696  33.040  35.668  1.00  0.00     0.037 A 
ATOM     47  C   UNL A   1      41.369  28.676  31.148  1.00  0.00     0.049 A 
ATOM     48  C   UNL A   1      40.753  31.971  35.611  1.00  0.00     0.074 A 
ATOM     49  C   UNL A   1      42.415  27.770  31.180  1.00  0.00     0.029 A 
ATOM     50  N   UNL A   1      41.406  29.367  32.351  1.00  0.00    -0.354 N 
ATOM     51  N   UNL A   1      41.036  31.137  34.642  1.00  0.00    -0.248 NA
ATOM     52  C   UNL A   1      41.610  31.820  36.798  1.00  0.00     0.031 C 
ATOM     53  C   UNL A   1      43.057  27.880  32.418  1.00  0.00     0.029 A 
ATOM     54  C   UNL A   1      42.444  28.891  33.138  1.00  0.00     0.049 A 
ATOM     55  H   UNL A   1      40.787  30.089  32.607  1.00  0.00     0.167 HD
ATOM     56  C   UNL A   1      42.118  30.388  35.084  1.00  0.00     0.074 A 
ATOM     57  C   UNL A   1      42.451  30.874  36.407  1.00  0.00     0.031 C 
ATOM     58  C   UNL A   1      42.777  29.388  34.449  1.00  0.00     0.037 A 
BRANCH  45  59
ATOM     59  C   UNL A   1      40.462  28.009  28.892  1.00  0.00     0.064 A 
ATOM     60  C   UNL A   1      39.755  26.798  28.831  1.00  0.00     0.173 A 
ATOM     61  C   UNL A   1      41.201  28.394  27.761  1.00  0.00     0.173 A 
ATOM     62  F   UNL A   1      39.038  26.382  29.885  1.00  0.00    -0.203 F 
ATOM     63  C   UNL A   1      39.811  25.991  27.697  1.00  0.00     0.198 A 
ATOM     64  C   UNL A   1      41.230  27.598  26.618  1.00  0.00     0.198 A 
ATOM     65  F   UNL A   1      41.884  29.547  27.761  1.00  0.00    -0.203 F 
ATOM     66  F   UNL A   1      39.166  24.816  27.681  1.00  0.00    -0.200 F 
ATOM     67  C   UNL A   1      40.542  26.394  26.590  1.00  0.00     0.200 A 
ATOM     68  F   UNL A   1      41.924  27.997  25.543  1.00  0.00    -0.200 F 
ATOM     69  F   UNL A   1      40.591  25.619  25.498  1.00  0.00    -0.200 F 
ENDBRANCH  45  59
BRANCH  46  70
ATOM     70  C   UNL A   1      39.555  33.900  36.873  1.00  0.00     0.064 A 
ATOM     71  C   UNL A   1      38.783  33.486  37.968  1.00  0.00     0.173 A 
ATOM     72  C   UNL A   1      40.174  35.156  36.952  1.00  0.00     0.173 A 
ATOM     73  F   UNL A   1      38.151  32.303  37.931  1.00  0.00    -0.203 F 
ATOM     74  C   UNL A   1      38.619  34.301  39.086  1.00  0.00     0.198 A 
ATOM     75  C   UNL A   1      40.035  35.958  38.082  1.00  0.00     0.198 A 
ATOM     76  F   UNL A   1      40.926  35.598  35.933  1.00  0.00    -0.203 F 
ATOM     77  F   UNL A   1      37.838  33.900  40.097  1.00  0.00    -0.200 F 
ATOM     78  C   UNL A   1      39.251  35.535  39.144  1.00  0.00     0.200 A 
ATOM     79  F   UNL A   1      40.658  37.143  38.141  1.00  0.00    -0.200 F 
ATOM     80  F   UNL A   1      39.098  36.318  40.221  1.00  0.00    -0.200 F 
ENDBRANCH  46  70
BRANCH  58  81
ATOM     81  C   UNL A   1      43.952  28.774  35.156  1.00  0.00     0.064 A 
ATOM     82  C   UNL A   1      45.254  29.265  34.987  1.00  0.00     0.173 A 
ATOM     83  C   UNL A   1      43.764  27.703  36.045  1.00  0.00     0.173 A 
ATOM     84  F   UNL A   1      45.490  30.276  34.137  1.00  0.00    -0.203 F 
ATOM     85  C   UNL A   1      46.328  28.694  35.666  1.00  0.00     0.198 A 
ATOM     86  C   UNL A   1      44.835  27.153  36.742  1.00  0.00     0.198 A 
ATOM     87  F   UNL A   1      42.537  27.198  36.245  1.00  0.00    -0.203 F 
ATOM     88  F   UNL A   1      47.571  29.150  35.455  1.00  0.00    -0.200 F 
ATOM     89  C   UNL A   1      46.117  27.645  36.548  1.00  0.00     0.200 A 
ATOM     90  F   UNL A   1      44.627  26.148  37.604  1.00  0.00    -0.200 F 
ATOM     91  F   UNL A   1      47.151  27.102  37.206  1.00  0.00    -0.200 F 
ENDBRANCH  58  81
ENDBRANCH  32  33
ENDBRANCH  24  27
ENDBRANCH  22  23
ENDBRANCH   1  22
TORSDOF 13
ENDMDL
MODEL 3
REMARK VINA RESULT:     -12.2      1.914      7.952
REMARK SMILES CC[C@@](C)(NC(=O)[C@@H]1CCS(=O)(=O)C1)C(=O)NCCCNC(=O)c1ccc(-c2c3nc(c(-c4c(F)c(F)c(F)c(F)c4F)c4ccc([nH]4)c(-c4c(F)c(F)c(F)c(F)c4F)c4nc(c(-c5c(F)c(F)c(F)c(F)c5F)c5ccc2[nH]5)C=C4)C=C3)cc1
REMARK SMILES IDX 19 1 18 2 17 3 15 4 16 5 3 7 4 8 2 9 1 10 5 11 6 12 7 14
REMARK SMILES IDX 8 15 9 16 14 17 10 18 11 19 12 20 13 21 20 22 21 23 22 24
REMARK SMILES IDX 23 26 24 27 25 28 86 29 26 30 85 31 27 32 28 33 29 34 79 35
REMARK SMILES IDX 30 36 84 37 78 38 80 39 31 40 83 41 77 42 76 43 32 45 64 46
REMARK SMILES IDX 44 47 63 48 45 49 48 50 62 51 81 52 46 53 47 54 61 56 82 57
REMARK SMILES IDX 49 58 33 59 34 60 42 61 35 62 36 63 40 64 43 65 37 66 38 67
REMARK SMILES IDX 41 68 39 69 65 70 66 71 74 72 67 73 68 74 72 75 75 76 69 77
REMARK SMILES IDX 70 78 73 79 71 80 50 81 51 82 59 83 52 84 53 85 57 86 60 87
REMARK SMILES IDX 54 88 55 89 58 90 56 91
REMARK H PARENT 17 6 5 13 21 25 80 44 48 55
REMARK Flexibility Score: inf
ROOT
ATOM      1  C   UNL A   1      31.745  31.717  26.592  1.00  0.00     0.042 C 
ENDROOT
BRANCH   1   2
ATOM      2  C   UNL A   1      32.097  30.272  26.222  1.00  0.00     0.117 C 
BRANCH   2   3
ATOM      3  N   UNL A   1      33.125  29.992  25.223  1.00  0.00    -0.354 N 
ATOM      4  C   UNL A   1      33.171  28.968  24.292  1.00  0.00     0.245 C 
ATOM      5  O   UNL A   1      33.459  29.278  23.135  1.00  0.00    -0.272 OA
ATOM      6  H   UNL A   1      33.888  30.613  25.211  1.00  0.00     0.163 HD
BRANCH   4   7
ATOM      7  C   UNL A   1      32.803  27.498  24.657  1.00  0.00     0.116 C 
ATOM      8  C   UNL A   1      33.532  27.178  25.986  1.00  0.00     0.045 C 
BRANCH   7   9
ATOM      9  C   UNL A   1      31.300  27.148  24.901  1.00  0.00     0.035 C 
ATOM     10  C   UNL A   1      30.267  27.728  23.946  1.00  0.00     0.007 C 
ENDBRANCH   7   9
BRANCH   7  11
ATOM     11  N   UNL A   1      33.292  26.631  23.574  1.00  0.00    -0.342 N 
ATOM     12  C   UNL A   1      33.389  25.293  23.416  1.00  0.00     0.225 C 
ATOM     13  H   UNL A   1      33.621  27.135  22.795  1.00  0.00     0.164 HD
ATOM     14  O   UNL A   1      34.023  24.960  22.402  1.00  0.00    -0.275 OA
BRANCH  12  15
ATOM     15  C   UNL A   1      32.804  24.158  24.281  1.00  0.00     0.094 C 
ATOM     16  C   UNL A   1      33.947  23.300  24.875  1.00  0.00     0.030 C 
ATOM     17  C   UNL A   1      31.650  23.218  23.928  1.00  0.00     0.150 C 
ATOM     18  C   UNL A   1      33.950  21.945  24.195  1.00  0.00     0.138 C 
ATOM     19  S   UNL A   1      32.257  21.536  23.957  1.00  0.00     0.151 S 
ATOM     20  O   UNL A   1      32.132  20.920  22.660  1.00  0.00    -0.229 OA
ATOM     21  O   UNL A   1      31.784  20.893  25.170  1.00  0.00    -0.229 OA
ENDBRANCH  12  15
ENDBRANCH   7  11
ENDBRANCH   4   7
ENDBRANCH   2   3
ENDBRANCH   1   2
BRANCH   1  22
ATOM     22  C   UNL A   1      32.728  32.662  27.285  1.00  0.00     0.118 C 
BRANCH  22  23
ATOM     23  N   UNL A   1      32.304  34.011  27.590  1.00  0.00    -0.352 N 
ATOM     24  C   UNL A   1      32.917  34.880  28.475  1.00  0.00     0.251 C 
ATOM     25  H   UNL A   1      31.503  34.342  27.124  1.00  0.00     0.163 HD
ATOM     26  O   UNL A   1      32.459  35.999  28.674  1.00  0.00    -0.269 OA
BRANCH  24  27
ATOM     27  C   UNL A   1      34.113  34.430  29.230  1.00  0.00     0.039 A 
ATOM     28  C   UNL A   1      33.933  33.864  30.494  1.00  0.00     0.014 A 
ATOM     29  C   UNL A   1      35.398  34.540  28.691  1.00  0.00     0.014 A 
ATOM     30  C   UNL A   1      35.030  33.332  31.183  1.00  0.00     0.010 A 
ATOM     31  C   UNL A   1      36.487  33.972  29.362  1.00  0.00     0.010 A 
ATOM     32  C   UNL A   1      36.313  33.343  30.606  1.00  0.00    -0.014 A 
BRANCH  32  33
ATOM     33  C   UNL A   1      37.453  32.651  31.271  1.00  0.00     0.031 A 
ATOM     34  C   UNL A   1      38.159  31.501  30.607  1.00  0.00     0.074 A 
ATOM     35  C   UNL A   1      37.828  33.032  32.510  1.00  0.00     0.049 A 
ATOM     36  N   UNL A   1      39.153  30.770  31.052  1.00  0.00    -0.248 NA
ATOM     37  C   UNL A   1      37.676  31.110  29.277  1.00  0.00     0.031 C 
ATOM     38  C   UNL A   1      37.203  34.102  33.287  1.00  0.00     0.029 A 
ATOM     39  N   UNL A   1      38.818  32.557  33.336  1.00  0.00    -0.354 N 
ATOM     40  C   UNL A   1      39.410  29.832  30.062  1.00  0.00     0.074 A 
ATOM     41  C   UNL A   1      38.438  30.058  29.011  1.00  0.00     0.031 C 
ATOM     42  C   UNL A   1      37.834  34.216  34.467  1.00  0.00     0.029 A 
ATOM     43  C   UNL A   1      38.887  33.207  34.545  1.00  0.00     0.049 A 
ATOM     44  H   UNL A   1      39.422  31.820  33.086  1.00  0.00     0.167 HD
ATOM     45  C   UNL A   1      40.378  28.883  30.021  1.00  0.00     0.037 A 
ATOM     46  C   UNL A   1      39.702  33.012  35.602  1.00  0.00     0.037 A 
ATOM     47  C   UNL A   1      41.353  28.662  31.060  1.00  0.00     0.049 A 
ATOM     48  C   UNL A   1      40.759  31.943  35.536  1.00  0.00     0.074 A 
ATOM     49  C   UNL A   1      42.399  27.756  31.083  1.00  0.00     0.029 A 
ATOM     50  N   UNL A   1      41.396  29.349  32.265  1.00  0.00    -0.354 N 
ATOM     51  N   UNL A   1      41.038  31.113  34.563  1.00  0.00    -0.248 NA
ATOM     52  C   UNL A   1      41.623  31.790  36.717  1.00  0.00     0.031 C 
ATOM     53  C   UNL A   1      43.048  27.863  32.319  1.00  0.00     0.029 A 
ATOM     54  C   UNL A   1      42.439  28.872  33.045  1.00  0.00     0.049 A 
ATOM     55  H   UNL A   1      40.778  30.070  32.526  1.00  0.00     0.167 HD
ATOM     56  C   UNL A   1      42.123  30.363  34.997  1.00  0.00     0.074 A 
ATOM     57  C   UNL A   1      42.462  30.845  36.319  1.00  0.00     0.031 C 
ATOM     58  C   UNL A   1      42.778  29.365  34.355  1.00  0.00     0.037 A 
BRANCH  45  59
ATOM     59  C   UNL A   1      40.434  28.000  28.807  1.00  0.00     0.064 A 
ATOM     60  C   UNL A   1      41.182  28.358  27.674  1.00  0.00     0.173 A 
ATOM     61  C   UNL A   1      39.769  26.764  28.790  1.00  0.00     0.173 A 
ATOM     62  F   UNL A   1      41.831  29.530  27.637  1.00  0.00    -0.203 F 
ATOM     63  C   UNL A   1      41.236  27.525  26.559  1.00  0.00     0.198 A 
ATOM     64  C   UNL A   1      39.850  25.921  27.685  1.00  0.00     0.198 A 
ATOM     65  F   UNL A   1      39.051  26.368  29.851  1.00  0.00    -0.203 F 
ATOM     66  F   UNL A   1      41.917  27.910  25.470  1.00  0.00    -0.200 F 
ATOM     67  C   UNL A   1      40.576  26.305  26.567  1.00  0.00     0.200 A 
ATOM     68  F   UNL A   1      39.225  24.735  27.701  1.00  0.00    -0.200 F 
ATOM     69  F   UNL A   1      40.633  25.503  25.495  1.00  0.00    -0.200 F 
ENDBRANCH  45  59
BRANCH  46  70
ATOM     70  C   UNL A   1      39.567  33.868  36.810  1.00  0.00     0.064 A 
ATOM     71  C   UNL A   1      38.785  33.460  37.900  1.00  0.00     0.173 A 
ATOM     72  C   UNL A   1      40.204  35.115  36.897  1.00  0.00     0.173 A 
ATOM     73  F   UNL A   1      38.137  32.285  37.854  1.00  0.00    -0.203 F 
ATOM     74  C   UNL A   1      38.627  34.272  39.020  1.00  0.00     0.198 A 
ATOM     75  C   UNL A   1      40.070  35.914  38.031  1.00  0.00     0.198 A 
ATOM     76  F   UNL A   1      40.966  35.551  35.884  1.00  0.00    -0.203 F 
ATOM     77  F   UNL A   1      37.836  33.877  40.026  1.00  0.00    -0.200 F 
ATOM     78  C   UNL A   1      39.275  35.497  39.087  1.00  0.00     0.200 A 
ATOM     79  F   UNL A   1      40.709  37.090  38.098  1.00  0.00    -0.200 F 
ATOM     80  F   UNL A   1      39.128  36.277  40.167  1.00  0.00    -0.200 F 
ENDBRANCH  46  70
BRANCH  58  81
ATOM     81  C   UNL A   1      43.957  28.749  35.054  1.00  0.00     0.064 A 
ATOM     82  C   UNL A   1      43.821  27.624  35.880  1.00  0.00     0.173 A 
ATOM     83  C   UNL A   1      45.247  29.270  34.860  1.00  0.00     0.173 A 
ATOM     84  F   UNL A   1      42.609  27.098  36.111  1.00  0.00    -0.203 F 
ATOM     85  C   UNL A   1      44.930  27.057  36.504  1.00  0.00     0.198 A 
ATOM     86  C   UNL A   1      46.356  28.683  35.463  1.00  0.00     0.198 A 
ATOM     87  F   UNL A   1      45.433  30.342  34.077  1.00  0.00    -0.203 F 
ATOM     88  F   UNL A   1      44.771  26.009  37.326  1.00  0.00    -0.200 F 
ATOM     89  C   UNL A   1      46.196  27.581  36.290  1.00  0.00     0.200 A 
ATOM     90  F   UNL A   1      47.579  29.183  35.243  1.00  0.00    -0.200 F 
ATOM     91  F   UNL A   1      47.262  27.028  36.885  1.00  0.00    -0.200 F 
ENDBRANCH  58  81
ENDBRANCH  32  33
ENDBRANCH  24  27
ENDBRANCH  22  23
ENDBRANCH   1  22
TORSDOF 13
ENDMDL
