MODEL 1
REMARK VINA RESULT:     -12.6      0.000      0.000
REMARK SMILES C[C@@H]1[NH2+]CC[C@@H]1C(=O)Nc1ccccc1CC(=O)NCCCNC(=O)c1ccc(-c2c3nc(c(-c4c(F)c(F)c(F)c(F)c4F)c4ccc([nH]4)c(-c4c(F)c(F)c(F)c(F)c4F)c4nc(c(-c5c(F)c(F)c(F)c(F)c5F)c5ccc2[nH]5)C=C4)C=C3)cc1
REMARK SMILES IDX 20 1 19 2 17 3 18 4 16 6 15 7 10 8 11 9 12 10 14 11 13 12
REMARK SMILES IDX 9 13 7 14 8 15 6 17 1 18 2 19 3 20 4 21 5 24 21 25 22 26
REMARK SMILES IDX 23 27 24 28 25 30 26 31 27 32 88 33 28 34 87 35 29 36 30 37
REMARK SMILES IDX 31 38 81 39 32 40 86 41 80 42 82 43 33 44 85 45 79 46 78 47
REMARK SMILES IDX 34 49 66 50 46 51 65 52 47 53 50 54 64 55 83 56 48 57 49 58
REMARK SMILES IDX 63 60 84 61 51 62 35 63 36 64 44 65 37 66 38 67 42 68 45 69
REMARK SMILES IDX 39 70 40 71 43 72 41 73 67 74 68 75 76 76 69 77 70 78 74 79
REMARK SMILES IDX 77 80 71 81 72 82 75 83 73 84 52 85 53 86 61 87 54 88 55 89
REMARK SMILES IDX 59 90 62 91 56 92 57 93 60 94 58 95
REMARK H PARENT 19 5 9 16 3 22 3 23 23 29 82 48 50 59
REMARK Flexibility Score: inf
ROOT
ATOM      1  C   UNL A   1      31.447  30.941  25.957  1.00  0.00     0.117 C 
ENDROOT
BRANCH   1   2
ATOM      2  N   UNL A   1      32.317  30.159  26.807  1.00  0.00    -0.356 N 
ATOM      3  C   UNL A   1      32.667  28.851  26.648  1.00  0.00     0.224 C 
ATOM      4  O   UNL A   1      33.099  28.235  27.622  1.00  0.00    -0.275 OA
ATOM      5  H   UNL A   1      32.698  30.622  27.588  1.00  0.00     0.163 HD
BRANCH   3   6
ATOM      6  C   UNL A   1      32.601  28.222  25.271  1.00  0.00     0.137 C 
BRANCH   6   7
ATOM      7  C   UNL A   1      31.289  27.587  24.872  1.00  0.00    -0.015 A 
ATOM      8  C   UNL A   1      30.730  26.436  25.460  1.00  0.00     0.044 A 
ATOM      9  C   UNL A   1      29.559  25.881  24.904  1.00  0.00     0.026 A 
ATOM     10  C   UNL A   1      28.888  26.490  23.847  1.00  0.00     0.002 A 
ATOM     11  C   UNL A   1      30.587  28.194  23.804  1.00  0.00     0.006 A 
ATOM     12  C   UNL A   1      29.395  27.659  23.306  1.00  0.00     0.000 A 
BRANCH   8  13
ATOM     13  N   UNL A   1      31.247  25.663  26.512  1.00  0.00    -0.325 N 
ATOM     14  C   UNL A   1      31.927  24.498  26.626  1.00  0.00     0.233 C 
ATOM     15  O   UNL A   1      31.441  23.718  27.463  1.00  0.00    -0.274 OA
ATOM     16  H   UNL A   1      31.070  26.073  27.389  1.00  0.00     0.169 HD
BRANCH  14  17
ATOM     17  C   UNL A   1      33.390  24.306  26.186  1.00  0.00     0.142 C 
ATOM     18  C   UNL A   1      33.456  24.867  23.566  1.00  0.00     0.076 C 
ATOM     19  C   UNL A   1      33.982  24.130  24.781  1.00  0.00     0.192 C 
ATOM     20  N   UNL A   1      34.200  22.689  24.560  1.00  0.00    -0.343 N 
ATOM     21  C   UNL A   1      33.814  21.984  25.778  1.00  0.00     0.261 C 
ATOM     22  H   UNL A   1      35.184  22.515  24.355  1.00  0.00     0.346 HD
ATOM     23  H   UNL A   1      33.644  22.363  23.769  1.00  0.00     0.346 HD
ATOM     24  C   UNL A   1      33.937  23.031  26.866  1.00  0.00     0.081 C 
ENDBRANCH  14  17
ENDBRANCH   8  13
ENDBRANCH   6   7
ENDBRANCH   3   6
ENDBRANCH   1   2
BRANCH   1  25
ATOM     25  C   UNL A   1      31.243  32.341  26.526  1.00  0.00     0.042 C 
BRANCH  25  26
ATOM     26  C   UNL A   1      32.481  32.870  27.232  1.00  0.00     0.118 C 
BRANCH  26  27
ATOM     27  N   UNL A   1      32.316  34.241  27.678  1.00  0.00    -0.352 N 
ATOM     28  C   UNL A   1      32.986  34.906  28.672  1.00  0.00     0.251 C 
ATOM     29  H   UNL A   1      31.629  34.764  27.204  1.00  0.00     0.163 HD
ATOM     30  O   UNL A   1      32.607  36.006  29.040  1.00  0.00    -0.269 OA
BRANCH  28  31
ATOM     31  C   UNL A   1      34.159  34.270  29.308  1.00  0.00     0.039 A 
ATOM     32  C   UNL A   1      35.426  34.572  28.808  1.00  0.00     0.014 A 
ATOM     33  C   UNL A   1      34.010  33.364  30.362  1.00  0.00     0.014 A 
ATOM     34  C   UNL A   1      36.549  33.970  29.373  1.00  0.00     0.010 A 
ATOM     35  C   UNL A   1      35.136  32.831  30.981  1.00  0.00     0.010 A 
ATOM     36  C   UNL A   1      36.412  33.101  30.468  1.00  0.00    -0.014 A 
BRANCH  36  37
ATOM     37  C   UNL A   1      37.597  32.419  31.036  1.00  0.00     0.031 A 
ATOM     38  C   UNL A   1      38.084  32.785  32.411  1.00  0.00     0.074 A 
ATOM     39  C   UNL A   1      38.236  31.484  30.310  1.00  0.00     0.049 A 
ATOM     40  N   UNL A   1      39.083  32.287  33.095  1.00  0.00    -0.248 NA
ATOM     41  C   UNL A   1      37.373  33.874  33.099  1.00  0.00     0.031 C 
ATOM     42  C   UNL A   1      37.888  31.091  28.944  1.00  0.00     0.029 A 
ATOM     43  N   UNL A   1      39.307  30.687  30.623  1.00  0.00    -0.354 N 
ATOM     44  C   UNL A   1      39.123  33.008  34.282  1.00  0.00     0.074 A 
ATOM     45  C   UNL A   1      38.095  34.021  34.199  1.00  0.00     0.031 C 
ATOM     46  C   UNL A   1      38.705  30.102  28.549  1.00  0.00     0.029 A 
ATOM     47  C   UNL A   1      39.648  29.808  29.624  1.00  0.00     0.049 A 
ATOM     48  H   UNL A   1      39.785  30.740  31.482  1.00  0.00     0.167 HD
ATOM     49  C   UNL A   1      39.924  32.820  35.357  1.00  0.00     0.037 A 
ATOM     50  C   UNL A   1      40.608  28.866  29.591  1.00  0.00     0.037 A 
ATOM     51  C   UNL A   1      40.923  31.789  35.443  1.00  0.00     0.049 A 
ATOM     52  C   UNL A   1      41.466  28.659  30.809  1.00  0.00     0.074 A 
ATOM     53  C   UNL A   1      41.751  31.472  36.504  1.00  0.00     0.029 A 
ATOM     54  N   UNL A   1      41.227  30.902  34.420  1.00  0.00    -0.354 N 
ATOM     55  N   UNL A   1      41.444  29.295  31.956  1.00  0.00    -0.248 NA
ATOM     56  C   UNL A   1      42.470  27.591  30.734  1.00  0.00     0.031 C 
ATOM     57  C   UNL A   1      42.586  30.421  36.109  1.00  0.00     0.029 A 
ATOM     58  C   UNL A   1      42.242  30.048  34.819  1.00  0.00     0.049 A 
ATOM     59  H   UNL A   1      40.787  30.884  33.539  1.00  0.00     0.167 HD
ATOM     60  C   UNL A   1      42.411  28.688  32.747  1.00  0.00     0.074 A 
ATOM     61  C   UNL A   1      42.983  27.618  31.955  1.00  0.00     0.031 C 
ATOM     62  C   UNL A   1      42.794  28.989  34.013  1.00  0.00     0.037 A 
BRANCH  49  63
ATOM     63  C   UNL A   1      39.743  33.746  36.526  1.00  0.00     0.064 A 
ATOM     64  C   UNL A   1      40.386  34.992  36.585  1.00  0.00     0.173 A 
ATOM     65  C   UNL A   1      38.902  33.393  37.592  1.00  0.00     0.173 A 
ATOM     66  F   UNL A   1      41.212  35.373  35.599  1.00  0.00    -0.203 F 
ATOM     67  C   UNL A   1      40.220  35.835  37.682  1.00  0.00     0.198 A 
ATOM     68  C   UNL A   1      38.714  34.252  38.672  1.00  0.00     0.198 A 
ATOM     69  F   UNL A   1      38.260  32.215  37.587  1.00  0.00    -0.203 F 
ATOM     70  F   UNL A   1      40.890  36.995  37.741  1.00  0.00    -0.200 F 
ATOM     71  C   UNL A   1      39.380  35.467  38.721  1.00  0.00     0.200 A 
ATOM     72  F   UNL A   1      37.891  33.901  39.670  1.00  0.00    -0.200 F 
ATOM     73  F   UNL A   1      39.217  36.281  39.772  1.00  0.00    -0.200 F 
ENDBRANCH  49  63
BRANCH  50  74
ATOM     74  C   UNL A   1      40.775  28.018  28.382  1.00  0.00     0.064 A 
ATOM     75  C   UNL A   1      40.135  26.775  28.280  1.00  0.00     0.173 A 
ATOM     76  C   UNL A   1      41.574  28.430  27.307  1.00  0.00     0.173 A 
ATOM     77  F   UNL A   1      39.372  26.329  29.290  1.00  0.00    -0.203 F 
ATOM     78  C   UNL A   1      40.310  25.964  27.161  1.00  0.00     0.198 A 
ATOM     79  C   UNL A   1      41.725  27.632  26.175  1.00  0.00     0.198 A 
ATOM     80  F   UNL A   1      42.200  29.615  27.350  1.00  0.00    -0.203 F 
ATOM     81  F   UNL A   1      39.726  24.759  27.111  1.00  0.00    -0.200 F 
ATOM     82  C   UNL A   1      41.101  26.395  26.107  1.00  0.00     0.200 A 
ATOM     83  F   UNL A   1      42.477  28.059  25.151  1.00  0.00    -0.200 F 
ATOM     84  F   UNL A   1      41.267  25.617  25.029  1.00  0.00    -0.200 F 
ENDBRANCH  50  74
BRANCH  62  85
ATOM     85  C   UNL A   1      43.860  28.127  34.625  1.00  0.00     0.064 A 
ATOM     86  C   UNL A   1      45.216  28.477  34.561  1.00  0.00     0.173 A 
ATOM     87  C   UNL A   1      43.516  26.946  35.300  1.00  0.00     0.173 A 
ATOM     88  F   UNL A   1      45.597  29.590  33.914  1.00  0.00    -0.203 F 
ATOM     89  C   UNL A   1      46.193  27.656  35.116  1.00  0.00     0.198 A 
ATOM     90  C   UNL A   1      44.493  26.144  35.883  1.00  0.00     0.198 A 
ATOM     91  F   UNL A   1      42.232  26.571  35.398  1.00  0.00    -0.203 F 
ATOM     92  F   UNL A   1      47.488  27.979  34.989  1.00  0.00    -0.200 F 
ATOM     93  C   UNL A   1      45.831  26.495  35.782  1.00  0.00     0.200 A 
ATOM     94  F   UNL A   1      44.140  25.031  36.539  1.00  0.00    -0.200 F 
ATOM     95  F   UNL A   1      46.773  25.705  36.316  1.00  0.00    -0.200 F 
ENDBRANCH  62  85
ENDBRANCH  36  37
ENDBRANCH  28  31
ENDBRANCH  26  27
ENDBRANCH  25  26
ENDBRANCH   1  25
TORSDOF 13
ENDMDL
MODEL 2
REMARK VINA RESULT:     -12.6      0.101      1.964
REMARK SMILES C[C@@H]1[NH2+]CC[C@@H]1C(=O)Nc1ccccc1CC(=O)NCCCNC(=O)c1ccc(-c2c3nc(c(-c4c(F)c(F)c(F)c(F)c4F)c4ccc([nH]4)c(-c4c(F)c(F)c(F)c(F)c4F)c4nc(c(-c5c(F)c(F)c(F)c(F)c5F)c5ccc2[nH]5)C=C4)C=C3)cc1
REMARK SMILES IDX 20 1 19 2 17 3 18 4 16 6 15 7 10 8 11 9 12 10 14 11 13 12
REMARK SMILES IDX 9 13 7 14 8 15 6 17 1 18 2 19 3 20 4 21 5 24 21 25 22 26
REMARK SMILES IDX 23 27 24 28 25 30 26 31 27 32 88 33 28 34 87 35 29 36 30 37
REMARK SMILES IDX 31 38 81 39 32 40 86 41 80 42 82 43 33 44 85 45 79 46 78 47
REMARK SMILES IDX 34 49 66 50 46 51 65 52 47 53 50 54 64 55 83 56 48 57 49 58
REMARK SMILES IDX 63 60 84 61 51 62 35 63 36 64 44 65 37 66 38 67 42 68 45 69
REMARK SMILES IDX 39 70 40 71 43 72 41 73 67 74 68 75 76 76 69 77 70 78 74 79
REMARK SMILES IDX 77 80 71 81 72 82 75 83 73 84 52 85 53 86 61 87 54 88 55 89
REMARK SMILES IDX 59 90 62 91 56 92 57 93 60 94 58 95
REMARK H PARENT 19 5 9 16 3 22 3 23 23 29 82 48 50 59
REMARK Flexibility Score: inf
ROOT
ATOM      1  C   UNL A   1      31.434  30.973  25.990  1.00  0.00     0.117 C 
ENDROOT
BRANCH   1   2
ATOM      2  N   UNL A   1      32.372  30.224  26.797  1.00  0.00    -0.356 N 
ATOM      3  C   UNL A   1      32.779  28.937  26.607  1.00  0.00     0.224 C 
ATOM      4  O   UNL A   1      33.276  28.331  27.556  1.00  0.00    -0.275 OA
ATOM      5  H   UNL A   1      32.759  30.696  27.569  1.00  0.00     0.163 HD
BRANCH   3   6
ATOM      6  C   UNL A   1      32.691  28.321  25.225  1.00  0.00     0.137 C 
BRANCH   6   7
ATOM      7  C   UNL A   1      31.375  27.684  24.843  1.00  0.00    -0.015 A 
ATOM      8  C   UNL A   1      30.819  26.540  25.447  1.00  0.00     0.044 A 
ATOM      9  C   UNL A   1      29.643  25.981  24.906  1.00  0.00     0.026 A 
ATOM     10  C   UNL A   1      28.964  26.580  23.849  1.00  0.00     0.002 A 
ATOM     11  C   UNL A   1      30.665  28.280  23.774  1.00  0.00     0.006 A 
ATOM     12  C   UNL A   1      29.469  27.742  23.292  1.00  0.00     0.000 A 
BRANCH   8  13
ATOM     13  N   UNL A   1      31.344  25.777  26.504  1.00  0.00    -0.325 N 
ATOM     14  C   UNL A   1      32.049  24.628  26.623  1.00  0.00     0.233 C 
ATOM     15  O   UNL A   1      31.572  23.836  27.453  1.00  0.00    -0.274 OA
ATOM     16  H   UNL A   1      31.150  26.182  27.379  1.00  0.00     0.169 HD
BRANCH  14  17
ATOM     17  C   UNL A   1      33.520  24.468  26.195  1.00  0.00     0.142 C 
ATOM     18  C   UNL A   1      33.601  25.060  23.583  1.00  0.00     0.076 C 
ATOM     19  C   UNL A   1      34.129  24.320  24.795  1.00  0.00     0.192 C 
ATOM     20  N   UNL A   1      34.377  22.886  24.560  1.00  0.00    -0.343 N 
ATOM     21  C   UNL A   1      33.993  22.160  25.766  1.00  0.00     0.261 C 
ATOM     22  H   UNL A   1      35.367  22.733  24.363  1.00  0.00     0.346 HD
ATOM     23  H   UNL A   1      33.836  22.559  23.760  1.00  0.00     0.346 HD
ATOM     24  C   UNL A   1      34.084  23.197  26.866  1.00  0.00     0.081 C 
ENDBRANCH  14  17
ENDBRANCH   8  13
ENDBRANCH   6   7
ENDBRANCH   3   6
ENDBRANCH   1   2
BRANCH   1  25
ATOM     25  C   UNL A   1      31.254  32.386  26.534  1.00  0.00     0.042 C 
BRANCH  25  26
ATOM     26  C   UNL A   1      32.487  32.891  27.267  1.00  0.00     0.118 C 
BRANCH  26  27
ATOM     27  N   UNL A   1      32.351  34.275  27.682  1.00  0.00    -0.352 N 
ATOM     28  C   UNL A   1      33.040  34.950  28.656  1.00  0.00     0.251 C 
ATOM     29  H   UNL A   1      31.672  34.800  27.199  1.00  0.00     0.163 HD
ATOM     30  O   UNL A   1      32.685  36.065  29.001  1.00  0.00    -0.269 OA
BRANCH  28  31
ATOM     31  C   UNL A   1      34.204  34.306  29.299  1.00  0.00     0.039 A 
ATOM     32  C   UNL A   1      35.472  34.553  28.772  1.00  0.00     0.014 A 
ATOM     33  C   UNL A   1      34.046  33.444  30.389  1.00  0.00     0.014 A 
ATOM     34  C   UNL A   1      36.586  33.942  29.345  1.00  0.00     0.010 A 
ATOM     35  C   UNL A   1      35.165  32.903  31.013  1.00  0.00     0.010 A 
ATOM     36  C   UNL A   1      36.441  33.118  30.473  1.00  0.00    -0.014 A 
BRANCH  36  37
ATOM     37  C   UNL A   1      37.616  32.425  31.051  1.00  0.00     0.031 A 
ATOM     38  C   UNL A   1      38.090  32.781  32.432  1.00  0.00     0.074 A 
ATOM     39  C   UNL A   1      38.255  31.489  30.327  1.00  0.00     0.049 A 
ATOM     40  N   UNL A   1      39.078  32.273  33.125  1.00  0.00    -0.248 NA
ATOM     41  C   UNL A   1      37.379  33.872  33.118  1.00  0.00     0.031 C 
ATOM     42  C   UNL A   1      37.919  31.105  28.955  1.00  0.00     0.029 A 
ATOM     43  N   UNL A   1      39.317  30.683  30.648  1.00  0.00    -0.354 N 
ATOM     44  C   UNL A   1      39.110  32.988  34.316  1.00  0.00     0.074 A 
ATOM     45  C   UNL A   1      38.090  34.009  34.227  1.00  0.00     0.031 C 
ATOM     46  C   UNL A   1      38.734  30.112  28.566  1.00  0.00     0.029 A 
ATOM     47  C   UNL A   1      39.663  29.806  29.649  1.00  0.00     0.049 A 
ATOM     48  H   UNL A   1      39.786  30.728  31.513  1.00  0.00     0.167 HD
ATOM     49  C   UNL A   1      39.897  32.790  35.398  1.00  0.00     0.037 A 
ATOM     50  C   UNL A   1      40.616  28.858  29.622  1.00  0.00     0.037 A 
ATOM     51  C   UNL A   1      40.889  31.751  35.491  1.00  0.00     0.049 A 
ATOM     52  C   UNL A   1      41.459  28.639  30.848  1.00  0.00     0.074 A 
ATOM     53  C   UNL A   1      41.703  31.424  36.559  1.00  0.00     0.029 A 
ATOM     54  N   UNL A   1      41.197  30.867  34.466  1.00  0.00    -0.354 N 
ATOM     55  N   UNL A   1      41.430  29.270  31.998  1.00  0.00    -0.248 NA
ATOM     56  C   UNL A   1      42.457  27.564  30.779  1.00  0.00     0.031 C 
ATOM     57  C   UNL A   1      42.534  30.368  36.168  1.00  0.00     0.029 A 
ATOM     58  C   UNL A   1      42.202  30.004  34.873  1.00  0.00     0.049 A 
ATOM     59  H   UNL A   1      40.766  30.856  33.581  1.00  0.00     0.167 HD
ATOM     60  C   UNL A   1      42.384  28.653  32.796  1.00  0.00     0.074 A 
ATOM     61  C   UNL A   1      42.957  27.582  32.006  1.00  0.00     0.031 C 
ATOM     62  C   UNL A   1      42.755  28.944  34.068  1.00  0.00     0.037 A 
BRANCH  49  63
ATOM     63  C   UNL A   1      39.710  33.712  36.570  1.00  0.00     0.064 A 
ATOM     64  C   UNL A   1      38.876  33.372  37.647  1.00  0.00     0.173 A 
ATOM     65  C   UNL A   1      40.387  34.939  36.627  1.00  0.00     0.173 A 
ATOM     66  F   UNL A   1      38.195  32.217  37.637  1.00  0.00    -0.203 F 
ATOM     67  C   UNL A   1      38.701  34.243  38.721  1.00  0.00     0.198 A 
ATOM     68  C   UNL A   1      40.233  35.792  37.718  1.00  0.00     0.198 A 
ATOM     69  F   UNL A   1      41.198  35.312  35.627  1.00  0.00    -0.203 F 
ATOM     70  F   UNL A   1      37.855  33.922  39.710  1.00  0.00    -0.200 F 
ATOM     71  C   UNL A   1      39.384  35.448  38.758  1.00  0.00     0.200 A 
ATOM     72  F   UNL A   1      40.904  36.952  37.758  1.00  0.00    -0.200 F 
ATOM     73  F   UNL A   1      39.219  36.281  39.794  1.00  0.00    -0.200 F 
ENDBRANCH  49  63
BRANCH  50  74
ATOM     74  C   UNL A   1      40.790  28.014  28.411  1.00  0.00     0.064 A 
ATOM     75  C   UNL A   1      41.601  28.437  27.348  1.00  0.00     0.173 A 
ATOM     76  C   UNL A   1      40.154  26.771  28.291  1.00  0.00     0.173 A 
ATOM     77  F   UNL A   1      42.219  29.626  27.409  1.00  0.00    -0.203 F 
ATOM     78  C   UNL A   1      41.745  27.662  26.199  1.00  0.00     0.198 A 
ATOM     79  C   UNL A   1      40.322  25.983  27.154  1.00  0.00     0.198 A 
ATOM     80  F   UNL A   1      39.376  26.316  29.284  1.00  0.00    -0.203 F 
ATOM     81  F   UNL A   1      42.486  28.113  25.178  1.00  0.00    -0.200 F 
ATOM     82  C   UNL A   1      41.110  26.433  26.105  1.00  0.00     0.200 A 
ATOM     83  F   UNL A   1      39.720  24.788  27.074  1.00  0.00    -0.200 F 
ATOM     84  F   UNL A   1      41.251  25.686  25.002  1.00  0.00    -0.200 F 
ENDBRANCH  50  74
BRANCH  62  85
ATOM     85  C   UNL A   1      43.808  28.073  34.687  1.00  0.00     0.064 A 
ATOM     86  C   UNL A   1      43.484  26.866  35.323  1.00  0.00     0.173 A 
ATOM     87  C   UNL A   1      45.160  28.443  34.627  1.00  0.00     0.173 A 
ATOM     88  F   UNL A   1      42.204  26.475  35.419  1.00  0.00    -0.203 F 
ATOM     89  C   UNL A   1      44.472  26.080  35.911  1.00  0.00     0.198 A 
ATOM     90  C   UNL A   1      46.149  27.638  35.186  1.00  0.00     0.198 A 
ATOM     91  F   UNL A   1      45.524  29.583  34.022  1.00  0.00    -0.203 F 
ATOM     92  F   UNL A   1      44.133  24.962  36.567  1.00  0.00    -0.200 F 
ATOM     93  C   UNL A   1      45.803  26.463  35.836  1.00  0.00     0.200 A 
ATOM     94  F   UNL A   1      47.435  28.003  35.100  1.00  0.00    -0.200 F 
ATOM     95  F   UNL A   1      46.752  25.705  36.402  1.00  0.00    -0.200 F 
ENDBRANCH  62  85
ENDBRANCH  36  37
ENDBRANCH  28  31
ENDBRANCH  26  27
ENDBRANCH  25  26
ENDBRANCH   1  25
TORSDOF 13
ENDMDL
MODEL 3
REMARK VINA RESULT:     -12.5      0.787      7.405
REMARK SMILES C[C@@H]1[NH2+]CC[C@@H]1C(=O)Nc1ccccc1CC(=O)NCCCNC(=O)c1ccc(-c2c3nc(c(-c4c(F)c(F)c(F)c(F)c4F)c4ccc([nH]4)c(-c4c(F)c(F)c(F)c(F)c4F)c4nc(c(-c5c(F)c(F)c(F)c(F)c5F)c5ccc2[nH]5)C=C4)C=C3)cc1
REMARK SMILES IDX 20 1 19 2 17 3 18 4 16 6 15 7 10 8 11 9 12 10 14 11 13 12
REMARK SMILES IDX 9 13 7 14 8 15 6 17 1 18 2 19 3 20 4 21 5 24 21 25 22 26
REMARK SMILES IDX 23 27 24 28 25 30 26 31 27 32 88 33 28 34 87 35 29 36 30 37
REMARK SMILES IDX 31 38 81 39 32 40 86 41 80 42 82 43 33 44 85 45 79 46 78 47
REMARK SMILES IDX 34 49 66 50 46 51 65 52 47 53 50 54 64 55 83 56 48 57 49 58
REMARK SMILES IDX 63 60 84 61 51 62 35 63 36 64 44 65 37 66 38 67 42 68 45 69
REMARK SMILES IDX 39 70 40 71 43 72 41 73 67 74 68 75 76 76 69 77 70 78 74 79
REMARK SMILES IDX 77 80 71 81 72 82 75 83 73 84 52 85 53 86 61 87 54 88 55 89
REMARK SMILES IDX 59 90 62 91 56 92 57 93 60 94 58 95
REMARK H PARENT 19 5 9 16 3 22 3 23 23 29 82 48 50 59
REMARK Flexibility Score: inf
ROOT
ATOM      1  C   UNL A   1      31.559  31.070  26.127  1.00  0.00     0.117 C 
ENDROOT
BRANCH   1   2
ATOM      2  N   UNL A   1      32.345  30.171  26.941  1.00  0.00    -0.356 N 
ATOM      3  C   UNL A   1      32.599  28.853  26.704  1.00  0.00     0.224 C 
ATOM      4  O   UNL A   1      32.959  28.145  27.644  1.00  0.00    -0.275 OA
ATOM      5  H   UNL A   1      32.741  30.552  27.758  1.00  0.00     0.163 HD
BRANCH   3   6
ATOM      6  C   UNL A   1      32.518  28.319  25.288  1.00  0.00     0.137 C 
BRANCH   6   7
ATOM      7  C   UNL A   1      31.215  27.677  24.872  1.00  0.00    -0.015 A 
ATOM      8  C   UNL A   1      30.665  26.511  25.437  1.00  0.00     0.044 A 
ATOM      9  C   UNL A   1      29.502  25.953  24.867  1.00  0.00     0.026 A 
ATOM     10  C   UNL A   1      28.829  26.574  23.819  1.00  0.00     0.002 A 
ATOM     11  C   UNL A   1      30.509  28.296  23.813  1.00  0.00     0.006 A 
ATOM     12  C   UNL A   1      29.326  27.757  23.301  1.00  0.00     0.000 A 
BRANCH   8  13
ATOM     13  N   UNL A   1      31.187  25.724  26.478  1.00  0.00    -0.325 N 
ATOM     14  C   UNL A   1      31.872  24.560  26.574  1.00  0.00     0.233 C 
ATOM     15  O   UNL A   1      31.390  23.766  27.399  1.00  0.00    -0.274 OA
ATOM     16  H   UNL A   1      31.010  26.120  27.361  1.00  0.00     0.169 HD
BRANCH  14  17
ATOM     17  C   UNL A   1      33.336  24.380  26.128  1.00  0.00     0.142 C 
ATOM     18  C   UNL A   1      33.427  25.136  23.559  1.00  0.00     0.076 C 
ATOM     19  C   UNL A   1      33.934  24.302  24.718  1.00  0.00     0.192 C 
ATOM     20  N   UNL A   1      34.133  22.879  24.389  1.00  0.00    -0.343 N 
ATOM     21  C   UNL A   1      33.729  22.090  25.549  1.00  0.00     0.261 C 
ATOM     22  H   UNL A   1      35.116  22.707  24.178  1.00  0.00     0.346 HD
ATOM     23  H   UNL A   1      33.578  22.623  23.573  1.00  0.00     0.346 HD
ATOM     24  C   UNL A   1      33.860  23.050  26.713  1.00  0.00     0.081 C 
ENDBRANCH  14  17
ENDBRANCH   8  13
ENDBRANCH   6   7
ENDBRANCH   3   6
ENDBRANCH   1   2
BRANCH   1  25
ATOM     25  C   UNL A   1      31.332  32.397  26.844  1.00  0.00     0.042 C 
BRANCH  25  26
ATOM     26  C   UNL A   1      32.630  33.044  27.299  1.00  0.00     0.118 C 
BRANCH  26  27
ATOM     27  N   UNL A   1      32.444  34.427  27.700  1.00  0.00    -0.352 N 
ATOM     28  C   UNL A   1      33.020  35.101  28.745  1.00  0.00     0.251 C 
ATOM     29  H   UNL A   1      31.818  34.950  27.149  1.00  0.00     0.163 HD
ATOM     30  O   UNL A   1      32.625  36.214  29.052  1.00  0.00    -0.269 OA
BRANCH  28  31
ATOM     31  C   UNL A   1      34.110  34.461  29.510  1.00  0.00     0.039 A 
ATOM     32  C   UNL A   1      35.407  34.532  28.999  1.00  0.00     0.014 A 
ATOM     33  C   UNL A   1      33.855  33.771  30.699  1.00  0.00     0.014 A 
ATOM     34  C   UNL A   1      36.451  33.918  29.687  1.00  0.00     0.010 A 
ATOM     35  C   UNL A   1      34.909  33.233  31.428  1.00  0.00     0.010 A 
ATOM     36  C   UNL A   1      36.211  33.270  30.910  1.00  0.00    -0.014 A 
BRANCH  36  37
ATOM     37  C   UNL A   1      37.309  32.571  31.615  1.00  0.00     0.031 A 
ATOM     38  C   UNL A   1      38.026  31.432  30.944  1.00  0.00     0.074 A 
ATOM     39  C   UNL A   1      37.650  32.956  32.858  1.00  0.00     0.049 A 
ATOM     40  N   UNL A   1      39.029  30.712  31.380  1.00  0.00    -0.248 NA
ATOM     41  C   UNL A   1      37.534  31.028  29.617  1.00  0.00     0.031 C 
ATOM     42  C   UNL A   1      36.985  34.008  33.629  1.00  0.00     0.029 A 
ATOM     43  N   UNL A   1      38.646  32.512  33.690  1.00  0.00    -0.354 N 
ATOM     44  C   UNL A   1      39.276  29.771  30.389  1.00  0.00     0.074 A 
ATOM     45  C   UNL A   1      38.279  29.964  29.361  1.00  0.00     0.031 C 
ATOM     46  C   UNL A   1      37.615  34.154  34.806  1.00  0.00     0.029 A 
ATOM     47  C   UNL A   1      38.710  33.192  34.881  1.00  0.00     0.049 A 
ATOM     48  H   UNL A   1      39.257  31.776  33.455  1.00  0.00     0.167 HD
ATOM     49  C   UNL A   1      40.266  28.850  30.328  1.00  0.00     0.037 A 
ATOM     50  C   UNL A   1      39.567  33.057  35.910  1.00  0.00     0.037 A 
ATOM     51  C   UNL A   1      41.273  28.686  31.341  1.00  0.00     0.049 A 
ATOM     52  C   UNL A   1      40.675  32.045  35.805  1.00  0.00     0.074 A 
ATOM     53  C   UNL A   1      42.354  27.823  31.356  1.00  0.00     0.029 A 
ATOM     54  N   UNL A   1      41.320  29.407  32.526  1.00  0.00    -0.354 N 
ATOM     55  N   UNL A   1      40.947  31.212  34.829  1.00  0.00    -0.248 NA
ATOM     56  C   UNL A   1      41.606  31.967  36.938  1.00  0.00     0.031 C 
ATOM     57  C   UNL A   1      43.033  27.994  32.569  1.00  0.00     0.029 A 
ATOM     58  C   UNL A   1      42.403  28.999  33.287  1.00  0.00     0.049 A 
ATOM     59  H   UNL A   1      40.678  30.106  32.787  1.00  0.00     0.167 HD
ATOM     60  C   UNL A   1      42.093  30.530  35.218  1.00  0.00     0.074 A 
ATOM     61  C   UNL A   1      42.477  31.066  36.507  1.00  0.00     0.031 C 
ATOM     62  C   UNL A   1      42.767  29.549  34.568  1.00  0.00     0.037 A 
BRANCH  49  63
ATOM     63  C   UNL A   1      40.308  27.957  29.120  1.00  0.00     0.064 A 
ATOM     64  C   UNL A   1      41.085  28.276  27.995  1.00  0.00     0.173 A 
ATOM     65  C   UNL A   1      39.580  26.758  29.094  1.00  0.00     0.173 A 
ATOM     66  F   UNL A   1      41.789  29.418  27.962  1.00  0.00    -0.203 F 
ATOM     67  C   UNL A   1      41.104  27.446  26.877  1.00  0.00     0.198 A 
ATOM     68  C   UNL A   1      39.627  25.915  27.986  1.00  0.00     0.198 A 
ATOM     69  F   UNL A   1      38.824  26.402  30.142  1.00  0.00    -0.203 F 
ATOM     70  F   UNL A   1      41.808  27.802  25.793  1.00  0.00    -0.200 F 
ATOM     71  C   UNL A   1      40.381  26.264  26.876  1.00  0.00     0.200 A 
ATOM     72  F   UNL A   1      38.938  24.766  27.991  1.00  0.00    -0.200 F 
ATOM     73  F   UNL A   1      40.404  25.464  25.802  1.00  0.00    -0.200 F 
ENDBRANCH  49  63
BRANCH  50  74
ATOM     74  C   UNL A   1      39.439  33.933  37.103  1.00  0.00     0.064 A 
ATOM     75  C   UNL A   1      40.037  35.200  37.134  1.00  0.00     0.173 A 
ATOM     76  C   UNL A   1      38.719  33.525  38.234  1.00  0.00     0.173 A 
ATOM     77  F   UNL A   1      40.750  35.631  36.082  1.00  0.00    -0.203 F 
ATOM     78  C   UNL A   1      39.943  36.015  38.261  1.00  0.00     0.198 A 
ATOM     79  C   UNL A   1      38.600  34.351  39.350  1.00  0.00     0.198 A 
ATOM     80  F   UNL A   1      38.119  32.325  38.252  1.00  0.00    -0.203 F 
ATOM     81  F   UNL A   1      40.566  37.201  38.282  1.00  0.00    -0.200 F 
ATOM     82  C   UNL A   1      39.221  35.591  39.366  1.00  0.00     0.200 A 
ATOM     83  F   UNL A   1      37.887  33.945  40.409  1.00  0.00    -0.200 F 
ATOM     84  F   UNL A   1      39.128  36.375  40.449  1.00  0.00    -0.200 F 
ENDBRANCH  50  74
BRANCH  62  85
ATOM     85  C   UNL A   1      44.003  29.017  35.233  1.00  0.00     0.064 A 
ATOM     86  C   UNL A   1      45.267  29.571  34.986  1.00  0.00     0.173 A 
ATOM     87  C   UNL A   1      43.917  27.950  36.140  1.00  0.00     0.173 A 
ATOM     88  F   UNL A   1      45.403  30.583  34.116  1.00  0.00    -0.203 F 
ATOM     89  C   UNL A   1      46.406  29.051  35.595  1.00  0.00     0.198 A 
ATOM     90  C   UNL A   1      45.053  27.455  36.773  1.00  0.00     0.198 A 
ATOM     91  F   UNL A   1      42.730  27.390  36.418  1.00  0.00    -0.203 F 
ATOM     92  F   UNL A   1      47.612  29.556  35.298  1.00  0.00    -0.200 F 
ATOM     93  C   UNL A   1      46.298  27.999  36.493  1.00  0.00     0.200 A 
ATOM     94  F   UNL A   1      44.945  26.448  37.650  1.00  0.00    -0.200 F 
ATOM     95  F   UNL A   1      47.395  27.500  37.078  1.00  0.00    -0.200 F 
ENDBRANCH  62  85
ENDBRANCH  36  37
ENDBRANCH  28  31
ENDBRANCH  26  27
ENDBRANCH  25  26
ENDBRANCH   1  25
TORSDOF 13
ENDMDL
