MODEL 1
REMARK VINA RESULT:     -14.0      0.000      0.000
REMARK SMILES Cc1cccc(Cn2c(=O)c3sccc3n(CC(=O)NCCCNC(=O)c3ccc(-c4c5nc(c(-c6c(F)c(F)c(F)c(F)c6F)c6ccc([nH]6)c(-c6c(F)c(F)c(F)c(F)c6F)c6nc(c(-c7c(F)c(F)c(F)c(F)c7F)c7ccc4[nH]7)C=C6)C=C5)cc3)c2=O)c1
REMARK SMILES IDX 21 1 20 2 18 3 19 4 17 6 16 7 8 8 9 9 90 10 10 11 11 12
REMARK SMILES IDX 91 13 12 14 15 15 13 16 14 17 7 18 6 19 1 20 2 21 3 22 92 23
REMARK SMILES IDX 4 24 5 25 22 26 23 27 24 28 25 29 26 31 27 32 28 33 89 34
REMARK SMILES IDX 29 35 88 36 30 37 31 38 32 39 82 40 33 41 87 42 81 43 83 44
REMARK SMILES IDX 34 45 86 46 80 47 79 48 35 50 67 51 47 52 66 53 48 54 51 55
REMARK SMILES IDX 65 56 84 57 49 58 50 59 64 61 85 62 52 63 36 64 37 65 45 66
REMARK SMILES IDX 38 67 39 68 43 69 46 70 40 71 41 72 44 73 42 74 68 75 69 76
REMARK SMILES IDX 77 77 70 78 71 79 75 80 78 81 72 82 73 83 76 84 74 85 53 86
REMARK SMILES IDX 54 87 62 88 55 89 56 90 60 91 63 92 57 93 58 94 61 95 59 96
REMARK H PARENT 20 5 24 30 83 49 51 60
REMARK Flexibility Score: inf
ROOT
ATOM      1  C   UNL A   1      31.913  29.713  25.371  1.00  0.00     0.117 C 
ENDROOT
BRANCH   1   2
ATOM      2  N   UNL A   1      33.099  29.607  24.534  1.00  0.00    -0.354 N 
ATOM      3  C   UNL A   1      33.346  28.793  23.465  1.00  0.00     0.240 C 
ATOM      4  O   UNL A   1      34.415  28.951  22.866  1.00  0.00    -0.273 OA
ATOM      5  H   UNL A   1      33.836  30.212  24.775  1.00  0.00     0.163 HD
BRANCH   3   6
ATOM      6  C   UNL A   1      32.344  27.726  23.005  1.00  0.00     0.227 C 
BRANCH   6   7
ATOM      7  N   UNL A   1      32.528  26.418  23.646  1.00  0.00    -0.283 N 
ATOM      8  N   UNL A   1      33.720  24.340  23.752  1.00  0.00    -0.254 N 
ATOM      9  C   UNL A   1      32.886  23.800  24.738  1.00  0.00     0.274 A 
ATOM     10  C   UNL A   1      33.572  25.610  23.189  1.00  0.00     0.332 A 
ATOM     11  O   UNL A   1      33.017  22.656  25.170  1.00  0.00    -0.268 OA
ATOM     12  C   UNL A   1      31.836  24.693  25.151  1.00  0.00     0.116 A 
ATOM     13  O   UNL A   1      34.278  25.990  22.251  1.00  0.00    -0.247 OA
ATOM     14  S   UNL A   1      30.651  24.275  26.293  1.00  0.00    -0.136 S 
ATOM     15  C   UNL A   1      31.662  25.950  24.633  1.00  0.00     0.070 A 
ATOM     16  C   UNL A   1      29.884  25.797  26.126  1.00  0.00     0.068 A 
ATOM     17  C   UNL A   1      30.535  26.602  25.214  1.00  0.00     0.039 A 
BRANCH   8  18
ATOM     18  C   UNL A   1      34.719  23.451  23.158  1.00  0.00     0.166 C 
BRANCH  18  19
ATOM     19  C   UNL A   1      35.852  23.069  24.087  1.00  0.00    -0.028 A 
ATOM     20  C   UNL A   1      37.955  20.017  25.001  1.00  0.00     0.044 C 
ATOM     21  C   UNL A   1      37.401  21.411  24.975  1.00  0.00    -0.051 A 
ATOM     22  C   UNL A   1      37.971  22.389  25.799  1.00  0.00     0.003 A 
ATOM     23  C   UNL A   1      36.323  21.750  24.144  1.00  0.00     0.009 A 
ATOM     24  C   UNL A   1      37.511  23.700  25.754  1.00  0.00     0.001 A 
ATOM     25  C   UNL A   1      36.478  24.039  24.886  1.00  0.00     0.005 A 
ENDBRANCH  18  19
ENDBRANCH   8  18
ENDBRANCH   6   7
ENDBRANCH   3   6
ENDBRANCH   1   2
BRANCH   1  26
ATOM     26  C   UNL A   1      32.224  30.245  26.769  1.00  0.00     0.042 C 
BRANCH  26  27
ATOM     27  C   UNL A   1      33.685  30.125  27.168  1.00  0.00     0.118 C 
BRANCH  27  28
ATOM     28  N   UNL A   1      34.144  31.161  28.086  1.00  0.00    -0.352 N 
ATOM     29  C   UNL A   1      35.292  31.170  28.862  1.00  0.00     0.251 C 
ATOM     30  H   UNL A   1      33.566  31.954  28.164  1.00  0.00     0.163 HD
ATOM     31  O   UNL A   1      35.559  32.116  29.583  1.00  0.00    -0.269 OA
BRANCH  29  32
ATOM     32  C   UNL A   1      36.253  30.054  28.697  1.00  0.00     0.039 A 
ATOM     33  C   UNL A   1      36.615  29.328  29.834  1.00  0.00     0.014 A 
ATOM     34  C   UNL A   1      36.958  29.909  27.504  1.00  0.00     0.014 A 
ATOM     35  C   UNL A   1      37.830  28.650  29.844  1.00  0.00     0.010 A 
ATOM     36  C   UNL A   1      38.209  29.324  27.545  1.00  0.00     0.010 A 
ATOM     37  C   UNL A   1      38.673  28.756  28.735  1.00  0.00    -0.014 A 
BRANCH  37  38
ATOM     38  C   UNL A   1      40.089  28.414  28.783  1.00  0.00     0.031 A 
ATOM     39  C   UNL A   1      40.573  27.112  28.288  1.00  0.00     0.074 A 
ATOM     40  C   UNL A   1      40.987  29.318  29.238  1.00  0.00     0.049 A 
ATOM     41  N   UNL A   1      41.655  26.546  28.706  1.00  0.00    -0.248 NA
ATOM     42  C   UNL A   1      39.857  26.327  27.291  1.00  0.00     0.031 C 
ATOM     43  C   UNL A   1      42.444  29.239  29.151  1.00  0.00     0.029 A 
ATOM     44  N   UNL A   1      40.749  30.416  30.083  1.00  0.00    -0.354 N 
ATOM     45  C   UNL A   1      41.922  25.491  27.872  1.00  0.00     0.074 A 
ATOM     46  C   UNL A   1      40.744  25.359  27.042  1.00  0.00     0.031 C 
ATOM     47  C   UNL A   1      42.972  29.989  30.129  1.00  0.00     0.029 A 
ATOM     48  C   UNL A   1      41.873  30.470  30.945  1.00  0.00     0.049 A 
ATOM     49  H   UNL A   1      39.971  31.018  30.077  1.00  0.00     0.167 HD
ATOM     50  C   UNL A   1      43.158  24.915  27.886  1.00  0.00     0.037 A 
ATOM     51  C   UNL A   1      41.738  30.280  32.289  1.00  0.00     0.037 A 
ATOM     52  C   UNL A   1      44.045  25.528  28.871  1.00  0.00     0.049 A 
ATOM     53  C   UNL A   1      42.517  29.108  32.850  1.00  0.00     0.074 A 
ATOM     54  C   UNL A   1      45.087  26.441  28.806  1.00  0.00     0.029 A 
ATOM     55  N   UNL A   1      43.718  25.431  30.213  1.00  0.00    -0.354 N 
ATOM     56  N   UNL A   1      43.227  28.278  32.137  1.00  0.00    -0.248 NA
ATOM     57  C   UNL A   1      42.456  28.716  34.258  1.00  0.00     0.031 C 
ATOM     58  C   UNL A   1      45.415  26.847  30.131  1.00  0.00     0.029 A 
ATOM     59  C   UNL A   1      44.565  26.189  30.997  1.00  0.00     0.049 A 
ATOM     60  H   UNL A   1      42.975  24.888  30.563  1.00  0.00     0.167 HD
ATOM     61  C   UNL A   1      43.659  27.246  32.932  1.00  0.00     0.074 A 
ATOM     62  C   UNL A   1      43.143  27.562  34.250  1.00  0.00     0.031 C 
ATOM     63  C   UNL A   1      44.367  26.188  32.436  1.00  0.00     0.037 A 
BRANCH  50  64
ATOM     64  C   UNL A   1      43.618  23.950  26.821  1.00  0.00     0.064 A 
ATOM     65  C   UNL A   1      43.151  22.620  26.787  1.00  0.00     0.173 A 
ATOM     66  C   UNL A   1      44.561  24.274  25.829  1.00  0.00     0.173 A 
ATOM     67  F   UNL A   1      42.169  22.199  27.594  1.00  0.00    -0.203 F 
ATOM     68  C   UNL A   1      43.687  21.662  25.924  1.00  0.00     0.198 A 
ATOM     69  C   UNL A   1      45.141  23.304  25.006  1.00  0.00     0.198 A 
ATOM     70  F   UNL A   1      44.920  25.547  25.608  1.00  0.00    -0.203 F 
ATOM     71  F   UNL A   1      43.213  20.408  25.947  1.00  0.00    -0.200 F 
ATOM     72  C   UNL A   1      44.715  21.993  25.067  1.00  0.00     0.200 A 
ATOM     73  F   UNL A   1      46.124  23.649  24.163  1.00  0.00    -0.200 F 
ATOM     74  F   UNL A   1      45.275  21.059  24.286  1.00  0.00    -0.200 F 
ENDBRANCH  50  64
BRANCH  51  75
ATOM     75  C   UNL A   1      40.434  30.767  32.809  1.00  0.00     0.064 A 
ATOM     76  C   UNL A   1      40.207  32.158  32.857  1.00  0.00     0.173 A 
ATOM     77  C   UNL A   1      39.320  29.927  32.903  1.00  0.00     0.173 A 
ATOM     78  F   UNL A   1      41.240  33.010  32.764  1.00  0.00    -0.203 F 
ATOM     79  C   UNL A   1      38.916  32.680  32.875  1.00  0.00     0.198 A 
ATOM     80  C   UNL A   1      38.029  30.455  32.945  1.00  0.00     0.198 A 
ATOM     81  F   UNL A   1      39.465  28.596  32.838  1.00  0.00    -0.203 F 
ATOM     82  F   UNL A   1      38.731  34.006  32.793  1.00  0.00    -0.200 F 
ATOM     83  C   UNL A   1      37.827  31.827  32.893  1.00  0.00     0.200 A 
ATOM     84  F   UNL A   1      36.973  29.628  32.936  1.00  0.00    -0.200 F 
ATOM     85  F   UNL A   1      36.584  32.323  32.815  1.00  0.00    -0.200 F 
ENDBRANCH  51  75
BRANCH  63  86
ATOM     86  C   UNL A   1      44.903  25.038  33.255  1.00  0.00     0.064 A 
ATOM     87  C   UNL A   1      44.080  24.135  33.946  1.00  0.00     0.173 A 
ATOM     88  C   UNL A   1      46.294  24.868  33.459  1.00  0.00     0.173 A 
ATOM     89  F   UNL A   1      42.746  24.273  33.940  1.00  0.00    -0.203 F 
ATOM     90  C   UNL A   1      44.606  23.082  34.701  1.00  0.00     0.198 A 
ATOM     91  C   UNL A   1      46.816  23.849  34.255  1.00  0.00     0.198 A 
ATOM     92  F   UNL A   1      47.197  25.673  32.884  1.00  0.00    -0.203 F 
ATOM     93  F   UNL A   1      43.778  22.207  35.287  1.00  0.00    -0.200 F 
ATOM     94  C   UNL A   1      45.973  22.940  34.857  1.00  0.00     0.200 A 
ATOM     95  F   UNL A   1      48.142  23.755  34.426  1.00  0.00    -0.200 F 
ATOM     96  F   UNL A   1      46.475  21.939  35.591  1.00  0.00    -0.200 F 
ENDBRANCH  63  86
ENDBRANCH  37  38
ENDBRANCH  29  32
ENDBRANCH  27  28
ENDBRANCH  26  27
ENDBRANCH   1  26
TORSDOF 13
ENDMDL
MODEL 2
REMARK VINA RESULT:     -13.8      1.675      2.257
REMARK SMILES Cc1cccc(Cn2c(=O)c3sccc3n(CC(=O)NCCCNC(=O)c3ccc(-c4c5nc(c(-c6c(F)c(F)c(F)c(F)c6F)c6ccc([nH]6)c(-c6c(F)c(F)c(F)c(F)c6F)c6nc(c(-c7c(F)c(F)c(F)c(F)c7F)c7ccc4[nH]7)C=C6)C=C5)cc3)c2=O)c1
REMARK SMILES IDX 21 1 20 2 18 3 19 4 17 6 16 7 8 8 9 9 90 10 10 11 11 12
REMARK SMILES IDX 91 13 12 14 15 15 13 16 14 17 7 18 6 19 1 20 2 21 3 22 92 23
REMARK SMILES IDX 4 24 5 25 22 26 23 27 24 28 25 29 26 31 27 32 28 33 89 34
REMARK SMILES IDX 29 35 88 36 30 37 31 38 32 39 82 40 33 41 87 42 81 43 83 44
REMARK SMILES IDX 34 45 86 46 80 47 79 48 35 50 67 51 47 52 66 53 48 54 51 55
REMARK SMILES IDX 65 56 84 57 49 58 50 59 64 61 85 62 52 63 36 64 37 65 45 66
REMARK SMILES IDX 38 67 39 68 43 69 46 70 40 71 41 72 44 73 42 74 68 75 69 76
REMARK SMILES IDX 77 77 70 78 71 79 75 80 78 81 72 82 73 83 76 84 74 85 53 86
REMARK SMILES IDX 54 87 62 88 55 89 56 90 60 91 63 92 57 93 58 94 61 95 59 96
REMARK H PARENT 20 5 24 30 83 49 51 60
REMARK Flexibility Score: inf
ROOT
ATOM      1  C   UNL A   1      32.965  29.592  25.827  1.00  0.00     0.117 C 
ENDROOT
BRANCH   1   2
ATOM      2  N   UNL A   1      31.840  28.810  26.316  1.00  0.00    -0.354 N 
ATOM      3  C   UNL A   1      31.752  27.473  26.581  1.00  0.00     0.240 C 
ATOM      4  O   UNL A   1      30.695  27.059  27.070  1.00  0.00    -0.273 OA
ATOM      5  H   UNL A   1      31.016  29.322  26.480  1.00  0.00     0.163 HD
BRANCH   3   6
ATOM      6  C   UNL A   1      32.911  26.509  26.301  1.00  0.00     0.227 C 
BRANCH   6   7
ATOM      7  N   UNL A   1      32.607  25.485  25.294  1.00  0.00    -0.283 N 
ATOM      8  N   UNL A   1      31.971  23.226  24.799  1.00  0.00    -0.254 N 
ATOM      9  C   UNL A   1      32.119  23.384  23.417  1.00  0.00     0.274 A 
ATOM     10  C   UNL A   1      32.208  24.225  25.748  1.00  0.00     0.332 A 
ATOM     11  O   UNL A   1      31.953  22.464  22.619  1.00  0.00    -0.268 OA
ATOM     12  C   UNL A   1      32.535  24.708  23.034  1.00  0.00     0.116 A 
ATOM     13  O   UNL A   1      32.158  23.995  26.958  1.00  0.00    -0.247 OA
ATOM     14  S   UNL A   1      32.841  25.160  21.426  1.00  0.00    -0.136 S 
ATOM     15  C   UNL A   1      32.766  25.718  23.929  1.00  0.00     0.070 A 
ATOM     16  C   UNL A   1      33.278  26.745  21.905  1.00  0.00     0.068 A 
ATOM     17  C   UNL A   1      33.182  26.913  23.271  1.00  0.00     0.039 A 
BRANCH   8  18
ATOM     18  C   UNL A   1      31.704  21.876  25.296  1.00  0.00     0.166 C 
BRANCH  18  19
ATOM     19  C   UNL A   1      32.822  20.884  25.052  1.00  0.00    -0.028 A 
ATOM     20  C   UNL A   1      36.632  20.708  25.201  1.00  0.00     0.044 C 
ATOM     21  C   UNL A   1      35.195  20.331  25.001  1.00  0.00    -0.051 A 
ATOM     22  C   UNL A   1      34.878  19.021  24.619  1.00  0.00     0.003 A 
ATOM     23  C   UNL A   1      34.165  21.265  25.187  1.00  0.00     0.009 A 
ATOM     24  C   UNL A   1      33.551  18.632  24.480  1.00  0.00     0.001 A 
ATOM     25  C   UNL A   1      32.534  19.551  24.719  1.00  0.00     0.005 A 
ENDBRANCH  18  19
ENDBRANCH   8  18
ENDBRANCH   6   7
ENDBRANCH   3   6
ENDBRANCH   1   2
BRANCH   1  26
ATOM     26  C   UNL A   1      33.353  30.725  26.775  1.00  0.00     0.042 C 
BRANCH  26  27
ATOM     27  C   UNL A   1      34.010  30.260  28.063  1.00  0.00     0.118 C 
BRANCH  27  28
ATOM     28  N   UNL A   1      34.788  31.287  28.746  1.00  0.00    -0.352 N 
ATOM     29  C   UNL A   1      36.085  31.200  29.226  1.00  0.00     0.251 C 
ATOM     30  H   UNL A   1      34.336  32.151  28.882  1.00  0.00     0.163 HD
ATOM     31  O   UNL A   1      36.621  32.150  29.772  1.00  0.00    -0.269 OA
BRANCH  29  32
ATOM     32  C   UNL A   1      36.851  29.963  28.945  1.00  0.00     0.039 A 
ATOM     33  C   UNL A   1      37.162  29.128  30.020  1.00  0.00     0.014 A 
ATOM     34  C   UNL A   1      37.454  29.780  27.703  1.00  0.00     0.014 A 
ATOM     35  C   UNL A   1      38.256  28.274  29.917  1.00  0.00     0.010 A 
ATOM     36  C   UNL A   1      38.600  29.012  27.632  1.00  0.00     0.010 A 
ATOM     37  C   UNL A   1      39.039  28.314  28.761  1.00  0.00    -0.014 A 
BRANCH  37  38
ATOM     38  C   UNL A   1      40.386  27.759  28.699  1.00  0.00     0.031 A 
ATOM     39  C   UNL A   1      40.607  26.337  28.376  1.00  0.00     0.074 A 
ATOM     40  C   UNL A   1      41.457  28.564  28.886  1.00  0.00     0.049 A 
ATOM     41  N   UNL A   1      41.647  25.673  28.753  1.00  0.00    -0.248 NA
ATOM     42  C   UNL A   1      39.653  25.539  27.617  1.00  0.00     0.031 C 
ATOM     43  C   UNL A   1      42.861  28.239  28.643  1.00  0.00     0.029 A 
ATOM     44  N   UNL A   1      41.498  29.798  29.556  1.00  0.00    -0.354 N 
ATOM     45  C   UNL A   1      41.642  24.476  28.083  1.00  0.00     0.074 A 
ATOM     46  C   UNL A   1      40.351  24.414  27.432  1.00  0.00     0.031 C 
ATOM     47  C   UNL A   1      43.623  29.031  29.412  1.00  0.00     0.029 A 
ATOM     48  C   UNL A   1      42.729  29.798  30.259  1.00  0.00     0.049 A 
ATOM     49  H   UNL A   1      40.819  30.510  29.541  1.00  0.00     0.167 HD
ATOM     50  C   UNL A   1      42.775  23.717  28.048  1.00  0.00     0.037 A 
ATOM     51  C   UNL A   1      42.761  29.833  31.622  1.00  0.00     0.037 A 
ATOM     52  C   UNL A   1      43.870  24.319  28.804  1.00  0.00     0.049 A 
ATOM     53  C   UNL A   1      43.439  28.648  32.276  1.00  0.00     0.074 A 
ATOM     54  C   UNL A   1      45.010  25.031  28.464  1.00  0.00     0.029 A 
ATOM     55  N   UNL A   1      43.726  24.475  30.172  1.00  0.00    -0.354 N 
ATOM     56  N   UNL A   1      43.918  27.618  31.634  1.00  0.00    -0.248 NA
ATOM     57  C   UNL A   1      43.525  28.484  33.728  1.00  0.00     0.031 C 
ATOM     58  C   UNL A   1      45.576  25.571  29.654  1.00  0.00     0.029 A 
ATOM     59  C   UNL A   1      44.774  25.195  30.713  1.00  0.00     0.049 A 
ATOM     60  H   UNL A   1      42.972  24.118  30.694  1.00  0.00     0.167 HD
ATOM     61  C   UNL A   1      44.309  26.659  32.536  1.00  0.00     0.074 A 
ATOM     62  C   UNL A   1      44.035  27.246  33.833  1.00  0.00     0.031 C 
ATOM     63  C   UNL A   1      44.784  25.439  32.144  1.00  0.00     0.037 A 
BRANCH  50  64
ATOM     64  C   UNL A   1      42.939  22.544  27.114  1.00  0.00     0.064 A 
ATOM     65  C   UNL A   1      42.230  21.341  27.317  1.00  0.00     0.173 A 
ATOM     66  C   UNL A   1      43.823  22.534  26.020  1.00  0.00     0.173 A 
ATOM     67  F   UNL A   1      41.271  21.239  28.246  1.00  0.00    -0.203 F 
ATOM     68  C   UNL A   1      42.489  20.187  26.576  1.00  0.00     0.198 A 
ATOM     69  C   UNL A   1      44.128  21.365  25.317  1.00  0.00     0.198 A 
ATOM     70  F   UNL A   1      44.391  23.667  25.582  1.00  0.00    -0.203 F 
ATOM     71  F   UNL A   1      41.794  19.068  26.823  1.00  0.00    -0.200 F 
ATOM     72  C   UNL A   1      43.472  20.186  25.607  1.00  0.00     0.200 A 
ATOM     73  F   UNL A   1      45.070  21.388  24.364  1.00  0.00    -0.200 F 
ATOM     74  F   UNL A   1      43.768  19.061  24.942  1.00  0.00    -0.200 F 
ENDBRANCH  50  64
BRANCH  51  75
ATOM     75  C   UNL A   1      41.625  30.596  32.203  1.00  0.00     0.064 A 
ATOM     76  C   UNL A   1      41.633  32.002  32.092  1.00  0.00     0.173 A 
ATOM     77  C   UNL A   1      40.410  29.980  32.517  1.00  0.00     0.173 A 
ATOM     78  F   UNL A   1      42.772  32.645  31.785  1.00  0.00    -0.203 F 
ATOM     79  C   UNL A   1      40.456  32.741  32.171  1.00  0.00     0.198 A 
ATOM     80  C   UNL A   1      39.236  30.726  32.619  1.00  0.00     0.198 A 
ATOM     81  F   UNL A   1      40.330  28.645  32.611  1.00  0.00    -0.203 F 
ATOM     82  F   UNL A   1      40.478  34.061  31.936  1.00  0.00    -0.200 F 
ATOM     83  C   UNL A   1      39.253  32.098  32.409  1.00  0.00     0.200 A 
ATOM     84  F   UNL A   1      38.067  30.101  32.824  1.00  0.00    -0.200 F 
ATOM     85  F   UNL A   1      38.107  32.792  32.393  1.00  0.00    -0.200 F 
ENDBRANCH  51  75
BRANCH  63  86
ATOM     86  C   UNL A   1      45.265  24.352  33.076  1.00  0.00     0.064 A 
ATOM     87  C   UNL A   1      44.462  23.273  33.478  1.00  0.00     0.173 A 
ATOM     88  C   UNL A   1      46.539  24.420  33.688  1.00  0.00     0.173 A 
ATOM     89  F   UNL A   1      43.188  23.170  33.072  1.00  0.00    -0.203 F 
ATOM     90  C   UNL A   1      44.934  22.283  34.348  1.00  0.00     0.198 A 
ATOM     91  C   UNL A   1      46.988  23.461  34.595  1.00  0.00     0.198 A 
ATOM     92  F   UNL A   1      47.401  25.410  33.419  1.00  0.00    -0.203 F 
ATOM     93  F   UNL A   1      44.152  21.238  34.649  1.00  0.00    -0.200 F 
ATOM     94  C   UNL A   1      46.195  22.378  34.907  1.00  0.00     0.200 A 
ATOM     95  F   UNL A   1      48.199  23.594  35.156  1.00  0.00    -0.200 F 
ATOM     96  F   UNL A   1      46.640  21.437  35.748  1.00  0.00    -0.200 F 
ENDBRANCH  63  86
ENDBRANCH  37  38
ENDBRANCH  29  32
ENDBRANCH  27  28
ENDBRANCH  26  27
ENDBRANCH   1  26
TORSDOF 13
ENDMDL
MODEL 3
REMARK VINA RESULT:     -13.7      3.413      9.817
REMARK SMILES Cc1cccc(Cn2c(=O)c3sccc3n(CC(=O)NCCCNC(=O)c3ccc(-c4c5nc(c(-c6c(F)c(F)c(F)c(F)c6F)c6ccc([nH]6)c(-c6c(F)c(F)c(F)c(F)c6F)c6nc(c(-c7c(F)c(F)c(F)c(F)c7F)c7ccc4[nH]7)C=C6)C=C5)cc3)c2=O)c1
REMARK SMILES IDX 21 1 20 2 18 3 19 4 17 6 16 7 8 8 9 9 90 10 10 11 11 12
REMARK SMILES IDX 91 13 12 14 15 15 13 16 14 17 7 18 6 19 1 20 2 21 3 22 92 23
REMARK SMILES IDX 4 24 5 25 22 26 23 27 24 28 25 29 26 31 27 32 28 33 89 34
REMARK SMILES IDX 29 35 88 36 30 37 31 38 32 39 82 40 33 41 87 42 81 43 83 44
REMARK SMILES IDX 34 45 86 46 80 47 79 48 35 50 67 51 47 52 66 53 48 54 51 55
REMARK SMILES IDX 65 56 84 57 49 58 50 59 64 61 85 62 52 63 36 64 37 65 45 66
REMARK SMILES IDX 38 67 39 68 43 69 46 70 40 71 41 72 44 73 42 74 68 75 69 76
REMARK SMILES IDX 77 77 70 78 71 79 75 80 78 81 72 82 73 83 76 84 74 85 53 86
REMARK SMILES IDX 54 87 62 88 55 89 56 90 60 91 63 92 57 93 58 94 61 95 59 96
REMARK H PARENT 20 5 24 30 83 49 51 60
REMARK Flexibility Score: inf
ROOT
ATOM      1  C   UNL A   1      36.903  21.297  25.304  1.00  0.00     0.117 C 
ENDROOT
BRANCH   1   2
ATOM      2  N   UNL A   1      36.370  21.836  24.062  1.00  0.00    -0.354 N 
ATOM      3  C   UNL A   1      35.877  23.080  23.788  1.00  0.00     0.240 C 
ATOM      4  O   UNL A   1      35.554  23.318  22.619  1.00  0.00    -0.273 OA
ATOM      5  H   UNL A   1      36.362  21.209  23.304  1.00  0.00     0.163 HD
BRANCH   3   6
ATOM      6  C   UNL A   1      35.734  24.156  24.871  1.00  0.00     0.227 C 
BRANCH   6   7
ATOM      7  N   UNL A   1      34.344  24.449  25.242  1.00  0.00    -0.283 N 
ATOM      8  N   UNL A   1      32.461  25.930  25.121  1.00  0.00    -0.254 N 
ATOM      9  C   UNL A   1      31.687  25.176  26.011  1.00  0.00     0.274 A 
ATOM     10  C   UNL A   1      33.764  25.612  24.728  1.00  0.00     0.332 A 
ATOM     11  O   UNL A   1      30.564  25.519  26.373  1.00  0.00    -0.268 OA
ATOM     12  C   UNL A   1      32.358  23.998  26.495  1.00  0.00     0.116 A 
ATOM     13  O   UNL A   1      34.431  26.369  24.020  1.00  0.00    -0.247 OA
ATOM     14  S   UNL A   1      31.672  22.934  27.626  1.00  0.00    -0.136 S 
ATOM     15  C   UNL A   1      33.629  23.644  26.127  1.00  0.00     0.070 A 
ATOM     16  C   UNL A   1      33.077  21.955  27.630  1.00  0.00     0.068 A 
ATOM     17  C   UNL A   1      34.044  22.442  26.774  1.00  0.00     0.039 A 
BRANCH   8  18
ATOM     18  C   UNL A   1      31.927  27.224  24.696  1.00  0.00     0.166 C 
BRANCH  18  19
ATOM     19  C   UNL A   1      32.325  28.388  25.579  1.00  0.00    -0.028 A 
ATOM     20  C   UNL A   1      31.227  31.963  26.343  1.00  0.00     0.044 C 
ATOM     21  C   UNL A   1      31.988  30.671  26.362  1.00  0.00    -0.051 A 
ATOM     22  C   UNL A   1      33.066  30.525  27.244  1.00  0.00     0.003 A 
ATOM     23  C   UNL A   1      31.642  29.611  25.511  1.00  0.00     0.009 A 
ATOM     24  C   UNL A   1      33.753  29.318  27.318  1.00  0.00     0.001 A 
ATOM     25  C   UNL A   1      33.368  28.254  26.509  1.00  0.00     0.005 A 
ENDBRANCH  18  19
ENDBRANCH   8  18
ENDBRANCH   6   7
ENDBRANCH   3   6
ENDBRANCH   1   2
BRANCH   1  26
ATOM     26  C   UNL A   1      38.421  21.434  25.402  1.00  0.00     0.042 C 
BRANCH  26  27
ATOM     27  C   UNL A   1      38.885  22.644  26.195  1.00  0.00     0.118 C 
BRANCH  27  28
ATOM     28  N   UNL A   1      40.334  22.767  26.309  1.00  0.00    -0.352 N 
ATOM     29  C   UNL A   1      41.076  23.902  26.595  1.00  0.00     0.251 C 
ATOM     30  H   UNL A   1      40.850  21.941  26.166  1.00  0.00     0.163 HD
ATOM     31  O   UNL A   1      42.293  23.858  26.671  1.00  0.00    -0.269 OA
BRANCH  29  32
ATOM     32  C   UNL A   1      40.345  25.145  26.933  1.00  0.00     0.039 A 
ATOM     33  C   UNL A   1      40.759  26.333  26.325  1.00  0.00     0.014 A 
ATOM     34  C   UNL A   1      39.457  25.166  28.006  1.00  0.00     0.014 A 
ATOM     35  C   UNL A   1      40.478  27.545  26.951  1.00  0.00     0.010 A 
ATOM     36  C   UNL A   1      39.265  26.355  28.682  1.00  0.00     0.010 A 
ATOM     37  C   UNL A   1      39.835  27.533  28.190  1.00  0.00    -0.014 A 
BRANCH  37  38
ATOM     38  C   UNL A   1      39.831  28.682  29.089  1.00  0.00     0.031 A 
ATOM     39  C   UNL A   1      38.829  29.754  28.945  1.00  0.00     0.074 A 
ATOM     40  C   UNL A   1      40.721  28.747  30.106  1.00  0.00     0.049 A 
ATOM     41  N   UNL A   1      39.021  30.968  29.339  1.00  0.00    -0.248 NA
ATOM     42  C   UNL A   1      37.529  29.546  28.321  1.00  0.00     0.031 C 
ATOM     43  C   UNL A   1      40.722  29.690  31.222  1.00  0.00     0.029 A 
ATOM     44  N   UNL A   1      41.956  28.086  30.210  1.00  0.00    -0.354 N 
ATOM     45  C   UNL A   1      37.816  31.622  29.276  1.00  0.00     0.074 A 
ATOM     46  C   UNL A   1      36.930  30.712  28.581  1.00  0.00     0.031 C 
ATOM     47  C   UNL A   1      41.975  29.799  31.689  1.00  0.00     0.029 A 
ATOM     48  C   UNL A   1      42.831  29.026  30.810  1.00  0.00     0.049 A 
ATOM     49  H   UNL A   1      42.169  27.167  29.928  1.00  0.00     0.167 HD
ATOM     50  C   UNL A   1      37.659  32.812  29.923  1.00  0.00     0.037 A 
ATOM     51  C   UNL A   1      43.919  29.502  30.139  1.00  0.00     0.037 A 
ATOM     52  C   UNL A   1      38.882  33.245  30.593  1.00  0.00     0.049 A 
ATOM     53  C   UNL A   1      43.933  31.002  29.926  1.00  0.00     0.074 A 
ATOM     54  C   UNL A   1      39.329  33.231  31.905  1.00  0.00     0.029 A 
ATOM     55  N   UNL A   1      39.996  33.534  29.823  1.00  0.00    -0.354 N 
ATOM     56  N   UNL A   1      42.975  31.812  30.284  1.00  0.00    -0.248 NA
ATOM     57  C   UNL A   1      44.990  31.689  29.184  1.00  0.00     0.031 C 
ATOM     58  C   UNL A   1      40.712  33.568  31.915  1.00  0.00     0.029 A 
ATOM     59  C   UNL A   1      41.106  33.776  30.608  1.00  0.00     0.049 A 
ATOM     60  H   UNL A   1      39.996  33.564  28.839  1.00  0.00     0.167 HD
ATOM     61  C   UNL A   1      43.233  33.068  29.796  1.00  0.00     0.074 A 
ATOM     62  C   UNL A   1      44.502  32.937  29.107  1.00  0.00     0.031 C 
ATOM     63  C   UNL A   1      42.360  34.108  29.956  1.00  0.00     0.037 A 
BRANCH  50  64
ATOM     64  C   UNL A   1      36.308  33.449  30.136  1.00  0.00     0.064 A 
ATOM     65  C   UNL A   1      35.573  33.986  29.059  1.00  0.00     0.173 A 
ATOM     66  C   UNL A   1      35.707  33.598  31.399  1.00  0.00     0.173 A 
ATOM     67  F   UNL A   1      35.963  33.819  27.790  1.00  0.00    -0.203 F 
ATOM     68  C   UNL A   1      34.408  34.731  29.249  1.00  0.00     0.198 A 
ATOM     69  C   UNL A   1      34.575  34.394  31.597  1.00  0.00     0.198 A 
ATOM     70  F   UNL A   1      36.183  32.948  32.471  1.00  0.00    -0.203 F 
ATOM     71  F   UNL A   1      33.759  35.231  28.188  1.00  0.00    -0.200 F 
ATOM     72  C   UNL A   1      33.935  34.975  30.521  1.00  0.00     0.200 A 
ATOM     73  F   UNL A   1      34.116  34.601  32.839  1.00  0.00    -0.200 F 
ATOM     74  F   UNL A   1      32.854  35.746  30.708  1.00  0.00    -0.200 F 
ENDBRANCH  50  64
BRANCH  51  75
ATOM     75  C   UNL A   1      44.502  28.501  29.207  1.00  0.00     0.064 A 
ATOM     76  C   UNL A   1      45.255  27.439  29.747  1.00  0.00     0.173 A 
ATOM     77  C   UNL A   1      44.041  28.365  27.894  1.00  0.00     0.173 A 
ATOM     78  F   UNL A   1      45.716  27.515  31.006  1.00  0.00    -0.203 F 
ATOM     79  C   UNL A   1      45.433  26.249  29.047  1.00  0.00     0.198 A 
ATOM     80  C   UNL A   1      44.241  27.179  27.186  1.00  0.00     0.198 A 
ATOM     81  F   UNL A   1      43.297  29.327  27.331  1.00  0.00    -0.203 F 
ATOM     82  F   UNL A   1      46.046  25.212  29.636  1.00  0.00    -0.200 F 
ATOM     83  C   UNL A   1      44.903  26.111  27.776  1.00  0.00     0.200 A 
ATOM     84  F   UNL A   1      43.705  27.036  25.966  1.00  0.00    -0.200 F 
ATOM     85  F   UNL A   1      44.990  24.936  27.136  1.00  0.00    -0.200 F 
ENDBRANCH  51  75
BRANCH  63  86
ATOM     86  C   UNL A   1      42.593  35.522  29.478  1.00  0.00     0.064 A 
ATOM     87  C   UNL A   1      43.319  36.473  30.213  1.00  0.00     0.173 A 
ATOM     88  C   UNL A   1      41.991  36.003  28.291  1.00  0.00     0.173 A 
ATOM     89  F   UNL A   1      43.825  36.176  31.418  1.00  0.00    -0.203 F 
ATOM     90  C   UNL A   1      43.513  37.778  29.746  1.00  0.00     0.198 A 
ATOM     91  C   UNL A   1      42.141  37.319  27.854  1.00  0.00     0.198 A 
ATOM     92  F   UNL A   1      41.246  35.215  27.505  1.00  0.00    -0.203 F 
ATOM     93  F   UNL A   1      44.270  38.628  30.451  1.00  0.00    -0.200 F 
ATOM     94  C   UNL A   1      42.923  38.200  28.569  1.00  0.00     0.200 A 
ATOM     95  F   UNL A   1      41.527  37.720  26.732  1.00  0.00    -0.200 F 
ATOM     96  F   UNL A   1      43.099  39.453  28.130  1.00  0.00    -0.200 F 
ENDBRANCH  63  86
ENDBRANCH  37  38
ENDBRANCH  29  32
ENDBRANCH  27  28
ENDBRANCH  26  27
ENDBRANCH   1  26
TORSDOF 13
ENDMDL
