MODEL 1
REMARK VINA RESULT:     -11.6      0.000      0.000
REMARK SMILES CN(C(=O)CC(=O)NCCCNC(=O)c1ccc(-c2c3nc(c(-c4c(F)c(F)c(F)c(F)c4F)c4ccc([nH]4)c(-c4c(F)c(F)c(F)c(F)c4F)c4nc(c(-c5c(F)c(F)c(F)c(F)c5F)c5ccc2[nH]5)C=C4)C=C3)cc1)C1CCC(C)(C)CC1
REMARK SMILES IDX 9 1 8 2 6 3 7 4 5 6 3 7 4 8 2 9 1 10 78 11 79 12 85 13 80 14
REMARK SMILES IDX 84 15 81 16 82 17 83 18 10 19 11 20 12 21 13 22 14 24 15 25
REMARK SMILES IDX 16 26 77 27 17 28 76 29 18 30 19 31 20 32 70 33 21 34 75 35
REMARK SMILES IDX 69 36 71 37 22 38 74 39 68 40 67 41 23 43 55 44 35 45 54 46
REMARK SMILES IDX 36 47 39 48 53 49 72 50 37 51 38 52 52 54 73 55 40 56 24 57
REMARK SMILES IDX 25 58 33 59 26 60 27 61 31 62 34 63 28 64 29 65 32 66 30 67
REMARK SMILES IDX 56 68 57 69 65 70 58 71 59 72 63 73 66 74 60 75 61 76 64 77
REMARK SMILES IDX 62 78 41 79 42 80 50 81 43 82 44 83 48 84 51 85 45 86 46 87
REMARK SMILES IDX 49 88 47 89
REMARK H PARENT 8 5 12 23 71 42 39 53
REMARK Flexibility Score: inf
ROOT
ATOM      1  C   UNL A   1      36.566  20.408  24.993  1.00  0.00     0.117 C 
ENDROOT
BRANCH   1   2
ATOM      2  N   UNL A   1      35.396  19.547  25.001  1.00  0.00    -0.356 N 
ATOM      3  C   UNL A   1      34.083  19.883  24.876  1.00  0.00     0.229 C 
ATOM      4  O   UNL A   1      33.248  18.976  24.922  1.00  0.00    -0.275 OA
ATOM      5  H   UNL A   1      35.578  18.586  25.113  1.00  0.00     0.163 HD
BRANCH   3   6
ATOM      6  C   UNL A   1      33.670  21.316  24.657  1.00  0.00     0.200 C 
BRANCH   6   7
ATOM      7  C   UNL A   1      33.305  22.058  25.921  1.00  0.00     0.231 C 
ATOM      8  O   UNL A   1      33.804  21.676  26.985  1.00  0.00    -0.274 OA
BRANCH   7   9
ATOM      9  N   UNL A   1      32.409  23.135  25.858  1.00  0.00    -0.342 N 
ATOM     10  C   UNL A   1      30.969  22.903  25.966  1.00  0.00     0.147 C 
BRANCH   9  11
ATOM     11  C   UNL A   1      32.953  24.500  26.131  1.00  0.00     0.084 C 
ATOM     12  C   UNL A   1      34.259  24.825  25.370  1.00  0.00     0.025 C 
ATOM     13  C   UNL A   1      31.972  25.676  25.925  1.00  0.00     0.025 C 
ATOM     14  C   UNL A   1      34.028  25.129  23.894  1.00  0.00     0.008 C 
ATOM     15  C   UNL A   1      31.747  26.056  24.455  1.00  0.00     0.008 C 
ATOM     16  C   UNL A   1      33.044  26.291  23.657  1.00  0.00    -0.035 C 
ATOM     17  C   UNL A   1      32.708  26.347  22.154  1.00  0.00     0.011 C 
ATOM     18  C   UNL A   1      33.673  27.640  24.053  1.00  0.00     0.011 C 
ENDBRANCH   9  11
ENDBRANCH   7   9
ENDBRANCH   6   7
ENDBRANCH   3   6
ENDBRANCH   1   2
BRANCH   1  19
ATOM     19  C   UNL A   1      37.869  19.620  24.878  1.00  0.00     0.042 C 
BRANCH  19  20
ATOM     20  C   UNL A   1      39.001  20.134  25.762  1.00  0.00     0.118 C 
BRANCH  20  21
ATOM     21  N   UNL A   1      40.081  19.171  25.919  1.00  0.00    -0.352 N 
ATOM     22  C   UNL A   1      41.421  19.360  26.132  1.00  0.00     0.251 C 
ATOM     23  H   UNL A   1      39.803  18.228  25.863  1.00  0.00     0.163 HD
ATOM     24  O   UNL A   1      42.186  18.397  26.059  1.00  0.00    -0.269 OA
BRANCH  22  25
ATOM     25  C   UNL A   1      41.968  20.700  26.435  1.00  0.00     0.039 A 
ATOM     26  C   UNL A   1      42.224  21.574  25.374  1.00  0.00     0.014 A 
ATOM     27  C   UNL A   1      42.278  21.083  27.742  1.00  0.00     0.014 A 
ATOM     28  C   UNL A   1      42.733  22.850  25.628  1.00  0.00     0.010 A 
ATOM     29  C   UNL A   1      42.719  22.380  28.001  1.00  0.00     0.010 A 
ATOM     30  C   UNL A   1      42.954  23.275  26.947  1.00  0.00    -0.014 A 
BRANCH  30  31
ATOM     31  C   UNL A   1      43.432  24.650  27.244  1.00  0.00     0.031 A 
ATOM     32  C   UNL A   1      42.486  25.675  27.805  1.00  0.00     0.074 A 
ATOM     33  C   UNL A   1      44.700  24.993  26.950  1.00  0.00     0.049 A 
ATOM     34  N   UNL A   1      42.689  26.946  28.048  1.00  0.00    -0.248 NA
ATOM     35  C   UNL A   1      41.122  25.217  28.110  1.00  0.00     0.031 C 
ATOM     36  C   UNL A   1      45.705  24.100  26.373  1.00  0.00     0.029 A 
ATOM     37  N   UNL A   1      45.358  26.190  27.085  1.00  0.00    -0.354 N 
ATOM     38  C   UNL A   1      41.480  27.439  28.518  1.00  0.00     0.074 A 
ATOM     39  C   UNL A   1      40.534  26.345  28.478  1.00  0.00     0.031 C 
ATOM     40  C   UNL A   1      46.857  24.772  26.224  1.00  0.00     0.029 A 
ATOM     41  C   UNL A   1      46.661  26.153  26.655  1.00  0.00     0.049 A 
ATOM     42  H   UNL A   1      44.935  26.999  27.454  1.00  0.00     0.167 HD
ATOM     43  C   UNL A   1      41.190  28.687  28.963  1.00  0.00     0.037 A 
ATOM     44  C   UNL A   1      47.591  27.126  26.606  1.00  0.00     0.037 A 
ATOM     45  C   UNL A   1      42.139  29.769  29.021  1.00  0.00     0.049 A 
ATOM     46  C   UNL A   1      47.239  28.507  27.086  1.00  0.00     0.074 A 
ATOM     47  C   UNL A   1      41.954  31.055  29.498  1.00  0.00     0.029 A 
ATOM     48  N   UNL A   1      43.453  29.689  28.584  1.00  0.00    -0.354 N 
ATOM     49  N   UNL A   1      46.106  28.949  27.577  1.00  0.00    -0.248 NA
ATOM     50  C   UNL A   1      48.296  29.524  27.008  1.00  0.00     0.031 C 
ATOM     51  C   UNL A   1      43.144  31.765  29.312  1.00  0.00     0.029 A 
ATOM     52  C   UNL A   1      44.087  30.909  28.764  1.00  0.00     0.049 A 
ATOM     53  H   UNL A   1      43.874  28.884  28.203  1.00  0.00     0.167 HD
ATOM     54  C   UNL A   1      46.323  30.283  27.895  1.00  0.00     0.074 A 
ATOM     55  C   UNL A   1      47.699  30.576  27.551  1.00  0.00     0.031 C 
ATOM     56  C   UNL A   1      45.460  31.183  28.427  1.00  0.00     0.037 A 
BRANCH  43  57
ATOM     57  C   UNL A   1      39.784  28.946  29.424  1.00  0.00     0.064 A 
ATOM     58  C   UNL A   1      38.790  29.386  28.537  1.00  0.00     0.173 A 
ATOM     59  C   UNL A   1      39.419  28.726  30.761  1.00  0.00     0.173 A 
ATOM     60  F   UNL A   1      39.088  29.621  27.250  1.00  0.00    -0.203 F 
ATOM     61  C   UNL A   1      37.491  29.631  28.978  1.00  0.00     0.198 A 
ATOM     62  C   UNL A   1      38.112  28.942  31.192  1.00  0.00     0.198 A 
ATOM     63  F   UNL A   1      40.328  28.299  31.649  1.00  0.00    -0.203 F 
ATOM     64  F   UNL A   1      36.573  30.104  28.124  1.00  0.00    -0.200 F 
ATOM     65  C   UNL A   1      37.153  29.404  30.304  1.00  0.00     0.200 A 
ATOM     66  F   UNL A   1      37.783  28.709  32.470  1.00  0.00    -0.200 F 
ATOM     67  F   UNL A   1      35.903  29.636  30.726  1.00  0.00    -0.200 F 
ENDBRANCH  43  57
BRANCH  44  68
ATOM     68  C   UNL A   1      48.958  26.820  26.110  1.00  0.00     0.064 A 
ATOM     69  C   UNL A   1      49.945  26.338  26.981  1.00  0.00     0.173 A 
ATOM     70  C   UNL A   1      49.307  27.002  24.764  1.00  0.00     0.173 A 
ATOM     71  F   UNL A   1      49.664  26.169  28.281  1.00  0.00    -0.203 F 
ATOM     72  C   UNL A   1      51.233  26.066  26.527  1.00  0.00     0.198 A 
ATOM     73  C   UNL A   1      50.589  26.704  24.306  1.00  0.00     0.198 A 
ATOM     74  F   UNL A   1      48.397  27.458  23.890  1.00  0.00    -0.203 F 
ATOM     75  F   UNL A   1      52.169  25.648  27.391  1.00  0.00    -0.200 F 
ATOM     76  C   UNL A   1      51.553  26.243  25.190  1.00  0.00     0.200 A 
ATOM     77  F   UNL A   1      50.890  26.865  23.011  1.00  0.00    -0.200 F 
ATOM     78  F   UNL A   1      52.792  25.978  24.754  1.00  0.00    -0.200 F 
ENDBRANCH  44  68
BRANCH  56  79
ATOM     79  C   UNL A   1      45.987  32.559  28.709  1.00  0.00     0.064 A 
ATOM     80  C   UNL A   1      45.894  33.592  27.765  1.00  0.00     0.173 A 
ATOM     81  C   UNL A   1      46.561  32.856  29.955  1.00  0.00     0.173 A 
ATOM     82  F   UNL A   1      45.370  33.354  26.554  1.00  0.00    -0.203 F 
ATOM     83  C   UNL A   1      46.377  34.867  28.051  1.00  0.00     0.198 A 
ATOM     84  C   UNL A   1      47.014  34.139  30.248  1.00  0.00     0.198 A 
ATOM     85  F   UNL A   1      46.668  31.904  30.894  1.00  0.00    -0.203 F 
ATOM     86  F   UNL A   1      46.318  35.828  27.119  1.00  0.00    -0.200 F 
ATOM     87  C   UNL A   1      46.929  35.141  29.293  1.00  0.00     0.200 A 
ATOM     88  F   UNL A   1      47.536  34.405  31.454  1.00  0.00    -0.200 F 
ATOM     89  F   UNL A   1      47.385  36.371  29.569  1.00  0.00    -0.200 F 
ENDBRANCH  56  79
ENDBRANCH  30  31
ENDBRANCH  22  25
ENDBRANCH  20  21
ENDBRANCH  19  20
ENDBRANCH   1  19
TORSDOF 13
ENDMDL
MODEL 2
REMARK VINA RESULT:     -11.5      0.197      1.169
REMARK SMILES CN(C(=O)CC(=O)NCCCNC(=O)c1ccc(-c2c3nc(c(-c4c(F)c(F)c(F)c(F)c4F)c4ccc([nH]4)c(-c4c(F)c(F)c(F)c(F)c4F)c4nc(c(-c5c(F)c(F)c(F)c(F)c5F)c5ccc2[nH]5)C=C4)C=C3)cc1)C1CCC(C)(C)CC1
REMARK SMILES IDX 9 1 8 2 6 3 7 4 5 6 3 7 4 8 2 9 1 10 78 11 79 12 85 13 80 14
REMARK SMILES IDX 84 15 81 16 82 17 83 18 10 19 11 20 12 21 13 22 14 24 15 25
REMARK SMILES IDX 16 26 77 27 17 28 76 29 18 30 19 31 20 32 70 33 21 34 75 35
REMARK SMILES IDX 69 36 71 37 22 38 74 39 68 40 67 41 23 43 55 44 35 45 54 46
REMARK SMILES IDX 36 47 39 48 53 49 72 50 37 51 38 52 52 54 73 55 40 56 24 57
REMARK SMILES IDX 25 58 33 59 26 60 27 61 31 62 34 63 28 64 29 65 32 66 30 67
REMARK SMILES IDX 56 68 57 69 65 70 58 71 59 72 63 73 66 74 60 75 61 76 64 77
REMARK SMILES IDX 62 78 41 79 42 80 50 81 43 82 44 83 48 84 51 85 45 86 46 87
REMARK SMILES IDX 49 88 47 89
REMARK H PARENT 8 5 12 23 71 42 39 53
REMARK Flexibility Score: inf
ROOT
ATOM      1  C   UNL A   1      36.617  20.411  25.007  1.00  0.00     0.117 C 
ENDROOT
BRANCH   1   2
ATOM      2  N   UNL A   1      35.403  19.613  24.986  1.00  0.00    -0.356 N 
ATOM      3  C   UNL A   1      34.109  20.021  24.872  1.00  0.00     0.229 C 
ATOM      4  O   UNL A   1      33.228  19.159  24.888  1.00  0.00    -0.275 OA
ATOM      5  H   UNL A   1      35.534  18.641  25.067  1.00  0.00     0.163 HD
BRANCH   3   6
ATOM      6  C   UNL A   1      33.773  21.480  24.700  1.00  0.00     0.200 C 
BRANCH   6   7
ATOM      7  C   UNL A   1      33.407  22.190  25.983  1.00  0.00     0.231 C 
ATOM      8  O   UNL A   1      33.912  21.786  27.036  1.00  0.00    -0.274 OA
BRANCH   7   9
ATOM      9  N   UNL A   1      32.504  23.262  25.948  1.00  0.00    -0.342 N 
ATOM     10  C   UNL A   1      31.068  23.021  26.088  1.00  0.00     0.147 C 
BRANCH   9  11
ATOM     11  C   UNL A   1      33.046  24.628  26.219  1.00  0.00     0.084 C 
ATOM     12  C   UNL A   1      34.370  24.941  25.484  1.00  0.00     0.025 C 
ATOM     13  C   UNL A   1      32.073  25.805  25.979  1.00  0.00     0.025 C 
ATOM     14  C   UNL A   1      34.172  25.231  24.000  1.00  0.00     0.008 C 
ATOM     15  C   UNL A   1      31.882  26.170  24.501  1.00  0.00     0.008 C 
ATOM     16  C   UNL A   1      33.197  26.393  23.729  1.00  0.00    -0.035 C 
ATOM     17  C   UNL A   1      32.894  26.434  22.218  1.00  0.00     0.011 C 
ATOM     18  C   UNL A   1      33.821  27.744  24.125  1.00  0.00     0.011 C 
ENDBRANCH   9  11
ENDBRANCH   7   9
ENDBRANCH   6   7
ENDBRANCH   3   6
ENDBRANCH   1   2
BRANCH   1  19
ATOM     19  C   UNL A   1      37.879  19.554  24.935  1.00  0.00     0.042 C 
BRANCH  19  20
ATOM     20  C   UNL A   1      39.063  20.103  25.725  1.00  0.00     0.118 C 
BRANCH  20  21
ATOM     21  N   UNL A   1      40.145  19.140  25.869  1.00  0.00    -0.352 N 
ATOM     22  C   UNL A   1      41.483  19.329  26.095  1.00  0.00     0.251 C 
ATOM     23  H   UNL A   1      39.870  18.198  25.789  1.00  0.00     0.163 HD
ATOM     24  O   UNL A   1      42.252  18.371  26.006  1.00  0.00    -0.269 OA
BRANCH  22  25
ATOM     25  C   UNL A   1      42.023  20.663  26.431  1.00  0.00     0.039 A 
ATOM     26  C   UNL A   1      42.325  21.546  25.390  1.00  0.00     0.014 A 
ATOM     27  C   UNL A   1      42.282  21.033  27.754  1.00  0.00     0.014 A 
ATOM     28  C   UNL A   1      42.828  22.817  25.675  1.00  0.00     0.010 A 
ATOM     29  C   UNL A   1      42.718  22.326  28.042  1.00  0.00     0.010 A 
ATOM     30  C   UNL A   1      42.999  23.229  27.007  1.00  0.00    -0.014 A 
BRANCH  30  31
ATOM     31  C   UNL A   1      43.470  24.599  27.335  1.00  0.00     0.031 A 
ATOM     32  C   UNL A   1      42.513  25.616  27.892  1.00  0.00     0.074 A 
ATOM     33  C   UNL A   1      44.744  24.947  27.072  1.00  0.00     0.049 A 
ATOM     34  N   UNL A   1      42.711  26.883  28.160  1.00  0.00    -0.248 NA
ATOM     35  C   UNL A   1      41.144  25.152  28.163  1.00  0.00     0.031 C 
ATOM     36  C   UNL A   1      45.760  24.063  26.501  1.00  0.00     0.029 A 
ATOM     37  N   UNL A   1      45.399  26.142  27.238  1.00  0.00    -0.354 N 
ATOM     38  C   UNL A   1      41.492  27.368  28.613  1.00  0.00     0.074 A 
ATOM     39  C   UNL A   1      40.548  26.275  28.537  1.00  0.00     0.031 C 
ATOM     40  C   UNL A   1      46.915  24.737  26.386  1.00  0.00     0.029 A 
ATOM     41  C   UNL A   1      46.710  26.111  26.834  1.00  0.00     0.049 A 
ATOM     42  H   UNL A   1      44.968  26.945  27.612  1.00  0.00     0.167 HD
ATOM     43  C   UNL A   1      41.193  28.608  29.072  1.00  0.00     0.037 A 
ATOM     44  C   UNL A   1      47.641  27.085  26.819  1.00  0.00     0.037 A 
ATOM     45  C   UNL A   1      42.140  29.689  29.166  1.00  0.00     0.049 A 
ATOM     46  C   UNL A   1      47.278  28.458  27.314  1.00  0.00     0.074 A 
ATOM     47  C   UNL A   1      41.946  30.967  29.660  1.00  0.00     0.029 A 
ATOM     48  N   UNL A   1      43.464  29.617  28.755  1.00  0.00    -0.354 N 
ATOM     49  N   UNL A   1      46.136  28.892  27.789  1.00  0.00    -0.248 NA
ATOM     50  C   UNL A   1      48.337  29.476  27.273  1.00  0.00     0.031 C 
ATOM     51  C   UNL A   1      43.140  31.681  29.508  1.00  0.00     0.029 A 
ATOM     52  C   UNL A   1      44.093  30.833  28.966  1.00  0.00     0.049 A 
ATOM     53  H   UNL A   1      43.892  28.818  28.369  1.00  0.00     0.167 HD
ATOM     54  C   UNL A   1      46.346  30.221  28.133  1.00  0.00     0.074 A 
ATOM     55  C   UNL A   1      47.729  30.520  27.820  1.00  0.00     0.031 C 
ATOM     56  C   UNL A   1      45.473  31.112  28.661  1.00  0.00     0.037 A 
BRANCH  43  57
ATOM     57  C   UNL A   1      39.778  28.860  29.509  1.00  0.00     0.064 A 
ATOM     58  C   UNL A   1      38.813  29.359  28.620  1.00  0.00     0.173 A 
ATOM     59  C   UNL A   1      39.375  28.576  30.822  1.00  0.00     0.173 A 
ATOM     60  F   UNL A   1      39.149  29.657  27.356  1.00  0.00    -0.203 F 
ATOM     61  C   UNL A   1      37.506  29.596  29.039  1.00  0.00     0.198 A 
ATOM     62  C   UNL A   1      38.060  28.785  31.229  1.00  0.00     0.198 A 
ATOM     63  F   UNL A   1      40.255  28.091  31.710  1.00  0.00    -0.203 F 
ATOM     64  F   UNL A   1      36.617  30.124  28.187  1.00  0.00    -0.200 F 
ATOM     65  C   UNL A   1      37.129  29.304  30.342  1.00  0.00     0.200 A 
ATOM     66  F   UNL A   1      37.694  28.489  32.485  1.00  0.00    -0.200 F 
ATOM     67  F   UNL A   1      35.871  29.529  30.743  1.00  0.00    -0.200 F 
ENDBRANCH  43  57
BRANCH  44  68
ATOM     68  C   UNL A   1      49.017  26.787  26.345  1.00  0.00     0.064 A 
ATOM     69  C   UNL A   1      49.981  26.273  27.224  1.00  0.00     0.173 A 
ATOM     70  C   UNL A   1      49.398  27.008  25.014  1.00  0.00     0.173 A 
ATOM     71  F   UNL A   1      49.669  26.065  28.512  1.00  0.00    -0.203 F 
ATOM     72  C   UNL A   1      51.278  26.007  26.792  1.00  0.00     0.198 A 
ATOM     73  C   UNL A   1      50.689  26.717  24.577  1.00  0.00     0.198 A 
ATOM     74  F   UNL A   1      48.512  27.496  24.134  1.00  0.00    -0.203 F 
ATOM     75  F   UNL A   1      52.192  25.558  27.663  1.00  0.00    -0.200 F 
ATOM     76  C   UNL A   1      51.630  26.224  25.469  1.00  0.00     0.200 A 
ATOM     77  F   UNL A   1      51.021  26.916  23.295  1.00  0.00    -0.200 F 
ATOM     78  F   UNL A   1      52.878  25.966  25.054  1.00  0.00    -0.200 F 
ENDBRANCH  44  68
BRANCH  56  79
ATOM     79  C   UNL A   1      45.994  32.484  28.975  1.00  0.00     0.064 A 
ATOM     80  C   UNL A   1      46.593  32.781  30.207  1.00  0.00     0.173 A 
ATOM     81  C   UNL A   1      45.926  33.505  28.014  1.00  0.00     0.173 A 
ATOM     82  F   UNL A   1      46.666  31.844  31.165  1.00  0.00    -0.203 F 
ATOM     83  C   UNL A   1      47.084  34.056  30.475  1.00  0.00     0.198 A 
ATOM     84  C   UNL A   1      46.445  34.770  28.273  1.00  0.00     0.198 A 
ATOM     85  F   UNL A   1      45.368  33.270  26.817  1.00  0.00    -0.203 F 
ATOM     86  F   UNL A   1      47.611  34.330  31.676  1.00  0.00    -0.200 F 
ATOM     87  C   UNL A   1      47.016  35.047  29.507  1.00  0.00     0.200 A 
ATOM     88  F   UNL A   1      46.390  35.722  27.332  1.00  0.00    -0.200 F 
ATOM     89  F   UNL A   1      47.497  36.271  29.763  1.00  0.00    -0.200 F 
ENDBRANCH  56  79
ENDBRANCH  30  31
ENDBRANCH  22  25
ENDBRANCH  20  21
ENDBRANCH  19  20
ENDBRANCH   1  19
TORSDOF 13
ENDMDL
MODEL 3
REMARK VINA RESULT:     -11.5      5.730     11.144
REMARK SMILES CN(C(=O)CC(=O)NCCCNC(=O)c1ccc(-c2c3nc(c(-c4c(F)c(F)c(F)c(F)c4F)c4ccc([nH]4)c(-c4c(F)c(F)c(F)c(F)c4F)c4nc(c(-c5c(F)c(F)c(F)c(F)c5F)c5ccc2[nH]5)C=C4)C=C3)cc1)C1CCC(C)(C)CC1
REMARK SMILES IDX 9 1 8 2 6 3 7 4 5 6 3 7 4 8 2 9 1 10 78 11 79 12 85 13 80 14
REMARK SMILES IDX 84 15 81 16 82 17 83 18 10 19 11 20 12 21 13 22 14 24 15 25
REMARK SMILES IDX 16 26 77 27 17 28 76 29 18 30 19 31 20 32 70 33 21 34 75 35
REMARK SMILES IDX 69 36 71 37 22 38 74 39 68 40 67 41 23 43 55 44 35 45 54 46
REMARK SMILES IDX 36 47 39 48 53 49 72 50 37 51 38 52 52 54 73 55 40 56 24 57
REMARK SMILES IDX 25 58 33 59 26 60 27 61 31 62 34 63 28 64 29 65 32 66 30 67
REMARK SMILES IDX 56 68 57 69 65 70 58 71 59 72 63 73 66 74 60 75 61 76 64 77
REMARK SMILES IDX 62 78 41 79 42 80 50 81 43 82 44 83 48 84 51 85 45 86 46 87
REMARK SMILES IDX 49 88 47 89
REMARK H PARENT 8 5 12 23 71 42 39 53
REMARK Flexibility Score: inf
ROOT
ATOM      1  C   UNL A   1      31.448  30.541  25.799  1.00  0.00     0.117 C 
ENDROOT
BRANCH   1   2
ATOM      2  N   UNL A   1      30.789  30.449  24.508  1.00  0.00    -0.356 N 
ATOM      3  C   UNL A   1      30.516  29.345  23.760  1.00  0.00     0.229 C 
ATOM      4  O   UNL A   1      29.950  29.506  22.676  1.00  0.00    -0.275 OA
ATOM      5  H   UNL A   1      30.499  31.305  24.118  1.00  0.00     0.163 HD
BRANCH   3   6
ATOM      6  C   UNL A   1      30.870  27.967  24.260  1.00  0.00     0.200 C 
BRANCH   6   7
ATOM      7  C   UNL A   1      32.310  27.572  24.029  1.00  0.00     0.231 C 
ATOM      8  O   UNL A   1      32.860  27.958  22.992  1.00  0.00    -0.274 OA
BRANCH   7   9
ATOM      9  N   UNL A   1      32.970  26.776  24.976  1.00  0.00    -0.342 N 
ATOM     10  C   UNL A   1      33.674  27.395  26.099  1.00  0.00     0.147 C 
BRANCH   9  11
ATOM     11  C   UNL A   1      32.568  25.339  25.067  1.00  0.00     0.084 C 
ATOM     12  C   UNL A   1      32.537  24.603  23.707  1.00  0.00     0.025 C 
ATOM     13  C   UNL A   1      33.368  24.471  26.065  1.00  0.00     0.025 C 
ATOM     14  C   UNL A   1      33.929  24.260  23.185  1.00  0.00     0.008 C 
ATOM     15  C   UNL A   1      34.757  24.055  25.562  1.00  0.00     0.008 C 
ATOM     16  C   UNL A   1      34.755  23.404  24.165  1.00  0.00    -0.035 C 
ATOM     17  C   UNL A   1      36.203  23.326  23.643  1.00  0.00     0.011 C 
ATOM     18  C   UNL A   1      34.203  21.969  24.250  1.00  0.00     0.011 C 
ENDBRANCH   9  11
ENDBRANCH   7   9
ENDBRANCH   6   7
ENDBRANCH   3   6
ENDBRANCH   1   2
BRANCH   1  19
ATOM     19  C   UNL A   1      31.263  31.908  26.452  1.00  0.00     0.042 C 
BRANCH  19  20
ATOM     20  C   UNL A   1      32.513  32.461  27.129  1.00  0.00     0.118 C 
BRANCH  20  21
ATOM     21  N   UNL A   1      32.379  33.859  27.515  1.00  0.00    -0.352 N 
ATOM     22  C   UNL A   1      33.043  34.590  28.464  1.00  0.00     0.251 C 
ATOM     23  H   UNL A   1      31.698  34.360  27.011  1.00  0.00     0.163 HD
ATOM     24  O   UNL A   1      32.644  35.721  28.744  1.00  0.00    -0.269 OA
BRANCH  22  25
ATOM     25  C   UNL A   1      34.222  34.042  29.167  1.00  0.00     0.039 A 
ATOM     26  C   UNL A   1      34.021  33.094  30.176  1.00  0.00     0.014 A 
ATOM     27  C   UNL A   1      35.515  34.489  28.880  1.00  0.00     0.014 A 
ATOM     28  C   UNL A   1      35.116  32.552  30.852  1.00  0.00     0.010 A 
ATOM     29  C   UNL A   1      36.611  33.896  29.507  1.00  0.00     0.010 A 
ATOM     30  C   UNL A   1      36.422  32.925  30.501  1.00  0.00    -0.014 A 
BRANCH  30  31
ATOM     31  C   UNL A   1      37.603  32.312  31.162  1.00  0.00     0.031 A 
ATOM     32  C   UNL A   1      38.374  31.220  30.474  1.00  0.00     0.074 A 
ATOM     33  C   UNL A   1      37.943  32.694  32.408  1.00  0.00     0.049 A 
ATOM     34  N   UNL A   1      39.376  30.504  30.921  1.00  0.00    -0.248 NA
ATOM     35  C   UNL A   1      37.947  30.871  29.111  1.00  0.00     0.031 C 
ATOM     36  C   UNL A   1      37.255  33.718  33.195  1.00  0.00     0.029 A 
ATOM     37  N   UNL A   1      38.945  32.256  33.237  1.00  0.00    -0.354 N 
ATOM     38  C   UNL A   1      39.686  29.612  29.903  1.00  0.00     0.074 A 
ATOM     39  C   UNL A   1      38.735  29.842  28.836  1.00  0.00     0.031 C 
ATOM     40  C   UNL A   1      37.868  33.846  34.381  1.00  0.00     0.029 A 
ATOM     41  C   UNL A   1      38.964  32.885  34.457  1.00  0.00     0.049 A 
ATOM     42  H   UNL A   1      39.589  31.556  32.981  1.00  0.00     0.167 HD
ATOM     43  C   UNL A   1      40.686  28.699  29.853  1.00  0.00     0.037 A 
ATOM     44  C   UNL A   1      39.771  32.702  35.520  1.00  0.00     0.037 A 
ATOM     45  C   UNL A   1      41.644  28.486  30.908  1.00  0.00     0.049 A 
ATOM     46  C   UNL A   1      40.861  31.668  35.448  1.00  0.00     0.074 A 
ATOM     47  C   UNL A   1      42.721  27.618  30.934  1.00  0.00     0.029 A 
ATOM     48  N   UNL A   1      41.636  29.150  32.126  1.00  0.00    -0.354 N 
ATOM     49  N   UNL A   1      41.178  30.866  34.460  1.00  0.00    -0.248 NA
ATOM     50  C   UNL A   1      41.707  31.515  36.639  1.00  0.00     0.031 C 
ATOM     51  C   UNL A   1      43.340  27.727  32.184  1.00  0.00     0.029 A 
ATOM     52  C   UNL A   1      42.678  28.698  32.919  1.00  0.00     0.049 A 
ATOM     53  H   UNL A   1      40.985  29.841  32.388  1.00  0.00     0.167 HD
ATOM     54  C   UNL A   1      42.277  30.138  34.896  1.00  0.00     0.074 A 
ATOM     55  C   UNL A   1      42.579  30.601  36.235  1.00  0.00     0.031 C 
ATOM     56  C   UNL A   1      42.974  29.176  34.246  1.00  0.00     0.037 A 
BRANCH  43  57
ATOM     57  C   UNL A   1      40.794  27.860  28.612  1.00  0.00     0.064 A 
ATOM     58  C   UNL A   1      40.099  26.648  28.482  1.00  0.00     0.173 A 
ATOM     59  C   UNL A   1      41.580  28.284  27.530  1.00  0.00     0.173 A 
ATOM     60  F   UNL A   1      39.342  26.192  29.491  1.00  0.00    -0.203 F 
ATOM     61  C   UNL A   1      40.214  25.874  27.329  1.00  0.00     0.198 A 
ATOM     62  C   UNL A   1      41.668  27.523  26.366  1.00  0.00     0.198 A 
ATOM     63  F   UNL A   1      42.260  29.437  27.598  1.00  0.00    -0.203 F 
ATOM     64  F   UNL A   1      39.584  24.694  27.251  1.00  0.00    -0.200 F 
ATOM     65  C   UNL A   1      40.994  26.315  26.271  1.00  0.00     0.200 A 
ATOM     66  F   UNL A   1      42.412  27.957  25.339  1.00  0.00    -0.200 F 
ATOM     67  F   UNL A   1      41.101  25.573  25.161  1.00  0.00    -0.200 F 
ENDBRANCH  43  57
BRANCH  44  68
ATOM     68  C   UNL A   1      39.597  33.539  36.735  1.00  0.00     0.064 A 
ATOM     69  C   UNL A   1      38.730  33.139  37.761  1.00  0.00     0.173 A 
ATOM     70  C   UNL A   1      40.288  34.748  36.898  1.00  0.00     0.173 A 
ATOM     71  F   UNL A   1      38.031  32.001  37.641  1.00  0.00    -0.203 F 
ATOM     72  C   UNL A   1      38.547  33.926  38.896  1.00  0.00     0.198 A 
ATOM     73  C   UNL A   1      40.125  35.521  38.045  1.00  0.00     0.198 A 
ATOM     74  F   UNL A   1      41.133  35.173  35.946  1.00  0.00    -0.203 F 
ATOM     75  F   UNL A   1      37.679  33.542  39.841  1.00  0.00    -0.200 F 
ATOM     76  C   UNL A   1      39.249  35.113  39.040  1.00  0.00     0.200 A 
ATOM     77  F   UNL A   1      40.814  36.661  38.187  1.00  0.00    -0.200 F 
ATOM     78  F   UNL A   1      39.075  35.868  40.133  1.00  0.00    -0.200 F 
ENDBRANCH  44  68
BRANCH  56  79
ATOM     79  C   UNL A   1      44.158  28.585  34.953  1.00  0.00     0.064 A 
ATOM     80  C   UNL A   1      44.043  27.440  35.754  1.00  0.00     0.173 A 
ATOM     81  C   UNL A   1      45.432  29.153  34.797  1.00  0.00     0.173 A 
ATOM     82  F   UNL A   1      42.844  26.870  35.949  1.00  0.00    -0.203 F 
ATOM     83  C   UNL A   1      45.156  26.898  36.392  1.00  0.00     0.198 A 
ATOM     84  C   UNL A   1      46.547  28.592  35.411  1.00  0.00     0.198 A 
ATOM     85  F   UNL A   1      45.596  30.246  34.037  1.00  0.00    -0.203 F 
ATOM     86  F   UNL A   1      45.016  25.830  37.189  1.00  0.00    -0.200 F 
ATOM     87  C   UNL A   1      46.407  27.469  36.214  1.00  0.00     0.200 A 
ATOM     88  F   UNL A   1      47.758  29.137  35.228  1.00  0.00    -0.200 F 
ATOM     89  F   UNL A   1      47.479  26.941  36.821  1.00  0.00    -0.200 F 
ENDBRANCH  56  79
ENDBRANCH  30  31
ENDBRANCH  22  25
ENDBRANCH  20  21
ENDBRANCH  19  20
ENDBRANCH   1  19
TORSDOF 13
ENDMDL
