MODEL 1
REMARK VINA RESULT:     -13.7      0.000      0.000
REMARK SMILES O=C(NCCCNC(=O)[C@@H]1[C@H](C(=O)Nc2ccc(Cn3cncn3)cc2)[C@@H]2C=C[C@H]1CC2)c1ccc(-c2c3nc(c(-c4c(F)c(F)c(F)c(F)c4F)c4ccc([nH]4)c(-c4c(F)c(F)c(F)c(F)c4F)c4nc(c(-c5c(F)c(F)c(F)c(F)c5F)c5ccc2[nH]5)C=C4)C=C3)cc1
REMARK SMILES IDX 6 1 5 2 4 3 3 4 1 5 2 6 33 8 34 9 95 10 35 11 94 12 36 13
REMARK SMILES IDX 37 14 38 15 88 16 39 17 93 18 87 19 89 20 40 21 92 22 86 23
REMARK SMILES IDX 85 24 41 26 73 27 53 28 72 29 54 30 57 31 71 32 90 33 55 34
REMARK SMILES IDX 56 35 70 37 91 38 58 39 42 40 43 41 51 42 44 43 45 44 49 45
REMARK SMILES IDX 52 46 46 47 47 48 50 49 48 50 74 51 75 52 83 53 76 54 77 55
REMARK SMILES IDX 81 56 84 57 78 58 79 59 82 60 80 61 59 62 60 63 68 64 61 65
REMARK SMILES IDX 62 66 66 67 69 68 63 69 64 70 67 71 65 72 7 73 8 74 9 76
REMARK SMILES IDX 10 77 11 78 30 79 27 80 29 81 31 82 28 83 32 84 12 85 13 86
REMARK SMILES IDX 14 87 15 89 16 90 26 91 17 92 25 93 18 94 19 95 20 96 21 97
REMARK SMILES IDX 24 98 22 99 23 100
REMARK H PARENT 3 7 89 25 57 36 7 75 14 88
REMARK Flexibility Score: inf
ROOT
ATOM      1  C   UNL A   1      33.232  27.231  25.901  1.00  0.00     0.117 C 
ENDROOT
BRANCH   1   2
ATOM      2  C   UNL A   1      32.598  28.454  26.551  1.00  0.00     0.042 C 
BRANCH   2   3
ATOM      3  C   UNL A   1      33.239  29.804  26.211  1.00  0.00     0.118 C 
BRANCH   3   4
ATOM      4  N   UNL A   1      33.270  30.777  27.282  1.00  0.00    -0.352 N 
ATOM      5  O   UNL A   1      34.024  32.468  28.503  1.00  0.00    -0.269 OA
ATOM      6  C   UNL A   1      34.298  31.408  27.929  1.00  0.00     0.251 C 
ATOM      7  H   UNL A   1      32.378  31.036  27.608  1.00  0.00     0.163 HD
BRANCH   6   8
ATOM      8  C   UNL A   1      35.669  30.851  28.081  1.00  0.00     0.039 A 
ATOM      9  C   UNL A   1      36.001  29.497  28.048  1.00  0.00     0.014 A 
ATOM     10  C   UNL A   1      36.679  31.784  28.379  1.00  0.00     0.014 A 
ATOM     11  C   UNL A   1      37.255  29.070  28.465  1.00  0.00     0.010 A 
ATOM     12  C   UNL A   1      37.949  31.368  28.753  1.00  0.00     0.010 A 
ATOM     13  C   UNL A   1      38.214  30.006  28.853  1.00  0.00    -0.014 A 
BRANCH  13  14
ATOM     14  C   UNL A   1      39.547  29.517  29.190  1.00  0.00     0.031 A 
ATOM     15  C   UNL A   1      39.880  29.618  30.639  1.00  0.00     0.074 A 
ATOM     16  C   UNL A   1      40.349  28.895  28.305  1.00  0.00     0.049 A 
ATOM     17  N   UNL A   1      40.870  30.237  31.198  1.00  0.00    -0.248 NA
ATOM     18  C   UNL A   1      38.918  29.048  31.597  1.00  0.00     0.031 C 
ATOM     19  C   UNL A   1      40.025  28.478  26.938  1.00  0.00     0.029 A 
ATOM     20  N   UNL A   1      41.608  28.399  28.484  1.00  0.00    -0.354 N 
ATOM     21  C   UNL A   1      40.753  29.993  32.567  1.00  0.00     0.074 A 
ATOM     22  C   UNL A   1      39.462  29.391  32.764  1.00  0.00     0.031 C 
ATOM     23  C   UNL A   1      40.958  27.598  26.509  1.00  0.00     0.029 A 
ATOM     24  C   UNL A   1      42.002  27.487  27.513  1.00  0.00     0.049 A 
ATOM     25  H   UNL A   1      42.185  28.664  29.235  1.00  0.00     0.167 HD
ATOM     26  C   UNL A   1      41.829  30.090  33.396  1.00  0.00     0.037 A 
ATOM     27  C   UNL A   1      43.067  26.646  27.574  1.00  0.00     0.037 A 
ATOM     28  C   UNL A   1      42.855  30.917  32.812  1.00  0.00     0.049 A 
ATOM     29  C   UNL A   1      43.990  27.162  28.614  1.00  0.00     0.074 A 
ATOM     30  C   UNL A   1      42.935  32.232  32.401  1.00  0.00     0.029 A 
ATOM     31  N   UNL A   1      43.952  30.297  32.269  1.00  0.00    -0.354 N 
ATOM     32  N   UNL A   1      44.680  28.261  28.499  1.00  0.00    -0.248 NA
ATOM     33  C   UNL A   1      43.816  26.671  29.973  1.00  0.00     0.031 C 
ATOM     34  C   UNL A   1      43.782  32.211  31.252  1.00  0.00     0.029 A 
ATOM     35  C   UNL A   1      44.206  30.895  31.067  1.00  0.00     0.049 A 
ATOM     36  H   UNL A   1      44.461  29.556  32.671  1.00  0.00     0.167 HD
ATOM     37  C   UNL A   1      44.643  28.829  29.763  1.00  0.00     0.074 A 
ATOM     38  C   UNL A   1      44.180  27.764  30.649  1.00  0.00     0.031 C 
ATOM     39  C   UNL A   1      44.715  30.182  29.923  1.00  0.00     0.037 A 
BRANCH  26  40
ATOM     40  C   UNL A   1      42.135  29.103  34.509  1.00  0.00     0.064 A 
ATOM     41  C   UNL A   1      42.675  29.600  35.716  1.00  0.00     0.173 A 
ATOM     42  C   UNL A   1      42.257  27.709  34.327  1.00  0.00     0.173 A 
ATOM     43  F   UNL A   1      42.596  30.906  36.016  1.00  0.00    -0.203 F 
ATOM     44  C   UNL A   1      43.415  28.793  36.583  1.00  0.00     0.198 A 
ATOM     45  C   UNL A   1      42.955  26.898  35.222  1.00  0.00     0.198 A 
ATOM     46  F   UNL A   1      41.809  27.079  33.237  1.00  0.00    -0.203 F 
ATOM     47  F   UNL A   1      44.049  29.348  37.626  1.00  0.00    -0.200 F 
ATOM     48  C   UNL A   1      43.573  27.446  36.324  1.00  0.00     0.200 A 
ATOM     49  F   UNL A   1      43.097  25.592  34.951  1.00  0.00    -0.200 F 
ATOM     50  F   UNL A   1      44.354  26.688  37.102  1.00  0.00    -0.200 F 
ENDBRANCH  26  40
BRANCH  27  51
ATOM     51  C   UNL A   1      43.187  25.268  27.035  1.00  0.00     0.064 A 
ATOM     52  C   UNL A   1      42.415  24.215  27.552  1.00  0.00     0.173 A 
ATOM     53  C   UNL A   1      43.852  25.015  25.819  1.00  0.00     0.173 A 
ATOM     54  F   UNL A   1      41.708  24.387  28.680  1.00  0.00    -0.203 F 
ATOM     55  C   UNL A   1      42.296  22.992  26.882  1.00  0.00     0.198 A 
ATOM     56  C   UNL A   1      43.741  23.792  25.156  1.00  0.00     0.198 A 
ATOM     57  F   UNL A   1      44.543  25.982  25.198  1.00  0.00    -0.203 F 
ATOM     58  F   UNL A   1      41.498  22.033  27.374  1.00  0.00    -0.200 F 
ATOM     59  C   UNL A   1      42.951  22.785  25.680  1.00  0.00     0.200 A 
ATOM     60  F   UNL A   1      44.349  23.620  23.974  1.00  0.00    -0.200 F 
ATOM     61  F   UNL A   1      42.791  21.638  25.007  1.00  0.00    -0.200 F 
ENDBRANCH  27  51
BRANCH  39  62
ATOM     62  C   UNL A   1      45.127  31.007  28.740  1.00  0.00     0.064 A 
ATOM     63  C   UNL A   1      44.251  31.406  27.717  1.00  0.00     0.173 A 
ATOM     64  C   UNL A   1      46.427  31.529  28.722  1.00  0.00     0.173 A 
ATOM     65  F   UNL A   1      42.965  31.031  27.720  1.00  0.00    -0.203 F 
ATOM     66  C   UNL A   1      44.675  32.257  26.698  1.00  0.00     0.198 A 
ATOM     67  C   UNL A   1      46.836  32.408  27.726  1.00  0.00     0.198 A 
ATOM     68  F   UNL A   1      47.287  31.225  29.707  1.00  0.00    -0.203 F 
ATOM     69  F   UNL A   1      43.825  32.618  25.725  1.00  0.00    -0.200 F 
ATOM     70  C   UNL A   1      45.964  32.763  26.709  1.00  0.00     0.200 A 
ATOM     71  F   UNL A   1      48.067  32.937  27.769  1.00  0.00    -0.200 F 
ATOM     72  F   UNL A   1      46.359  33.619  25.754  1.00  0.00    -0.200 F 
ENDBRANCH  39  62
ENDBRANCH  13  14
ENDBRANCH   6   8
ENDBRANCH   3   4
ENDBRANCH   2   3
ENDBRANCH   1   2
BRANCH   1  73
ATOM     73  N   UNL A   1      32.589  26.009  26.310  1.00  0.00    -0.356 N 
ATOM     74  C   UNL A   1      32.942  24.712  26.213  1.00  0.00     0.224 C 
ATOM     75  H   UNL A   1      31.719  26.149  26.747  1.00  0.00     0.163 HD
ATOM     76  O   UNL A   1      32.107  23.931  26.684  1.00  0.00    -0.275 OA
BRANCH  74  77
ATOM     77  C   UNL A   1      34.162  24.188  25.473  1.00  0.00     0.098 C 
ATOM     78  C   UNL A   1      33.785  23.528  24.111  1.00  0.00     0.098 C 
ATOM     79  C   UNL A   1      35.347  23.386  26.103  1.00  0.00     0.025 C 
ATOM     80  C   UNL A   1      34.914  22.548  23.674  1.00  0.00     0.025 C 
ATOM     81  C   UNL A   1      35.215  21.885  25.952  1.00  0.00    -0.027 C 
ATOM     82  C   UNL A   1      36.586  23.705  25.215  1.00  0.00     0.009 C 
ATOM     83  C   UNL A   1      35.022  21.450  24.697  1.00  0.00    -0.027 C 
ATOM     84  C   UNL A   1      36.276  23.299  23.744  1.00  0.00     0.009 C 
BRANCH  78  85
ATOM     85  C   UNL A   1      32.365  22.974  23.804  1.00  0.00     0.228 C 
ATOM     86  O   UNL A   1      32.182  21.755  23.975  1.00  0.00    -0.274 OA
ATOM     87  N   UNL A   1      31.229  23.688  23.546  1.00  0.00    -0.326 N 
ATOM     88  H   UNL A   1      30.416  23.133  23.509  1.00  0.00     0.169 HD
BRANCH  87  89
ATOM     89  C   UNL A   1      30.989  25.045  23.323  1.00  0.00     0.041 A 
ATOM     90  C   UNL A   1      29.918  25.647  23.983  1.00  0.00     0.026 A 
ATOM     91  C   UNL A   1      31.740  25.807  22.439  1.00  0.00     0.026 A 
ATOM     92  C   UNL A   1      29.788  27.040  23.972  1.00  0.00     0.008 A 
ATOM     93  C   UNL A   1      31.616  27.196  22.413  1.00  0.00     0.008 A 
ATOM     94  C   UNL A   1      30.698  27.829  23.255  1.00  0.00    -0.026 A 
BRANCH  94  95
ATOM     95  C   UNL A   1      30.726  29.327  23.412  1.00  0.00     0.181 C 
BRANCH  95  96
ATOM     96  N   UNL A   1      29.532  29.942  22.881  1.00  0.00    -0.249 N 
ATOM     97  C   UNL A   1      28.716  30.833  23.500  1.00  0.00     0.220 A 
ATOM     98  N   UNL A   1      29.127  29.702  21.620  1.00  0.00    -0.160 NA
ATOM     99  N   UNL A   1      27.749  31.179  22.684  1.00  0.00    -0.224 NA
ATOM    100  C   UNL A   1      28.028  30.458  21.555  1.00  0.00     0.246 A 
ENDBRANCH  95  96
ENDBRANCH  94  95
ENDBRANCH  87  89
ENDBRANCH  78  85
ENDBRANCH  74  77
ENDBRANCH   1  73
TORSDOF 14
ENDMDL
MODEL 2
REMARK VINA RESULT:     -13.6      0.860      1.776
REMARK SMILES O=C(NCCCNC(=O)[C@@H]1[C@H](C(=O)Nc2ccc(Cn3cncn3)cc2)[C@@H]2C=C[C@H]1CC2)c1ccc(-c2c3nc(c(-c4c(F)c(F)c(F)c(F)c4F)c4ccc([nH]4)c(-c4c(F)c(F)c(F)c(F)c4F)c4nc(c(-c5c(F)c(F)c(F)c(F)c5F)c5ccc2[nH]5)C=C4)C=C3)cc1
REMARK SMILES IDX 6 1 5 2 4 3 3 4 1 5 2 6 33 8 34 9 95 10 35 11 94 12 36 13
REMARK SMILES IDX 37 14 38 15 88 16 39 17 93 18 87 19 89 20 40 21 92 22 86 23
REMARK SMILES IDX 85 24 41 26 73 27 53 28 72 29 54 30 57 31 71 32 90 33 55 34
REMARK SMILES IDX 56 35 70 37 91 38 58 39 42 40 43 41 51 42 44 43 45 44 49 45
REMARK SMILES IDX 52 46 46 47 47 48 50 49 48 50 74 51 75 52 83 53 76 54 77 55
REMARK SMILES IDX 81 56 84 57 78 58 79 59 82 60 80 61 59 62 60 63 68 64 61 65
REMARK SMILES IDX 62 66 66 67 69 68 63 69 64 70 67 71 65 72 7 73 8 74 9 76
REMARK SMILES IDX 10 77 11 78 30 79 27 80 29 81 31 82 28 83 32 84 12 85 13 86
REMARK SMILES IDX 14 87 15 89 16 90 26 91 17 92 25 93 18 94 19 95 20 96 21 97
REMARK SMILES IDX 24 98 22 99 23 100
REMARK H PARENT 3 7 89 25 57 36 7 75 14 88
REMARK Flexibility Score: inf
ROOT
ATOM      1  C   UNL A   1      33.380  27.311  25.892  1.00  0.00     0.117 C 
ENDROOT
BRANCH   1   2
ATOM      2  C   UNL A   1      33.050  28.468  26.826  1.00  0.00     0.042 C 
BRANCH   2   3
ATOM      3  C   UNL A   1      33.822  29.769  26.583  1.00  0.00     0.118 C 
BRANCH   3   4
ATOM      4  N   UNL A   1      33.665  30.796  27.591  1.00  0.00    -0.352 N 
ATOM      5  O   UNL A   1      34.183  32.567  28.821  1.00  0.00    -0.269 OA
ATOM      6  C   UNL A   1      34.565  31.488  28.355  1.00  0.00     0.251 C 
ATOM      7  H   UNL A   1      32.728  31.045  27.760  1.00  0.00     0.163 HD
BRANCH   6   8
ATOM      8  C   UNL A   1      35.907  30.979  28.748  1.00  0.00     0.039 A 
ATOM      9  C   UNL A   1      37.030  31.766  29.001  1.00  0.00     0.014 A 
ATOM     10  C   UNL A   1      36.050  29.580  28.765  1.00  0.00     0.014 A 
ATOM     11  C   UNL A   1      38.288  31.187  29.097  1.00  0.00     0.010 A 
ATOM     12  C   UNL A   1      37.297  28.989  28.906  1.00  0.00     0.010 A 
ATOM     13  C   UNL A   1      38.423  29.801  29.011  1.00  0.00    -0.014 A 
BRANCH  13  14
ATOM     14  C   UNL A   1      39.750  29.231  29.215  1.00  0.00     0.031 A 
ATOM     15  C   UNL A   1      40.145  29.112  30.647  1.00  0.00     0.074 A 
ATOM     16  C   UNL A   1      40.495  28.722  28.214  1.00  0.00     0.049 A 
ATOM     17  N   UNL A   1      41.177  29.615  31.245  1.00  0.00    -0.248 NA
ATOM     18  C   UNL A   1      39.203  28.436  31.555  1.00  0.00     0.031 C 
ATOM     19  C   UNL A   1      40.103  28.516  26.818  1.00  0.00     0.029 A 
ATOM     20  N   UNL A   1      41.742  28.171  28.264  1.00  0.00    -0.354 N 
ATOM     21  C   UNL A   1      41.106  29.179  32.568  1.00  0.00     0.074 A 
ATOM     22  C   UNL A   1      39.805  28.591  32.734  1.00  0.00     0.031 C 
ATOM     23  C   UNL A   1      40.987  27.682  26.226  1.00  0.00     0.029 A 
ATOM     24  C   UNL A   1      42.067  27.399  27.156  1.00  0.00     0.049 A 
ATOM     25  H   UNL A   1      42.358  28.308  29.019  1.00  0.00     0.167 HD
ATOM     26  C   UNL A   1      42.218  29.125  33.353  1.00  0.00     0.037 A 
ATOM     27  C   UNL A   1      43.104  26.529  27.047  1.00  0.00     0.037 A 
ATOM     28  C   UNL A   1      43.247  29.999  32.849  1.00  0.00     0.049 A 
ATOM     29  C   UNL A   1      44.085  26.863  28.109  1.00  0.00     0.074 A 
ATOM     30  C   UNL A   1      43.355  31.358  32.627  1.00  0.00     0.029 A 
ATOM     31  N   UNL A   1      44.299  29.434  32.174  1.00  0.00    -0.354 N 
ATOM     32  N   UNL A   1      44.806  27.947  28.122  1.00  0.00    -0.248 NA
ATOM     33  C   UNL A   1      43.949  26.185  29.389  1.00  0.00     0.031 C 
ATOM     34  C   UNL A   1      44.154  31.480  31.451  1.00  0.00     0.029 A 
ATOM     35  C   UNL A   1      44.525  30.193  31.060  1.00  0.00     0.049 A 
ATOM     36  H   UNL A   1      44.799  28.629  32.442  1.00  0.00     0.167 HD
ATOM     37  C   UNL A   1      44.840  28.326  29.455  1.00  0.00     0.074 A 
ATOM     38  C   UNL A   1      44.377  27.157  30.198  1.00  0.00     0.031 C 
ATOM     39  C   UNL A   1      44.963  29.639  29.804  1.00  0.00     0.037 A 
BRANCH  26  40
ATOM     40  C   UNL A   1      42.534  27.980  34.298  1.00  0.00     0.064 A 
ATOM     41  C   UNL A   1      43.130  26.815  33.765  1.00  0.00     0.173 A 
ATOM     42  C   UNL A   1      41.974  27.831  35.586  1.00  0.00     0.173 A 
ATOM     43  F   UNL A   1      43.719  26.837  32.560  1.00  0.00    -0.203 F 
ATOM     44  C   UNL A   1      43.026  25.574  34.399  1.00  0.00     0.198 A 
ATOM     45  C   UNL A   1      41.918  26.599  36.237  1.00  0.00     0.198 A 
ATOM     46  F   UNL A   1      41.364  28.830  36.230  1.00  0.00    -0.203 F 
ATOM     47  F   UNL A   1      43.460  24.472  33.772  1.00  0.00    -0.200 F 
ATOM     48  C   UNL A   1      42.401  25.463  35.625  1.00  0.00     0.200 A 
ATOM     49  F   UNL A   1      41.305  26.513  37.427  1.00  0.00    -0.200 F 
ATOM     50  F   UNL A   1      42.221  24.265  36.193  1.00  0.00    -0.200 F 
ENDBRANCH  26  40
BRANCH  27  51
ATOM     51  C   UNL A   1      43.156  25.241  26.312  1.00  0.00     0.064 A 
ATOM     52  C   UNL A   1      44.140  24.998  25.338  1.00  0.00     0.173 A 
ATOM     53  C   UNL A   1      42.420  24.121  26.746  1.00  0.00     0.173 A 
ATOM     54  F   UNL A   1      44.921  25.999  24.905  1.00  0.00    -0.203 F 
ATOM     55  C   UNL A   1      44.387  23.711  24.847  1.00  0.00     0.198 A 
ATOM     56  C   UNL A   1      42.661  22.839  26.250  1.00  0.00     0.198 A 
ATOM     57  F   UNL A   1      41.520  24.230  27.734  1.00  0.00    -0.203 F 
ATOM     58  F   UNL A   1      45.378  23.509  23.967  1.00  0.00    -0.200 F 
ATOM     59  C   UNL A   1      43.654  22.631  25.311  1.00  0.00     0.200 A 
ATOM     60  F   UNL A   1      41.971  21.798  26.735  1.00  0.00    -0.200 F 
ATOM     61  F   UNL A   1      43.930  21.391  24.887  1.00  0.00    -0.200 F 
ENDBRANCH  27  51
BRANCH  39  62
ATOM     62  C   UNL A   1      45.355  30.615  28.735  1.00  0.00     0.064 A 
ATOM     63  C   UNL A   1      44.446  31.219  27.850  1.00  0.00     0.173 A 
ATOM     64  C   UNL A   1      46.683  31.061  28.704  1.00  0.00     0.173 A 
ATOM     65  F   UNL A   1      43.141  30.920  27.888  1.00  0.00    -0.203 F 
ATOM     66  C   UNL A   1      44.862  32.194  26.945  1.00  0.00     0.198 A 
ATOM     67  C   UNL A   1      47.087  32.061  27.827  1.00  0.00     0.198 A 
ATOM     68  F   UNL A   1      47.581  30.558  29.566  1.00  0.00    -0.203 F 
ATOM     69  F   UNL A   1      43.979  32.750  26.102  1.00  0.00    -0.200 F 
ATOM     70  C   UNL A   1      46.180  32.619  26.941  1.00  0.00     0.200 A 
ATOM     71  F   UNL A   1      48.351  32.506  27.862  1.00  0.00    -0.200 F 
ATOM     72  F   UNL A   1      46.571  33.590  26.102  1.00  0.00    -0.200 F 
ENDBRANCH  39  62
ENDBRANCH  13  14
ENDBRANCH   6   8
ENDBRANCH   3   4
ENDBRANCH   2   3
ENDBRANCH   1   2
BRANCH   1  73
ATOM     73  N   UNL A   1      32.672  26.109  26.251  1.00  0.00    -0.356 N 
ATOM     74  C   UNL A   1      32.971  24.801  26.136  1.00  0.00     0.224 C 
ATOM     75  H   UNL A   1      31.793  26.278  26.663  1.00  0.00     0.163 HD
ATOM     76  O   UNL A   1      32.088  24.047  26.561  1.00  0.00    -0.275 OA
BRANCH  74  77
ATOM     77  C   UNL A   1      34.192  24.240  25.425  1.00  0.00     0.098 C 
ATOM     78  C   UNL A   1      33.820  23.544  24.078  1.00  0.00     0.098 C 
ATOM     79  C   UNL A   1      35.361  23.443  26.090  1.00  0.00     0.025 C 
ATOM     80  C   UNL A   1      34.942  22.539  23.683  1.00  0.00     0.025 C 
ATOM     81  C   UNL A   1      35.212  21.940  25.982  1.00  0.00    -0.027 C 
ATOM     82  C   UNL A   1      36.613  23.721  25.206  1.00  0.00     0.009 C 
ATOM     83  C   UNL A   1      35.025  21.470  24.739  1.00  0.00    -0.027 C 
ATOM     84  C   UNL A   1      36.312  23.274  23.745  1.00  0.00     0.009 C 
BRANCH  78  85
ATOM     85  C   UNL A   1      32.397  22.999  23.773  1.00  0.00     0.228 C 
ATOM     86  O   UNL A   1      32.206  21.782  23.949  1.00  0.00    -0.274 OA
ATOM     87  N   UNL A   1      31.266  23.719  23.512  1.00  0.00    -0.326 N 
ATOM     88  H   UNL A   1      30.450  23.170  23.477  1.00  0.00     0.169 HD
BRANCH  87  89
ATOM     89  C   UNL A   1      31.035  25.077  23.284  1.00  0.00     0.041 A 
ATOM     90  C   UNL A   1      29.951  25.682  23.918  1.00  0.00     0.026 A 
ATOM     91  C   UNL A   1      31.809  25.837  22.419  1.00  0.00     0.026 A 
ATOM     92  C   UNL A   1      29.825  27.075  23.905  1.00  0.00     0.008 A 
ATOM     93  C   UNL A   1      31.690  27.227  22.390  1.00  0.00     0.008 A 
ATOM     94  C   UNL A   1      30.754  27.862  23.210  1.00  0.00    -0.026 A 
BRANCH  94  95
ATOM     95  C   UNL A   1      30.782  29.359  23.368  1.00  0.00     0.181 C 
BRANCH  95  96
ATOM     96  N   UNL A   1      29.613  29.980  22.791  1.00  0.00    -0.249 N 
ATOM     97  C   UNL A   1      28.791  30.894  23.369  1.00  0.00     0.220 A 
ATOM     98  N   UNL A   1      29.242  29.722  21.523  1.00  0.00    -0.160 NA
ATOM     99  N   UNL A   1      27.853  31.237  22.518  1.00  0.00    -0.224 NA
ATOM    100  C   UNL A   1      28.155  30.491  21.411  1.00  0.00     0.246 A 
ENDBRANCH  95  96
ENDBRANCH  94  95
ENDBRANCH  87  89
ENDBRANCH  78  85
ENDBRANCH  74  77
ENDBRANCH   1  73
TORSDOF 14
ENDMDL
MODEL 3
REMARK VINA RESULT:     -13.5      2.035      4.665
REMARK SMILES O=C(NCCCNC(=O)[C@@H]1[C@H](C(=O)Nc2ccc(Cn3cncn3)cc2)[C@@H]2C=C[C@H]1CC2)c1ccc(-c2c3nc(c(-c4c(F)c(F)c(F)c(F)c4F)c4ccc([nH]4)c(-c4c(F)c(F)c(F)c(F)c4F)c4nc(c(-c5c(F)c(F)c(F)c(F)c5F)c5ccc2[nH]5)C=C4)C=C3)cc1
REMARK SMILES IDX 6 1 5 2 4 3 3 4 1 5 2 6 33 8 34 9 95 10 35 11 94 12 36 13
REMARK SMILES IDX 37 14 38 15 88 16 39 17 93 18 87 19 89 20 40 21 92 22 86 23
REMARK SMILES IDX 85 24 41 26 73 27 53 28 72 29 54 30 57 31 71 32 90 33 55 34
REMARK SMILES IDX 56 35 70 37 91 38 58 39 42 40 43 41 51 42 44 43 45 44 49 45
REMARK SMILES IDX 52 46 46 47 47 48 50 49 48 50 74 51 75 52 83 53 76 54 77 55
REMARK SMILES IDX 81 56 84 57 78 58 79 59 82 60 80 61 59 62 60 63 68 64 61 65
REMARK SMILES IDX 62 66 66 67 69 68 63 69 64 70 67 71 65 72 7 73 8 74 9 76
REMARK SMILES IDX 10 77 11 78 30 79 27 80 29 81 31 82 28 83 32 84 12 85 13 86
REMARK SMILES IDX 14 87 15 89 16 90 26 91 17 92 25 93 18 94 19 95 20 96 21 97
REMARK SMILES IDX 24 98 22 99 23 100
REMARK H PARENT 3 7 89 25 57 36 7 75 14 88
REMARK Flexibility Score: inf
ROOT
ATOM      1  C   UNL A   1      31.599  28.602  27.055  1.00  0.00     0.117 C 
ENDROOT
BRANCH   1   2
ATOM      2  C   UNL A   1      33.099  28.822  27.196  1.00  0.00     0.042 C 
BRANCH   2   3
ATOM      3  C   UNL A   1      33.608  30.226  26.851  1.00  0.00     0.118 C 
BRANCH   3   4
ATOM      4  N   UNL A   1      33.816  31.117  27.972  1.00  0.00    -0.352 N 
ATOM      5  O   UNL A   1      34.820  32.646  29.225  1.00  0.00    -0.269 OA
ATOM      6  C   UNL A   1      34.946  31.608  28.567  1.00  0.00     0.251 C 
ATOM      7  H   UNL A   1      32.980  31.432  28.387  1.00  0.00     0.163 HD
BRANCH   6   8
ATOM      8  C   UNL A   1      36.265  30.920  28.570  1.00  0.00     0.039 A 
ATOM      9  C   UNL A   1      36.486  29.588  28.224  1.00  0.00     0.014 A 
ATOM     10  C   UNL A   1      37.347  31.675  29.059  1.00  0.00     0.014 A 
ATOM     11  C   UNL A   1      37.698  28.975  28.515  1.00  0.00     0.010 A 
ATOM     12  C   UNL A   1      38.577  31.083  29.311  1.00  0.00     0.010 A 
ATOM     13  C   UNL A   1      38.729  29.717  29.093  1.00  0.00    -0.014 A 
BRANCH  13  14
ATOM     14  C   UNL A   1      40.014  29.057  29.291  1.00  0.00     0.031 A 
ATOM     15  C   UNL A   1      40.331  28.765  30.718  1.00  0.00     0.074 A 
ATOM     16  C   UNL A   1      40.781  28.616  28.275  1.00  0.00     0.049 A 
ATOM     17  N   UNL A   1      41.356  29.144  31.411  1.00  0.00    -0.248 NA
ATOM     18  C   UNL A   1      39.313  28.049  31.506  1.00  0.00     0.031 C 
ATOM     19  C   UNL A   1      40.448  28.581  26.849  1.00  0.00     0.029 A 
ATOM     20  N   UNL A   1      41.995  27.995  28.319  1.00  0.00    -0.354 N 
ATOM     21  C   UNL A   1      41.199  28.575  32.675  1.00  0.00     0.074 A 
ATOM     22  C   UNL A   1      39.863  28.045  32.719  1.00  0.00     0.031 C 
ATOM     23  C   UNL A   1      41.317  27.767  26.209  1.00  0.00     0.029 A 
ATOM     24  C   UNL A   1      42.334  27.327  27.149  1.00  0.00     0.049 A 
ATOM     25  H   UNL A   1      42.579  28.017  29.111  1.00  0.00     0.167 HD
ATOM     26  C   UNL A   1      42.267  28.377  33.498  1.00  0.00     0.037 A 
ATOM     27  C   UNL A   1      43.330  26.418  26.992  1.00  0.00     0.037 A 
ATOM     28  C   UNL A   1      43.362  29.241  33.136  1.00  0.00     0.049 A 
ATOM     29  C   UNL A   1      44.274  26.583  28.125  1.00  0.00     0.074 A 
ATOM     30  C   UNL A   1      43.549  30.608  33.068  1.00  0.00     0.029 A 
ATOM     31  N   UNL A   1      44.416  28.694  32.451  1.00  0.00    -0.354 N 
ATOM     32  N   UNL A   1      45.047  27.619  28.288  1.00  0.00    -0.248 NA
ATOM     33  C   UNL A   1      44.041  25.782  29.318  1.00  0.00     0.031 C 
ATOM     34  C   UNL A   1      44.409  30.809  31.948  1.00  0.00     0.029 A 
ATOM     35  C   UNL A   1      44.735  29.553  31.437  1.00  0.00     0.049 A 
ATOM     36  H   UNL A   1      44.861  27.839  32.651  1.00  0.00     0.167 HD
ATOM     37  C   UNL A   1      45.034  27.852  29.654  1.00  0.00     0.074 A 
ATOM     38  C   UNL A   1      44.477  26.638  30.245  1.00  0.00     0.031 C 
ATOM     39  C   UNL A   1      45.206  29.112  30.148  1.00  0.00     0.037 A 
BRANCH  26  40
ATOM     40  C   UNL A   1      42.478  27.122  34.326  1.00  0.00     0.064 A 
ATOM     41  C   UNL A   1      42.143  27.160  35.698  1.00  0.00     0.173 A 
ATOM     42  C   UNL A   1      43.298  26.040  33.939  1.00  0.00     0.173 A 
ATOM     43  F   UNL A   1      41.348  28.125  36.183  1.00  0.00    -0.203 F 
ATOM     44  C   UNL A   1      42.715  26.284  36.624  1.00  0.00     0.198 A 
ATOM     45  C   UNL A   1      43.826  25.137  34.861  1.00  0.00     0.198 A 
ATOM     46  F   UNL A   1      43.715  25.861  32.682  1.00  0.00    -0.203 F 
ATOM     47  F   UNL A   1      42.496  26.468  37.933  1.00  0.00    -0.200 F 
ATOM     48  C   UNL A   1      43.573  25.286  36.207  1.00  0.00     0.200 A 
ATOM     49  F   UNL A   1      44.659  24.175  34.435  1.00  0.00    -0.200 F 
ATOM     50  F   UNL A   1      44.191  24.501  37.098  1.00  0.00    -0.200 F 
ENDBRANCH  26  40
BRANCH  27  51
ATOM     51  C   UNL A   1      43.354  25.214  26.124  1.00  0.00     0.064 A 
ATOM     52  C   UNL A   1      44.426  24.970  25.248  1.00  0.00     0.173 A 
ATOM     53  C   UNL A   1      42.468  24.140  26.340  1.00  0.00     0.173 A 
ATOM     54  F   UNL A   1      45.346  25.921  25.026  1.00  0.00    -0.203 F 
ATOM     55  C   UNL A   1      44.611  23.721  24.645  1.00  0.00     0.198 A 
ATOM     56  C   UNL A   1      42.649  22.898  25.730  1.00  0.00     0.198 A 
ATOM     57  F   UNL A   1      41.465  24.243  27.224  1.00  0.00    -0.203 F 
ATOM     58  F   UNL A   1      45.681  23.505  23.866  1.00  0.00    -0.200 F 
ATOM     59  C   UNL A   1      43.728  22.684  24.894  1.00  0.00     0.200 A 
ATOM     60  F   UNL A   1      41.808  21.893  26.011  1.00  0.00    -0.200 F 
ATOM     61  F   UNL A   1      43.938  21.471  24.365  1.00  0.00    -0.200 F 
ENDBRANCH  27  51
BRANCH  39  62
ATOM     62  C   UNL A   1      45.698  30.173  29.209  1.00  0.00     0.064 A 
ATOM     63  C   UNL A   1      47.055  30.412  28.935  1.00  0.00     0.173 A 
ATOM     64  C   UNL A   1      44.750  30.875  28.453  1.00  0.00     0.173 A 
ATOM     65  F   UNL A   1      48.019  29.708  29.543  1.00  0.00    -0.203 F 
ATOM     66  C   UNL A   1      47.442  31.346  27.976  1.00  0.00     0.198 A 
ATOM     67  C   UNL A   1      45.139  31.778  27.471  1.00  0.00     0.198 A 
ATOM     68  F   UNL A   1      43.440  30.644  28.635  1.00  0.00    -0.203 F 
ATOM     69  F   UNL A   1      48.743  31.566  27.737  1.00  0.00    -0.200 F 
ATOM     70  C   UNL A   1      46.483  32.022  27.239  1.00  0.00     0.200 A 
ATOM     71  F   UNL A   1      44.208  32.391  26.725  1.00  0.00    -0.200 F 
ATOM     72  F   UNL A   1      46.855  32.887  26.285  1.00  0.00    -0.200 F 
ENDBRANCH  39  62
ENDBRANCH  13  14
ENDBRANCH   6   8
ENDBRANCH   3   4
ENDBRANCH   2   3
ENDBRANCH   1   2
BRANCH   1  73
ATOM     73  N   UNL A   1      31.243  27.213  27.189  1.00  0.00    -0.356 N 
ATOM     74  C   UNL A   1      31.191  26.192  26.311  1.00  0.00     0.224 C 
ATOM     75  H   UNL A   1      30.986  26.958  28.105  1.00  0.00     0.163 HD
ATOM     76  O   UNL A   1      30.824  25.122  26.810  1.00  0.00    -0.275 OA
BRANCH  74  77
ATOM     77  C   UNL A   1      31.403  26.315  24.810  1.00  0.00     0.098 C 
ATOM     78  C   UNL A   1      32.671  25.542  24.331  1.00  0.00     0.098 C 
ATOM     79  C   UNL A   1      31.268  27.622  23.965  1.00  0.00     0.025 C 
ATOM     80  C   UNL A   1      33.156  26.126  22.971  1.00  0.00     0.025 C 
ATOM     81  C   UNL A   1      32.586  28.326  23.718  1.00  0.00    -0.027 C 
ATOM     82  C   UNL A   1      30.863  27.156  22.535  1.00  0.00     0.009 C 
ATOM     83  C   UNL A   1      33.551  27.564  23.178  1.00  0.00    -0.027 C 
ATOM     84  C   UNL A   1      31.946  26.178  21.993  1.00  0.00     0.009 C 
BRANCH  78  85
ATOM     85  C   UNL A   1      33.849  25.180  25.277  1.00  0.00     0.228 C 
ATOM     86  O   UNL A   1      34.424  26.122  25.854  1.00  0.00    -0.274 OA
ATOM     87  N   UNL A   1      34.222  23.939  25.709  1.00  0.00    -0.326 N 
ATOM     88  H   UNL A   1      34.916  23.957  26.408  1.00  0.00     0.169 HD
BRANCH  87  89
ATOM     89  C   UNL A   1      33.819  22.649  25.358  1.00  0.00     0.041 A 
ATOM     90  C   UNL A   1      32.473  22.313  25.500  1.00  0.00     0.026 A 
ATOM     91  C   UNL A   1      34.706  21.676  24.919  1.00  0.00     0.026 A 
ATOM     92  C   UNL A   1      31.991  21.124  24.943  1.00  0.00     0.008 A 
ATOM     93  C   UNL A   1      34.240  20.483  24.367  1.00  0.00     0.008 A 
ATOM     94  C   UNL A   1      32.865  20.242  24.292  1.00  0.00    -0.026 A 
BRANCH  94  95
ATOM     95  C   UNL A   1      32.345  19.080  23.487  1.00  0.00     0.181 C 
BRANCH  95  96
ATOM     96  N   UNL A   1      32.681  17.815  24.096  1.00  0.00    -0.249 N 
ATOM     97  C   UNL A   1      33.515  16.860  23.611  1.00  0.00     0.220 A 
ATOM     98  N   UNL A   1      32.198  17.475  25.305  1.00  0.00    -0.160 NA
ATOM     99  N   UNL A   1      33.582  15.865  24.464  1.00  0.00    -0.224 NA
ATOM    100  C   UNL A   1      32.755  16.273  25.476  1.00  0.00     0.246 A 
ENDBRANCH  95  96
ENDBRANCH  94  95
ENDBRANCH  87  89
ENDBRANCH  78  85
ENDBRANCH  74  77
ENDBRANCH   1  73
TORSDOF 14
ENDMDL
