MODEL 1
REMARK VINA RESULT:     -14.0      0.000      0.000
REMARK SMILES Cc1ccc(C)c(/C=C2\SC(=S)N(CC(=O)NCCCNC(=O)c3ccc(-c4c5nc(c(-c6c(F)c(F)c(F)c(F)c6F)c6ccc([nH]6)c(-c6c(F)c(F)c(F)c(F)c6F)c6nc(c(-c7c(F)c(F)c(F)c(F)c7F)c7ccc4[nH]7)C=C6)C=C5)cc3)C2=O)c1
REMARK SMILES IDX 19 1 18 2 17 3 15 4 16 5 14 7 13 8 8 9 9 10 10 11 87 12
REMARK SMILES IDX 11 13 88 14 12 15 7 16 1 17 2 18 3 19 89 20 4 21 5 22 6 23
REMARK SMILES IDX 20 24 21 25 22 26 23 28 24 29 25 30 86 31 26 32 85 33 27 34
REMARK SMILES IDX 28 35 29 36 79 37 30 38 84 39 78 40 80 41 31 42 83 43 77 44
REMARK SMILES IDX 76 45 32 47 64 48 44 49 63 50 45 51 48 52 62 53 81 54 46 55
REMARK SMILES IDX 47 56 61 58 82 59 49 60 33 61 34 62 42 63 35 64 36 65 40 66
REMARK SMILES IDX 43 67 37 68 38 69 41 70 39 71 65 72 66 73 74 74 67 75 68 76
REMARK SMILES IDX 72 77 75 78 69 79 70 80 73 81 71 82 50 83 51 84 59 85 52 86
REMARK SMILES IDX 53 87 57 88 60 89 54 90 55 91 58 92 56 93
REMARK H PARENT 17 6 21 27 80 46 48 57
REMARK Flexibility Score: inf
ROOT
ATOM      1  C   UNL A   1      32.147  30.539  26.791  1.00  0.00     0.042 C 
ENDROOT
BRANCH   1   2
ATOM      2  C   UNL A   1      31.882  30.051  25.363  1.00  0.00     0.117 C 
BRANCH   2   3
ATOM      3  N   UNL A   1      33.072  29.717  24.600  1.00  0.00    -0.354 N 
ATOM      4  C   UNL A   1      33.204  28.913  23.500  1.00  0.00     0.240 C 
ATOM      5  O   UNL A   1      34.164  29.139  22.758  1.00  0.00    -0.273 OA
ATOM      6  H   UNL A   1      33.907  30.129  24.921  1.00  0.00     0.163 HD
BRANCH   4   7
ATOM      7  C   UNL A   1      32.140  27.878  23.112  1.00  0.00     0.227 C 
BRANCH   7   8
ATOM      8  N   UNL A   1      32.411  26.553  23.661  1.00  0.00    -0.283 N 
ATOM      9  C   UNL A   1      34.159  23.434  23.104  1.00  0.00     0.029 C 
ATOM     10  C   UNL A   1      33.393  24.410  23.615  1.00  0.00     0.081 C 
ATOM     11  S   UNL A   1      32.559  24.440  25.116  1.00  0.00    -0.054 SA
ATOM     12  C   UNL A   1      33.190  25.695  22.900  1.00  0.00     0.266 C 
ATOM     13  C   UNL A   1      31.863  26.024  24.808  1.00  0.00     0.148 C 
ATOM     14  O   UNL A   1      33.662  25.939  21.799  1.00  0.00    -0.268 OA
ATOM     15  S   UNL A   1      30.711  26.686  25.815  1.00  0.00    -0.052 S 
BRANCH   9  16
ATOM     16  C   UNL A   1      34.486  22.159  23.764  1.00  0.00    -0.021 A 
ATOM     17  C   UNL A   1      32.625  18.964  24.719  1.00  0.00     0.044 C 
ATOM     18  C   UNL A   1      33.721  19.972  24.550  1.00  0.00    -0.051 A 
ATOM     19  C   UNL A   1      34.986  19.735  25.086  1.00  0.00     0.004 A 
ATOM     20  C   UNL A   1      33.491  21.173  23.870  1.00  0.00     0.011 A 
ATOM     21  C   UNL A   1      36.000  20.684  24.946  1.00  0.00     0.004 A 
ATOM     22  C   UNL A   1      35.768  21.904  24.288  1.00  0.00    -0.044 A 
ATOM     23  C   UNL A   1      36.918  22.871  24.201  1.00  0.00     0.045 C 
ENDBRANCH   9  16
ENDBRANCH   7   8
ENDBRANCH   4   7
ENDBRANCH   2   3
ENDBRANCH   1   2
BRANCH   1  24
ATOM     24  C   UNL A   1      33.598  30.488  27.268  1.00  0.00     0.118 C 
BRANCH  24  25
ATOM     25  N   UNL A   1      33.914  31.511  28.274  1.00  0.00    -0.352 N 
ATOM     26  C   UNL A   1      34.968  31.708  29.160  1.00  0.00     0.251 C 
ATOM     27  H   UNL A   1      33.226  32.213  28.335  1.00  0.00     0.163 HD
ATOM     28  O   UNL A   1      34.830  32.483  30.085  1.00  0.00    -0.269 OA
BRANCH  26  29
ATOM     29  C   UNL A   1      36.253  30.989  28.998  1.00  0.00     0.039 A 
ATOM     30  C   UNL A   1      36.389  29.810  28.251  1.00  0.00     0.014 A 
ATOM     31  C   UNL A   1      37.368  31.492  29.626  1.00  0.00     0.014 A 
ATOM     32  C   UNL A   1      37.629  29.157  28.248  1.00  0.00     0.010 A 
ATOM     33  C   UNL A   1      38.600  31.138  29.186  1.00  0.00     0.010 A 
ATOM     34  C   UNL A   1      38.729  29.831  28.782  1.00  0.00    -0.014 A 
BRANCH  34  35
ATOM     35  C   UNL A   1      40.044  29.255  29.019  1.00  0.00     0.031 A 
ATOM     36  C   UNL A   1      40.371  29.000  30.433  1.00  0.00     0.074 A 
ATOM     37  C   UNL A   1      40.741  28.621  28.044  1.00  0.00     0.049 A 
ATOM     38  N   UNL A   1      41.277  29.566  31.155  1.00  0.00    -0.248 NA
ATOM     39  C   UNL A   1      39.504  28.069  31.171  1.00  0.00     0.031 C 
ATOM     40  C   UNL A   1      40.345  28.356  26.652  1.00  0.00     0.029 A 
ATOM     41  N   UNL A   1      41.927  27.958  28.144  1.00  0.00    -0.354 N 
ATOM     42  C   UNL A   1      41.203  28.946  32.398  1.00  0.00     0.074 A 
ATOM     43  C   UNL A   1      39.964  28.217  32.412  1.00  0.00     0.031 C 
ATOM     44  C   UNL A   1      41.182  27.442  26.107  1.00  0.00     0.029 A 
ATOM     45  C   UNL A   1      42.247  27.158  27.054  1.00  0.00     0.049 A 
ATOM     46  H   UNL A   1      42.515  28.040  28.929  1.00  0.00     0.167 HD
ATOM     47  C   UNL A   1      42.282  28.873  33.224  1.00  0.00     0.037 A 
ATOM     48  C   UNL A   1      43.290  26.295  26.965  1.00  0.00     0.037 A 
ATOM     49  C   UNL A   1      43.333  29.760  32.785  1.00  0.00     0.049 A 
ATOM     50  C   UNL A   1      44.250  26.649  28.044  1.00  0.00     0.074 A 
ATOM     51  C   UNL A   1      43.419  31.120  32.556  1.00  0.00     0.029 A 
ATOM     52  N   UNL A   1      44.416  29.209  32.142  1.00  0.00    -0.354 N 
ATOM     53  N   UNL A   1      44.962  27.742  28.066  1.00  0.00    -0.248 NA
ATOM     54  C   UNL A   1      44.107  25.974  29.325  1.00  0.00     0.031 C 
ATOM     55  C   UNL A   1      44.242  31.248  31.398  1.00  0.00     0.029 A 
ATOM     56  C   UNL A   1      44.650  29.967  31.023  1.00  0.00     0.049 A 
ATOM     57  H   UNL A   1      44.927  28.419  32.429  1.00  0.00     0.167 HD
ATOM     58  C   UNL A   1      44.998  28.114  29.402  1.00  0.00     0.074 A 
ATOM     59  C   UNL A   1      44.550  26.937  30.139  1.00  0.00     0.031 C 
ATOM     60  C   UNL A   1      45.105  29.426  29.763  1.00  0.00     0.037 A 
BRANCH  47  61
ATOM     61  C   UNL A   1      42.530  27.766  34.221  1.00  0.00     0.064 A 
ATOM     62  C   UNL A   1      43.107  26.563  33.767  1.00  0.00     0.173 A 
ATOM     63  C   UNL A   1      42.000  27.724  35.529  1.00  0.00     0.173 A 
ATOM     64  F   UNL A   1      43.629  26.478  32.534  1.00  0.00    -0.203 F 
ATOM     65  C   UNL A   1      43.080  25.394  34.531  1.00  0.00     0.198 A 
ATOM     66  C   UNL A   1      42.035  26.573  36.315  1.00  0.00     0.198 A 
ATOM     67  F   UNL A   1      41.326  28.746  36.066  1.00  0.00    -0.203 F 
ATOM     68  F   UNL A   1      43.521  24.245  34.002  1.00  0.00    -0.200 F 
ATOM     69  C   UNL A   1      42.542  25.399  35.804  1.00  0.00     0.200 A 
ATOM     70  F   UNL A   1      41.498  26.598  37.543  1.00  0.00    -0.200 F 
ATOM     71  F   UNL A   1      42.465  24.269  36.517  1.00  0.00    -0.200 F 
ENDBRANCH  47  61
BRANCH  48  72
ATOM     72  C   UNL A   1      43.421  25.048  26.173  1.00  0.00     0.064 A 
ATOM     73  C   UNL A   1      44.459  24.880  25.242  1.00  0.00     0.173 A 
ATOM     74  C   UNL A   1      42.684  23.893  26.499  1.00  0.00     0.173 A 
ATOM     75  F   UNL A   1      45.240  25.917  24.907  1.00  0.00    -0.203 F 
ATOM     76  C   UNL A   1      44.757  23.629  24.688  1.00  0.00     0.198 A 
ATOM     77  C   UNL A   1      42.975  22.646  25.939  1.00  0.00     0.198 A 
ATOM     78  F   UNL A   1      41.734  23.932  27.443  1.00  0.00    -0.203 F 
ATOM     79  F   UNL A   1      45.796  23.497  23.853  1.00  0.00    -0.200 F 
ATOM     80  C   UNL A   1      44.020  22.513  25.044  1.00  0.00     0.200 A 
ATOM     81  F   UNL A   1      42.279  21.566  26.321  1.00  0.00    -0.200 F 
ATOM     82  F   UNL A   1      44.343  21.304  24.561  1.00  0.00    -0.200 F 
ENDBRANCH  48  72
BRANCH  60  83
ATOM     83  C   UNL A   1      45.467  30.420  28.695  1.00  0.00     0.064 A 
ATOM     84  C   UNL A   1      44.524  31.061  27.874  1.00  0.00     0.173 A 
ATOM     85  C   UNL A   1      46.796  30.852  28.607  1.00  0.00     0.173 A 
ATOM     86  F   UNL A   1      43.220  30.780  27.973  1.00  0.00    -0.203 F 
ATOM     87  C   UNL A   1      44.903  32.057  26.977  1.00  0.00     0.198 A 
ATOM     88  C   UNL A   1      47.167  31.874  27.737  1.00  0.00     0.198 A 
ATOM     89  F   UNL A   1      47.732  30.316  29.408  1.00  0.00    -0.203 F 
ATOM     90  F   UNL A   1      43.982  32.648  26.200  1.00  0.00    -0.200 F 
ATOM     91  C   UNL A   1      46.223  32.469  26.916  1.00  0.00     0.200 A 
ATOM     92  F   UNL A   1      48.437  32.303  27.716  1.00  0.00    -0.200 F 
ATOM     93  F   UNL A   1      46.581  33.460  26.087  1.00  0.00    -0.200 F 
ENDBRANCH  60  83
ENDBRANCH  34  35
ENDBRANCH  26  29
ENDBRANCH  24  25
ENDBRANCH   1  24
TORSDOF 12
ENDMDL
MODEL 2
REMARK VINA RESULT:     -13.9      3.135      8.875
REMARK SMILES Cc1ccc(C)c(/C=C2\SC(=S)N(CC(=O)NCCCNC(=O)c3ccc(-c4c5nc(c(-c6c(F)c(F)c(F)c(F)c6F)c6ccc([nH]6)c(-c6c(F)c(F)c(F)c(F)c6F)c6nc(c(-c7c(F)c(F)c(F)c(F)c7F)c7ccc4[nH]7)C=C6)C=C5)cc3)C2=O)c1
REMARK SMILES IDX 19 1 18 2 17 3 15 4 16 5 14 7 13 8 8 9 9 10 10 11 87 12
REMARK SMILES IDX 11 13 88 14 12 15 7 16 1 17 2 18 3 19 89 20 4 21 5 22 6 23
REMARK SMILES IDX 20 24 21 25 22 26 23 28 24 29 25 30 86 31 26 32 85 33 27 34
REMARK SMILES IDX 28 35 29 36 79 37 30 38 84 39 78 40 80 41 31 42 83 43 77 44
REMARK SMILES IDX 76 45 32 47 64 48 44 49 63 50 45 51 48 52 62 53 81 54 46 55
REMARK SMILES IDX 47 56 61 58 82 59 49 60 33 61 34 62 42 63 35 64 36 65 40 66
REMARK SMILES IDX 43 67 37 68 38 69 41 70 39 71 65 72 66 73 74 74 67 75 68 76
REMARK SMILES IDX 72 77 75 78 69 79 70 80 73 81 71 82 50 83 51 84 59 85 52 86
REMARK SMILES IDX 53 87 57 88 60 89 54 90 55 91 58 92 56 93
REMARK H PARENT 17 6 21 27 80 46 48 57
REMARK Flexibility Score: inf
ROOT
ATOM      1  C   UNL A   1      37.401  20.946  24.777  1.00  0.00     0.042 C 
ENDROOT
BRANCH   1   2
ATOM      2  C   UNL A   1      35.925  20.699  25.108  1.00  0.00     0.117 C 
BRANCH   2   3
ATOM      3  N   UNL A   1      35.494  21.212  26.397  1.00  0.00    -0.354 N 
ATOM      4  C   UNL A   1      34.251  21.619  26.801  1.00  0.00     0.240 C 
ATOM      5  O   UNL A   1      34.013  21.563  28.011  1.00  0.00    -0.273 OA
ATOM      6  H   UNL A   1      36.199  21.277  27.081  1.00  0.00     0.163 HD
BRANCH   4   7
ATOM      7  C   UNL A   1      33.147  21.985  25.801  1.00  0.00     0.227 C 
BRANCH   7   8
ATOM      8  N   UNL A   1      33.102  23.415  25.505  1.00  0.00    -0.283 N 
ATOM      9  C   UNL A   1      31.756  26.602  26.562  1.00  0.00     0.029 C 
ATOM     10  C   UNL A   1      32.398  25.630  25.897  1.00  0.00     0.081 C 
ATOM     11  S   UNL A   1      33.438  25.771  24.537  1.00  0.00    -0.054 SA
ATOM     12  C   UNL A   1      32.304  24.208  26.313  1.00  0.00     0.266 C 
ATOM     13  C   UNL A   1      33.678  24.034  24.418  1.00  0.00     0.148 C 
ATOM     14  O   UNL A   1      31.619  23.821  27.248  1.00  0.00    -0.268 OA
ATOM     15  S   UNL A   1      34.488  23.348  23.133  1.00  0.00    -0.052 S 
BRANCH   9  16
ATOM     16  C   UNL A   1      31.843  28.044  26.280  1.00  0.00    -0.021 A 
ATOM     17  C   UNL A   1      33.535  31.088  27.847  1.00  0.00     0.044 C 
ATOM     18  C   UNL A   1      32.722  30.236  26.920  1.00  0.00    -0.051 A 
ATOM     19  C   UNL A   1      32.000  30.818  25.879  1.00  0.00     0.004 A 
ATOM     20  C   UNL A   1      32.657  28.850  27.095  1.00  0.00     0.011 A 
ATOM     21  C   UNL A   1      31.226  30.025  25.030  1.00  0.00     0.004 A 
ATOM     22  C   UNL A   1      31.135  28.635  25.216  1.00  0.00    -0.044 A 
ATOM     23  C   UNL A   1      30.262  27.866  24.259  1.00  0.00     0.045 C 
ENDBRANCH   9  16
ENDBRANCH   7   8
ENDBRANCH   4   7
ENDBRANCH   2   3
ENDBRANCH   1   2
BRANCH   1  24
ATOM     24  C   UNL A   1      38.174  21.840  25.746  1.00  0.00     0.118 C 
BRANCH  24  25
ATOM     25  N   UNL A   1      39.603  21.507  25.826  1.00  0.00    -0.352 N 
ATOM     26  C   UNL A   1      40.749  22.222  26.157  1.00  0.00     0.251 C 
ATOM     27  H   UNL A   1      39.791  20.569  25.594  1.00  0.00     0.163 HD
ATOM     28  O   UNL A   1      41.837  21.773  25.858  1.00  0.00    -0.269 OA
BRANCH  26  29
ATOM     29  C   UNL A   1      40.667  23.522  26.864  1.00  0.00     0.039 A 
ATOM     30  C   UNL A   1      39.570  24.389  26.759  1.00  0.00     0.014 A 
ATOM     31  C   UNL A   1      41.727  23.906  27.652  1.00  0.00     0.014 A 
ATOM     32  C   UNL A   1      39.641  25.639  27.390  1.00  0.00     0.010 A 
ATOM     33  C   UNL A   1      41.538  24.838  28.618  1.00  0.00     0.010 A 
ATOM     34  C   UNL A   1      40.686  25.864  28.289  1.00  0.00    -0.014 A 
BRANCH  34  35
ATOM     35  C   UNL A   1      41.017  27.141  28.903  1.00  0.00     0.031 A 
ATOM     36  C   UNL A   1      42.198  27.820  28.339  1.00  0.00     0.074 A 
ATOM     37  C   UNL A   1      40.115  27.852  29.623  1.00  0.00     0.049 A 
ATOM     38  N   UNL A   1      43.327  28.062  28.913  1.00  0.00    -0.248 NA
ATOM     39  C   UNL A   1      42.156  28.179  26.913  1.00  0.00     0.031 C 
ATOM     40  C   UNL A   1      38.703  27.542  29.894  1.00  0.00     0.029 A 
ATOM     41  N   UNL A   1      40.255  29.093  30.169  1.00  0.00    -0.354 N 
ATOM     42  C   UNL A   1      44.083  28.752  27.971  1.00  0.00     0.074 A 
ATOM     43  C   UNL A   1      43.407  28.587  26.713  1.00  0.00     0.031 C 
ATOM     44  C   UNL A   1      38.082  28.641  30.384  1.00  0.00     0.029 A 
ATOM     45  C   UNL A   1      39.071  29.686  30.590  1.00  0.00     0.049 A 
ATOM     46  H   UNL A   1      41.129  29.536  30.259  1.00  0.00     0.167 HD
ATOM     47  C   UNL A   1      45.067  29.616  28.340  1.00  0.00     0.037 A 
ATOM     48  C   UNL A   1      38.919  30.960  31.032  1.00  0.00     0.037 A 
ATOM     49  C   UNL A   1      45.397  29.461  29.737  1.00  0.00     0.049 A 
ATOM     50  C   UNL A   1      40.272  31.472  31.378  1.00  0.00     0.074 A 
ATOM     51  C   UNL A   1      45.831  28.405  30.518  1.00  0.00     0.029 A 
ATOM     52  N   UNL A   1      44.926  30.403  30.620  1.00  0.00    -0.354 N 
ATOM     53  N   UNL A   1      40.984  31.046  32.385  1.00  0.00    -0.248 NA
ATOM     54  C   UNL A   1      41.016  32.170  30.340  1.00  0.00     0.031 C 
ATOM     55  C   UNL A   1      45.149  28.561  31.761  1.00  0.00     0.029 A 
ATOM     56  C   UNL A   1      44.383  29.725  31.683  1.00  0.00     0.049 A 
ATOM     57  H   UNL A   1      44.969  31.380  30.512  1.00  0.00     0.167 HD
ATOM     58  C   UNL A   1      42.291  31.048  31.919  1.00  0.00     0.074 A 
ATOM     59  C   UNL A   1      42.262  31.848  30.699  1.00  0.00     0.031 C 
ATOM     60  C   UNL A   1      43.211  30.163  32.404  1.00  0.00     0.037 A 
BRANCH  47  61
ATOM     61  C   UNL A   1      45.493  30.827  27.545  1.00  0.00     0.064 A 
ATOM     62  C   UNL A   1      46.857  30.985  27.231  1.00  0.00     0.173 A 
ATOM     63  C   UNL A   1      44.684  31.960  27.303  1.00  0.00     0.173 A 
ATOM     64  F   UNL A   1      47.725  29.983  27.433  1.00  0.00    -0.203 F 
ATOM     65  C   UNL A   1      47.379  32.203  26.788  1.00  0.00     0.198 A 
ATOM     66  C   UNL A   1      45.197  33.153  26.799  1.00  0.00     0.198 A 
ATOM     67  F   UNL A   1      43.392  32.008  27.648  1.00  0.00    -0.203 F 
ATOM     68  F   UNL A   1      48.703  32.340  26.631  1.00  0.00    -0.200 F 
ATOM     69  C   UNL A   1      46.549  33.287  26.574  1.00  0.00     0.200 A 
ATOM     70  F   UNL A   1      44.375  34.195  26.609  1.00  0.00    -0.200 F 
ATOM     71  F   UNL A   1      47.053  34.470  26.204  1.00  0.00    -0.200 F 
ENDBRANCH  47  61
BRANCH  48  72
ATOM     72  C   UNL A   1      37.734  31.848  30.967  1.00  0.00     0.064 A 
ATOM     73  C   UNL A   1      37.348  32.464  29.765  1.00  0.00     0.173 A 
ATOM     74  C   UNL A   1      36.803  31.905  32.022  1.00  0.00     0.173 A 
ATOM     75  F   UNL A   1      38.155  32.419  28.694  1.00  0.00    -0.203 F 
ATOM     76  C   UNL A   1      36.099  33.080  29.620  1.00  0.00     0.198 A 
ATOM     77  C   UNL A   1      35.560  32.528  31.881  1.00  0.00     0.198 A 
ATOM     78  F   UNL A   1      37.039  31.270  33.178  1.00  0.00    -0.203 F 
ATOM     79  F   UNL A   1      35.743  33.599  28.437  1.00  0.00    -0.200 F 
ATOM     80  C   UNL A   1      35.204  33.104  30.675  1.00  0.00     0.200 A 
ATOM     81  F   UNL A   1      34.687  32.511  32.897  1.00  0.00    -0.200 F 
ATOM     82  F   UNL A   1      33.985  33.639  30.519  1.00  0.00    -0.200 F 
ENDBRANCH  48  72
BRANCH  60  83
ATOM     83  C   UNL A   1      42.853  29.388  33.641  1.00  0.00     0.064 A 
ATOM     84  C   UNL A   1      42.152  28.170  33.624  1.00  0.00     0.173 A 
ATOM     85  C   UNL A   1      43.373  29.814  34.870  1.00  0.00     0.173 A 
ATOM     86  F   UNL A   1      41.715  27.642  32.475  1.00  0.00    -0.203 F 
ATOM     87  C   UNL A   1      41.946  27.436  34.790  1.00  0.00     0.198 A 
ATOM     88  C   UNL A   1      43.198  29.060  36.028  1.00  0.00     0.198 A 
ATOM     89  F   UNL A   1      44.100  30.941  34.938  1.00  0.00    -0.203 F 
ATOM     90  F   UNL A   1      41.267  26.280  34.745  1.00  0.00    -0.200 F 
ATOM     91  C   UNL A   1      42.476  27.878  35.990  1.00  0.00     0.200 A 
ATOM     92  F   UNL A   1      43.755  29.466  37.177  1.00  0.00    -0.200 F 
ATOM     93  F   UNL A   1      42.319  27.150  37.103  1.00  0.00    -0.200 F 
ENDBRANCH  60  83
ENDBRANCH  34  35
ENDBRANCH  26  29
ENDBRANCH  24  25
ENDBRANCH   1  24
TORSDOF 12
ENDMDL
MODEL 3
REMARK VINA RESULT:     -13.7      0.387      1.634
REMARK SMILES Cc1ccc(C)c(/C=C2\SC(=S)N(CC(=O)NCCCNC(=O)c3ccc(-c4c5nc(c(-c6c(F)c(F)c(F)c(F)c6F)c6ccc([nH]6)c(-c6c(F)c(F)c(F)c(F)c6F)c6nc(c(-c7c(F)c(F)c(F)c(F)c7F)c7ccc4[nH]7)C=C6)C=C5)cc3)C2=O)c1
REMARK SMILES IDX 19 1 18 2 17 3 15 4 16 5 14 7 13 8 8 9 9 10 10 11 87 12
REMARK SMILES IDX 11 13 88 14 12 15 7 16 1 17 2 18 3 19 89 20 4 21 5 22 6 23
REMARK SMILES IDX 20 24 21 25 22 26 23 28 24 29 25 30 86 31 26 32 85 33 27 34
REMARK SMILES IDX 28 35 29 36 79 37 30 38 84 39 78 40 80 41 31 42 83 43 77 44
REMARK SMILES IDX 76 45 32 47 64 48 44 49 63 50 45 51 48 52 62 53 81 54 46 55
REMARK SMILES IDX 47 56 61 58 82 59 49 60 33 61 34 62 42 63 35 64 36 65 40 66
REMARK SMILES IDX 43 67 37 68 38 69 41 70 39 71 65 72 66 73 74 74 67 75 68 76
REMARK SMILES IDX 72 77 75 78 69 79 70 80 73 81 71 82 50 83 51 84 59 85 52 86
REMARK SMILES IDX 53 87 57 88 60 89 54 90 55 91 58 92 56 93
REMARK H PARENT 17 6 21 27 80 46 48 57
REMARK Flexibility Score: inf
ROOT
ATOM      1  C   UNL A   1      32.295  30.826  26.717  1.00  0.00     0.042 C 
ENDROOT
BRANCH   1   2
ATOM      2  C   UNL A   1      31.960  30.039  25.447  1.00  0.00     0.117 C 
BRANCH   2   3
ATOM      3  N   UNL A   1      33.103  29.714  24.610  1.00  0.00    -0.354 N 
ATOM      4  C   UNL A   1      33.171  28.917  23.499  1.00  0.00     0.240 C 
ATOM      5  O   UNL A   1      34.082  29.152  22.701  1.00  0.00    -0.273 OA
ATOM      6  H   UNL A   1      33.954  30.129  24.881  1.00  0.00     0.163 HD
BRANCH   4   7
ATOM      7  C   UNL A   1      32.089  27.879  23.172  1.00  0.00     0.227 C 
BRANCH   7   8
ATOM      8  N   UNL A   1      32.391  26.557  23.715  1.00  0.00    -0.283 N 
ATOM      9  C   UNL A   1      34.135  23.448  23.101  1.00  0.00     0.029 C 
ATOM     10  C   UNL A   1      33.384  24.420  23.637  1.00  0.00     0.081 C 
ATOM     11  S   UNL A   1      32.607  24.451  25.170  1.00  0.00    -0.054 SA
ATOM     12  C   UNL A   1      33.145  25.701  22.927  1.00  0.00     0.266 C 
ATOM     13  C   UNL A   1      31.890  26.029  24.883  1.00  0.00     0.148 C 
ATOM     14  O   UNL A   1      33.572  25.945  21.808  1.00  0.00    -0.268 OA
ATOM     15  S   UNL A   1      30.773  26.687  25.932  1.00  0.00    -0.052 S 
BRANCH   9  16
ATOM     16  C   UNL A   1      34.496  22.177  23.752  1.00  0.00    -0.021 A 
ATOM     17  C   UNL A   1      32.697  18.966  24.771  1.00  0.00     0.044 C 
ATOM     18  C   UNL A   1      33.777  19.984  24.565  1.00  0.00    -0.051 A 
ATOM     19  C   UNL A   1      35.061  19.759  25.061  1.00  0.00     0.004 A 
ATOM     20  C   UNL A   1      33.514  21.181  23.892  1.00  0.00     0.011 A 
ATOM     21  C   UNL A   1      36.061  20.718  24.887  1.00  0.00     0.004 A 
ATOM     22  C   UNL A   1      35.796  21.935  24.235  1.00  0.00    -0.044 A 
ATOM     23  C   UNL A   1      36.934  22.913  24.109  1.00  0.00     0.045 C 
ENDBRANCH   9  16
ENDBRANCH   7   8
ENDBRANCH   4   7
ENDBRANCH   2   3
ENDBRANCH   1   2
BRANCH   1  24
ATOM     24  C   UNL A   1      33.732  30.717  27.226  1.00  0.00     0.118 C 
BRANCH  24  25
ATOM     25  N   UNL A   1      34.027  31.640  28.330  1.00  0.00    -0.352 N 
ATOM     26  C   UNL A   1      35.049  31.734  29.270  1.00  0.00     0.251 C 
ATOM     27  H   UNL A   1      33.353  32.350  28.426  1.00  0.00     0.163 HD
ATOM     28  O   UNL A   1      34.889  32.428  30.254  1.00  0.00    -0.269 OA
BRANCH  26  29
ATOM     29  C   UNL A   1      36.325  31.000  29.096  1.00  0.00     0.039 A 
ATOM     30  C   UNL A   1      36.443  29.829  28.333  1.00  0.00     0.014 A 
ATOM     31  C   UNL A   1      37.447  31.482  29.726  1.00  0.00     0.014 A 
ATOM     32  C   UNL A   1      37.674  29.161  28.318  1.00  0.00     0.010 A 
ATOM     33  C   UNL A   1      38.673  31.117  29.277  1.00  0.00     0.010 A 
ATOM     34  C   UNL A   1      38.785  29.813  28.857  1.00  0.00    -0.014 A 
BRANCH  34  35
ATOM     35  C   UNL A   1      40.093  29.218  29.082  1.00  0.00     0.031 A 
ATOM     36  C   UNL A   1      40.376  28.836  30.477  1.00  0.00     0.074 A 
ATOM     37  C   UNL A   1      40.821  28.674  28.077  1.00  0.00     0.049 A 
ATOM     38  N   UNL A   1      41.257  29.335  31.276  1.00  0.00    -0.248 NA
ATOM     39  C   UNL A   1      39.488  27.843  31.101  1.00  0.00     0.031 C 
ATOM     40  C   UNL A   1      40.471  28.537  26.655  1.00  0.00     0.029 A 
ATOM     41  N   UNL A   1      42.006  28.005  28.154  1.00  0.00    -0.354 N 
ATOM     42  C   UNL A   1      41.145  28.605  32.455  1.00  0.00     0.074 A 
ATOM     43  C   UNL A   1      39.909  27.878  32.363  1.00  0.00     0.031 C 
ATOM     44  C   UNL A   1      41.327  27.675  26.056  1.00  0.00     0.029 A 
ATOM     45  C   UNL A   1      42.362  27.306  27.007  1.00  0.00     0.049 A 
ATOM     46  H   UNL A   1      42.568  28.015  28.962  1.00  0.00     0.167 HD
ATOM     47  C   UNL A   1      42.198  28.457  33.305  1.00  0.00     0.037 A 
ATOM     48  C   UNL A   1      43.410  26.454  26.873  1.00  0.00     0.037 A 
ATOM     49  C   UNL A   1      43.260  29.380  32.981  1.00  0.00     0.049 A 
ATOM     50  C   UNL A   1      44.334  26.709  28.010  1.00  0.00     0.074 A 
ATOM     51  C   UNL A   1      43.350  30.755  32.878  1.00  0.00     0.029 A 
ATOM     52  N   UNL A   1      44.364  28.889  32.325  1.00  0.00    -0.354 N 
ATOM     53  N   UNL A   1      45.042  27.796  28.153  1.00  0.00    -0.248 NA
ATOM     54  C   UNL A   1      44.152  25.922  29.220  1.00  0.00     0.031 C 
ATOM     55  C   UNL A   1      44.209  30.987  31.763  1.00  0.00     0.029 A 
ATOM     56  C   UNL A   1      44.631  29.745  31.287  1.00  0.00     0.049 A 
ATOM     57  H   UNL A   1      44.868  28.076  32.556  1.00  0.00     0.167 HD
ATOM     58  C   UNL A   1      45.035  28.046  29.517  1.00  0.00     0.074 A 
ATOM     59  C   UNL A   1      44.567  26.807  30.131  1.00  0.00     0.031 C 
ATOM     60  C   UNL A   1      45.128  29.320  29.999  1.00  0.00     0.037 A 
BRANCH  47  61
ATOM     61  C   UNL A   1      42.418  27.265  34.205  1.00  0.00     0.064 A 
ATOM     62  C   UNL A   1      42.032  27.356  35.557  1.00  0.00     0.173 A 
ATOM     63  C   UNL A   1      43.215  26.145  33.880  1.00  0.00     0.173 A 
ATOM     64  F   UNL A   1      41.286  28.385  35.986  1.00  0.00    -0.203 F 
ATOM     65  C   UNL A   1      42.476  26.445  36.517  1.00  0.00     0.198 A 
ATOM     66  C   UNL A   1      43.602  25.201  34.830  1.00  0.00     0.198 A 
ATOM     67  F   UNL A   1      43.752  25.970  32.668  1.00  0.00    -0.203 F 
ATOM     68  F   UNL A   1      42.191  26.651  37.810  1.00  0.00    -0.200 F 
ATOM     69  C   UNL A   1      43.263  25.369  36.154  1.00  0.00     0.200 A 
ATOM     70  F   UNL A   1      44.375  24.170  34.456  1.00  0.00    -0.200 F 
ATOM     71  F   UNL A   1      43.736  24.525  37.079  1.00  0.00    -0.200 F 
ENDBRANCH  47  61
BRANCH  48  72
ATOM     72  C   UNL A   1      43.568  25.284  25.976  1.00  0.00     0.064 A 
ATOM     73  C   UNL A   1      44.754  25.074  25.253  1.00  0.00     0.173 A 
ATOM     74  C   UNL A   1      42.661  24.208  26.010  1.00  0.00     0.173 A 
ATOM     75  F   UNL A   1      45.694  26.030  25.205  1.00  0.00    -0.203 F 
ATOM     76  C   UNL A   1      45.025  23.855  24.620  1.00  0.00     0.198 A 
ATOM     77  C   UNL A   1      42.926  22.994  25.370  1.00  0.00     0.198 A 
ATOM     78  F   UNL A   1      41.544  24.278  26.748  1.00  0.00    -0.203 F 
ATOM     79  F   UNL A   1      46.196  23.672  23.994  1.00  0.00    -0.200 F 
ATOM     80  C   UNL A   1      44.114  22.814  24.687  1.00  0.00     0.200 A 
ATOM     81  F   UNL A   1      42.055  21.981  25.475  1.00  0.00    -0.200 F 
ATOM     82  F   UNL A   1      44.400  21.627  24.133  1.00  0.00    -0.200 F 
ENDBRANCH  48  72
BRANCH  60  83
ATOM     83  C   UNL A   1      45.521  30.405  29.037  1.00  0.00     0.064 A 
ATOM     84  C   UNL A   1      46.853  30.719  28.716  1.00  0.00     0.173 A 
ATOM     85  C   UNL A   1      44.515  31.042  28.300  1.00  0.00     0.173 A 
ATOM     86  F   UNL A   1      47.872  30.079  29.300  1.00  0.00    -0.203 F 
ATOM     87  C   UNL A   1      47.160  31.658  27.734  1.00  0.00     0.198 A 
ATOM     88  C   UNL A   1      44.824  31.951  27.292  1.00  0.00     0.198 A 
ATOM     89  F   UNL A   1      43.225  30.739  28.522  1.00  0.00    -0.203 F 
ATOM     90  F   UNL A   1      48.440  31.943  27.453  1.00  0.00    -0.200 F 
ATOM     91  C   UNL A   1      46.145  32.267  27.016  1.00  0.00     0.200 A 
ATOM     92  F   UNL A   1      43.840  32.501  26.566  1.00  0.00    -0.200 F 
ATOM     93  F   UNL A   1      46.439  33.135  26.038  1.00  0.00    -0.200 F 
ENDBRANCH  60  83
ENDBRANCH  34  35
ENDBRANCH  26  29
ENDBRANCH  24  25
ENDBRANCH   1  24
TORSDOF 12
ENDMDL
