MODEL 1
REMARK VINA RESULT:     -11.7      0.000      0.000
REMARK SMILES CC[C@@H](CNC(=O)NCc1c(C)noc1C)C(=O)NCCCNC(=O)c1ccc(-c2c3nc(c(-c4c(F)c(F)c(F)c(F)c4F)c4ccc([nH]4)c(-c4c(F)c(F)c(F)c(F)c4F)c4nc(c(-c5c(F)c(F)c(F)c(F)c5F)c5ccc2[nH]5)C=C4)C=C3)cc1
REMARK SMILES IDX 20 1 19 2 17 3 18 4 3 6 2 7 1 8 4 9 5 10 6 11 7 13 8 14 9 16
REMARK SMILES IDX 10 17 11 18 15 19 12 20 13 21 14 22 16 23 21 24 22 25 23 26
REMARK SMILES IDX 24 27 25 29 26 30 27 31 88 32 28 33 87 34 29 35 30 36 31 37
REMARK SMILES IDX 81 38 32 39 86 40 80 41 82 42 33 43 85 44 79 45 78 46 34 48
REMARK SMILES IDX 66 49 46 50 65 51 47 52 50 53 64 54 83 55 48 56 49 57 63 59
REMARK SMILES IDX 84 60 51 61 35 62 36 63 44 64 37 65 38 66 42 67 45 68 39 69
REMARK SMILES IDX 40 70 43 71 41 72 67 73 68 74 76 75 69 76 70 77 74 78 77 79
REMARK SMILES IDX 71 80 72 81 75 82 73 83 52 84 53 85 61 86 54 87 55 88 59 89
REMARK SMILES IDX 62 90 56 91 57 92 60 93 58 94
REMARK H PARENT 19 5 5 12 8 15 23 28 82 47 50 58
REMARK Flexibility Score: inf
ROOT
ATOM      1  C   UNL A   1      31.667  30.772  26.007  1.00  0.00     0.117 C 
ENDROOT
BRANCH   1   2
ATOM      2  N   UNL A   1      31.326  29.727  26.957  1.00  0.00    -0.356 N 
ATOM      3  C   UNL A   1      31.852  28.484  27.117  1.00  0.00     0.224 C 
ATOM      4  O   UNL A   1      31.574  27.880  28.157  1.00  0.00    -0.275 OA
ATOM      5  H   UNL A   1      30.600  29.955  27.581  1.00  0.00     0.163 HD
BRANCH   3   6
ATOM      6  C   UNL A   1      32.756  27.832  26.076  1.00  0.00     0.097 C 
BRANCH   6   7
ATOM      7  C   UNL A   1      34.246  27.888  26.464  1.00  0.00     0.012 C 
ATOM      8  C   UNL A   1      34.687  29.217  27.057  1.00  0.00     0.005 C 
ENDBRANCH   6   7
BRANCH   6   9
ATOM      9  C   UNL A   1      32.197  26.515  25.505  1.00  0.00     0.131 C 
BRANCH   9  10
ATOM     10  N   UNL A   1      31.614  25.572  26.433  1.00  0.00    -0.337 N 
ATOM     11  C   UNL A   1      31.145  24.323  26.315  1.00  0.00     0.315 C 
ATOM     12  H   UNL A   1      31.548  25.922  27.351  1.00  0.00     0.165 HD
ATOM     13  O   UNL A   1      30.478  23.871  27.249  1.00  0.00    -0.249 OA
ATOM     14  N   UNL A   1      31.301  23.553  25.237  1.00  0.00    -0.334 N 
ATOM     15  H   UNL A   1      30.622  22.843  25.164  1.00  0.00     0.165 HD
BRANCH  14  16
ATOM     16  C   UNL A   1      32.257  23.543  24.151  1.00  0.00     0.159 C 
BRANCH  16  17
ATOM     17  C   UNL A   1      33.424  22.707  24.538  1.00  0.00     0.037 A 
ATOM     18  C   UNL A   1      33.538  21.284  24.502  1.00  0.00     0.086 A 
ATOM     19  C   UNL A   1      34.656  23.110  25.012  1.00  0.00     0.138 A 
ATOM     20  C   UNL A   1      32.524  20.282  24.093  1.00  0.00     0.071 C 
ATOM     21  N   UNL A   1      34.741  20.877  24.921  1.00  0.00    -0.085 NA
ATOM     22  O   UNL A   1      35.434  22.021  25.243  1.00  0.00    -0.361 OA
ATOM     23  C   UNL A   1      35.277  24.413  25.317  1.00  0.00     0.091 C 
ENDBRANCH  16  17
ENDBRANCH  14  16
ENDBRANCH   9  10
ENDBRANCH   6   9
ENDBRANCH   3   6
ENDBRANCH   1   2
BRANCH   1  24
ATOM     24  C   UNL A   1      31.400  32.171  26.526  1.00  0.00     0.042 C 
BRANCH  24  25
ATOM     25  C   UNL A   1      32.594  32.774  27.250  1.00  0.00     0.118 C 
BRANCH  25  26
ATOM     26  N   UNL A   1      32.390  34.171  27.622  1.00  0.00    -0.352 N 
ATOM     27  C   UNL A   1      32.981  34.946  28.589  1.00  0.00     0.251 C 
ATOM     28  H   UNL A   1      31.710  34.640  27.085  1.00  0.00     0.163 HD
ATOM     29  O   UNL A   1      32.531  36.059  28.836  1.00  0.00    -0.269 OA
BRANCH  27  30
ATOM     30  C   UNL A   1      34.138  34.439  29.352  1.00  0.00     0.039 A 
ATOM     31  C   UNL A   1      33.917  33.843  30.596  1.00  0.00     0.014 A 
ATOM     32  C   UNL A   1      35.437  34.553  28.856  1.00  0.00     0.014 A 
ATOM     33  C   UNL A   1      34.988  33.292  31.299  1.00  0.00     0.010 A 
ATOM     34  C   UNL A   1      36.484  33.903  29.499  1.00  0.00     0.010 A 
ATOM     35  C   UNL A   1      36.273  33.271  30.730  1.00  0.00    -0.014 A 
BRANCH  35  36
ATOM     36  C   UNL A   1      37.401  32.589  31.412  1.00  0.00     0.031 A 
ATOM     37  C   UNL A   1      38.097  31.430  30.753  1.00  0.00     0.074 A 
ATOM     38  C   UNL A   1      37.761  32.983  32.650  1.00  0.00     0.049 A 
ATOM     39  N   UNL A   1      39.071  30.682  31.209  1.00  0.00    -0.248 NA
ATOM     40  C   UNL A   1      37.618  31.036  29.417  1.00  0.00     0.031 C 
ATOM     41  C   UNL A   1      37.118  34.052  33.417  1.00  0.00     0.029 A 
ATOM     42  N   UNL A   1      38.751  32.530  33.483  1.00  0.00    -0.354 N 
ATOM     43  C   UNL A   1      39.315  29.736  30.223  1.00  0.00     0.074 A 
ATOM     44  C   UNL A   1      38.342  29.954  29.176  1.00  0.00     0.031 C 
ATOM     45  C   UNL A   1      37.750  34.194  34.592  1.00  0.00     0.029 A 
ATOM     46  C   UNL A   1      38.813  33.200  34.681  1.00  0.00     0.049 A 
ATOM     47  H   UNL A   1      39.360  31.794  33.246  1.00  0.00     0.167 HD
ATOM     48  C   UNL A   1      40.284  28.791  30.179  1.00  0.00     0.037 A 
ATOM     49  C   UNL A   1      39.632  33.026  35.735  1.00  0.00     0.037 A 
ATOM     50  C   UNL A   1      41.260  28.590  31.218  1.00  0.00     0.049 A 
ATOM     51  C   UNL A   1      40.694  31.962  35.662  1.00  0.00     0.074 A 
ATOM     52  C   UNL A   1      42.313  27.692  31.251  1.00  0.00     0.029 A 
ATOM     53  N   UNL A   1      41.303  29.299  32.409  1.00  0.00    -0.354 N 
ATOM     54  N   UNL A   1      40.962  31.122  34.691  1.00  0.00    -0.248 NA
ATOM     55  C   UNL A   1      41.577  31.829  36.829  1.00  0.00     0.031 C 
ATOM     56  C   UNL A   1      42.959  27.821  32.484  1.00  0.00     0.029 A 
ATOM     57  C   UNL A   1      42.349  28.842  33.194  1.00  0.00     0.049 A 
ATOM     58  H   UNL A   1      40.681  30.020  32.661  1.00  0.00     0.167 HD
ATOM     59  C   UNL A   1      42.054  30.380  35.118  1.00  0.00     0.074 A 
ATOM     60  C   UNL A   1      42.418  30.891  36.424  1.00  0.00     0.031 C 
ATOM     61  C   UNL A   1      42.697  29.363  34.492  1.00  0.00     0.037 A 
BRANCH  48  62
ATOM     62  C   UNL A   1      40.349  27.913  28.963  1.00  0.00     0.064 A 
ATOM     63  C   UNL A   1      41.129  28.258  27.849  1.00  0.00     0.173 A 
ATOM     64  C   UNL A   1      39.666  26.687  28.929  1.00  0.00     0.173 A 
ATOM     65  F   UNL A   1      41.791  29.424  27.822  1.00  0.00    -0.203 F 
ATOM     66  C   UNL A   1      41.205  27.421  26.738  1.00  0.00     0.198 A 
ATOM     67  C   UNL A   1      39.770  25.837  27.831  1.00  0.00     0.198 A 
ATOM     68  F   UNL A   1      38.907  26.305  29.968  1.00  0.00    -0.203 F 
ATOM     69  F   UNL A   1      41.920  27.794  25.667  1.00  0.00    -0.200 F 
ATOM     70  C   UNL A   1      40.534  26.208  26.734  1.00  0.00     0.200 A 
ATOM     71  F   UNL A   1      39.134  24.659  27.834  1.00  0.00    -0.200 F 
ATOM     72  F   UNL A   1      40.620  25.396  25.671  1.00  0.00    -0.200 F 
ENDBRANCH  48  62
BRANCH  49  73
ATOM     73  C   UNL A   1      39.489  33.880  36.945  1.00  0.00     0.064 A 
ATOM     74  C   UNL A   1      38.761  33.440  38.060  1.00  0.00     0.173 A 
ATOM     75  C   UNL A   1      40.054  35.162  37.003  1.00  0.00     0.173 A 
ATOM     76  F   UNL A   1      38.186  32.229  38.049  1.00  0.00    -0.203 F 
ATOM     77  C   UNL A   1      38.574  34.263  39.169  1.00  0.00     0.198 A 
ATOM     78  C   UNL A   1      39.897  35.970  38.127  1.00  0.00     0.198 A 
ATOM     79  F   UNL A   1      40.768  35.630  35.967  1.00  0.00    -0.203 F 
ATOM     80  F   UNL A   1      37.820  33.842  40.193  1.00  0.00    -0.200 F 
ATOM     81  C   UNL A   1      39.146  35.526  39.203  1.00  0.00     0.200 A 
ATOM     82  F   UNL A   1      40.467  37.182  38.162  1.00  0.00    -0.200 F 
ATOM     83  F   UNL A   1      38.964  36.318  40.268  1.00  0.00    -0.200 F 
ENDBRANCH  49  73
BRANCH  61  84
ATOM     84  C   UNL A   1      43.875  28.759  35.201  1.00  0.00     0.064 A 
ATOM     85  C   UNL A   1      45.182  29.225  34.990  1.00  0.00     0.173 A 
ATOM     86  C   UNL A   1      43.692  27.711  36.116  1.00  0.00     0.173 A 
ATOM     87  F   UNL A   1      45.412  30.216  34.115  1.00  0.00    -0.203 F 
ATOM     88  C   UNL A   1      46.265  28.637  35.638  1.00  0.00     0.198 A 
ATOM     89  C   UNL A   1      44.774  27.151  36.790  1.00  0.00     0.198 A 
ATOM     90  F   UNL A   1      42.463  27.234  36.362  1.00  0.00    -0.203 F 
ATOM     91  F   UNL A   1      47.509  29.056  35.370  1.00  0.00    -0.200 F 
ATOM     92  C   UNL A   1      46.059  27.606  36.541  1.00  0.00     0.200 A 
ATOM     93  F   UNL A   1      44.572  26.167  37.677  1.00  0.00    -0.200 F 
ATOM     94  F   UNL A   1      47.102  27.044  37.166  1.00  0.00    -0.200 F 
ENDBRANCH  61  84
ENDBRANCH  35  36
ENDBRANCH  27  30
ENDBRANCH  25  26
ENDBRANCH  24  25
ENDBRANCH   1  24
TORSDOF 15
ENDMDL
MODEL 2
REMARK VINA RESULT:     -11.7      1.334      2.693
REMARK SMILES CC[C@@H](CNC(=O)NCc1c(C)noc1C)C(=O)NCCCNC(=O)c1ccc(-c2c3nc(c(-c4c(F)c(F)c(F)c(F)c4F)c4ccc([nH]4)c(-c4c(F)c(F)c(F)c(F)c4F)c4nc(c(-c5c(F)c(F)c(F)c(F)c5F)c5ccc2[nH]5)C=C4)C=C3)cc1
REMARK SMILES IDX 20 1 19 2 17 3 18 4 3 6 2 7 1 8 4 9 5 10 6 11 7 13 8 14 9 16
REMARK SMILES IDX 10 17 11 18 15 19 12 20 13 21 14 22 16 23 21 24 22 25 23 26
REMARK SMILES IDX 24 27 25 29 26 30 27 31 88 32 28 33 87 34 29 35 30 36 31 37
REMARK SMILES IDX 81 38 32 39 86 40 80 41 82 42 33 43 85 44 79 45 78 46 34 48
REMARK SMILES IDX 66 49 46 50 65 51 47 52 50 53 64 54 83 55 48 56 49 57 63 59
REMARK SMILES IDX 84 60 51 61 35 62 36 63 44 64 37 65 38 66 42 67 45 68 39 69
REMARK SMILES IDX 40 70 43 71 41 72 67 73 68 74 76 75 69 76 70 77 74 78 77 79
REMARK SMILES IDX 71 80 72 81 75 82 73 83 52 84 53 85 61 86 54 87 55 88 59 89
REMARK SMILES IDX 62 90 56 91 57 92 60 93 58 94
REMARK H PARENT 19 5 5 12 8 15 23 28 82 47 50 58
REMARK Flexibility Score: inf
ROOT
ATOM      1  C   UNL A   1      31.430  30.627  26.462  1.00  0.00     0.117 C 
ENDROOT
BRANCH   1   2
ATOM      2  N   UNL A   1      32.446  30.089  25.574  1.00  0.00    -0.356 N 
ATOM      3  C   UNL A   1      32.318  29.328  24.454  1.00  0.00     0.224 C 
ATOM      4  O   UNL A   1      33.310  29.215  23.729  1.00  0.00    -0.275 OA
ATOM      5  H   UNL A   1      33.373  30.309  25.823  1.00  0.00     0.163 HD
BRANCH   3   6
ATOM      6  C   UNL A   1      31.014  28.632  24.077  1.00  0.00     0.097 C 
BRANCH   6   7
ATOM      7  C   UNL A   1      30.283  29.330  22.914  1.00  0.00     0.012 C 
ATOM      8  C   UNL A   1      29.186  30.287  23.351  1.00  0.00     0.005 C 
ENDBRANCH   6   7
BRANCH   6   9
ATOM      9  C   UNL A   1      31.112  27.096  24.064  1.00  0.00     0.131 C 
BRANCH   9  10
ATOM     10  N   UNL A   1      31.913  26.480  23.029  1.00  0.00    -0.337 N 
ATOM     11  C   UNL A   1      33.193  26.091  22.954  1.00  0.00     0.315 C 
ATOM     12  H   UNL A   1      31.410  26.308  22.201  1.00  0.00     0.165 HD
ATOM     13  O   UNL A   1      33.645  25.823  21.838  1.00  0.00    -0.249 OA
ATOM     14  N   UNL A   1      34.029  26.027  23.993  1.00  0.00    -0.334 N 
ATOM     15  H   UNL A   1      34.977  26.078  23.733  1.00  0.00     0.165 HD
BRANCH  14  16
ATOM     16  C   UNL A   1      33.833  25.901  25.420  1.00  0.00     0.159 C 
BRANCH  16  17
ATOM     17  C   UNL A   1      33.734  24.460  25.773  1.00  0.00     0.037 A 
ATOM     18  C   UNL A   1      34.794  23.515  25.924  1.00  0.00     0.086 A 
ATOM     19  C   UNL A   1      32.604  23.711  26.036  1.00  0.00     0.138 A 
ATOM     20  C   UNL A   1      36.252  23.722  25.750  1.00  0.00     0.071 C 
ATOM     21  N   UNL A   1      34.330  22.304  26.251  1.00  0.00    -0.085 NA
ATOM     22  O   UNL A   1      32.961  22.430  26.315  1.00  0.00    -0.361 OA
ATOM     23  C   UNL A   1      31.156  23.989  26.069  1.00  0.00     0.091 C 
ENDBRANCH  16  17
ENDBRANCH  14  16
ENDBRANCH   9  10
ENDBRANCH   6   9
ENDBRANCH   3   6
ENDBRANCH   1   2
BRANCH   1  24
ATOM     24  C   UNL A   1      31.402  32.142  26.501  1.00  0.00     0.042 C 
BRANCH  24  25
ATOM     25  C   UNL A   1      32.576  32.739  27.260  1.00  0.00     0.118 C 
BRANCH  25  26
ATOM     26  N   UNL A   1      32.381  34.145  27.600  1.00  0.00    -0.352 N 
ATOM     27  C   UNL A   1      32.970  34.936  28.555  1.00  0.00     0.251 C 
ATOM     28  H   UNL A   1      31.709  34.607  27.048  1.00  0.00     0.163 HD
ATOM     29  O   UNL A   1      32.528  36.057  28.775  1.00  0.00    -0.269 OA
BRANCH  27  30
ATOM     30  C   UNL A   1      34.118  34.436  29.337  1.00  0.00     0.039 A 
ATOM     31  C   UNL A   1      33.881  33.859  30.587  1.00  0.00     0.014 A 
ATOM     32  C   UNL A   1      35.422  34.538  28.854  1.00  0.00     0.014 A 
ATOM     33  C   UNL A   1      34.943  33.315  31.310  1.00  0.00     0.010 A 
ATOM     34  C   UNL A   1      36.460  33.895  29.517  1.00  0.00     0.010 A 
ATOM     35  C   UNL A   1      36.234  33.281  30.755  1.00  0.00    -0.014 A 
BRANCH  35  36
ATOM     36  C   UNL A   1      37.353  32.605  31.458  1.00  0.00     0.031 A 
ATOM     37  C   UNL A   1      38.057  31.440  30.820  1.00  0.00     0.074 A 
ATOM     38  C   UNL A   1      37.696  33.012  32.697  1.00  0.00     0.049 A 
ATOM     39  N   UNL A   1      39.024  30.696  31.297  1.00  0.00    -0.248 NA
ATOM     40  C   UNL A   1      37.596  31.033  29.482  1.00  0.00     0.031 C 
ATOM     41  C   UNL A   1      37.043  34.088  33.445  1.00  0.00     0.029 A 
ATOM     42  N   UNL A   1      38.674  32.566  33.548  1.00  0.00    -0.354 N 
ATOM     43  C   UNL A   1      39.281  29.740  30.323  1.00  0.00     0.074 A 
ATOM     44  C   UNL A   1      38.323  29.948  29.261  1.00  0.00     0.031 C 
ATOM     45  C   UNL A   1      37.659  34.241  34.627  1.00  0.00     0.029 A 
ATOM     46  C   UNL A   1      38.721  33.248  34.740  1.00  0.00     0.049 A 
ATOM     47  H   UNL A   1      39.287  31.827  33.326  1.00  0.00     0.167 HD
ATOM     48  C   UNL A   1      40.250  28.794  30.302  1.00  0.00     0.037 A 
ATOM     49  C   UNL A   1      39.525  33.083  35.807  1.00  0.00     0.037 A 
ATOM     50  C   UNL A   1      41.212  28.604  31.356  1.00  0.00     0.049 A 
ATOM     51  C   UNL A   1      40.588  32.019  35.759  1.00  0.00     0.074 A 
ATOM     52  C   UNL A   1      42.264  27.705  31.411  1.00  0.00     0.029 A 
ATOM     53  N   UNL A   1      41.239  29.324  32.541  1.00  0.00    -0.354 N 
ATOM     54  N   UNL A   1      40.868  31.169  34.800  1.00  0.00    -0.248 NA
ATOM     55  C   UNL A   1      41.454  31.897  36.939  1.00  0.00     0.031 C 
ATOM     56  C   UNL A   1      42.893  27.846  32.652  1.00  0.00     0.029 A 
ATOM     57  C   UNL A   1      42.275  28.874  33.344  1.00  0.00     0.049 A 
ATOM     58  H   UNL A   1      40.614  30.048  32.776  1.00  0.00     0.167 HD
ATOM     59  C   UNL A   1      41.954  30.432  35.249  1.00  0.00     0.074 A 
ATOM     60  C   UNL A   1      42.301  30.955  36.554  1.00  0.00     0.031 C 
ATOM     61  C   UNL A   1      42.605  29.408  34.641  1.00  0.00     0.037 A 
BRANCH  48  62
ATOM     62  C   UNL A   1      40.331  27.905  29.095  1.00  0.00     0.064 A 
ATOM     63  C   UNL A   1      39.624  26.694  29.027  1.00  0.00     0.173 A 
ATOM     64  C   UNL A   1      41.079  28.289  27.972  1.00  0.00     0.173 A 
ATOM     65  F   UNL A   1      38.904  26.271  30.077  1.00  0.00    -0.203 F 
ATOM     66  C   UNL A   1      39.682  25.891  27.890  1.00  0.00     0.198 A 
ATOM     67  C   UNL A   1      41.109  27.500  26.825  1.00  0.00     0.198 A 
ATOM     68  F   UNL A   1      41.772  29.438  27.981  1.00  0.00    -0.203 F 
ATOM     69  F   UNL A   1      39.036  24.717  27.867  1.00  0.00    -0.200 F 
ATOM     70  C   UNL A   1      40.416  26.300  26.787  1.00  0.00     0.200 A 
ATOM     71  F   UNL A   1      41.806  27.903  25.754  1.00  0.00    -0.200 F 
ATOM     72  F   UNL A   1      40.459  25.534  25.688  1.00  0.00    -0.200 F 
ENDBRANCH  48  62
BRANCH  49  73
ATOM     73  C   UNL A   1      39.367  33.950  37.006  1.00  0.00     0.064 A 
ATOM     74  C   UNL A   1      39.946  35.226  37.059  1.00  0.00     0.173 A 
ATOM     75  C   UNL A   1      38.655  33.513  38.133  1.00  0.00     0.173 A 
ATOM     76  F   UNL A   1      40.652  35.685  36.015  1.00  0.00    -0.203 F 
ATOM     77  C   UNL A   1      39.851  36.014  38.204  1.00  0.00     0.198 A 
ATOM     78  C   UNL A   1      38.530  34.316  39.264  1.00  0.00     0.198 A 
ATOM     79  F   UNL A   1      38.073  32.304  38.133  1.00  0.00    -0.203 F 
ATOM     80  F   UNL A   1      40.469  37.202  38.251  1.00  0.00    -0.200 F 
ATOM     81  C   UNL A   1      39.139  35.560  39.304  1.00  0.00     0.200 A 
ATOM     82  F   UNL A   1      37.825  33.881  40.317  1.00  0.00    -0.200 F 
ATOM     83  F   UNL A   1      39.050  36.317  40.406  1.00  0.00    -0.200 F 
ENDBRANCH  49  73
BRANCH  61  84
ATOM     84  C   UNL A   1      43.773  28.810  35.371  1.00  0.00     0.064 A 
ATOM     85  C   UNL A   1      43.614  27.745  36.271  1.00  0.00     0.173 A 
ATOM     86  C   UNL A   1      45.070  29.299  35.156  1.00  0.00     0.173 A 
ATOM     87  F   UNL A   1      42.392  27.250  36.523  1.00  0.00    -0.203 F 
ATOM     88  C   UNL A   1      44.705  27.220  36.958  1.00  0.00     0.198 A 
ATOM     89  C   UNL A   1      46.164  28.746  35.817  1.00  0.00     0.198 A 
ATOM     90  F   UNL A   1      45.280  30.310  34.299  1.00  0.00    -0.203 F 
ATOM     91  F   UNL A   1      44.519  26.247  37.861  1.00  0.00    -0.200 F 
ATOM     92  C   UNL A   1      45.979  27.715  36.726  1.00  0.00     0.200 A 
ATOM     93  F   UNL A   1      47.396  29.214  35.577  1.00  0.00    -0.200 F 
ATOM     94  F   UNL A   1      47.027  27.206  37.386  1.00  0.00    -0.200 F 
ENDBRANCH  61  84
ENDBRANCH  35  36
ENDBRANCH  27  30
ENDBRANCH  25  26
ENDBRANCH  24  25
ENDBRANCH   1  24
TORSDOF 15
ENDMDL
MODEL 3
REMARK VINA RESULT:     -11.6      1.485      7.601
REMARK SMILES CC[C@@H](CNC(=O)NCc1c(C)noc1C)C(=O)NCCCNC(=O)c1ccc(-c2c3nc(c(-c4c(F)c(F)c(F)c(F)c4F)c4ccc([nH]4)c(-c4c(F)c(F)c(F)c(F)c4F)c4nc(c(-c5c(F)c(F)c(F)c(F)c5F)c5ccc2[nH]5)C=C4)C=C3)cc1
REMARK SMILES IDX 20 1 19 2 17 3 18 4 3 6 2 7 1 8 4 9 5 10 6 11 7 13 8 14 9 16
REMARK SMILES IDX 10 17 11 18 15 19 12 20 13 21 14 22 16 23 21 24 22 25 23 26
REMARK SMILES IDX 24 27 25 29 26 30 27 31 88 32 28 33 87 34 29 35 30 36 31 37
REMARK SMILES IDX 81 38 32 39 86 40 80 41 82 42 33 43 85 44 79 45 78 46 34 48
REMARK SMILES IDX 66 49 46 50 65 51 47 52 50 53 64 54 83 55 48 56 49 57 63 59
REMARK SMILES IDX 84 60 51 61 35 62 36 63 44 64 37 65 38 66 42 67 45 68 39 69
REMARK SMILES IDX 40 70 43 71 41 72 67 73 68 74 76 75 69 76 70 77 74 78 77 79
REMARK SMILES IDX 71 80 72 81 75 82 73 83 52 84 53 85 61 86 54 87 55 88 59 89
REMARK SMILES IDX 62 90 56 91 57 92 60 93 58 94
REMARK H PARENT 19 5 5 12 8 15 23 28 82 47 50 58
REMARK Flexibility Score: inf
ROOT
ATOM      1  C   UNL A   1      31.423  30.544  26.246  1.00  0.00     0.117 C 
ENDROOT
BRANCH   1   2
ATOM      2  N   UNL A   1      32.455  30.040  25.356  1.00  0.00    -0.356 N 
ATOM      3  C   UNL A   1      32.349  29.278  24.235  1.00  0.00     0.224 C 
ATOM      4  O   UNL A   1      33.344  29.197  23.509  1.00  0.00    -0.275 OA
ATOM      5  H   UNL A   1      33.374  30.288  25.605  1.00  0.00     0.163 HD
BRANCH   3   6
ATOM      6  C   UNL A   1      31.067  28.544  23.856  1.00  0.00     0.097 C 
BRANCH   6   7
ATOM      7  C   UNL A   1      30.361  29.169  22.638  1.00  0.00     0.012 C 
ATOM      8  C   UNL A   1      28.982  29.735  22.938  1.00  0.00     0.005 C 
ENDBRANCH   6   7
BRANCH   6   9
ATOM      9  C   UNL A   1      31.187  27.010  23.926  1.00  0.00     0.131 C 
BRANCH   9  10
ATOM     10  N   UNL A   1      32.020  26.353  22.943  1.00  0.00    -0.337 N 
ATOM     11  C   UNL A   1      33.316  26.019  22.899  1.00  0.00     0.315 C 
ATOM     12  H   UNL A   1      31.528  26.096  22.130  1.00  0.00     0.165 HD
ATOM     13  O   UNL A   1      33.785  25.686  21.808  1.00  0.00    -0.249 OA
ATOM     14  N   UNL A   1      34.149  26.074  23.940  1.00  0.00    -0.334 N 
ATOM     15  H   UNL A   1      35.095  26.147  23.677  1.00  0.00     0.165 HD
BRANCH  14  16
ATOM     16  C   UNL A   1      33.954  26.049  25.373  1.00  0.00     0.159 C 
BRANCH  16  17
ATOM     17  C   UNL A   1      33.940  24.637  25.839  1.00  0.00     0.037 A 
ATOM     18  C   UNL A   1      32.825  23.873  26.299  1.00  0.00     0.086 A 
ATOM     19  C   UNL A   1      34.991  23.747  25.929  1.00  0.00     0.138 A 
ATOM     20  C   UNL A   1      31.411  24.294  26.448  1.00  0.00     0.071 C 
ATOM     21  N   UNL A   1      33.186  22.630  26.635  1.00  0.00    -0.085 NA
ATOM     22  O   UNL A   1      34.542  22.558  26.407  1.00  0.00    -0.361 OA
ATOM     23  C   UNL A   1      36.436  23.811  25.640  1.00  0.00     0.091 C 
ENDBRANCH  16  17
ENDBRANCH  14  16
ENDBRANCH   9  10
ENDBRANCH   6   9
ENDBRANCH   3   6
ENDBRANCH   1   2
BRANCH   1  24
ATOM     24  C   UNL A   1      31.430  32.054  26.385  1.00  0.00     0.042 C 
BRANCH  24  25
ATOM     25  C   UNL A   1      32.590  32.568  27.223  1.00  0.00     0.118 C 
BRANCH  25  26
ATOM     26  N   UNL A   1      32.443  33.970  27.602  1.00  0.00    -0.352 N 
ATOM     27  C   UNL A   1      33.092  34.726  28.546  1.00  0.00     0.251 C 
ATOM     28  H   UNL A   1      31.758  34.460  27.090  1.00  0.00     0.163 HD
ATOM     29  O   UNL A   1      32.687  35.851  28.809  1.00  0.00    -0.269 OA
BRANCH  27  30
ATOM     30  C   UNL A   1      34.262  34.182  29.266  1.00  0.00     0.039 A 
ATOM     31  C   UNL A   1      34.048  33.357  30.372  1.00  0.00     0.014 A 
ATOM     32  C   UNL A   1      35.562  34.486  28.865  1.00  0.00     0.014 A 
ATOM     33  C   UNL A   1      35.137  32.775  31.021  1.00  0.00     0.010 A 
ATOM     34  C   UNL A   1      36.638  33.816  29.435  1.00  0.00     0.010 A 
ATOM     35  C   UNL A   1      36.438  32.958  30.523  1.00  0.00    -0.014 A 
BRANCH  35  36
ATOM     36  C   UNL A   1      37.596  32.255  31.131  1.00  0.00     0.031 A 
ATOM     37  C   UNL A   1      38.089  32.645  32.497  1.00  0.00     0.074 A 
ATOM     38  C   UNL A   1      38.236  31.303  30.423  1.00  0.00     0.049 A 
ATOM     39  N   UNL A   1      39.110  32.178  33.172  1.00  0.00    -0.248 NA
ATOM     40  C   UNL A   1      37.360  33.721  33.188  1.00  0.00     0.031 C 
ATOM     41  C   UNL A   1      37.891  30.886  29.062  1.00  0.00     0.029 A 
ATOM     42  N   UNL A   1      39.312  30.517  30.746  1.00  0.00    -0.354 N 
ATOM     43  C   UNL A   1      39.143  32.903  34.356  1.00  0.00     0.074 A 
ATOM     44  C   UNL A   1      38.090  33.889  34.280  1.00  0.00     0.031 C 
ATOM     45  C   UNL A   1      38.716  29.899  28.681  1.00  0.00     0.029 A 
ATOM     46  C   UNL A   1      39.675  29.643  29.750  1.00  0.00     0.049 A 
ATOM     47  H   UNL A   1      39.781  30.573  31.610  1.00  0.00     0.167 HD
ATOM     48  C   UNL A   1      39.960  32.738  35.425  1.00  0.00     0.037 A 
ATOM     49  C   UNL A   1      40.675  28.742  29.702  1.00  0.00     0.037 A 
ATOM     50  C   UNL A   1      40.996  31.743  35.501  1.00  0.00     0.049 A 
ATOM     51  C   UNL A   1      41.571  28.587  30.901  1.00  0.00     0.074 A 
ATOM     52  C   UNL A   1      41.847  31.462  36.556  1.00  0.00     0.029 A 
ATOM     53  N   UNL A   1      41.324  30.864  34.479  1.00  0.00    -0.354 N 
ATOM     54  N   UNL A   1      41.545  29.229  32.045  1.00  0.00    -0.248 NA
ATOM     55  C   UNL A   1      42.631  27.574  30.807  1.00  0.00     0.031 C 
ATOM     56  C   UNL A   1      42.723  30.450  36.153  1.00  0.00     0.029 A 
ATOM     57  C   UNL A   1      42.380  30.056  34.870  1.00  0.00     0.049 A 
ATOM     58  H   UNL A   1      40.873  30.820  33.604  1.00  0.00     0.167 HD
ATOM     59  C   UNL A   1      42.563  28.683  32.812  1.00  0.00     0.074 A 
ATOM     60  C   UNL A   1      43.169  27.636  32.015  1.00  0.00     0.031 C 
ATOM     61  C   UNL A   1      42.969  29.019  34.063  1.00  0.00     0.037 A 
BRANCH  48  62
ATOM     62  C   UNL A   1      39.754  33.643  36.605  1.00  0.00     0.064 A 
ATOM     63  C   UNL A   1      40.364  34.905  36.678  1.00  0.00     0.173 A 
ATOM     64  C   UNL A   1      38.896  33.269  37.651  1.00  0.00     0.173 A 
ATOM     65  F   UNL A   1      41.203  35.308  35.712  1.00  0.00    -0.203 F 
ATOM     66  C   UNL A   1      40.141  35.749  37.764  1.00  0.00     0.198 A 
ATOM     67  C   UNL A   1      38.650  34.129  38.720  1.00  0.00     0.198 A 
ATOM     68  F   UNL A   1      38.285  32.075  37.632  1.00  0.00    -0.203 F 
ATOM     69  F   UNL A   1      40.771  36.930  37.833  1.00  0.00    -0.200 F 
ATOM     70  C   UNL A   1      39.278  35.364  38.778  1.00  0.00     0.200 A 
ATOM     71  F   UNL A   1      37.804  33.762  39.691  1.00  0.00    -0.200 F 
ATOM     72  F   UNL A   1      39.052  36.183  39.815  1.00  0.00    -0.200 F 
ENDBRANCH  48  62
BRANCH  49  73
ATOM     73  C   UNL A   1      40.877  27.910  28.485  1.00  0.00     0.064 A 
ATOM     74  C   UNL A   1      41.674  28.364  27.423  1.00  0.00     0.173 A 
ATOM     75  C   UNL A   1      40.261  26.659  28.346  1.00  0.00     0.173 A 
ATOM     76  F   UNL A   1      42.273  29.562  27.499  1.00  0.00    -0.203 F 
ATOM     77  C   UNL A   1      41.815  27.614  26.257  1.00  0.00     0.198 A 
ATOM     78  C   UNL A   1      40.432  25.894  27.194  1.00  0.00     0.198 A 
ATOM     79  F   UNL A   1      39.495  26.173  29.334  1.00  0.00    -0.203 F 
ATOM     80  F   UNL A   1      42.529  28.101  25.234  1.00  0.00    -0.200 F 
ATOM     81  C   UNL A   1      41.198  26.378  26.146  1.00  0.00     0.200 A 
ATOM     82  F   UNL A   1      39.848  24.692  27.099  1.00  0.00    -0.200 F 
ATOM     83  F   UNL A   1      41.331  25.659  25.023  1.00  0.00    -0.200 F 
ENDBRANCH  49  73
BRANCH  61  84
ATOM     84  C   UNL A   1      44.100  28.226  34.651  1.00  0.00     0.064 A 
ATOM     85  C   UNL A   1      45.435  28.642  34.528  1.00  0.00     0.173 A 
ATOM     86  C   UNL A   1      43.845  27.043  35.361  1.00  0.00     0.173 A 
ATOM     87  F   UNL A   1      45.734  29.758  33.846  1.00  0.00    -0.203 F 
ATOM     88  C   UNL A   1      46.474  27.881  35.059  1.00  0.00     0.198 A 
ATOM     89  C   UNL A   1      44.883  26.306  35.923  1.00  0.00     0.198 A 
ATOM     90  F   UNL A   1      42.586  26.605  35.518  1.00  0.00    -0.203 F 
ATOM     91  F   UNL A   1      47.743  28.264  34.871  1.00  0.00    -0.200 F 
ATOM     92  C   UNL A   1      46.196  26.718  35.761  1.00  0.00     0.200 A 
ATOM     93  F   UNL A   1      44.612  25.192  36.617  1.00  0.00    -0.200 F 
ATOM     94  F   UNL A   1      47.197  25.989  36.273  1.00  0.00    -0.200 F 
ENDBRANCH  61  84
ENDBRANCH  35  36
ENDBRANCH  27  30
ENDBRANCH  25  26
ENDBRANCH  24  25
ENDBRANCH   1  24
TORSDOF 15
ENDMDL
