MODEL 1
REMARK VINA RESULT:     -12.3      0.000      0.000
REMARK SMILES COc1ccccc1N1C(=O)[C@@H]2[C@@H](C1=O)[C@@](Cc1ccccc1)(C(=O)NCCCNC(=O)c1ccc(-c3c4nc(c(-c5c(F)c(F)c(F)c(F)c5F)c5ccc([nH]5)c(-c5c(F)c(F)c(F)c(F)c5F)c5nc(c(-c6c(F)c(F)c(F)c(F)c6F)c6ccc3[nH]6)C=C5)C=C4)cc1)[NH2+][C@H]2c1ccc(C)cc1
REMARK SMILES IDX 28 1 27 2 26 3 24 4 25 5 16 7 9 8 10 9 14 10 11 11 12 12
REMARK SMILES IDX 13 13 15 14 97 15 96 16 8 19 3 20 4 21 5 22 7 23 6 24 2 25
REMARK SMILES IDX 1 26 98 27 99 28 104 29 100 30 103 31 101 32 102 33 17 34
REMARK SMILES IDX 18 35 19 36 23 37 20 38 22 39 21 40 29 41 30 42 31 43 32 45
REMARK SMILES IDX 33 46 34 47 95 48 35 49 94 50 36 51 37 52 38 53 88 54 39 55
REMARK SMILES IDX 93 56 87 57 89 58 40 59 92 60 86 61 85 62 41 64 73 65 53 66
REMARK SMILES IDX 72 67 54 68 57 69 71 70 90 71 55 72 56 73 70 75 91 76 58 77
REMARK SMILES IDX 42 78 43 79 51 80 44 81 45 82 49 83 52 84 46 85 47 86 50 87
REMARK SMILES IDX 48 88 74 89 75 90 83 91 76 92 77 93 81 94 84 95 78 96 79 97
REMARK SMILES IDX 82 98 80 99 59 100 60 101 68 102 61 103 62 104 66 105 69 106
REMARK SMILES IDX 63 107 64 108 67 109 65 110
REMARK H PARENT 26 6 96 17 96 18 30 44 89 63 57 74
REMARK Flexibility Score: inf
ROOT
ATOM      1  C   UNL A   1      48.353  38.242  26.220  1.00  0.00     0.042 C 
ENDROOT
BRANCH   1   2
ATOM      2  C   UNL A   1      47.312  39.356  26.341  1.00  0.00     0.118 C 
BRANCH   2   3
ATOM      3  N   UNL A   1      47.870  40.511  27.033  1.00  0.00    -0.351 N 
ATOM      4  C   UNL A   1      47.434  41.788  27.195  1.00  0.00     0.282 C 
ATOM      5  O   UNL A   1      48.350  42.617  27.294  1.00  0.00    -0.268 OA
ATOM      6  H   UNL A   1      48.735  40.331  27.468  1.00  0.00     0.163 HD
BRANCH   4   7
ATOM      7  C   UNL A   1      45.957  42.210  27.520  1.00  0.00     0.192 C 
ATOM      8  N   UNL A   1      44.528  43.114  24.197  1.00  0.00    -0.246 N 
ATOM      9  C   UNL A   1      44.744  44.342  24.813  1.00  0.00     0.244 C 
ATOM     10  C   UNL A   1      45.118  42.088  24.923  1.00  0.00     0.245 C 
ATOM     11  O   UNL A   1      44.305  45.439  24.527  1.00  0.00    -0.273 OA
ATOM     12  C   UNL A   1      45.684  44.024  25.946  1.00  0.00     0.162 C 
ATOM     13  C   UNL A   1      45.169  42.644  26.303  1.00  0.00     0.170 C 
ATOM     14  O   UNL A   1      45.541  41.017  24.524  1.00  0.00    -0.273 OA
ATOM     15  C   UNL A   1      45.686  44.674  27.301  1.00  0.00     0.228 C 
ATOM     16  N   UNL A   1      46.040  43.564  28.253  1.00  0.00    -0.326 N 
ATOM     17  H   UNL A   1      46.988  43.704  28.602  1.00  0.00     0.347 HD
ATOM     18  H   UNL A   1      45.385  43.567  29.037  1.00  0.00     0.347 HD
BRANCH   8  19
ATOM     19  C   UNL A   1      43.792  42.883  23.024  1.00  0.00     0.094 A 
ATOM     20  C   UNL A   1      44.401  43.032  21.763  1.00  0.00     0.143 A 
ATOM     21  C   UNL A   1      43.656  42.928  20.590  1.00  0.00     0.048 A 
ATOM     22  C   UNL A   1      42.298  42.631  20.664  1.00  0.00     0.004 A 
ATOM     23  C   UNL A   1      42.442  42.529  23.085  1.00  0.00     0.031 A 
ATOM     24  C   UNL A   1      41.695  42.422  21.906  1.00  0.00     0.002 A 
BRANCH  20  25
ATOM     25  O   UNL A   1      45.750  43.260  21.628  1.00  0.00    -0.495 OA
ATOM     26  C   UNL A   1      46.438  42.049  21.300  1.00  0.00     0.278 C 
ENDBRANCH  20  25
ENDBRANCH   8  19
BRANCH  15  27
ATOM     27  C   UNL A   1      46.634  45.853  27.408  1.00  0.00     0.010 A 
ATOM     28  C   UNL A   1      46.251  47.063  28.009  1.00  0.00     0.010 A 
ATOM     29  C   UNL A   1      47.946  45.744  26.924  1.00  0.00     0.010 A 
ATOM     30  C   UNL A   1      47.156  48.119  28.146  1.00  0.00     0.004 A 
ATOM     31  C   UNL A   1      48.852  46.803  27.058  1.00  0.00     0.004 A 
ATOM     32  C   UNL A   1      48.466  47.995  27.676  1.00  0.00    -0.051 A 
ATOM     33  C   UNL A   1      49.431  49.129  27.852  1.00  0.00     0.044 C 
ENDBRANCH  15  27
BRANCH   7  34
ATOM     34  C   UNL A   1      45.084  41.288  28.414  1.00  0.00     0.115 C 
BRANCH  34  35
ATOM     35  C   UNL A   1      43.962  40.457  27.816  1.00  0.00    -0.041 A 
ATOM     36  C   UNL A   1      42.651  40.960  27.858  1.00  0.00     0.004 A 
ATOM     37  C   UNL A   1      44.142  39.191  27.259  1.00  0.00     0.004 A 
ATOM     38  C   UNL A   1      41.575  40.221  27.351  1.00  0.00     0.000 A 
ATOM     39  C   UNL A   1      43.074  38.450  26.747  1.00  0.00     0.000 A 
ATOM     40  C   UNL A   1      41.787  38.964  26.794  1.00  0.00     0.000 A 
ENDBRANCH  34  35
ENDBRANCH   7  34
ENDBRANCH   4   7
ENDBRANCH   2   3
ENDBRANCH   1   2
BRANCH   1  41
ATOM     41  C   UNL A   1      48.279  37.205  27.332  1.00  0.00     0.118 C 
BRANCH  41  42
ATOM     42  N   UNL A   1      47.696  37.750  28.545  1.00  0.00    -0.352 N 
ATOM     43  C   UNL A   1      46.627  37.323  29.294  1.00  0.00     0.251 C 
ATOM     44  H   UNL A   1      48.141  38.559  28.887  1.00  0.00     0.163 HD
ATOM     45  O   UNL A   1      46.166  38.080  30.146  1.00  0.00    -0.269 OA
BRANCH  43  46
ATOM     46  C   UNL A   1      46.012  35.986  29.101  1.00  0.00     0.039 A 
ATOM     47  C   UNL A   1      46.323  34.974  30.018  1.00  0.00     0.014 A 
ATOM     48  C   UNL A   1      45.216  35.679  27.995  1.00  0.00     0.014 A 
ATOM     49  C   UNL A   1      45.816  33.682  29.844  1.00  0.00     0.010 A 
ATOM     50  C   UNL A   1      44.636  34.416  27.871  1.00  0.00     0.010 A 
ATOM     51  C   UNL A   1      44.951  33.394  28.778  1.00  0.00    -0.014 A 
BRANCH  51  52
ATOM     52  C   UNL A   1      44.412  32.023  28.569  1.00  0.00     0.031 A 
ATOM     53  C   UNL A   1      43.079  31.637  29.154  1.00  0.00     0.074 A 
ATOM     54  C   UNL A   1      45.135  31.109  27.894  1.00  0.00     0.049 A 
ATOM     55  N   UNL A   1      42.469  30.477  29.139  1.00  0.00    -0.248 NA
ATOM     56  C   UNL A   1      42.343  32.688  29.873  1.00  0.00     0.031 C 
ATOM     57  C   UNL A   1      46.457  31.340  27.311  1.00  0.00     0.029 A 
ATOM     58  N   UNL A   1      44.863  29.797  27.592  1.00  0.00    -0.354 N 
ATOM     59  C   UNL A   1      41.298  30.654  29.866  1.00  0.00     0.074 A 
ATOM     60  C   UNL A   1      41.303  32.018  30.348  1.00  0.00     0.031 C 
ATOM     61  C   UNL A   1      46.870  30.217  26.700  1.00  0.00     0.029 A 
ATOM     62  C   UNL A   1      45.861  29.177  26.880  1.00  0.00     0.049 A 
ATOM     63  H   UNL A   1      44.030  29.344  27.860  1.00  0.00     0.167 HD
ATOM     64  C   UNL A   1      40.296  29.770  30.090  1.00  0.00     0.037 A 
ATOM     65  C   UNL A   1      45.955  27.912  26.430  1.00  0.00     0.037 A 
ATOM     66  C   UNL A   1      40.270  28.425  29.578  1.00  0.00     0.049 A 
ATOM     67  C   UNL A   1      44.828  26.949  26.688  1.00  0.00     0.074 A 
ATOM     68  C   UNL A   1      39.269  27.476  29.692  1.00  0.00     0.029 A 
ATOM     69  N   UNL A   1      41.295  27.840  28.850  1.00  0.00    -0.354 N 
ATOM     70  N   UNL A   1      43.699  27.147  27.323  1.00  0.00    -0.248 NA
ATOM     71  C   UNL A   1      44.988  25.587  26.161  1.00  0.00     0.031 C 
ATOM     72  C   UNL A   1      39.705  26.303  29.067  1.00  0.00     0.029 A 
ATOM     73  C   UNL A   1      40.959  26.535  28.526  1.00  0.00     0.049 A 
ATOM     74  H   UNL A   1      42.136  28.285  28.600  1.00  0.00     0.167 HD
ATOM     75  C   UNL A   1      43.005  25.948  27.255  1.00  0.00     0.074 A 
ATOM     76  C   UNL A   1      43.833  25.029  26.501  1.00  0.00     0.031 C 
ATOM     77  C   UNL A   1      41.792  25.634  27.771  1.00  0.00     0.037 A 
BRANCH  64  78
ATOM     78  C   UNL A   1      39.138  30.232  30.928  1.00  0.00     0.064 A 
ATOM     79  C   UNL A   1      39.122  30.060  32.321  1.00  0.00     0.173 A 
ATOM     80  C   UNL A   1      38.045  30.882  30.336  1.00  0.00     0.173 A 
ATOM     81  F   UNL A   1      40.138  29.436  32.935  1.00  0.00    -0.203 F 
ATOM     82  C   UNL A   1      38.040  30.490  33.085  1.00  0.00     0.198 A 
ATOM     83  C   UNL A   1      36.978  31.339  31.106  1.00  0.00     0.198 A 
ATOM     84  F   UNL A   1      38.012  31.081  29.009  1.00  0.00    -0.203 F 
ATOM     85  F   UNL A   1      38.024  30.268  34.405  1.00  0.00    -0.200 F 
ATOM     86  C   UNL A   1      36.973  31.135  32.478  1.00  0.00     0.200 A 
ATOM     87  F   UNL A   1      35.953  31.973  30.521  1.00  0.00    -0.200 F 
ATOM     88  F   UNL A   1      35.934  31.552  33.215  1.00  0.00    -0.200 F 
ENDBRANCH  64  78
BRANCH  65  89
ATOM     89  C   UNL A   1      47.154  27.489  25.662  1.00  0.00     0.064 A 
ATOM     90  C   UNL A   1      48.246  26.893  26.306  1.00  0.00     0.173 A 
ATOM     91  C   UNL A   1      47.231  27.663  24.272  1.00  0.00     0.173 A 
ATOM     92  F   UNL A   1      48.227  26.726  27.638  1.00  0.00    -0.203 F 
ATOM     93  C   UNL A   1      49.377  26.501  25.595  1.00  0.00     0.198 A 
ATOM     94  C   UNL A   1      48.352  27.248  23.557  1.00  0.00     0.198 A 
ATOM     95  F   UNL A   1      46.212  28.227  23.608  1.00  0.00    -0.203 F 
ATOM     96  F   UNL A   1      50.423  25.969  26.241  1.00  0.00    -0.200 F 
ATOM     97  C   UNL A   1      49.426  26.673  24.219  1.00  0.00     0.200 A 
ATOM     98  F   UNL A   1      48.392  27.404  22.227  1.00  0.00    -0.200 F 
ATOM     99  F   UNL A   1      50.512  26.289  23.533  1.00  0.00    -0.200 F 
ENDBRANCH  65  89
BRANCH  77 100
ATOM    100  C   UNL A   1      41.274  24.249  27.518  1.00  0.00     0.064 A 
ATOM    101  C   UNL A   1      40.204  24.014  26.642  1.00  0.00     0.173 A 
ATOM    102  C   UNL A   1      41.880  23.141  28.128  1.00  0.00     0.173 A 
ATOM    103  F   UNL A   1      39.582  25.043  26.046  1.00  0.00    -0.203 F 
ATOM    104  C   UNL A   1      39.746  22.722  26.403  1.00  0.00     0.198 A 
ATOM    105  C   UNL A   1      41.437  21.847  27.865  1.00  0.00     0.198 A 
ATOM    106  F   UNL A   1      42.911  23.311  28.969  1.00  0.00    -0.203 F 
ATOM    107  F   UNL A   1      38.694  22.524  25.596  1.00  0.00    -0.200 F 
ATOM    108  C   UNL A   1      40.366  21.639  27.009  1.00  0.00     0.200 A 
ATOM    109  F   UNL A   1      42.045  20.802  28.443  1.00  0.00    -0.200 F 
ATOM    110  F   UNL A   1      39.928  20.396  26.773  1.00  0.00    -0.200 F 
ENDBRANCH  77 100
ENDBRANCH  51  52
ENDBRANCH  43  46
ENDBRANCH  41  42
ENDBRANCH   1  41
TORSDOF 15
ENDMDL
MODEL 2
REMARK VINA RESULT:     -12.3      7.437     15.726
REMARK SMILES COc1ccccc1N1C(=O)[C@@H]2[C@@H](C1=O)[C@@](Cc1ccccc1)(C(=O)NCCCNC(=O)c1ccc(-c3c4nc(c(-c5c(F)c(F)c(F)c(F)c5F)c5ccc([nH]5)c(-c5c(F)c(F)c(F)c(F)c5F)c5nc(c(-c6c(F)c(F)c(F)c(F)c6F)c6ccc3[nH]6)C=C5)C=C4)cc1)[NH2+][C@H]2c1ccc(C)cc1
REMARK SMILES IDX 28 1 27 2 26 3 24 4 25 5 16 7 9 8 10 9 14 10 11 11 12 12
REMARK SMILES IDX 13 13 15 14 97 15 96 16 8 19 3 20 4 21 5 22 7 23 6 24 2 25
REMARK SMILES IDX 1 26 98 27 99 28 104 29 100 30 103 31 101 32 102 33 17 34
REMARK SMILES IDX 18 35 19 36 23 37 20 38 22 39 21 40 29 41 30 42 31 43 32 45
REMARK SMILES IDX 33 46 34 47 95 48 35 49 94 50 36 51 37 52 38 53 88 54 39 55
REMARK SMILES IDX 93 56 87 57 89 58 40 59 92 60 86 61 85 62 41 64 73 65 53 66
REMARK SMILES IDX 72 67 54 68 57 69 71 70 90 71 55 72 56 73 70 75 91 76 58 77
REMARK SMILES IDX 42 78 43 79 51 80 44 81 45 82 49 83 52 84 46 85 47 86 50 87
REMARK SMILES IDX 48 88 74 89 75 90 83 91 76 92 77 93 81 94 84 95 78 96 79 97
REMARK SMILES IDX 82 98 80 99 59 100 60 101 68 102 61 103 62 104 66 105 69 106
REMARK SMILES IDX 63 107 64 108 67 109 65 110
REMARK H PARENT 26 6 96 17 96 18 30 44 89 63 57 74
REMARK Flexibility Score: inf
ROOT
ATOM      1  C   UNL A   1      35.031  21.639  26.570  1.00  0.00     0.042 C 
ENDROOT
BRANCH   1   2
ATOM      2  C   UNL A   1      34.516  22.519  27.709  1.00  0.00     0.118 C 
BRANCH   2   3
ATOM      3  N   UNL A   1      33.119  22.877  27.495  1.00  0.00    -0.351 N 
ATOM      4  C   UNL A   1      32.517  24.002  27.030  1.00  0.00     0.282 C 
ATOM      5  O   UNL A   1      31.392  24.199  27.513  1.00  0.00    -0.268 OA
ATOM      6  H   UNL A   1      32.487  22.160  27.735  1.00  0.00     0.163 HD
BRANCH   4   7
ATOM      7  C   UNL A   1      33.003  24.855  25.804  1.00  0.00     0.192 C 
ATOM      8  N   UNL A   1      29.844  25.882  24.112  1.00  0.00    -0.246 N 
ATOM      9  C   UNL A   1      30.352  24.881  23.291  1.00  0.00     0.244 C 
ATOM     10  C   UNL A   1      30.547  25.944  25.307  1.00  0.00     0.245 C 
ATOM     11  O   UNL A   1      30.060  24.596  22.146  1.00  0.00    -0.273 OA
ATOM     12  C   UNL A   1      31.372  24.183  24.152  1.00  0.00     0.162 C 
ATOM     13  C   UNL A   1      31.874  25.375  24.941  1.00  0.00     0.170 C 
ATOM     14  O   UNL A   1      30.163  26.320  26.400  1.00  0.00    -0.273 OA
ATOM     15  C   UNL A   1      32.674  23.598  23.682  1.00  0.00     0.228 C 
ATOM     16  N   UNL A   1      33.637  23.865  24.807  1.00  0.00    -0.326 N 
ATOM     17  H   UNL A   1      33.852  22.991  25.286  1.00  0.00     0.347 HD
ATOM     18  H   UNL A   1      34.497  24.266  24.430  1.00  0.00     0.347 HD
BRANCH   8  19
ATOM     19  C   UNL A   1      28.791  26.760  23.808  1.00  0.00     0.094 A 
ATOM     20  C   UNL A   1      29.038  27.931  23.064  1.00  0.00     0.143 A 
ATOM     21  C   UNL A   1      28.033  28.874  22.859  1.00  0.00     0.048 A 
ATOM     22  C   UNL A   1      26.756  28.637  23.361  1.00  0.00     0.004 A 
ATOM     23  C   UNL A   1      27.494  26.505  24.257  1.00  0.00     0.031 A 
ATOM     24  C   UNL A   1      26.485  27.452  24.048  1.00  0.00     0.002 A 
BRANCH  20  25
ATOM     25  O   UNL A   1      30.261  28.186  22.490  1.00  0.00    -0.495 OA
ATOM     26  C   UNL A   1      30.558  29.584  22.532  1.00  0.00     0.278 C 
ENDBRANCH  20  25
ENDBRANCH   8  19
BRANCH  15  27
ATOM     27  C   UNL A   1      32.587  22.125  23.331  1.00  0.00     0.010 A 
ATOM     28  C   UNL A   1      32.904  21.119  24.259  1.00  0.00     0.010 A 
ATOM     29  C   UNL A   1      32.155  21.732  22.056  1.00  0.00     0.010 A 
ATOM     30  C   UNL A   1      32.767  19.768  23.933  1.00  0.00     0.004 A 
ATOM     31  C   UNL A   1      32.021  20.378  21.728  1.00  0.00     0.004 A 
ATOM     32  C   UNL A   1      32.318  19.386  22.666  1.00  0.00    -0.051 A 
ATOM     33  C   UNL A   1      32.153  17.932  22.341  1.00  0.00     0.044 C 
ENDBRANCH  15  27
BRANCH   7  34
ATOM     34  C   UNL A   1      34.056  25.974  26.030  1.00  0.00     0.115 C 
BRANCH  34  35
ATOM     35  C   UNL A   1      33.650  27.438  26.029  1.00  0.00    -0.041 A 
ATOM     36  C   UNL A   1      33.122  27.994  27.206  1.00  0.00     0.004 A 
ATOM     37  C   UNL A   1      33.727  28.267  24.911  1.00  0.00     0.004 A 
ATOM     38  C   UNL A   1      32.702  29.329  27.252  1.00  0.00     0.000 A 
ATOM     39  C   UNL A   1      33.313  29.602  24.949  1.00  0.00     0.000 A 
ATOM     40  C   UNL A   1      32.798  30.134  26.121  1.00  0.00     0.000 A 
ENDBRANCH  34  35
ENDBRANCH   7  34
ENDBRANCH   4   7
ENDBRANCH   2   3
ENDBRANCH   1   2
BRANCH   1  41
ATOM     41  C   UNL A   1      36.333  22.129  25.953  1.00  0.00     0.118 C 
BRANCH  41  42
ATOM     42  N   UNL A   1      37.354  21.097  25.947  1.00  0.00    -0.352 N 
ATOM     43  C   UNL A   1      38.720  21.189  26.051  1.00  0.00     0.251 C 
ATOM     44  H   UNL A   1      37.010  20.179  25.855  1.00  0.00     0.163 HD
ATOM     45  O   UNL A   1      39.400  20.200  25.779  1.00  0.00    -0.269 OA
BRANCH  43  46
ATOM     46  C   UNL A   1      39.397  22.441  26.473  1.00  0.00     0.039 A 
ATOM     47  C   UNL A   1      38.999  23.645  25.877  1.00  0.00     0.014 A 
ATOM     48  C   UNL A   1      40.472  22.447  27.366  1.00  0.00     0.014 A 
ATOM     49  C   UNL A   1      39.650  24.840  26.198  1.00  0.00     0.010 A 
ATOM     50  C   UNL A   1      41.060  23.652  27.755  1.00  0.00     0.010 A 
ATOM     51  C   UNL A   1      40.675  24.860  27.155  1.00  0.00    -0.014 A 
BRANCH  51  52
ATOM     52  C   UNL A   1      41.386  26.120  27.500  1.00  0.00     0.031 A 
ATOM     53  C   UNL A   1      40.671  27.212  28.251  1.00  0.00     0.074 A 
ATOM     54  C   UNL A   1      42.660  26.306  27.103  1.00  0.00     0.049 A 
ATOM     55  N   UNL A   1      41.095  28.406  28.587  1.00  0.00    -0.248 NA
ATOM     56  C   UNL A   1      39.284  26.936  28.657  1.00  0.00     0.031 C 
ATOM     57  C   UNL A   1      43.456  25.347  26.337  1.00  0.00     0.029 A 
ATOM     58  N   UNL A   1      43.507  27.372  27.282  1.00  0.00    -0.354 N 
ATOM     59  C   UNL A   1      40.023  29.027  29.217  1.00  0.00     0.074 A 
ATOM     60  C   UNL A   1      38.914  28.099  29.175  1.00  0.00     0.031 C 
ATOM     61  C   UNL A   1      44.681  25.856  26.133  1.00  0.00     0.029 A 
ATOM     62  C   UNL A   1      44.747  27.191  26.721  1.00  0.00     0.049 A 
ATOM     63  H   UNL A   1      43.250  28.189  27.769  1.00  0.00     0.167 HD
ATOM     64  C   UNL A   1      39.973  30.249  29.800  1.00  0.00     0.037 A 
ATOM     65  C   UNL A   1      45.814  28.011  26.678  1.00  0.00     0.037 A 
ATOM     66  C   UNL A   1      41.086  31.157  29.878  1.00  0.00     0.049 A 
ATOM     67  C   UNL A   1      45.736  29.362  27.336  1.00  0.00     0.074 A 
ATOM     68  C   UNL A   1      41.155  32.388  30.507  1.00  0.00     0.029 A 
ATOM     69  N   UNL A   1      42.330  30.930  29.306  1.00  0.00    -0.354 N 
ATOM     70  N   UNL A   1      44.737  29.912  27.981  1.00  0.00    -0.248 NA
ATOM     71  C   UNL A   1      46.938  30.204  27.263  1.00  0.00     0.031 C 
ATOM     72  C   UNL A   1      42.428  32.924  30.283  1.00  0.00     0.029 A 
ATOM     73  C   UNL A   1      43.166  32.008  29.552  1.00  0.00     0.049 A 
ATOM     74  H   UNL A   1      42.581  30.124  28.803  1.00  0.00     0.167 HD
ATOM     75  C   UNL A   1      45.192  31.151  28.409  1.00  0.00     0.074 A 
ATOM     76  C   UNL A   1      46.566  31.267  27.965  1.00  0.00     0.031 C 
ATOM     77  C   UNL A   1      44.532  32.107  29.106  1.00  0.00     0.037 A 
BRANCH  64  78
ATOM     78  C   UNL A   1      38.666  30.675  30.405  1.00  0.00     0.064 A 
ATOM     79  C   UNL A   1      37.627  31.199  29.620  1.00  0.00     0.173 A 
ATOM     80  C   UNL A   1      38.437  30.529  31.781  1.00  0.00     0.173 A 
ATOM     81  F   UNL A   1      37.798  31.368  28.300  1.00  0.00    -0.203 F 
ATOM     82  C   UNL A   1      36.422  31.593  30.195  1.00  0.00     0.198 A 
ATOM     83  C   UNL A   1      37.220  30.896  32.349  1.00  0.00     0.198 A 
ATOM     84  F   UNL A   1      39.393  30.026  32.578  1.00  0.00    -0.203 F 
ATOM     85  F   UNL A   1      35.465  32.140  29.433  1.00  0.00    -0.200 F 
ATOM     86  C   UNL A   1      36.217  31.436  31.558  1.00  0.00     0.200 A 
ATOM     87  F   UNL A   1      37.017  30.732  33.664  1.00  0.00    -0.200 F 
ATOM     88  F   UNL A   1      35.055  31.812  32.109  1.00  0.00    -0.200 F 
ENDBRANCH  64  78
BRANCH  65  89
ATOM     89  C   UNL A   1      47.063  27.564  26.008  1.00  0.00     0.064 A 
ATOM     90  C   UNL A   1      47.220  27.695  24.622  1.00  0.00     0.173 A 
ATOM     91  C   UNL A   1      48.123  27.006  26.736  1.00  0.00     0.173 A 
ATOM     92  F   UNL A   1      46.223  28.203  23.881  1.00  0.00    -0.203 F 
ATOM     93  C   UNL A   1      48.384  27.271  23.985  1.00  0.00     0.198 A 
ATOM     94  C   UNL A   1      49.297  26.605  26.102  1.00  0.00     0.198 A 
ATOM     95  F   UNL A   1      48.024  26.860  28.065  1.00  0.00    -0.203 F 
ATOM     96  F   UNL A   1      48.493  27.372  22.653  1.00  0.00    -0.200 F 
ATOM     97  C   UNL A   1      49.425  26.733  24.727  1.00  0.00     0.200 A 
ATOM     98  F   UNL A   1      50.307  26.097  26.822  1.00  0.00    -0.200 F 
ATOM     99  F   UNL A   1      50.548  26.331  24.115  1.00  0.00    -0.200 F 
ENDBRANCH  65  89
BRANCH  77 100
ATOM    100  C   UNL A   1      45.293  33.352  29.455  1.00  0.00     0.064 A 
ATOM    101  C   UNL A   1      46.063  33.439  30.624  1.00  0.00     0.173 A 
ATOM    102  C   UNL A   1      45.283  34.457  28.590  1.00  0.00     0.173 A 
ATOM    103  F   UNL A   1      46.092  32.415  31.490  1.00  0.00    -0.203 F 
ATOM    104  C   UNL A   1      46.778  34.595  30.925  1.00  0.00     0.198 A 
ATOM    105  C   UNL A   1      46.022  35.601  28.881  1.00  0.00     0.198 A 
ATOM    106  F   UNL A   1      44.568  34.421  27.456  1.00  0.00    -0.203 F 
ATOM    107  F   UNL A   1      47.472  34.673  32.069  1.00  0.00    -0.200 F 
ATOM    108  C   UNL A   1      46.762  35.672  30.051  1.00  0.00     0.200 A 
ATOM    109  F   UNL A   1      46.014  36.636  28.029  1.00  0.00    -0.200 F 
ATOM    110  F   UNL A   1      47.456  36.781  30.340  1.00  0.00    -0.200 F 
ENDBRANCH  77 100
ENDBRANCH  51  52
ENDBRANCH  43  46
ENDBRANCH  41  42
ENDBRANCH   1  41
TORSDOF 15
ENDMDL
MODEL 3
REMARK VINA RESULT:     -12.0      7.412     14.612
REMARK SMILES COc1ccccc1N1C(=O)[C@@H]2[C@@H](C1=O)[C@@](Cc1ccccc1)(C(=O)NCCCNC(=O)c1ccc(-c3c4nc(c(-c5c(F)c(F)c(F)c(F)c5F)c5ccc([nH]5)c(-c5c(F)c(F)c(F)c(F)c5F)c5nc(c(-c6c(F)c(F)c(F)c(F)c6F)c6ccc3[nH]6)C=C5)C=C4)cc1)[NH2+][C@H]2c1ccc(C)cc1
REMARK SMILES IDX 28 1 27 2 26 3 24 4 25 5 16 7 9 8 10 9 14 10 11 11 12 12
REMARK SMILES IDX 13 13 15 14 97 15 96 16 8 19 3 20 4 21 5 22 7 23 6 24 2 25
REMARK SMILES IDX 1 26 98 27 99 28 104 29 100 30 103 31 101 32 102 33 17 34
REMARK SMILES IDX 18 35 19 36 23 37 20 38 22 39 21 40 29 41 30 42 31 43 32 45
REMARK SMILES IDX 33 46 34 47 95 48 35 49 94 50 36 51 37 52 38 53 88 54 39 55
REMARK SMILES IDX 93 56 87 57 89 58 40 59 92 60 86 61 85 62 41 64 73 65 53 66
REMARK SMILES IDX 72 67 54 68 57 69 71 70 90 71 55 72 56 73 70 75 91 76 58 77
REMARK SMILES IDX 42 78 43 79 51 80 44 81 45 82 49 83 52 84 46 85 47 86 50 87
REMARK SMILES IDX 48 88 74 89 75 90 83 91 76 92 77 93 81 94 84 95 78 96 79 97
REMARK SMILES IDX 82 98 80 99 59 100 60 101 68 102 61 103 62 104 66 105 69 106
REMARK SMILES IDX 63 107 64 108 67 109 65 110
REMARK H PARENT 26 6 96 17 96 18 30 44 89 63 57 74
REMARK Flexibility Score: inf
ROOT
ATOM      1  C   UNL A   1      35.102  23.187  23.176  1.00  0.00     0.042 C 
ENDROOT
BRANCH   1   2
ATOM      2  C   UNL A   1      33.836  24.044  23.210  1.00  0.00     0.118 C 
BRANCH   2   3
ATOM      3  N   UNL A   1      34.141  25.428  22.870  1.00  0.00    -0.351 N 
ATOM      4  C   UNL A   1      33.373  26.462  22.435  1.00  0.00     0.282 C 
ATOM      5  O   UNL A   1      33.981  27.259  21.706  1.00  0.00    -0.268 OA
ATOM      6  H   UNL A   1      35.093  25.660  22.975  1.00  0.00     0.163 HD
BRANCH   4   7
ATOM      7  C   UNL A   1      31.949  26.830  22.984  1.00  0.00     0.192 C 
ATOM      8  N   UNL A   1      32.649  29.120  25.841  1.00  0.00    -0.246 N 
ATOM      9  C   UNL A   1      32.294  27.922  26.452  1.00  0.00     0.244 C 
ATOM     10  C   UNL A   1      32.829  28.943  24.476  1.00  0.00     0.245 C 
ATOM     11  O   UNL A   1      31.966  27.708  27.603  1.00  0.00    -0.273 OA
ATOM     12  C   UNL A   1      32.417  26.899  25.354  1.00  0.00     0.162 C 
ATOM     13  C   UNL A   1      31.981  27.755  24.181  1.00  0.00     0.170 C 
ATOM     14  O   UNL A   1      33.543  29.568  23.713  1.00  0.00    -0.273 OA
ATOM     15  C   UNL A   1      31.534  25.699  25.161  1.00  0.00     0.228 C 
ATOM     16  N   UNL A   1      31.402  25.562  23.668  1.00  0.00    -0.326 N 
ATOM     17  H   UNL A   1      31.933  24.750  23.353  1.00  0.00     0.347 HD
ATOM     18  H   UNL A   1      30.419  25.440  23.423  1.00  0.00     0.347 HD
BRANCH   8  19
ATOM     19  C   UNL A   1      32.785  30.371  26.465  1.00  0.00     0.094 A 
ATOM     20  C   UNL A   1      33.976  30.701  27.139  1.00  0.00     0.143 A 
ATOM     21  C   UNL A   1      34.083  31.885  27.867  1.00  0.00     0.048 A 
ATOM     22  C   UNL A   1      33.011  32.772  27.895  1.00  0.00     0.004 A 
ATOM     23  C   UNL A   1      31.737  31.293  26.452  1.00  0.00     0.031 A 
ATOM     24  C   UNL A   1      31.846  32.483  27.181  1.00  0.00     0.002 A 
BRANCH  20  25
ATOM     25  O   UNL A   1      35.088  29.894  27.092  1.00  0.00    -0.495 OA
ATOM     26  C   UNL A   1      35.532  29.568  28.412  1.00  0.00     0.278 C 
ENDBRANCH  20  25
ENDBRANCH   8  19
BRANCH  15  27
ATOM     27  C   UNL A   1      32.068  24.439  25.813  1.00  0.00     0.010 A 
ATOM     28  C   UNL A   1      31.371  23.221  25.761  1.00  0.00     0.010 A 
ATOM     29  C   UNL A   1      33.306  24.462  26.472  1.00  0.00     0.010 A 
ATOM     30  C   UNL A   1      31.906  22.059  26.323  1.00  0.00     0.004 A 
ATOM     31  C   UNL A   1      33.841  23.298  27.038  1.00  0.00     0.004 A 
ATOM     32  C   UNL A   1      33.148  22.087  26.961  1.00  0.00    -0.051 A 
ATOM     33  C   UNL A   1      33.719  20.826  27.538  1.00  0.00     0.044 C 
ENDBRANCH  15  27
BRANCH   7  34
ATOM     34  C   UNL A   1      30.850  27.291  21.988  1.00  0.00     0.115 C 
BRANCH  34  35
ATOM     35  C   UNL A   1      29.852  28.369  22.374  1.00  0.00    -0.041 A 
ATOM     36  C   UNL A   1      28.645  27.988  22.984  1.00  0.00     0.004 A 
ATOM     37  C   UNL A   1      30.036  29.729  22.120  1.00  0.00     0.004 A 
ATOM     38  C   UNL A   1      27.677  28.937  23.330  1.00  0.00     0.000 A 
ATOM     39  C   UNL A   1      29.076  30.683  22.466  1.00  0.00     0.000 A 
ATOM     40  C   UNL A   1      27.892  30.287  23.071  1.00  0.00     0.000 A 
ENDBRANCH  34  35
ENDBRANCH   7  34
ENDBRANCH   4   7
ENDBRANCH   2   3
ENDBRANCH   1   2
BRANCH   1  41
ATOM     41  C   UNL A   1      36.031  23.412  24.360  1.00  0.00     0.118 C 
BRANCH  41  42
ATOM     42  N   UNL A   1      36.540  22.162  24.897  1.00  0.00    -0.352 N 
ATOM     43  C   UNL A   1      37.695  21.889  25.586  1.00  0.00     0.251 C 
ATOM     44  H   UNL A   1      35.960  21.382  24.741  1.00  0.00     0.163 HD
ATOM     45  O   UNL A   1      38.032  20.715  25.730  1.00  0.00    -0.269 OA
BRANCH  43  46
ATOM     46  C   UNL A   1      38.548  22.963  26.155  1.00  0.00     0.039 A 
ATOM     47  C   UNL A   1      38.206  24.295  25.887  1.00  0.00     0.014 A 
ATOM     48  C   UNL A   1      39.723  22.692  26.862  1.00  0.00     0.014 A 
ATOM     49  C   UNL A   1      39.013  25.338  26.350  1.00  0.00     0.010 A 
ATOM     50  C   UNL A   1      40.478  23.734  27.402  1.00  0.00     0.010 A 
ATOM     51  C   UNL A   1      40.149  25.070  27.129  1.00  0.00    -0.014 A 
BRANCH  51  52
ATOM     52  C   UNL A   1      41.026  26.166  27.620  1.00  0.00     0.031 A 
ATOM     53  C   UNL A   1      40.474  27.225  28.538  1.00  0.00     0.074 A 
ATOM     54  C   UNL A   1      42.307  26.240  27.209  1.00  0.00     0.049 A 
ATOM     55  N   UNL A   1      41.058  28.294  29.021  1.00  0.00    -0.248 NA
ATOM     56  C   UNL A   1      39.069  27.076  28.950  1.00  0.00     0.031 C 
ATOM     57  C   UNL A   1      42.956  25.304  26.291  1.00  0.00     0.029 A 
ATOM     58  N   UNL A   1      43.291  27.152  27.505  1.00  0.00    -0.354 N 
ATOM     59  C   UNL A   1      40.088  28.953  29.766  1.00  0.00     0.074 A 
ATOM     60  C   UNL A   1      38.865  28.191  29.635  1.00  0.00     0.031 C 
ATOM     61  C   UNL A   1      44.235  25.674  26.118  1.00  0.00     0.029 A 
ATOM     62  C   UNL A   1      44.487  26.894  26.881  1.00  0.00     0.049 A 
ATOM     63  H   UNL A   1      43.152  27.919  28.108  1.00  0.00     0.167 HD
ATOM     64  C   UNL A   1      40.209  30.077  30.513  1.00  0.00     0.037 A 
ATOM     65  C   UNL A   1      45.652  27.566  26.915  1.00  0.00     0.037 A 
ATOM     66  C   UNL A   1      41.434  30.814  30.677  1.00  0.00     0.049 A 
ATOM     67  C   UNL A   1      45.764  28.810  27.755  1.00  0.00     0.074 A 
ATOM     68  C   UNL A   1      41.675  31.924  31.468  1.00  0.00     0.029 A 
ATOM     69  N   UNL A   1      42.628  30.511  30.038  1.00  0.00    -0.354 N 
ATOM     70  N   UNL A   1      44.857  29.388  28.503  1.00  0.00    -0.248 NA
ATOM     71  C   UNL A   1      47.066  29.492  27.758  1.00  0.00     0.031 C 
ATOM     72  C   UNL A   1      43.004  32.318  31.276  1.00  0.00     0.029 A 
ATOM     73  C   UNL A   1      43.603  31.427  30.401  1.00  0.00     0.049 A 
ATOM     74  H   UNL A   1      42.762  29.758  29.420  1.00  0.00     0.167 HD
ATOM     75  C   UNL A   1      45.479  30.484  29.083  1.00  0.00     0.074 A 
ATOM     76  C   UNL A   1      46.849  30.483  28.612  1.00  0.00     0.031 C 
ATOM     77  C   UNL A   1      44.964  31.410  29.927  1.00  0.00     0.037 A 
BRANCH  64  78
ATOM     78  C   UNL A   1      38.980  30.579  31.215  1.00  0.00     0.064 A 
ATOM     79  C   UNL A   1      37.987  31.301  30.536  1.00  0.00     0.173 A 
ATOM     80  C   UNL A   1      38.777  30.308  32.577  1.00  0.00     0.173 A 
ATOM     81  F   UNL A   1      38.137  31.595  29.235  1.00  0.00    -0.203 F 
ATOM     82  C   UNL A   1      36.854  31.764  31.200  1.00  0.00     0.198 A 
ATOM     83  C   UNL A   1      37.628  30.745  33.232  1.00  0.00     0.198 A 
ATOM     84  F   UNL A   1      39.690  29.615  33.274  1.00  0.00    -0.203 F 
ATOM     85  F   UNL A   1      35.946  32.496  30.543  1.00  0.00    -0.200 F 
ATOM     86  C   UNL A   1      36.673  31.480  32.546  1.00  0.00     0.200 A 
ATOM     87  F   UNL A   1      37.447  30.460  34.529  1.00  0.00    -0.200 F 
ATOM     88  F   UNL A   1      35.580  31.922  33.183  1.00  0.00    -0.200 F 
ENDBRANCH  64  78
BRANCH  65  89
ATOM     89  C   UNL A   1      46.820  27.061  26.148  1.00  0.00     0.064 A 
ATOM     90  C   UNL A   1      47.003  27.414  24.804  1.00  0.00     0.173 A 
ATOM     91  C   UNL A   1      47.777  26.225  26.740  1.00  0.00     0.173 A 
ATOM     92  F   UNL A   1      46.101  28.194  24.189  1.00  0.00    -0.203 F 
ATOM     93  C   UNL A   1      48.090  26.937  24.076  1.00  0.00     0.198 A 
ATOM     94  C   UNL A   1      48.878  25.769  26.019  1.00  0.00     0.198 A 
ATOM     95  F   UNL A   1      47.649  25.859  28.024  1.00  0.00    -0.203 F 
ATOM     96  F   UNL A   1      48.220  27.259  22.781  1.00  0.00    -0.200 F 
ATOM     97  C   UNL A   1      49.031  26.121  24.686  1.00  0.00     0.200 A 
ATOM     98  F   UNL A   1      49.792  24.990  26.613  1.00  0.00    -0.200 F 
ATOM     99  F   UNL A   1      50.081  25.668  23.986  1.00  0.00    -0.200 F 
ENDBRANCH  65  89
BRANCH  77 100
ATOM    100  C   UNL A   1      45.888  32.484  30.417  1.00  0.00     0.064 A 
ATOM    101  C   UNL A   1      46.653  32.321  31.582  1.00  0.00     0.173 A 
ATOM    102  C   UNL A   1      46.040  33.676  29.693  1.00  0.00     0.173 A 
ATOM    103  F   UNL A   1      46.531  31.204  32.317  1.00  0.00    -0.203 F 
ATOM    104  C   UNL A   1      47.519  33.320  32.015  1.00  0.00     0.198 A 
ATOM    105  C   UNL A   1      46.929  34.662  30.114  1.00  0.00     0.198 A 
ATOM    106  F   UNL A   1      45.336  33.880  28.569  1.00  0.00    -0.203 F 
ATOM    107  F   UNL A   1      48.208  33.161  33.154  1.00  0.00    -0.200 F 
ATOM    108  C   UNL A   1      47.662  34.486  31.278  1.00  0.00     0.200 A 
ATOM    109  F   UNL A   1      47.074  35.784  29.395  1.00  0.00    -0.200 F 
ATOM    110  F   UNL A   1      48.502  35.444  31.694  1.00  0.00    -0.200 F 
ENDBRANCH  77 100
ENDBRANCH  51  52
ENDBRANCH  43  46
ENDBRANCH  41  42
ENDBRANCH   1  41
TORSDOF 15
ENDMDL
