MODEL 1
REMARK VINA RESULT:     -10.4      0.000      0.000
REMARK SMILES C=CC[N@@H+](CC(=O)NCCCNC(=O)c1ccc(-c2c3nc(c(-c4c(F)c(F)c(F)c(F)c4F)c4ccc([nH]4)c(-c4c(F)c(F)c(F)c(F)c4F)c4nc(c(-c5c(F)c(F)c(F)c(F)c5F)c5ccc2[nH]5)C=C4)C=C3)cc1)C1CCCCC1
REMARK SMILES IDX 9 1 8 2 6 3 7 4 5 6 4 7 3 9 2 10 1 11 78 12 79 13 83 14
REMARK SMILES IDX 80 15 82 16 81 17 10 18 11 19 12 20 13 21 14 23 15 24 16 25
REMARK SMILES IDX 77 26 17 27 76 28 18 29 19 30 20 31 70 32 21 33 75 34 69 35
REMARK SMILES IDX 71 36 22 37 74 38 68 39 67 40 23 42 55 43 35 44 54 45 36 46
REMARK SMILES IDX 39 47 53 48 72 49 37 50 38 51 52 53 73 54 40 55 24 56 25 57
REMARK SMILES IDX 33 58 26 59 27 60 31 61 34 62 28 63 29 64 32 65 30 66 56 67
REMARK SMILES IDX 57 68 65 69 58 70 59 71 63 72 66 73 60 74 61 75 64 76 62 77
REMARK SMILES IDX 41 78 42 79 50 80 43 81 44 82 48 83 51 84 45 85 46 86 49 87
REMARK SMILES IDX 47 88
REMARK H PARENT 8 5 4 8 12 22 71 41 39 52
REMARK Flexibility Score: inf
ROOT
ATOM      1  C   UNL A   1      34.436  24.188  24.533  1.00  0.00     0.118 C 
ENDROOT
BRANCH   1   2
ATOM      2  N   UNL A   1      34.127  24.638  23.189  1.00  0.00    -0.351 N 
ATOM      3  C   UNL A   1      33.725  25.849  22.711  1.00  0.00     0.275 C 
ATOM      4  O   UNL A   1      33.501  25.909  21.497  1.00  0.00    -0.269 OA
ATOM      5  H   UNL A   1      34.225  23.943  22.498  1.00  0.00     0.163 HD
BRANCH   3   6
ATOM      6  C   UNL A   1      33.596  27.101  23.600  1.00  0.00     0.364 C 
BRANCH   6   7
ATOM      7  N   UNL A   1      32.441  27.123  24.545  1.00  0.00    -0.321 N 
ATOM      8  H   UNL A   1      32.327  26.223  25.010  1.00  0.00     0.349 HD
BRANCH   7   9
ATOM      9  C   UNL A   1      31.175  27.199  23.837  1.00  0.00     0.291 C 
BRANCH   9  10
ATOM     10  C   UNL A   1      30.177  26.101  24.040  1.00  0.00     0.025 C 
ATOM     11  C   UNL A   1      30.375  24.850  23.594  1.00  0.00     0.010 C 
ENDBRANCH   9  10
ENDBRANCH   7   9
BRANCH   7  12
ATOM     12  C   UNL A   1      32.695  27.931  25.758  1.00  0.00     0.184 C 
ATOM     13  C   UNL A   1      34.157  28.240  26.138  1.00  0.00     0.065 C 
ATOM     14  C   UNL A   1      31.905  29.250  25.619  1.00  0.00     0.065 C 
ATOM     15  C   UNL A   1      34.247  29.087  27.408  1.00  0.00     0.006 C 
ATOM     16  C   UNL A   1      32.030  30.139  26.858  1.00  0.00     0.006 C 
ATOM     17  C   UNL A   1      33.484  30.396  27.237  1.00  0.00     0.000 C 
ENDBRANCH   7  12
ENDBRANCH   6   7
ENDBRANCH   3   6
ENDBRANCH   1   2
BRANCH   1  18
ATOM     18  C   UNL A   1      35.811  23.517  24.594  1.00  0.00     0.042 C 
BRANCH  18  19
ATOM     19  C   UNL A   1      36.377  23.348  25.996  1.00  0.00     0.118 C 
BRANCH  19  20
ATOM     20  N   UNL A   1      37.539  22.480  26.030  1.00  0.00    -0.352 N 
ATOM     21  C   UNL A   1      38.862  22.739  26.301  1.00  0.00     0.251 C 
ATOM     22  H   UNL A   1      37.346  21.537  25.823  1.00  0.00     0.163 HD
ATOM     23  O   UNL A   1      39.687  21.855  26.084  1.00  0.00    -0.269 OA
BRANCH  21  24
ATOM     24  C   UNL A   1      39.331  24.049  26.824  1.00  0.00     0.039 A 
ATOM     25  C   UNL A   1      39.094  24.347  28.173  1.00  0.00     0.014 A 
ATOM     26  C   UNL A   1      39.917  25.024  26.014  1.00  0.00     0.014 A 
ATOM     27  C   UNL A   1      39.480  25.581  28.709  1.00  0.00     0.010 A 
ATOM     28  C   UNL A   1      40.386  26.219  26.567  1.00  0.00     0.010 A 
ATOM     29  C   UNL A   1      40.157  26.521  27.918  1.00  0.00    -0.014 A 
BRANCH  29  30
ATOM     30  C   UNL A   1      40.588  27.836  28.468  1.00  0.00     0.031 A 
ATOM     31  C   UNL A   1      42.038  28.075  28.810  1.00  0.00     0.074 A 
ATOM     32  C   UNL A   1      39.681  28.804  28.702  1.00  0.00     0.049 A 
ATOM     33  N   UNL A   1      42.597  29.114  29.381  1.00  0.00    -0.248 NA
ATOM     34  C   UNL A   1      42.982  26.994  28.485  1.00  0.00     0.031 C 
ATOM     35  C   UNL A   1      38.244  28.700  28.443  1.00  0.00     0.029 A 
ATOM     36  N   UNL A   1      39.832  30.068  29.219  1.00  0.00    -0.354 N 
ATOM     37  C   UNL A   1      43.945  28.803  29.499  1.00  0.00     0.074 A 
ATOM     38  C   UNL A   1      44.116  27.461  28.987  1.00  0.00     0.031 C 
ATOM     39  C   UNL A   1      37.650  29.855  28.781  1.00  0.00     0.029 A 
ATOM     40  C   UNL A   1      38.654  30.769  29.318  1.00  0.00     0.049 A 
ATOM     41  H   UNL A   1      40.702  30.437  29.494  1.00  0.00     0.167 HD
ATOM     42  C   UNL A   1      44.957  29.572  29.968  1.00  0.00     0.037 A 
ATOM     43  C   UNL A   1      38.410  32.005  29.796  1.00  0.00     0.037 A 
ATOM     44  C   UNL A   1      44.801  30.921  30.444  1.00  0.00     0.049 A 
ATOM     45  C   UNL A   1      39.551  32.835  30.320  1.00  0.00     0.074 A 
ATOM     46  C   UNL A   1      45.772  31.792  30.908  1.00  0.00     0.029 A 
ATOM     47  N   UNL A   1      43.594  31.600  30.507  1.00  0.00    -0.354 N 
ATOM     48  N   UNL A   1      40.826  32.539  30.391  1.00  0.00    -0.248 NA
ATOM     49  C   UNL A   1      39.218  34.174  30.827  1.00  0.00     0.031 C 
ATOM     50  C   UNL A   1      45.149  32.988  31.279  1.00  0.00     0.029 A 
ATOM     51  C   UNL A   1      43.795  32.876  31.008  1.00  0.00     0.049 A 
ATOM     52  H   UNL A   1      42.722  31.230  30.236  1.00  0.00     0.167 HD
ATOM     53  C   UNL A   1      41.449  33.663  30.916  1.00  0.00     0.074 A 
ATOM     54  C   UNL A   1      40.415  34.652  31.136  1.00  0.00     0.031 C 
ATOM     55  C   UNL A   1      42.760  33.858  31.196  1.00  0.00     0.037 A 
BRANCH  42  56
ATOM     56  C   UNL A   1      46.337  28.983  29.973  1.00  0.00     0.064 A 
ATOM     57  C   UNL A   1      46.831  28.292  31.090  1.00  0.00     0.173 A 
ATOM     58  C   UNL A   1      47.153  29.059  28.834  1.00  0.00     0.173 A 
ATOM     59  F   UNL A   1      46.094  28.200  32.207  1.00  0.00    -0.203 F 
ATOM     60  C   UNL A   1      48.099  27.716  31.073  1.00  0.00     0.198 A 
ATOM     61  C   UNL A   1      48.410  28.460  28.812  1.00  0.00     0.198 A 
ATOM     62  F   UNL A   1      46.725  29.704  27.738  1.00  0.00    -0.203 F 
ATOM     63  F   UNL A   1      48.565  27.095  32.165  1.00  0.00    -0.200 F 
ATOM     64  C   UNL A   1      48.883  27.793  29.932  1.00  0.00     0.200 A 
ATOM     65  F   UNL A   1      49.162  28.525  27.704  1.00  0.00    -0.200 F 
ATOM     66  F   UNL A   1      50.099  27.230  29.914  1.00  0.00    -0.200 F 
ENDBRANCH  42  56
BRANCH  43  67
ATOM     67  C   UNL A   1      37.026  32.550  29.790  1.00  0.00     0.064 A 
ATOM     68  C   UNL A   1      36.549  33.285  28.695  1.00  0.00     0.173 A 
ATOM     69  C   UNL A   1      36.168  32.379  30.886  1.00  0.00     0.173 A 
ATOM     70  F   UNL A   1      37.342  33.495  27.634  1.00  0.00    -0.203 F 
ATOM     71  C   UNL A   1      35.275  33.851  28.708  1.00  0.00     0.198 A 
ATOM     72  C   UNL A   1      34.884  32.921  30.884  1.00  0.00     0.198 A 
ATOM     73  F   UNL A   1      36.575  31.683  31.956  1.00  0.00    -0.203 F 
ATOM     74  F   UNL A   1      34.866  34.595  27.671  1.00  0.00    -0.200 F 
ATOM     75  C   UNL A   1      34.443  33.665  29.801  1.00  0.00     0.200 A 
ATOM     76  F   UNL A   1      34.078  32.731  31.938  1.00  0.00    -0.200 F 
ATOM     77  F   UNL A   1      33.220  34.214  29.814  1.00  0.00    -0.200 F 
ENDBRANCH  43  67
BRANCH  55  78
ATOM     78  C   UNL A   1      43.162  35.204  31.719  1.00  0.00     0.064 A 
ATOM     79  C   UNL A   1      43.606  36.223  30.864  1.00  0.00     0.173 A 
ATOM     80  C   UNL A   1      43.061  35.491  33.090  1.00  0.00     0.173 A 
ATOM     81  F   UNL A   1      43.734  35.992  29.550  1.00  0.00    -0.203 F 
ATOM     82  C   UNL A   1      43.957  37.474  31.365  1.00  0.00     0.198 A 
ATOM     83  C   UNL A   1      43.387  36.750  33.583  1.00  0.00     0.198 A 
ATOM     84  F   UNL A   1      42.635  34.552  33.946  1.00  0.00    -0.203 F 
ATOM     85  F   UNL A   1      44.419  38.420  30.536  1.00  0.00    -0.200 F 
ATOM     86  C   UNL A   1      43.841  37.738  32.722  1.00  0.00     0.200 A 
ATOM     87  F   UNL A   1      43.263  37.009  34.892  1.00  0.00    -0.200 F 
ATOM     88  F   UNL A   1      44.172  38.945  33.201  1.00  0.00    -0.200 F 
ENDBRANCH  55  78
ENDBRANCH  29  30
ENDBRANCH  21  24
ENDBRANCH  19  20
ENDBRANCH  18  19
ENDBRANCH   1  18
TORSDOF 14
ENDMDL
MODEL 2
REMARK VINA RESULT:     -10.3      4.142      7.893
REMARK SMILES C=CC[N@@H+](CC(=O)NCCCNC(=O)c1ccc(-c2c3nc(c(-c4c(F)c(F)c(F)c(F)c4F)c4ccc([nH]4)c(-c4c(F)c(F)c(F)c(F)c4F)c4nc(c(-c5c(F)c(F)c(F)c(F)c5F)c5ccc2[nH]5)C=C4)C=C3)cc1)C1CCCCC1
REMARK SMILES IDX 9 1 8 2 6 3 7 4 5 6 4 7 3 9 2 10 1 11 78 12 79 13 83 14
REMARK SMILES IDX 80 15 82 16 81 17 10 18 11 19 12 20 13 21 14 23 15 24 16 25
REMARK SMILES IDX 77 26 17 27 76 28 18 29 19 30 20 31 70 32 21 33 75 34 69 35
REMARK SMILES IDX 71 36 22 37 74 38 68 39 67 40 23 42 55 43 35 44 54 45 36 46
REMARK SMILES IDX 39 47 53 48 72 49 37 50 38 51 52 53 73 54 40 55 24 56 25 57
REMARK SMILES IDX 33 58 26 59 27 60 31 61 34 62 28 63 29 64 32 65 30 66 56 67
REMARK SMILES IDX 57 68 65 69 58 70 59 71 63 72 66 73 60 74 61 75 64 76 62 77
REMARK SMILES IDX 41 78 42 79 50 80 43 81 44 82 48 83 51 84 45 85 46 86 49 87
REMARK SMILES IDX 47 88
REMARK H PARENT 8 5 4 8 12 22 71 41 39 52
REMARK Flexibility Score: inf
ROOT
ATOM      1  C   UNL A   1      31.094  30.800  25.347  1.00  0.00     0.118 C 
ENDROOT
BRANCH   1   2
ATOM      2  N   UNL A   1      32.286  29.974  25.402  1.00  0.00    -0.351 N 
ATOM      3  C   UNL A   1      32.853  29.144  24.483  1.00  0.00     0.275 C 
ATOM      4  O   UNL A   1      33.867  28.537  24.848  1.00  0.00    -0.269 OA
ATOM      5  H   UNL A   1      32.772  30.022  26.257  1.00  0.00     0.163 HD
BRANCH   3   6
ATOM      6  C   UNL A   1      32.314  28.987  23.048  1.00  0.00     0.364 C 
BRANCH   6   7
ATOM      7  N   UNL A   1      31.332  27.885  22.829  1.00  0.00    -0.321 N 
ATOM      8  H   UNL A   1      31.071  27.442  23.710  1.00  0.00     0.349 HD
BRANCH   7   9
ATOM      9  C   UNL A   1      31.945  26.752  22.157  1.00  0.00     0.291 C 
BRANCH   9  10
ATOM     10  C   UNL A   1      31.689  25.378  22.694  1.00  0.00     0.025 C 
ATOM     11  C   UNL A   1      30.963  25.158  23.802  1.00  0.00     0.010 C 
ENDBRANCH   9  10
ENDBRANCH   7   9
BRANCH   7  12
ATOM     12  C   UNL A   1      29.986  28.368  22.453  1.00  0.00     0.184 C 
ATOM     13  C   UNL A   1      28.851  28.250  23.490  1.00  0.00     0.065 C 
ATOM     14  C   UNL A   1      30.123  29.836  21.997  1.00  0.00     0.065 C 
ATOM     15  C   UNL A   1      27.529  28.798  22.951  1.00  0.00     0.006 C 
ATOM     16  C   UNL A   1      28.797  30.423  21.509  1.00  0.00     0.006 C 
ATOM     17  C   UNL A   1      27.682  30.257  22.534  1.00  0.00     0.000 C 
ENDBRANCH   7  12
ENDBRANCH   6   7
ENDBRANCH   3   6
ENDBRANCH   1   2
BRANCH   1  18
ATOM     18  C   UNL A   1      31.065  31.814  26.494  1.00  0.00     0.042 C 
BRANCH  18  19
ATOM     19  C   UNL A   1      32.418  32.403  26.859  1.00  0.00     0.118 C 
BRANCH  19  20
ATOM     20  N   UNL A   1      32.326  33.778  27.316  1.00  0.00    -0.352 N 
ATOM     21  C   UNL A   1      32.998  34.455  28.305  1.00  0.00     0.251 C 
ATOM     22  H   UNL A   1      31.665  34.322  26.831  1.00  0.00     0.163 HD
ATOM     23  O   UNL A   1      32.602  35.575  28.620  1.00  0.00    -0.269 OA
BRANCH  21  24
ATOM     24  C   UNL A   1      34.166  33.877  29.022  1.00  0.00     0.039 A 
ATOM     25  C   UNL A   1      35.440  34.381  28.726  1.00  0.00     0.014 A 
ATOM     26  C   UNL A   1      34.057  32.803  29.907  1.00  0.00     0.014 A 
ATOM     27  C   UNL A   1      36.577  33.848  29.342  1.00  0.00     0.010 A 
ATOM     28  C   UNL A   1      35.181  32.331  30.592  1.00  0.00     0.010 A 
ATOM     29  C   UNL A   1      36.458  32.835  30.305  1.00  0.00    -0.014 A 
BRANCH  29  30
ATOM     30  C   UNL A   1      37.653  32.260  30.983  1.00  0.00     0.031 A 
ATOM     31  C   UNL A   1      38.456  31.175  30.311  1.00  0.00     0.074 A 
ATOM     32  C   UNL A   1      37.999  32.677  32.217  1.00  0.00     0.049 A 
ATOM     33  N   UNL A   1      39.470  30.485  30.771  1.00  0.00    -0.248 NA
ATOM     34  C   UNL A   1      38.051  30.800  28.946  1.00  0.00     0.031 C 
ATOM     35  C   UNL A   1      37.298  33.700  32.994  1.00  0.00     0.029 A 
ATOM     36  N   UNL A   1      39.028  32.285  33.039  1.00  0.00    -0.354 N 
ATOM     37  C   UNL A   1      39.808  29.588  29.765  1.00  0.00     0.074 A 
ATOM     38  C   UNL A   1      38.863  29.785  28.688  1.00  0.00     0.031 C 
ATOM     39  C   UNL A   1      37.927  33.870  34.167  1.00  0.00     0.029 A 
ATOM     40  C   UNL A   1      39.051  32.942  34.246  1.00  0.00     0.049 A 
ATOM     41  H   UNL A   1      39.686  31.597  32.788  1.00  0.00     0.167 HD
ATOM     42  C   UNL A   1      40.830  28.699  29.728  1.00  0.00     0.037 A 
ATOM     43  C   UNL A   1      39.880  32.805  35.300  1.00  0.00     0.037 A 
ATOM     44  C   UNL A   1      41.796  28.523  30.779  1.00  0.00     0.049 A 
ATOM     45  C   UNL A   1      41.000  31.801  35.235  1.00  0.00     0.074 A 
ATOM     46  C   UNL A   1      42.885  27.669  30.819  1.00  0.00     0.029 A 
ATOM     47  N   UNL A   1      41.795  29.224  31.975  1.00  0.00    -0.354 N 
ATOM     48  N   UNL A   1      41.328  30.988  34.262  1.00  0.00    -0.248 NA
ATOM     49  C   UNL A   1      41.869  31.702  36.418  1.00  0.00     0.031 C 
ATOM     50  C   UNL A   1      43.527  27.833  32.050  1.00  0.00     0.029 A 
ATOM     51  C   UNL A   1      42.861  28.818  32.761  1.00  0.00     0.049 A 
ATOM     52  H   UNL A   1      41.135  29.910  32.229  1.00  0.00     0.167 HD
ATOM     53  C   UNL A   1      42.456  30.306  34.699  1.00  0.00     0.074 A 
ATOM     54  C   UNL A   1      42.764  30.809  36.020  1.00  0.00     0.031 C 
ATOM     55  C   UNL A   1      43.170  29.347  34.064  1.00  0.00     0.037 A 
BRANCH  42  56
ATOM     56  C   UNL A   1      40.972  27.851  28.497  1.00  0.00     0.064 A 
ATOM     57  C   UNL A   1      40.283  26.636  28.366  1.00  0.00     0.173 A 
ATOM     58  C   UNL A   1      41.756  28.283  27.417  1.00  0.00     0.173 A 
ATOM     59  F   UNL A   1      39.529  26.174  29.375  1.00  0.00    -0.203 F 
ATOM     60  C   UNL A   1      40.392  25.873  27.205  1.00  0.00     0.198 A 
ATOM     61  C   UNL A   1      41.841  27.530  26.248  1.00  0.00     0.198 A 
ATOM     62  F   UNL A   1      42.429  29.441  27.490  1.00  0.00    -0.203 F 
ATOM     63  F   UNL A   1      39.757  24.696  27.118  1.00  0.00    -0.200 F 
ATOM     64  C   UNL A   1      41.163  26.325  26.145  1.00  0.00     0.200 A 
ATOM     65  F   UNL A   1      42.577  27.974  25.219  1.00  0.00    -0.200 F 
ATOM     66  F   UNL A   1      41.258  25.595  25.026  1.00  0.00    -0.200 F 
ENDBRANCH  42  56
BRANCH  43  67
ATOM     67  C   UNL A   1      39.699  33.651  36.509  1.00  0.00     0.064 A 
ATOM     68  C   UNL A   1      38.874  33.230  37.563  1.00  0.00     0.173 A 
ATOM     69  C   UNL A   1      40.313  34.907  36.622  1.00  0.00     0.173 A 
ATOM     70  F   UNL A   1      38.246  32.048  37.489  1.00  0.00    -0.203 F 
ATOM     71  C   UNL A   1      38.651  34.045  38.672  1.00  0.00     0.198 A 
ATOM     72  C   UNL A   1      40.111  35.707  37.745  1.00  0.00     0.198 A 
ATOM     73  F   UNL A   1      41.112  35.354  35.643  1.00  0.00    -0.203 F 
ATOM     74  F   UNL A   1      37.815  33.641  39.638  1.00  0.00    -0.200 F 
ATOM     75  C   UNL A   1      39.273  35.281  38.763  1.00  0.00     0.200 A 
ATOM     76  F   UNL A   1      40.723  36.896  37.836  1.00  0.00    -0.200 F 
ATOM     77  F   UNL A   1      39.054  36.065  39.828  1.00  0.00    -0.200 F 
ENDBRANCH  43  67
BRANCH  55  78
ATOM     78  C   UNL A   1      44.385  28.813  34.763  1.00  0.00     0.064 A 
ATOM     79  C   UNL A   1      44.324  27.671  35.575  1.00  0.00     0.173 A 
ATOM     80  C   UNL A   1      45.633  29.429  34.584  1.00  0.00     0.173 A 
ATOM     81  F   UNL A   1      43.151  27.058  35.789  1.00  0.00    -0.203 F 
ATOM     82  C   UNL A   1      45.466  27.179  36.201  1.00  0.00     0.198 A 
ATOM     83  C   UNL A   1      46.777  28.919  35.190  1.00  0.00     0.198 A 
ATOM     84  F   UNL A   1      45.744  30.520  33.812  1.00  0.00    -0.203 F 
ATOM     85  F   UNL A   1      45.377  26.111  37.007  1.00  0.00    -0.200 F 
ATOM     86  C   UNL A   1      46.691  27.798  36.003  1.00  0.00     0.200 A 
ATOM     87  F   UNL A   1      47.962  29.511  34.989  1.00  0.00    -0.200 F 
ATOM     88  F   UNL A   1      47.790  27.318  36.602  1.00  0.00    -0.200 F 
ENDBRANCH  55  78
ENDBRANCH  29  30
ENDBRANCH  21  24
ENDBRANCH  19  20
ENDBRANCH  18  19
ENDBRANCH   1  18
TORSDOF 14
ENDMDL
MODEL 3
REMARK VINA RESULT:     -10.2      4.197     10.205
REMARK SMILES C=CC[N@@H+](CC(=O)NCCCNC(=O)c1ccc(-c2c3nc(c(-c4c(F)c(F)c(F)c(F)c4F)c4ccc([nH]4)c(-c4c(F)c(F)c(F)c(F)c4F)c4nc(c(-c5c(F)c(F)c(F)c(F)c5F)c5ccc2[nH]5)C=C4)C=C3)cc1)C1CCCCC1
REMARK SMILES IDX 9 1 8 2 6 3 7 4 5 6 4 7 3 9 2 10 1 11 78 12 79 13 83 14
REMARK SMILES IDX 80 15 82 16 81 17 10 18 11 19 12 20 13 21 14 23 15 24 16 25
REMARK SMILES IDX 77 26 17 27 76 28 18 29 19 30 20 31 70 32 21 33 75 34 69 35
REMARK SMILES IDX 71 36 22 37 74 38 68 39 67 40 23 42 55 43 35 44 54 45 36 46
REMARK SMILES IDX 39 47 53 48 72 49 37 50 38 51 52 53 73 54 40 55 24 56 25 57
REMARK SMILES IDX 33 58 26 59 27 60 31 61 34 62 28 63 29 64 32 65 30 66 56 67
REMARK SMILES IDX 57 68 65 69 58 70 59 71 63 72 66 73 60 74 61 75 64 76 62 77
REMARK SMILES IDX 41 78 42 79 50 80 43 81 44 82 48 83 51 84 45 85 46 86 49 87
REMARK SMILES IDX 47 88
REMARK H PARENT 8 5 4 8 12 22 71 41 39 52
REMARK Flexibility Score: inf
ROOT
ATOM      1  C   UNL A   1      34.421  33.975  30.818  1.00  0.00     0.118 C 
ENDROOT
BRANCH   1   2
ATOM      2  N   UNL A   1      34.312  33.649  32.228  1.00  0.00    -0.351 N 
ATOM      3  C   UNL A   1      35.139  33.903  33.280  1.00  0.00     0.275 C 
ATOM      4  O   UNL A   1      34.782  33.454  34.376  1.00  0.00    -0.269 OA
ATOM      5  H   UNL A   1      33.495  33.155  32.466  1.00  0.00     0.163 HD
BRANCH   3   6
ATOM      6  C   UNL A   1      36.427  34.739  33.153  1.00  0.00     0.364 C 
BRANCH   6   7
ATOM      7  N   UNL A   1      37.706  33.975  33.083  1.00  0.00    -0.321 N 
ATOM      8  H   UNL A   1      37.560  33.045  32.691  1.00  0.00     0.349 HD
BRANCH   7   9
ATOM      9  C   UNL A   1      38.183  33.613  34.407  1.00  0.00     0.291 C 
BRANCH   9  10
ATOM     10  C   UNL A   1      38.213  32.165  34.784  1.00  0.00     0.025 C 
ATOM     11  C   UNL A   1      38.024  31.741  36.044  1.00  0.00     0.010 C 
ENDBRANCH   9  10
ENDBRANCH   7   9
BRANCH   7  12
ATOM     12  C   UNL A   1      38.630  34.476  32.041  1.00  0.00     0.184 C 
ATOM     13  C   UNL A   1      40.138  34.202  32.209  1.00  0.00     0.065 C 
ATOM     14  C   UNL A   1      38.150  33.924  30.682  1.00  0.00     0.065 C 
ATOM     15  C   UNL A   1      40.952  34.776  31.048  1.00  0.00     0.006 C 
ATOM     16  C   UNL A   1      38.989  34.440  29.512  1.00  0.00     0.006 C 
ATOM     17  C   UNL A   1      40.479  34.195  29.720  1.00  0.00     0.000 C 
ENDBRANCH   7  12
ENDBRANCH   6   7
ENDBRANCH   3   6
ENDBRANCH   1   2
BRANCH   1  18
ATOM     18  C   UNL A   1      34.652  32.721  29.971  1.00  0.00     0.042 C 
BRANCH  18  19
ATOM     19  C   UNL A   1      34.568  32.942  28.468  1.00  0.00     0.118 C 
BRANCH  19  20
ATOM     20  N   UNL A   1      33.949  31.828  27.772  1.00  0.00    -0.352 N 
ATOM     21  C   UNL A   1      34.431  30.586  27.434  1.00  0.00     0.251 C 
ATOM     22  H   UNL A   1      33.020  31.992  27.493  1.00  0.00     0.163 HD
ATOM     23  O   UNL A   1      33.761  29.886  26.677  1.00  0.00    -0.269 OA
BRANCH  21  24
ATOM     24  C   UNL A   1      35.734  30.069  27.928  1.00  0.00     0.039 A 
ATOM     25  C   UNL A   1      35.765  29.443  29.182  1.00  0.00     0.014 A 
ATOM     26  C   UNL A   1      36.934  30.256  27.240  1.00  0.00     0.014 A 
ATOM     27  C   UNL A   1      36.972  28.972  29.713  1.00  0.00     0.010 A 
ATOM     28  C   UNL A   1      38.124  29.705  27.726  1.00  0.00     0.010 A 
ATOM     29  C   UNL A   1      38.162  29.072  28.977  1.00  0.00    -0.014 A 
BRANCH  29  30
ATOM     30  C   UNL A   1      39.455  28.568  29.516  1.00  0.00     0.031 A 
ATOM     31  C   UNL A   1      40.157  29.315  30.623  1.00  0.00     0.074 A 
ATOM     32  C   UNL A   1      40.025  27.466  28.991  1.00  0.00     0.049 A 
ATOM     33  N   UNL A   1      41.329  29.091  31.163  1.00  0.00    -0.248 NA
ATOM     34  C   UNL A   1      39.456  30.482  31.182  1.00  0.00     0.031 C 
ATOM     35  C   UNL A   1      39.470  26.662  27.902  1.00  0.00     0.029 A 
ATOM     36  N   UNL A   1      41.206  26.834  29.299  1.00  0.00    -0.354 N 
ATOM     37  C   UNL A   1      41.511  30.094  32.106  1.00  0.00     0.074 A 
ATOM     38  C   UNL A   1      40.354  30.958  32.032  1.00  0.00     0.031 C 
ATOM     39  C   UNL A   1      40.295  25.634  27.648  1.00  0.00     0.029 A 
ATOM     40  C   UNL A   1      41.458  25.726  28.526  1.00  0.00     0.049 A 
ATOM     41  H   UNL A   1      41.814  27.146  30.007  1.00  0.00     0.167 HD
ATOM     42  C   UNL A   1      42.537  30.268  32.975  1.00  0.00     0.037 A 
ATOM     43  C   UNL A   1      42.511  24.886  28.520  1.00  0.00     0.037 A 
ATOM     44  C   UNL A   1      43.673  29.392  33.079  1.00  0.00     0.049 A 
ATOM     45  C   UNL A   1      43.642  25.109  29.489  1.00  0.00     0.074 A 
ATOM     46  C   UNL A   1      44.746  29.469  33.950  1.00  0.00     0.029 A 
ATOM     47  N   UNL A   1      43.878  28.270  32.291  1.00  0.00    -0.354 N 
ATOM     48  N   UNL A   1      43.781  26.042  30.399  1.00  0.00    -0.248 NA
ATOM     49  C   UNL A   1      44.761  24.156  29.431  1.00  0.00     0.031 C 
ATOM     50  C   UNL A   1      45.615  28.409  33.671  1.00  0.00     0.029 A 
ATOM     51  C   UNL A   1      45.063  27.650  32.653  1.00  0.00     0.049 A 
ATOM     52  H   UNL A   1      43.271  27.959  31.580  1.00  0.00     0.167 HD
ATOM     53  C   UNL A   1      44.981  25.770  31.042  1.00  0.00     0.074 A 
ATOM     54  C   UNL A   1      45.526  24.579  30.427  1.00  0.00     0.031 C 
ATOM     55  C   UNL A   1      45.580  26.450  32.049  1.00  0.00     0.037 A 
BRANCH  42  56
ATOM     56  C   UNL A   1      42.472  31.446  33.902  1.00  0.00     0.064 A 
ATOM     57  C   UNL A   1      41.836  31.358  35.150  1.00  0.00     0.173 A 
ATOM     58  C   UNL A   1      43.100  32.656  33.569  1.00  0.00     0.173 A 
ATOM     59  F   UNL A   1      41.211  30.227  35.511  1.00  0.00    -0.203 F 
ATOM     60  C   UNL A   1      41.812  32.445  36.020  1.00  0.00     0.198 A 
ATOM     61  C   UNL A   1      43.097  33.731  34.453  1.00  0.00     0.198 A 
ATOM     62  F   UNL A   1      43.728  32.789  32.391  1.00  0.00    -0.203 F 
ATOM     63  F   UNL A   1      41.164  32.350  37.190  1.00  0.00    -0.200 F 
ATOM     64  C   UNL A   1      42.449  33.627  35.675  1.00  0.00     0.200 A 
ATOM     65  F   UNL A   1      43.724  34.870  34.123  1.00  0.00    -0.200 F 
ATOM     66  F   UNL A   1      42.435  34.668  36.518  1.00  0.00    -0.200 F 
ENDBRANCH  42  56
BRANCH  43  67
ATOM     67  C   UNL A   1      42.548  23.739  27.575  1.00  0.00     0.064 A 
ATOM     68  C   UNL A   1      42.109  22.467  27.973  1.00  0.00     0.173 A 
ATOM     69  C   UNL A   1      43.050  23.878  26.273  1.00  0.00     0.173 A 
ATOM     70  F   UNL A   1      41.643  22.279  29.216  1.00  0.00    -0.203 F 
ATOM     71  C   UNL A   1      42.198  21.373  27.113  1.00  0.00     0.198 A 
ATOM     72  C   UNL A   1      43.111  22.789  25.406  1.00  0.00     0.198 A 
ATOM     73  F   UNL A   1      43.480  25.073  25.844  1.00  0.00    -0.203 F 
ATOM     74  F   UNL A   1      41.823  20.159  27.538  1.00  0.00    -0.200 F 
ATOM     75  C   UNL A   1      42.695  21.537  25.829  1.00  0.00     0.200 A 
ATOM     76  F   UNL A   1      43.582  22.952  24.161  1.00  0.00    -0.200 F 
ATOM     77  F   UNL A   1      42.784  20.484  25.005  1.00  0.00    -0.200 F 
ENDBRANCH  43  67
BRANCH  55  78
ATOM     78  C   UNL A   1      46.865  25.895  32.588  1.00  0.00     0.064 A 
ATOM     79  C   UNL A   1      46.883  24.974  33.646  1.00  0.00     0.173 A 
ATOM     80  C   UNL A   1      48.091  26.258  32.009  1.00  0.00     0.173 A 
ATOM     81  F   UNL A   1      45.738  24.609  34.241  1.00  0.00    -0.203 F 
ATOM     82  C   UNL A   1      48.084  24.455  34.120  1.00  0.00     0.198 A 
ATOM     83  C   UNL A   1      49.287  25.717  32.469  1.00  0.00     0.198 A 
ATOM     84  F   UNL A   1      48.125  27.130  30.991  1.00  0.00    -0.203 F 
ATOM     85  F   UNL A   1      48.081  23.609  35.159  1.00  0.00    -0.200 F 
ATOM     86  C   UNL A   1      49.283  24.821  33.527  1.00  0.00     0.200 A 
ATOM     87  F   UNL A   1      50.445  26.062  31.888  1.00  0.00    -0.200 F 
ATOM     88  F   UNL A   1      50.438  24.314  33.982  1.00  0.00    -0.200 F 
ENDBRANCH  55  78
ENDBRANCH  29  30
ENDBRANCH  21  24
ENDBRANCH  19  20
ENDBRANCH  18  19
ENDBRANCH   1  18
TORSDOF 14
ENDMDL
