MODEL 1
REMARK VINA RESULT:     -13.0      0.000      0.000
REMARK SMILES CC(C)c1cc(C(=O)N[C@@H](Cc2c[nH]c3ccccc23)C(=O)NCCCNC(=O)c2ccc(-c3c4nc(c(-c5c(F)c(F)c(F)c(F)c5F)c5ccc([nH]5)c(-c5c(F)c(F)c(F)c(F)c5F)c5nc(c(-c6c(F)c(F)c(F)c(F)c6F)c6ccc3[nH]6)C=C5)C=C4)cc2)n(C)n1
REMARK SMILES IDX 24 1 23 2 21 3 22 4 10 6 9 7 7 8 8 9 6 11 4 12 5 13 95 14
REMARK SMILES IDX 93 15 94 16 2 17 1 18 3 19 11 20 12 21 13 22 20 23 14 24
REMARK SMILES IDX 15 25 19 26 16 28 18 29 17 30 25 31 26 32 27 33 28 34 29 36
REMARK SMILES IDX 30 37 31 38 92 39 32 40 91 41 33 42 34 43 35 44 85 45 36 46
REMARK SMILES IDX 90 47 84 48 86 49 37 50 89 51 83 52 82 53 38 55 70 56 50 57
REMARK SMILES IDX 69 58 51 59 54 60 68 61 87 62 52 63 53 64 67 66 88 67 55 68
REMARK SMILES IDX 39 69 40 70 48 71 41 72 42 73 46 74 49 75 43 76 44 77 47 78
REMARK SMILES IDX 45 79 71 80 72 81 80 82 73 83 74 84 78 85 81 86 75 87 76 88
REMARK SMILES IDX 79 89 77 90 56 91 57 92 65 93 58 94 59 95 63 96 66 97 60 98
REMARK SMILES IDX 61 99 64 100 62 101
REMARK H PARENT 23 5 9 10 14 27 27 35 86 54 54 65
REMARK Flexibility Score: inf
ROOT
ATOM      1  C   UNL A   1      31.670  30.699  26.840  1.00  0.00     0.117 C 
ENDROOT
BRANCH   1   2
ATOM      2  N   UNL A   1      32.909  30.259  27.424  1.00  0.00    -0.354 N 
ATOM      3  C   UNL A   1      33.834  29.431  26.868  1.00  0.00     0.242 C 
ATOM      4  O   UNL A   1      34.994  29.534  27.282  1.00  0.00    -0.273 OA
ATOM      5  H   UNL A   1      33.111  30.594  28.328  1.00  0.00     0.163 HD
BRANCH   3   6
ATOM      6  C   UNL A   1      33.507  28.443  25.732  1.00  0.00     0.176 C 
BRANCH   6   7
ATOM      7  N   UNL A   1      34.023  28.779  24.415  1.00  0.00    -0.339 N 
ATOM      8  C   UNL A   1      33.903  28.211  23.179  1.00  0.00     0.270 C 
ATOM      9  O   UNL A   1      34.477  28.868  22.300  1.00  0.00    -0.268 OA
ATOM     10  H   UNL A   1      34.578  29.592  24.413  1.00  0.00     0.164 HD
BRANCH   8  11
ATOM     11  C   UNL A   1      33.176  26.999  22.831  1.00  0.00     0.126 A 
ATOM     12  C   UNL A   1      32.857  24.794  22.448  1.00  0.00     0.066 A 
ATOM     13  C   UNL A   1      33.826  25.763  22.749  1.00  0.00     0.059 A 
ATOM     14  N   UNL A   1      31.673  25.370  22.276  1.00  0.00    -0.177 NA
ATOM     15  N   UNL A   1      31.855  26.661  22.608  1.00  0.00    -0.263 N 
ATOM     16  C   UNL A   1      30.617  27.375  22.799  1.00  0.00     0.174 C 
BRANCH  12  17
ATOM     17  C   UNL A   1      33.008  23.302  22.365  1.00  0.00     0.034 C 
ATOM     18  C   UNL A   1      34.282  22.854  23.091  1.00  0.00     0.014 C 
ATOM     19  C   UNL A   1      31.801  22.548  22.941  1.00  0.00     0.014 C 
ENDBRANCH  12  17
ENDBRANCH   8  11
ENDBRANCH   6   7
BRANCH   6  20
ATOM     20  C   UNL A   1      33.645  26.938  26.051  1.00  0.00     0.072 C 
BRANCH  20  21
ATOM     21  C   UNL A   1      32.389  26.142  26.225  1.00  0.00    -0.020 A 
ATOM     22  C   UNL A   1      31.087  26.613  26.274  1.00  0.00     0.087 A 
ATOM     23  C   UNL A   1      32.314  24.720  26.382  1.00  0.00     0.003 A 
ATOM     24  N   UNL A   1      30.240  25.534  26.324  1.00  0.00    -0.361 N 
ATOM     25  C   UNL A   1      30.964  24.365  26.361  1.00  0.00     0.046 A 
ATOM     26  C   UNL A   1      33.278  23.697  26.477  1.00  0.00     0.010 A 
ATOM     27  H   UNL A   1      29.257  25.588  26.331  1.00  0.00     0.166 HD
ATOM     28  C   UNL A   1      30.535  23.032  26.359  1.00  0.00     0.026 A 
ATOM     29  C   UNL A   1      32.865  22.363  26.517  1.00  0.00     0.001 A 
ATOM     30  C   UNL A   1      31.515  22.037  26.437  1.00  0.00     0.002 A 
ENDBRANCH  20  21
ENDBRANCH   6  20
ENDBRANCH   3   6
ENDBRANCH   1   2
BRANCH   1  31
ATOM     31  C   UNL A   1      31.481  32.193  26.815  1.00  0.00     0.042 C 
BRANCH  31  32
ATOM     32  C   UNL A   1      32.737  32.947  27.203  1.00  0.00     0.118 C 
BRANCH  32  33
ATOM     33  N   UNL A   1      32.474  34.292  27.714  1.00  0.00    -0.352 N 
ATOM     34  C   UNL A   1      33.043  34.988  28.754  1.00  0.00     0.251 C 
ATOM     35  H   UNL A   1      31.770  34.783  27.232  1.00  0.00     0.163 HD
ATOM     36  O   UNL A   1      32.559  36.055  29.122  1.00  0.00    -0.269 OA
BRANCH  34  37
ATOM     37  C   UNL A   1      34.211  34.430  29.464  1.00  0.00     0.039 A 
ATOM     38  C   UNL A   1      34.014  33.645  30.603  1.00  0.00     0.014 A 
ATOM     39  C   UNL A   1      35.501  34.645  28.984  1.00  0.00     0.014 A 
ATOM     40  C   UNL A   1      35.105  33.004  31.193  1.00  0.00     0.010 A 
ATOM     41  C   UNL A   1      36.548  33.877  29.461  1.00  0.00     0.010 A 
ATOM     42  C   UNL A   1      36.372  33.072  30.593  1.00  0.00    -0.014 A 
BRANCH  42  43
ATOM     43  C   UNL A   1      37.542  32.353  31.152  1.00  0.00     0.031 A 
ATOM     44  C   UNL A   1      38.039  32.691  32.533  1.00  0.00     0.074 A 
ATOM     45  C   UNL A   1      38.199  31.455  30.394  1.00  0.00     0.049 A 
ATOM     46  N   UNL A   1      39.071  32.218  33.183  1.00  0.00    -0.248 NA
ATOM     47  C   UNL A   1      37.307  33.740  33.262  1.00  0.00     0.031 C 
ATOM     48  C   UNL A   1      37.866  31.103  29.013  1.00  0.00     0.029 A 
ATOM     49  N   UNL A   1      39.286  30.669  30.682  1.00  0.00    -0.354 N 
ATOM     50  C   UNL A   1      39.124  32.932  34.373  1.00  0.00     0.074 A 
ATOM     51  C   UNL A   1      38.081  33.930  34.317  1.00  0.00     0.031 C 
ATOM     52  C   UNL A   1      38.691  30.129  28.595  1.00  0.00     0.029 A 
ATOM     53  C   UNL A   1      39.633  29.816  29.665  1.00  0.00     0.049 A 
ATOM     54  H   UNL A   1      39.770  30.712  31.539  1.00  0.00     0.167 HD
ATOM     55  C   UNL A   1      39.938  32.746  35.439  1.00  0.00     0.037 A 
ATOM     56  C   UNL A   1      40.593  28.874  29.612  1.00  0.00     0.037 A 
ATOM     57  C   UNL A   1      40.943  31.720  35.505  1.00  0.00     0.049 A 
ATOM     58  C   UNL A   1      41.465  28.659  30.817  1.00  0.00     0.074 A 
ATOM     59  C   UNL A   1      41.773  31.388  36.558  1.00  0.00     0.029 A 
ATOM     60  N   UNL A   1      41.247  30.855  34.462  1.00  0.00    -0.354 N 
ATOM     61  N   UNL A   1      41.452  29.281  31.972  1.00  0.00    -0.248 NA
ATOM     62  C   UNL A   1      42.477  27.602  30.714  1.00  0.00     0.031 C 
ATOM     63  C   UNL A   1      42.613  30.348  36.138  1.00  0.00     0.029 A 
ATOM     64  C   UNL A   1      42.269  29.999  34.841  1.00  0.00     0.049 A 
ATOM     65  H   UNL A   1      40.804  30.850  33.584  1.00  0.00     0.167 HD
ATOM     66  C   UNL A   1      42.433  28.675  32.744  1.00  0.00     0.074 A 
ATOM     67  C   UNL A   1      43.008  27.622  31.929  1.00  0.00     0.031 C 
ATOM     68  C   UNL A   1      42.825  28.960  34.011  1.00  0.00     0.037 A 
BRANCH  55  69
ATOM     69  C   UNL A   1      39.756  33.672  36.609  1.00  0.00     0.064 A 
ATOM     70  C   UNL A   1      38.930  33.338  37.696  1.00  0.00     0.173 A 
ATOM     71  C   UNL A   1      40.392  34.922  36.635  1.00  0.00     0.173 A 
ATOM     72  F   UNL A   1      38.283  32.162  37.716  1.00  0.00    -0.203 F 
ATOM     73  C   UNL A   1      38.703  34.240  38.732  1.00  0.00     0.198 A 
ATOM     74  C   UNL A   1      40.194  35.806  37.693  1.00  0.00     0.198 A 
ATOM     75  F   UNL A   1      41.196  35.294  35.627  1.00  0.00    -0.203 F 
ATOM     76  F   UNL A   1      37.845  33.929  39.713  1.00  0.00    -0.200 F 
ATOM     77  C   UNL A   1      39.339  35.471  38.731  1.00  0.00     0.200 A 
ATOM     78  F   UNL A   1      40.819  36.992  37.698  1.00  0.00    -0.200 F 
ATOM     79  F   UNL A   1      39.115  36.343  39.725  1.00  0.00    -0.200 F 
ENDBRANCH  55  69
BRANCH  56  80
ATOM     80  C   UNL A   1      40.722  28.018  28.405  1.00  0.00     0.064 A 
ATOM     81  C   UNL A   1      41.518  28.425  27.325  1.00  0.00     0.173 A 
ATOM     82  C   UNL A   1      40.082  26.774  28.312  1.00  0.00     0.173 A 
ATOM     83  F   UNL A   1      42.137  29.614  27.362  1.00  0.00    -0.203 F 
ATOM     84  C   UNL A   1      41.658  27.628  26.191  1.00  0.00     0.198 A 
ATOM     85  C   UNL A   1      40.244  25.965  27.187  1.00  0.00     0.198 A 
ATOM     86  F   UNL A   1      39.319  26.334  29.322  1.00  0.00    -0.203 F 
ATOM     87  F   UNL A   1      42.398  28.057  25.160  1.00  0.00    -0.200 F 
ATOM     88  C   UNL A   1      41.026  26.396  26.127  1.00  0.00     0.200 A 
ATOM     89  F   UNL A   1      39.645  24.767  27.135  1.00  0.00    -0.200 F 
ATOM     90  F   UNL A   1      41.169  25.624  25.040  1.00  0.00    -0.200 F 
ENDBRANCH  56  80
BRANCH  68  91
ATOM     91  C   UNL A   1      43.905  28.099  34.599  1.00  0.00     0.064 A 
ATOM     92  C   UNL A   1      43.612  26.889  35.244  1.00  0.00     0.173 A 
ATOM     93  C   UNL A   1      45.251  28.484  34.499  1.00  0.00     0.173 A 
ATOM     94  F   UNL A   1      42.340  26.484  35.377  1.00  0.00    -0.203 F 
ATOM     95  C   UNL A   1      44.625  26.113  35.800  1.00  0.00     0.198 A 
ATOM     96  C   UNL A   1      46.264  27.689  35.027  1.00  0.00     0.198 A 
ATOM     97  F   UNL A   1      45.584  29.630  33.886  1.00  0.00    -0.203 F 
ATOM     98  F   UNL A   1      44.318  24.991  36.465  1.00  0.00    -0.200 F 
ATOM     99  C   UNL A   1      45.949  26.510  35.687  1.00  0.00     0.200 A 
ATOM    100  F   UNL A   1      47.542  28.067  34.903  1.00  0.00    -0.200 F 
ATOM    101  F   UNL A   1      46.923  25.762  36.223  1.00  0.00    -0.200 F 
ENDBRANCH  68  91
ENDBRANCH  42  43
ENDBRANCH  34  37
ENDBRANCH  32  33
ENDBRANCH  31  32
ENDBRANCH   1  31
TORSDOF 15
ENDMDL
MODEL 2
REMARK VINA RESULT:     -13.0      1.084      7.358
REMARK SMILES CC(C)c1cc(C(=O)N[C@@H](Cc2c[nH]c3ccccc23)C(=O)NCCCNC(=O)c2ccc(-c3c4nc(c(-c5c(F)c(F)c(F)c(F)c5F)c5ccc([nH]5)c(-c5c(F)c(F)c(F)c(F)c5F)c5nc(c(-c6c(F)c(F)c(F)c(F)c6F)c6ccc3[nH]6)C=C5)C=C4)cc2)n(C)n1
REMARK SMILES IDX 24 1 23 2 21 3 22 4 10 6 9 7 7 8 8 9 6 11 4 12 5 13 95 14
REMARK SMILES IDX 93 15 94 16 2 17 1 18 3 19 11 20 12 21 13 22 20 23 14 24
REMARK SMILES IDX 15 25 19 26 16 28 18 29 17 30 25 31 26 32 27 33 28 34 29 36
REMARK SMILES IDX 30 37 31 38 92 39 32 40 91 41 33 42 34 43 35 44 85 45 36 46
REMARK SMILES IDX 90 47 84 48 86 49 37 50 89 51 83 52 82 53 38 55 70 56 50 57
REMARK SMILES IDX 69 58 51 59 54 60 68 61 87 62 52 63 53 64 67 66 88 67 55 68
REMARK SMILES IDX 39 69 40 70 48 71 41 72 42 73 46 74 49 75 43 76 44 77 47 78
REMARK SMILES IDX 45 79 71 80 72 81 80 82 73 83 74 84 78 85 81 86 75 87 76 88
REMARK SMILES IDX 79 89 77 90 56 91 57 92 65 93 58 94 59 95 63 96 66 97 60 98
REMARK SMILES IDX 61 99 64 100 62 101
REMARK H PARENT 23 5 9 10 14 27 27 35 86 54 54 65
REMARK Flexibility Score: inf
ROOT
ATOM      1  C   UNL A   1      31.787  30.586  26.802  1.00  0.00     0.117 C 
ENDROOT
BRANCH   1   2
ATOM      2  N   UNL A   1      32.996  30.151  27.449  1.00  0.00    -0.354 N 
ATOM      3  C   UNL A   1      33.918  29.275  26.968  1.00  0.00     0.242 C 
ATOM      4  O   UNL A   1      35.067  29.374  27.415  1.00  0.00    -0.273 OA
ATOM      5  H   UNL A   1      33.176  30.529  28.340  1.00  0.00     0.163 HD
BRANCH   3   6
ATOM      6  C   UNL A   1      33.605  28.235  25.874  1.00  0.00     0.176 C 
BRANCH   6   7
ATOM      7  N   UNL A   1      34.050  28.558  24.529  1.00  0.00    -0.339 N 
ATOM      8  C   UNL A   1      33.421  28.652  23.321  1.00  0.00     0.270 C 
ATOM      9  O   UNL A   1      34.186  29.014  22.416  1.00  0.00    -0.268 OA
ATOM     10  H   UNL A   1      35.014  28.753  24.477  1.00  0.00     0.164 HD
BRANCH   8  11
ATOM     11  C   UNL A   1      32.013  28.411  23.038  1.00  0.00     0.126 A 
ATOM     12  C   UNL A   1      29.802  28.866  22.913  1.00  0.00     0.066 A 
ATOM     13  C   UNL A   1      31.039  29.366  23.348  1.00  0.00     0.059 A 
ATOM     14  N   UNL A   1      29.953  27.642  22.421  1.00  0.00    -0.177 NA
ATOM     15  N   UNL A   1      31.280  27.426  22.405  1.00  0.00    -0.263 N 
ATOM     16  C   UNL A   1      31.658  26.287  21.606  1.00  0.00     0.174 C 
BRANCH  12  17
ATOM     17  C   UNL A   1      28.462  29.542  22.901  1.00  0.00     0.034 C 
ATOM     18  C   UNL A   1      28.232  30.245  21.559  1.00  0.00     0.014 C 
ATOM     19  C   UNL A   1      27.303  28.573  23.175  1.00  0.00     0.014 C 
ENDBRANCH  12  17
ENDBRANCH   8  11
ENDBRANCH   6   7
BRANCH   6  20
ATOM     20  C   UNL A   1      33.841  26.752  26.231  1.00  0.00     0.072 C 
BRANCH  20  21
ATOM     21  C   UNL A   1      32.884  25.740  25.680  1.00  0.00    -0.020 A 
ATOM     22  C   UNL A   1      31.539  25.593  25.980  1.00  0.00     0.087 A 
ATOM     23  C   UNL A   1      33.202  24.717  24.727  1.00  0.00     0.003 A 
ATOM     24  N   UNL A   1      31.019  24.622  25.162  1.00  0.00    -0.361 N 
ATOM     25  C   UNL A   1      32.008  24.092  24.367  1.00  0.00     0.046 A 
ATOM     26  C   UNL A   1      34.394  24.312  24.094  1.00  0.00     0.010 A 
ATOM     27  H   UNL A   1      30.074  24.344  25.146  1.00  0.00     0.166 HD
ATOM     28  C   UNL A   1      31.938  23.129  23.353  1.00  0.00     0.026 A 
ATOM     29  C   UNL A   1      34.347  23.323  23.108  1.00  0.00     0.001 A 
ATOM     30  C   UNL A   1      33.133  22.758  22.729  1.00  0.00     0.002 A 
ENDBRANCH  20  21
ENDBRANCH   6  20
ENDBRANCH   3   6
ENDBRANCH   1   2
BRANCH   1  31
ATOM     31  C   UNL A   1      31.553  32.073  26.839  1.00  0.00     0.042 C 
BRANCH  31  32
ATOM     32  C   UNL A   1      32.787  32.849  27.253  1.00  0.00     0.118 C 
BRANCH  32  33
ATOM     33  N   UNL A   1      32.505  34.233  27.634  1.00  0.00    -0.352 N 
ATOM     34  C   UNL A   1      33.027  35.016  28.636  1.00  0.00     0.251 C 
ATOM     35  H   UNL A   1      31.826  34.680  27.079  1.00  0.00     0.163 HD
ATOM     36  O   UNL A   1      32.530  36.110  28.887  1.00  0.00    -0.269 OA
BRANCH  34  37
ATOM     37  C   UNL A   1      34.158  34.521  29.446  1.00  0.00     0.039 A 
ATOM     38  C   UNL A   1      33.910  33.925  30.684  1.00  0.00     0.014 A 
ATOM     39  C   UNL A   1      35.463  34.608  28.966  1.00  0.00     0.014 A 
ATOM     40  C   UNL A   1      34.962  33.334  31.386  1.00  0.00     0.010 A 
ATOM     41  C   UNL A   1      36.469  33.876  29.574  1.00  0.00     0.010 A 
ATOM     42  C   UNL A   1      36.240  33.258  30.809  1.00  0.00    -0.014 A 
BRANCH  42  43
ATOM     43  C   UNL A   1      37.368  32.582  31.493  1.00  0.00     0.031 A 
ATOM     44  C   UNL A   1      38.099  31.461  30.802  1.00  0.00     0.074 A 
ATOM     45  C   UNL A   1      37.685  32.923  32.757  1.00  0.00     0.049 A 
ATOM     46  N   UNL A   1      39.075  30.709  31.244  1.00  0.00    -0.248 NA
ATOM     47  C   UNL A   1      37.637  31.101  29.451  1.00  0.00     0.031 C 
ATOM     48  C   UNL A   1      36.997  33.934  33.561  1.00  0.00     0.029 A 
ATOM     49  N   UNL A   1      38.673  32.457  33.586  1.00  0.00    -0.354 N 
ATOM     50  C   UNL A   1      39.315  29.778  30.241  1.00  0.00     0.074 A 
ATOM     51  C   UNL A   1      38.327  29.999  29.211  1.00  0.00     0.031 C 
ATOM     52  C   UNL A   1      37.622  34.054  34.744  1.00  0.00     0.029 A 
ATOM     53  C   UNL A   1      38.728  33.105  34.794  1.00  0.00     0.049 A 
ATOM     54  H   UNL A   1      39.286  31.727  33.337  1.00  0.00     0.167 HD
ATOM     55  C   UNL A   1      40.299  28.852  30.161  1.00  0.00     0.037 A 
ATOM     56  C   UNL A   1      39.588  32.958  35.818  1.00  0.00     0.037 A 
ATOM     57  C   UNL A   1      41.307  28.670  31.170  1.00  0.00     0.049 A 
ATOM     58  C   UNL A   1      40.694  31.947  35.698  1.00  0.00     0.074 A 
ATOM     59  C   UNL A   1      42.394  27.818  31.164  1.00  0.00     0.029 A 
ATOM     60  N   UNL A   1      41.346  29.366  32.371  1.00  0.00    -0.354 N 
ATOM     61  N   UNL A   1      40.967  31.130  34.708  1.00  0.00    -0.248 NA
ATOM     62  C   UNL A   1      41.620  31.848  36.833  1.00  0.00     0.031 C 
ATOM     63  C   UNL A   1      43.068  27.965  32.383  1.00  0.00     0.029 A 
ATOM     64  C   UNL A   1      42.431  28.947  33.125  1.00  0.00     0.049 A 
ATOM     65  H   UNL A   1      40.699  30.054  32.647  1.00  0.00     0.167 HD
ATOM     66  C   UNL A   1      42.109  30.438  35.088  1.00  0.00     0.074 A 
ATOM     67  C   UNL A   1      42.488  30.948  36.391  1.00  0.00     0.031 C 
ATOM     68  C   UNL A   1      42.785  29.470  34.421  1.00  0.00     0.037 A 
BRANCH  55  69
ATOM     69  C   UNL A   1      40.321  27.981  28.936  1.00  0.00     0.064 A 
ATOM     70  C   UNL A   1      39.646  26.750  28.889  1.00  0.00     0.173 A 
ATOM     71  C   UNL A   1      41.050  28.367  27.800  1.00  0.00     0.173 A 
ATOM     72  F   UNL A   1      38.947  26.322  29.953  1.00  0.00    -0.203 F 
ATOM     73  C   UNL A   1      39.746  25.915  27.779  1.00  0.00     0.198 A 
ATOM     74  C   UNL A   1      41.115  27.547  26.677  1.00  0.00     0.198 A 
ATOM     75  F   UNL A   1      41.712  29.534  27.785  1.00  0.00    -0.203 F 
ATOM     76  F   UNL A   1      39.162  24.710  27.795  1.00  0.00    -0.200 F 
ATOM     77  C   UNL A   1      40.477  26.317  26.673  1.00  0.00     0.200 A 
ATOM     78  F   UNL A   1      41.813  27.942  25.602  1.00  0.00    -0.200 F 
ATOM     79  F   UNL A   1      40.579  25.510  25.607  1.00  0.00    -0.200 F 
ENDBRANCH  55  69
BRANCH  56  80
ATOM     80  C   UNL A   1      39.481  33.844  37.006  1.00  0.00     0.064 A 
ATOM     81  C   UNL A   1      40.076  35.114  37.003  1.00  0.00     0.173 A 
ATOM     82  C   UNL A   1      38.768  33.460  38.150  1.00  0.00     0.173 A 
ATOM     83  F   UNL A   1      40.781  35.520  35.936  1.00  0.00    -0.203 F 
ATOM     84  C   UNL A   1      39.974  35.961  38.104  1.00  0.00     0.198 A 
ATOM     85  C   UNL A   1      38.646  34.318  39.242  1.00  0.00     0.198 A 
ATOM     86  F   UNL A   1      38.172  32.260  38.199  1.00  0.00    -0.203 F 
ATOM     87  F   UNL A   1      40.581  37.155  38.087  1.00  0.00    -0.200 F 
ATOM     88  C   UNL A   1      39.253  35.564  39.220  1.00  0.00     0.200 A 
ATOM     89  F   UNL A   1      37.935  33.940  40.313  1.00  0.00    -0.200 F 
ATOM     90  F   UNL A   1      39.147  36.384  40.276  1.00  0.00    -0.200 F 
ENDBRANCH  56  80
BRANCH  68  91
ATOM     91  C   UNL A   1      44.019  28.925  35.079  1.00  0.00     0.064 A 
ATOM     92  C   UNL A   1      45.284  29.489  34.855  1.00  0.00     0.173 A 
ATOM     93  C   UNL A   1      43.930  27.835  35.959  1.00  0.00     0.173 A 
ATOM     94  F   UNL A   1      45.422  30.524  34.012  1.00  0.00    -0.203 F 
ATOM     95  C   UNL A   1      46.419  28.959  35.460  1.00  0.00     0.198 A 
ATOM     96  C   UNL A   1      45.063  27.329  36.588  1.00  0.00     0.198 A 
ATOM     97  F   UNL A   1      42.743  27.265  36.212  1.00  0.00    -0.203 F 
ATOM     98  F   UNL A   1      47.625  29.475  35.185  1.00  0.00    -0.200 F 
ATOM     99  C   UNL A   1      46.308  27.884  36.329  1.00  0.00     0.200 A 
ATOM    100  F   UNL A   1      44.952  26.301  37.439  1.00  0.00    -0.200 F 
ATOM    101  F   UNL A   1      47.402  27.374  36.911  1.00  0.00    -0.200 F 
ENDBRANCH  68  91
ENDBRANCH  42  43
ENDBRANCH  34  37
ENDBRANCH  32  33
ENDBRANCH  31  32
ENDBRANCH   1  31
TORSDOF 15
ENDMDL
MODEL 3
REMARK VINA RESULT:     -13.0      0.932      2.224
REMARK SMILES CC(C)c1cc(C(=O)N[C@@H](Cc2c[nH]c3ccccc23)C(=O)NCCCNC(=O)c2ccc(-c3c4nc(c(-c5c(F)c(F)c(F)c(F)c5F)c5ccc([nH]5)c(-c5c(F)c(F)c(F)c(F)c5F)c5nc(c(-c6c(F)c(F)c(F)c(F)c6F)c6ccc3[nH]6)C=C5)C=C4)cc2)n(C)n1
REMARK SMILES IDX 24 1 23 2 21 3 22 4 10 6 9 7 7 8 8 9 6 11 4 12 5 13 95 14
REMARK SMILES IDX 93 15 94 16 2 17 1 18 3 19 11 20 12 21 13 22 20 23 14 24
REMARK SMILES IDX 15 25 19 26 16 28 18 29 17 30 25 31 26 32 27 33 28 34 29 36
REMARK SMILES IDX 30 37 31 38 92 39 32 40 91 41 33 42 34 43 35 44 85 45 36 46
REMARK SMILES IDX 90 47 84 48 86 49 37 50 89 51 83 52 82 53 38 55 70 56 50 57
REMARK SMILES IDX 69 58 51 59 54 60 68 61 87 62 52 63 53 64 67 66 88 67 55 68
REMARK SMILES IDX 39 69 40 70 48 71 41 72 42 73 46 74 49 75 43 76 44 77 47 78
REMARK SMILES IDX 45 79 71 80 72 81 80 82 73 83 74 84 78 85 81 86 75 87 76 88
REMARK SMILES IDX 79 89 77 90 56 91 57 92 65 93 58 94 59 95 63 96 66 97 60 98
REMARK SMILES IDX 61 99 64 100 62 101
REMARK H PARENT 23 5 9 10 14 27 27 35 86 54 54 65
REMARK Flexibility Score: inf
ROOT
ATOM      1  C   UNL A   1      31.760  30.522  26.688  1.00  0.00     0.117 C 
ENDROOT
BRANCH   1   2
ATOM      2  N   UNL A   1      32.937  30.057  27.373  1.00  0.00    -0.354 N 
ATOM      3  C   UNL A   1      33.854  29.162  26.919  1.00  0.00     0.242 C 
ATOM      4  O   UNL A   1      34.990  29.234  27.403  1.00  0.00    -0.273 OA
ATOM      5  H   UNL A   1      33.097  30.428  28.271  1.00  0.00     0.163 HD
BRANCH   3   6
ATOM      6  C   UNL A   1      33.553  28.133  25.812  1.00  0.00     0.176 C 
BRANCH   6   7
ATOM      7  N   UNL A   1      34.020  28.466  24.476  1.00  0.00    -0.339 N 
ATOM      8  C   UNL A   1      33.403  28.619  23.268  1.00  0.00     0.270 C 
ATOM      9  O   UNL A   1      34.189  28.964  22.375  1.00  0.00    -0.268 OA
ATOM     10  H   UNL A   1      34.993  28.614  24.432  1.00  0.00     0.164 HD
BRANCH   8  11
ATOM     11  C   UNL A   1      31.986  28.455  22.974  1.00  0.00     0.126 A 
ATOM     12  C   UNL A   1      29.818  29.055  22.749  1.00  0.00     0.066 A 
ATOM     13  C   UNL A   1      31.081  29.505  23.164  1.00  0.00     0.059 A 
ATOM     14  N   UNL A   1      29.885  27.781  22.382  1.00  0.00    -0.177 NA
ATOM     15  N   UNL A   1      31.193  27.468  22.422  1.00  0.00    -0.263 N 
ATOM     16  C   UNL A   1      31.499  26.231  21.747  1.00  0.00     0.174 C 
BRANCH  12  17
ATOM     17  C   UNL A   1      28.533  29.823  22.637  1.00  0.00     0.034 C 
ATOM     18  C   UNL A   1      27.344  28.929  23.005  1.00  0.00     0.014 C 
ATOM     19  C   UNL A   1      28.514  31.084  23.514  1.00  0.00     0.014 C 
ENDBRANCH  12  17
ENDBRANCH   8  11
ENDBRANCH   6   7
BRANCH   6  20
ATOM     20  C   UNL A   1      33.777  26.646  26.159  1.00  0.00     0.072 C 
BRANCH  20  21
ATOM     21  C   UNL A   1      32.765  25.655  25.672  1.00  0.00    -0.020 A 
ATOM     22  C   UNL A   1      31.421  25.583  26.002  1.00  0.00     0.087 A 
ATOM     23  C   UNL A   1      33.018  24.577  24.762  1.00  0.00     0.003 A 
ATOM     24  N   UNL A   1      30.842  24.600  25.239  1.00  0.00    -0.361 N 
ATOM     25  C   UNL A   1      31.790  23.991  24.452  1.00  0.00     0.046 A 
ATOM     26  C   UNL A   1      34.178  24.090  24.127  1.00  0.00     0.010 A 
ATOM     27  H   UNL A   1      29.885  24.366  25.253  1.00  0.00     0.166 HD
ATOM     28  C   UNL A   1      31.657  22.988  23.484  1.00  0.00     0.026 A 
ATOM     29  C   UNL A   1      34.067  23.061  23.189  1.00  0.00     0.001 A 
ATOM     30  C   UNL A   1      32.822  22.534  22.857  1.00  0.00     0.002 A 
ENDBRANCH  20  21
ENDBRANCH   6  20
ENDBRANCH   3   6
ENDBRANCH   1   2
BRANCH   1  31
ATOM     31  C   UNL A   1      31.524  32.007  26.779  1.00  0.00     0.042 C 
BRANCH  31  32
ATOM     32  C   UNL A   1      32.783  32.779  27.117  1.00  0.00     0.118 C 
BRANCH  32  33
ATOM     33  N   UNL A   1      32.522  34.126  27.625  1.00  0.00    -0.352 N 
ATOM     34  C   UNL A   1      33.079  34.817  28.675  1.00  0.00     0.251 C 
ATOM     35  H   UNL A   1      31.829  34.622  27.131  1.00  0.00     0.163 HD
ATOM     36  O   UNL A   1      32.596  35.888  29.034  1.00  0.00    -0.269 OA
BRANCH  34  37
ATOM     37  C   UNL A   1      34.230  34.250  29.404  1.00  0.00     0.039 A 
ATOM     38  C   UNL A   1      34.008  33.367  30.463  1.00  0.00     0.014 A 
ATOM     39  C   UNL A   1      35.533  34.557  29.017  1.00  0.00     0.014 A 
ATOM     40  C   UNL A   1      35.093  32.724  31.061  1.00  0.00     0.010 A 
ATOM     41  C   UNL A   1      36.587  33.795  29.491  1.00  0.00     0.010 A 
ATOM     42  C   UNL A   1      36.387  32.893  30.542  1.00  0.00    -0.014 A 
BRANCH  42  43
ATOM     43  C   UNL A   1      37.556  32.178  31.108  1.00  0.00     0.031 A 
ATOM     44  C   UNL A   1      38.040  32.515  32.494  1.00  0.00     0.074 A 
ATOM     45  C   UNL A   1      38.224  31.286  30.353  1.00  0.00     0.049 A 
ATOM     46  N   UNL A   1      39.070  32.045  33.151  1.00  0.00    -0.248 NA
ATOM     47  C   UNL A   1      37.297  33.558  33.221  1.00  0.00     0.031 C 
ATOM     48  C   UNL A   1      37.903  30.937  28.968  1.00  0.00     0.029 A 
ATOM     49  N   UNL A   1      39.312  30.505  30.647  1.00  0.00    -0.354 N 
ATOM     50  C   UNL A   1      39.110  32.756  34.343  1.00  0.00     0.074 A 
ATOM     51  C   UNL A   1      38.062  33.748  34.282  1.00  0.00     0.031 C 
ATOM     52  C   UNL A   1      38.737  29.968  28.554  1.00  0.00     0.029 A 
ATOM     53  C   UNL A   1      39.671  29.657  29.630  1.00  0.00     0.049 A 
ATOM     54  H   UNL A   1      39.790  30.548  31.508  1.00  0.00     0.167 HD
ATOM     55  C   UNL A   1      39.916  32.571  35.415  1.00  0.00     0.037 A 
ATOM     56  C   UNL A   1      40.637  28.721  29.582  1.00  0.00     0.037 A 
ATOM     57  C   UNL A   1      40.926  31.550  35.486  1.00  0.00     0.049 A 
ATOM     58  C   UNL A   1      41.501  28.507  30.793  1.00  0.00     0.074 A 
ATOM     59  C   UNL A   1      41.750  31.219  36.544  1.00  0.00     0.029 A 
ATOM     60  N   UNL A   1      41.243  30.690  34.443  1.00  0.00    -0.354 N 
ATOM     61  N   UNL A   1      41.475  29.125  31.949  1.00  0.00    -0.248 NA
ATOM     62  C   UNL A   1      42.520  27.455  30.695  1.00  0.00     0.031 C 
ATOM     63  C   UNL A   1      42.598  30.185  36.127  1.00  0.00     0.029 A 
ATOM     64  C   UNL A   1      42.266  29.838  34.827  1.00  0.00     0.049 A 
ATOM     65  H   UNL A   1      40.806  30.685  33.561  1.00  0.00     0.167 HD
ATOM     66  C   UNL A   1      42.454  28.521  32.727  1.00  0.00     0.074 A 
ATOM     67  C   UNL A   1      43.041  27.474  31.914  1.00  0.00     0.031 C 
ATOM     68  C   UNL A   1      42.835  28.805  33.998  1.00  0.00     0.037 A 
BRANCH  55  69
ATOM     69  C   UNL A   1      39.720  33.492  36.587  1.00  0.00     0.064 A 
ATOM     70  C   UNL A   1      38.872  33.159  37.656  1.00  0.00     0.173 A 
ATOM     71  C   UNL A   1      40.366  34.737  36.631  1.00  0.00     0.173 A 
ATOM     72  F   UNL A   1      38.216  31.988  37.659  1.00  0.00    -0.203 F 
ATOM     73  C   UNL A   1      38.634  34.058  38.693  1.00  0.00     0.198 A 
ATOM     74  C   UNL A   1      40.155  35.618  37.689  1.00  0.00     0.198 A 
ATOM     75  F   UNL A   1      41.190  35.108  35.640  1.00  0.00    -0.203 F 
ATOM     76  F   UNL A   1      37.755  33.749  39.656  1.00  0.00    -0.200 F 
ATOM     77  C   UNL A   1      39.279  35.284  38.710  1.00  0.00     0.200 A 
ATOM     78  F   UNL A   1      40.789  36.799  37.712  1.00  0.00    -0.200 F 
ATOM     79  F   UNL A   1      39.044  36.152  39.705  1.00  0.00    -0.200 F 
ENDBRANCH  55  69
BRANCH  56  80
ATOM     80  C   UNL A   1      40.780  27.869  28.374  1.00  0.00     0.064 A 
ATOM     81  C   UNL A   1      41.602  28.272  27.311  1.00  0.00     0.173 A 
ATOM     82  C   UNL A   1      40.128  26.633  28.261  1.00  0.00     0.173 A 
ATOM     83  F   UNL A   1      42.235  29.453  27.366  1.00  0.00    -0.203 F 
ATOM     84  C   UNL A   1      41.755  27.478  26.177  1.00  0.00     0.198 A 
ATOM     85  C   UNL A   1      40.302  25.828  27.136  1.00  0.00     0.198 A 
ATOM     86  F   UNL A   1      39.339  26.197  29.254  1.00  0.00    -0.203 F 
ATOM     87  F   UNL A   1      42.520  27.904  25.162  1.00  0.00    -0.200 F 
ATOM     88  C   UNL A   1      41.110  26.254  26.093  1.00  0.00     0.200 A 
ATOM     89  F   UNL A   1      39.691  24.637  27.065  1.00  0.00    -0.200 F 
ATOM     90  F   UNL A   1      41.266  25.486  25.006  1.00  0.00    -0.200 F 
ENDBRANCH  56  80
BRANCH  68  91
ATOM     91  C   UNL A   1      43.914  27.948  34.592  1.00  0.00     0.064 A 
ATOM     92  C   UNL A   1      45.266  28.315  34.529  1.00  0.00     0.173 A 
ATOM     93  C   UNL A   1      43.586  26.751  35.249  1.00  0.00     0.173 A 
ATOM     94  F   UNL A   1      45.630  29.443  33.899  1.00  0.00    -0.203 F 
ATOM     95  C   UNL A   1      46.254  27.498  35.069  1.00  0.00     0.198 A 
ATOM     96  C   UNL A   1      44.575  25.953  35.818  1.00  0.00     0.198 A 
ATOM     97  F   UNL A   1      42.307  26.359  35.344  1.00  0.00    -0.203 F 
ATOM     98  F   UNL A   1      47.544  27.838  34.943  1.00  0.00    -0.200 F 
ATOM     99  C   UNL A   1      45.909  26.321  35.716  1.00  0.00     0.200 A 
ATOM    100  F   UNL A   1      44.237  24.826  36.456  1.00  0.00    -0.200 F 
ATOM    101  F   UNL A   1      46.861  25.535  36.236  1.00  0.00    -0.200 F 
ENDBRANCH  68  91
ENDBRANCH  42  43
ENDBRANCH  34  37
ENDBRANCH  32  33
ENDBRANCH  31  32
ENDBRANCH   1  31
TORSDOF 15
ENDMDL
