MODEL 1
REMARK VINA RESULT:     -12.8      0.000      0.000
REMARK SMILES C/C(=N\[NH+]=C1\NC(=O)[C@H](CC(=O)NCCCNC(=O)c2ccc(-c3c4nc(c(-c5c(F)c(F)c(F)c(F)c5F)c5ccc([nH]5)c(-c5c(F)c(F)c(F)c(F)c5F)c5nc(c(-c6c(F)c(F)c(F)c(F)c6F)c6ccc3[nH]6)C=C5)C=C4)cc2)S1)c1ccc([N+](=O)[O-])cc1
REMARK SMILES IDX 14 1 13 2 11 3 12 4 10 6 9 7 4 8 5 9 6 11 83 12 7 13 8 15
REMARK SMILES IDX 3 16 1 17 2 18 84 19 85 20 92 21 86 22 91 23 87 24 88 25
REMARK SMILES IDX 89 26 90 27 15 28 16 29 17 30 18 31 19 33 20 34 21 35 82 36
REMARK SMILES IDX 22 37 81 38 23 39 24 40 25 41 75 42 26 43 80 44 74 45 76 46
REMARK SMILES IDX 27 47 79 48 73 49 72 50 28 52 60 53 40 54 59 55 41 56 44 57
REMARK SMILES IDX 58 58 77 59 42 60 43 61 57 63 78 64 45 65 29 66 30 67 38 68
REMARK SMILES IDX 31 69 32 70 36 71 39 72 33 73 34 74 37 75 35 76 61 77 62 78
REMARK SMILES IDX 70 79 63 80 64 81 68 82 71 83 65 84 66 85 69 86 67 87 46 88
REMARK SMILES IDX 47 89 55 90 48 91 49 92 53 93 56 94 50 95 51 96 54 97 52 98
REMARK H PARENT 13 5 4 10 6 14 17 32 76 51 44 62
REMARK Flexibility Score: inf
ROOT
ATOM      1  C   UNL A   1      31.403  30.619  26.033  1.00  0.00     0.117 C 
ENDROOT
BRANCH   1   2
ATOM      2  N   UNL A   1      31.030  30.423  24.638  1.00  0.00    -0.356 N 
ATOM      3  C   UNL A   1      30.764  29.286  23.935  1.00  0.00     0.221 C 
ATOM      4  O   UNL A   1      30.514  29.375  22.733  1.00  0.00    -0.275 OA
ATOM      5  H   UNL A   1      30.958  31.253  24.114  1.00  0.00     0.163 HD
BRANCH   3   6
ATOM      6  C   UNL A   1      30.800  27.943  24.621  1.00  0.00     0.127 C 
BRANCH   6   7
ATOM      7  C   UNL A   1      32.004  27.136  24.166  1.00  0.00     0.183 C 
ATOM      8  N   UNL A   1      33.590  24.285  26.196  1.00  0.00    -0.142 N 
ATOM      9  C   UNL A   1      32.977  25.293  25.681  1.00  0.00     0.337 C 
ATOM     10  H   UNL A   1      34.215  24.389  26.950  1.00  0.00     0.343 HD
ATOM     11  N   UNL A   1      33.468  26.522  25.939  1.00  0.00    -0.202 N 
ATOM     12  S   UNL A   1      31.723  25.352  24.478  1.00  0.00    -0.020 SA
ATOM     13  C   UNL A   1      33.242  27.446  24.972  1.00  0.00     0.322 C 
ATOM     14  H   UNL A   1      33.954  26.733  26.768  1.00  0.00     0.316 HD
ATOM     15  O   UNL A   1      34.008  28.379  24.749  1.00  0.00    -0.246 OA
BRANCH   8  16
ATOM     16  N   UNL A   1      33.325  23.045  25.630  1.00  0.00    -0.090 NA
ATOM     17  C   UNL A   1      35.818  22.818  25.571  1.00  0.00     0.071 C 
ATOM     18  C   UNL A   1      34.386  22.311  25.415  1.00  0.00     0.088 C 
BRANCH  18  19
ATOM     19  C   UNL A   1      34.203  20.905  24.936  1.00  0.00    -0.000 A 
ATOM     20  C   UNL A   1      32.946  20.495  24.465  1.00  0.00     0.017 A 
ATOM     21  C   UNL A   1      35.249  19.974  25.000  1.00  0.00     0.017 A 
ATOM     22  C   UNL A   1      32.732  19.166  24.081  1.00  0.00     0.086 A 
ATOM     23  C   UNL A   1      35.042  18.645  24.626  1.00  0.00     0.086 A 
ATOM     24  C   UNL A   1      33.780  18.243  24.175  1.00  0.00     0.269 A 
BRANCH  24  25
ATOM     25  N   UNL A   1      33.556  16.837  23.821  1.00  0.00     0.062 N 
ATOM     26  O   UNL A   1      34.028  16.430  22.751  1.00  0.00    -0.258 OA
ATOM     27  O   UNL A   1      32.903  16.142  24.613  1.00  0.00    -0.258 OA
ENDBRANCH  24  25
ENDBRANCH  18  19
ENDBRANCH   8  16
ENDBRANCH   6   7
ENDBRANCH   3   6
ENDBRANCH   1   2
BRANCH   1  28
ATOM     28  C   UNL A   1      31.348  32.084  26.460  1.00  0.00     0.042 C 
BRANCH  28  29
ATOM     29  C   UNL A   1      32.568  32.553  27.235  1.00  0.00     0.118 C 
BRANCH  29  30
ATOM     30  N   UNL A   1      32.469  33.959  27.587  1.00  0.00    -0.352 N 
ATOM     31  C   UNL A   1      33.104  34.653  28.587  1.00  0.00     0.251 C 
ATOM     32  H   UNL A   1      31.858  34.491  27.026  1.00  0.00     0.163 HD
ATOM     33  O   UNL A   1      32.700  35.768  28.904  1.00  0.00    -0.269 OA
BRANCH  31  34
ATOM     34  C   UNL A   1      34.263  34.062  29.296  1.00  0.00     0.039 A 
ATOM     35  C   UNL A   1      34.028  33.228  30.393  1.00  0.00     0.014 A 
ATOM     36  C   UNL A   1      35.576  34.358  28.920  1.00  0.00     0.014 A 
ATOM     37  C   UNL A   1      35.104  32.659  31.080  1.00  0.00     0.010 A 
ATOM     38  C   UNL A   1      36.644  33.720  29.548  1.00  0.00     0.010 A 
ATOM     39  C   UNL A   1      36.423  32.877  30.646  1.00  0.00    -0.014 A 
BRANCH  39  40
ATOM     40  C   UNL A   1      37.577  32.256  31.347  1.00  0.00     0.031 A 
ATOM     41  C   UNL A   1      38.314  31.103  30.718  1.00  0.00     0.074 A 
ATOM     42  C   UNL A   1      37.936  32.696  32.569  1.00  0.00     0.049 A 
ATOM     43  N   UNL A   1      39.303  30.390  31.197  1.00  0.00    -0.248 NA
ATOM     44  C   UNL A   1      37.865  30.679  29.382  1.00  0.00     0.031 C 
ATOM     45  C   UNL A   1      37.280  33.779  33.304  1.00  0.00     0.029 A 
ATOM     46  N   UNL A   1      38.936  32.282  33.414  1.00  0.00    -0.354 N 
ATOM     47  C   UNL A   1      39.582  29.432  30.231  1.00  0.00     0.074 A 
ATOM     48  C   UNL A   1      38.624  29.615  29.164  1.00  0.00     0.031 C 
ATOM     49  C   UNL A   1      37.908  33.959  34.477  1.00  0.00     0.029 A 
ATOM     50  C   UNL A   1      38.982  32.978  34.598  1.00  0.00     0.049 A 
ATOM     51  H   UNL A   1      39.561  31.555  33.192  1.00  0.00     0.167 HD
ATOM     52  C   UNL A   1      40.566  28.501  30.221  1.00  0.00     0.037 A 
ATOM     53  C   UNL A   1      39.792  32.834  35.664  1.00  0.00     0.037 A 
ATOM     54  C   UNL A   1      41.535  28.335  31.273  1.00  0.00     0.049 A 
ATOM     55  C   UNL A   1      40.863  31.776  35.636  1.00  0.00     0.074 A 
ATOM     56  C   UNL A   1      42.600  27.453  31.334  1.00  0.00     0.029 A 
ATOM     57  N   UNL A   1      41.554  29.067  32.451  1.00  0.00    -0.354 N 
ATOM     58  N   UNL A   1      41.158  30.920  34.688  1.00  0.00    -0.248 NA
ATOM     59  C   UNL A   1      41.721  31.669  36.825  1.00  0.00     0.031 C 
ATOM     60  C   UNL A   1      43.232  27.615  32.570  1.00  0.00     0.029 A 
ATOM     61  C   UNL A   1      42.599  28.640  33.254  1.00  0.00     0.049 A 
ATOM     62  H   UNL A   1      40.919  29.783  32.682  1.00  0.00     0.167 HD
ATOM     63  C   UNL A   1      42.252  30.200  35.150  1.00  0.00     0.074 A 
ATOM     64  C   UNL A   1      42.580  30.729  36.455  1.00  0.00     0.031 C 
ATOM     65  C   UNL A   1      42.924  29.188  34.547  1.00  0.00     0.037 A 
BRANCH  52  66
ATOM     66  C   UNL A   1      40.655  27.589  29.030  1.00  0.00     0.064 A 
ATOM     67  C   UNL A   1      41.602  27.795  28.014  1.00  0.00     0.173 A 
ATOM     68  C   UNL A   1      39.822  26.465  28.928  1.00  0.00     0.173 A 
ATOM     69  F   UNL A   1      42.417  28.861  28.057  1.00  0.00    -0.203 F 
ATOM     70  C   UNL A   1      41.694  26.925  26.932  1.00  0.00     0.198 A 
ATOM     71  C   UNL A   1      39.938  25.579  27.861  1.00  0.00     0.198 A 
ATOM     72  F   UNL A   1      38.903  26.217  29.874  1.00  0.00    -0.203 F 
ATOM     73  F   UNL A   1      42.576  27.168  25.951  1.00  0.00    -0.200 F 
ATOM     74  C   UNL A   1      40.869  25.813  26.861  1.00  0.00     0.200 A 
ATOM     75  F   UNL A   1      39.152  24.495  27.802  1.00  0.00    -0.200 F 
ATOM     76  F   UNL A   1      40.969  24.968  25.824  1.00  0.00    -0.200 F 
ENDBRANCH  52  66
BRANCH  53  77
ATOM     77  C   UNL A   1      39.634  33.720  36.850  1.00  0.00     0.064 A 
ATOM     78  C   UNL A   1      38.817  33.346  37.926  1.00  0.00     0.173 A 
ATOM     79  C   UNL A   1      40.271  34.968  36.920  1.00  0.00     0.173 A 
ATOM     80  F   UNL A   1      38.169  32.172  37.898  1.00  0.00    -0.203 F 
ATOM     81  C   UNL A   1      38.616  34.199  39.010  1.00  0.00     0.198 A 
ATOM     82  C   UNL A   1      40.097  35.805  38.021  1.00  0.00     0.198 A 
ATOM     83  F   UNL A   1      41.069  35.372  35.921  1.00  0.00    -0.203 F 
ATOM     84  F   UNL A   1      37.781  33.841  39.995  1.00  0.00    -0.200 F 
ATOM     85  C   UNL A   1      39.260  35.426  39.058  1.00  0.00     0.200 A 
ATOM     86  F   UNL A   1      40.735  36.982  38.070  1.00  0.00    -0.200 F 
ATOM     87  F   UNL A   1      39.067  36.246  40.100  1.00  0.00    -0.200 F 
ENDBRANCH  53  77
BRANCH  65  88
ATOM     88  C   UNL A   1      44.111  28.620  35.268  1.00  0.00     0.064 A 
ATOM     89  C   UNL A   1      45.403  29.136  35.087  1.00  0.00     0.173 A 
ATOM     90  C   UNL A   1      43.947  27.569  36.184  1.00  0.00     0.173 A 
ATOM     91  F   UNL A   1      45.617  30.130  34.212  1.00  0.00    -0.203 F 
ATOM     92  C   UNL A   1      46.490  28.601  35.775  1.00  0.00     0.198 A 
ATOM     93  C   UNL A   1      45.030  27.061  36.895  1.00  0.00     0.198 A 
ATOM     94  F   UNL A   1      42.731  27.045  36.401  1.00  0.00    -0.203 F 
ATOM     95  F   UNL A   1      47.723  29.075  35.547  1.00  0.00    -0.200 F 
ATOM     96  C   UNL A   1      46.301  27.571  36.684  1.00  0.00     0.200 A 
ATOM     97  F   UNL A   1      44.843  26.076  37.786  1.00  0.00    -0.200 F 
ATOM     98  F   UNL A   1      47.347  27.065  37.352  1.00  0.00    -0.200 F 
ENDBRANCH  65  88
ENDBRANCH  39  40
ENDBRANCH  31  34
ENDBRANCH  29  30
ENDBRANCH  28  29
ENDBRANCH   1  28
TORSDOF 14
ENDMDL
MODEL 2
REMARK VINA RESULT:     -12.7      6.585     11.216
REMARK SMILES C/C(=N\[NH+]=C1\NC(=O)[C@H](CC(=O)NCCCNC(=O)c2ccc(-c3c4nc(c(-c5c(F)c(F)c(F)c(F)c5F)c5ccc([nH]5)c(-c5c(F)c(F)c(F)c(F)c5F)c5nc(c(-c6c(F)c(F)c(F)c(F)c6F)c6ccc3[nH]6)C=C5)C=C4)cc2)S1)c1ccc([N+](=O)[O-])cc1
REMARK SMILES IDX 14 1 13 2 11 3 12 4 10 6 9 7 4 8 5 9 6 11 83 12 7 13 8 15
REMARK SMILES IDX 3 16 1 17 2 18 84 19 85 20 92 21 86 22 91 23 87 24 88 25
REMARK SMILES IDX 89 26 90 27 15 28 16 29 17 30 18 31 19 33 20 34 21 35 82 36
REMARK SMILES IDX 22 37 81 38 23 39 24 40 25 41 75 42 26 43 80 44 74 45 76 46
REMARK SMILES IDX 27 47 79 48 73 49 72 50 28 52 60 53 40 54 59 55 41 56 44 57
REMARK SMILES IDX 58 58 77 59 42 60 43 61 57 63 78 64 45 65 29 66 30 67 38 68
REMARK SMILES IDX 31 69 32 70 36 71 39 72 33 73 34 74 37 75 35 76 61 77 62 78
REMARK SMILES IDX 70 79 63 80 64 81 68 82 71 83 65 84 66 85 69 86 67 87 46 88
REMARK SMILES IDX 47 89 55 90 48 91 49 92 53 93 56 94 50 95 51 96 54 97 52 98
REMARK H PARENT 13 5 4 10 6 14 17 32 76 51 44 62
REMARK Flexibility Score: inf
ROOT
ATOM      1  C   UNL A   1      41.843  19.372  27.618  1.00  0.00     0.117 C 
ENDROOT
BRANCH   1   2
ATOM      2  N   UNL A   1      42.479  20.586  28.117  1.00  0.00    -0.356 N 
ATOM      3  C   UNL A   1      42.369  21.882  27.714  1.00  0.00     0.221 C 
ATOM      4  O   UNL A   1      43.056  22.739  28.270  1.00  0.00    -0.275 OA
ATOM      5  H   UNL A   1      43.091  20.444  28.875  1.00  0.00     0.163 HD
BRANCH   3   6
ATOM      6  C   UNL A   1      41.437  22.251  26.586  1.00  0.00     0.127 C 
BRANCH   6   7
ATOM      7  C   UNL A   1      39.991  22.222  27.048  1.00  0.00     0.183 C 
ATOM      8  N   UNL A   1      36.995  21.533  24.742  1.00  0.00    -0.142 N 
ATOM      9  C   UNL A   1      38.096  21.801  25.354  1.00  0.00     0.337 C 
ATOM     10  H   UNL A   1      36.565  22.183  24.141  1.00  0.00     0.343 HD
ATOM     11  N   UNL A   1      38.459  23.096  25.450  1.00  0.00    -0.202 N 
ATOM     12  S   UNL A   1      39.123  20.783  26.319  1.00  0.00    -0.020 SA
ATOM     13  C   UNL A   1      39.201  23.405  26.542  1.00  0.00     0.322 C 
ATOM     14  H   UNL A   1      38.204  23.767  24.776  1.00  0.00     0.316 HD
ATOM     15  O   UNL A   1      39.165  24.507  27.082  1.00  0.00    -0.246 OA
BRANCH   8  16
ATOM     16  N   UNL A   1      36.446  20.279  24.978  1.00  0.00    -0.090 NA
ATOM     17  C   UNL A   1      34.259  21.448  24.627  1.00  0.00     0.071 C 
ATOM     18  C   UNL A   1      35.148  20.222  24.834  1.00  0.00     0.088 C 
BRANCH  18  19
ATOM     19  C   UNL A   1      34.471  18.890  24.930  1.00  0.00    -0.000 A 
ATOM     20  C   UNL A   1      33.156  18.819  25.411  1.00  0.00     0.017 A 
ATOM     21  C   UNL A   1      35.147  17.707  24.597  1.00  0.00     0.017 A 
ATOM     22  C   UNL A   1      32.528  17.578  25.578  1.00  0.00     0.086 A 
ATOM     23  C   UNL A   1      34.532  16.466  24.767  1.00  0.00     0.086 A 
ATOM     24  C   UNL A   1      33.226  16.405  25.266  1.00  0.00     0.269 A 
BRANCH  24  25
ATOM     25  N   UNL A   1      32.598  15.096  25.481  1.00  0.00     0.062 N 
ATOM     26  O   UNL A   1      33.311  14.090  25.376  1.00  0.00    -0.258 OA
ATOM     27  O   UNL A   1      31.387  15.077  25.750  1.00  0.00    -0.258 OA
ENDBRANCH  24  25
ENDBRANCH  18  19
ENDBRANCH   8  16
ENDBRANCH   6   7
ENDBRANCH   3   6
ENDBRANCH   1   2
BRANCH   1  28
ATOM     28  C   UNL A   1      42.744  18.578  26.675  1.00  0.00     0.042 C 
BRANCH  28  29
ATOM     29  C   UNL A   1      42.829  19.147  25.268  1.00  0.00     0.118 C 
BRANCH  29  30
ATOM     30  N   UNL A   1      44.071  18.771  24.614  1.00  0.00    -0.352 N 
ATOM     31  C   UNL A   1      45.104  19.566  24.183  1.00  0.00     0.251 C 
ATOM     32  H   UNL A   1      44.188  17.805  24.458  1.00  0.00     0.163 HD
ATOM     33  O   UNL A   1      45.945  19.106  23.417  1.00  0.00    -0.269 OA
BRANCH  31  34
ATOM     34  C   UNL A   1      45.202  20.977  24.622  1.00  0.00     0.039 A 
ATOM     35  C   UNL A   1      45.655  21.251  25.916  1.00  0.00     0.014 A 
ATOM     36  C   UNL A   1      44.810  22.029  23.789  1.00  0.00     0.014 A 
ATOM     37  C   UNL A   1      45.756  22.574  26.355  1.00  0.00     0.010 A 
ATOM     38  C   UNL A   1      44.995  23.349  24.195  1.00  0.00     0.010 A 
ATOM     39  C   UNL A   1      45.453  23.638  25.488  1.00  0.00    -0.014 A 
BRANCH  39  40
ATOM     40  C   UNL A   1      45.582  25.052  25.928  1.00  0.00     0.031 A 
ATOM     41  C   UNL A   1      46.920  25.740  25.880  1.00  0.00     0.074 A 
ATOM     42  C   UNL A   1      44.508  25.704  26.416  1.00  0.00     0.049 A 
ATOM     43  N   UNL A   1      47.249  26.945  26.276  1.00  0.00    -0.248 NA
ATOM     44  C   UNL A   1      48.046  24.965  25.335  1.00  0.00     0.031 C 
ATOM     45  C   UNL A   1      43.165  25.138  26.552  1.00  0.00     0.029 A 
ATOM     46  N   UNL A   1      44.377  26.984  26.895  1.00  0.00    -0.354 N 
ATOM     47  C   UNL A   1      48.612  27.064  26.040  1.00  0.00     0.074 A 
ATOM     48  C   UNL A   1      49.064  25.793  25.521  1.00  0.00     0.031 C 
ATOM     49  C   UNL A   1      42.342  26.071  27.057  1.00  0.00     0.029 A 
ATOM     50  C   UNL A   1      43.106  27.287  27.321  1.00  0.00     0.049 A 
ATOM     51  H   UNL A   1      45.123  27.624  26.931  1.00  0.00     0.167 HD
ATOM     52  C   UNL A   1      49.411  28.144  26.215  1.00  0.00     0.037 A 
ATOM     53  C   UNL A   1      42.615  28.413  27.872  1.00  0.00     0.037 A 
ATOM     54  C   UNL A   1      48.956  29.416  26.710  1.00  0.00     0.049 A 
ATOM     55  C   UNL A   1      43.531  29.591  28.076  1.00  0.00     0.074 A 
ATOM     56  C   UNL A   1      49.678  30.586  26.877  1.00  0.00     0.029 A 
ATOM     57  N   UNL A   1      47.659  29.686  27.121  1.00  0.00    -0.354 N 
ATOM     58  N   UNL A   1      44.804  29.711  27.787  1.00  0.00    -0.248 NA
ATOM     59  C   UNL A   1      42.938  30.795  28.676  1.00  0.00     0.031 C 
ATOM     60  C   UNL A   1      48.831  31.547  27.437  1.00  0.00     0.029 A 
ATOM     61  C   UNL A   1      47.566  30.996  27.561  1.00  0.00     0.049 A 
ATOM     62  H   UNL A   1      46.914  29.042  27.101  1.00  0.00     0.167 HD
ATOM     63  C   UNL A   1      45.155  31.008  28.137  1.00  0.00     0.074 A 
ATOM     64  C   UNL A   1      43.957  31.643  28.644  1.00  0.00     0.031 C 
ATOM     65  C   UNL A   1      46.361  31.619  28.048  1.00  0.00     0.037 A 
BRANCH  52  66
ATOM     66  C   UNL A   1      50.865  28.003  25.861  1.00  0.00     0.064 A 
ATOM     67  C   UNL A   1      51.839  27.750  26.839  1.00  0.00     0.173 A 
ATOM     68  C   UNL A   1      51.283  28.066  24.524  1.00  0.00     0.173 A 
ATOM     69  F   UNL A   1      51.495  27.691  28.136  1.00  0.00    -0.203 F 
ATOM     70  C   UNL A   1      53.178  27.592  26.494  1.00  0.00     0.198 A 
ATOM     71  C   UNL A   1      52.617  27.874  24.178  1.00  0.00     0.198 A 
ATOM     72  F   UNL A   1      50.392  28.299  23.547  1.00  0.00    -0.203 F 
ATOM     73  F   UNL A   1      54.097  27.396  27.451  1.00  0.00    -0.200 F 
ATOM     74  C   UNL A   1      53.565  27.644  25.164  1.00  0.00     0.200 A 
ATOM     75  F   UNL A   1      52.987  27.909  22.891  1.00  0.00    -0.200 F 
ATOM     76  F   UNL A   1      54.853  27.477  24.832  1.00  0.00    -0.200 F 
ENDBRANCH  52  66
BRANCH  53  77
ATOM     77  C   UNL A   1      41.181  28.492  28.264  1.00  0.00     0.064 A 
ATOM     78  C   UNL A   1      40.212  28.955  27.363  1.00  0.00     0.173 A 
ATOM     79  C   UNL A   1      40.755  28.137  29.552  1.00  0.00     0.173 A 
ATOM     80  F   UNL A   1      40.571  29.328  26.126  1.00  0.00    -0.203 F 
ATOM     81  C   UNL A   1      38.878  29.089  27.745  1.00  0.00     0.198 A 
ATOM     82  C   UNL A   1      39.415  28.238  29.922  1.00  0.00     0.198 A 
ATOM     83  F   UNL A   1      41.640  27.682  30.451  1.00  0.00    -0.203 F 
ATOM     84  F   UNL A   1      37.984  29.593  26.882  1.00  0.00    -0.200 F 
ATOM     85  C   UNL A   1      38.480  28.727  29.022  1.00  0.00     0.200 A 
ATOM     86  F   UNL A   1      39.033  27.871  31.152  1.00  0.00    -0.200 F 
ATOM     87  F   UNL A   1      37.198  28.857  29.390  1.00  0.00    -0.200 F 
ENDBRANCH  53  77
BRANCH  65  88
ATOM     88  C   UNL A   1      46.439  33.061  28.461  1.00  0.00     0.064 A 
ATOM     89  C   UNL A   1      46.768  33.439  29.771  1.00  0.00     0.173 A 
ATOM     90  C   UNL A   1      46.220  34.080  27.520  1.00  0.00     0.173 A 
ATOM     91  F   UNL A   1      46.973  32.505  30.712  1.00  0.00    -0.203 F 
ATOM     92  C   UNL A   1      46.847  34.783  30.130  1.00  0.00     0.198 A 
ATOM     93  C   UNL A   1      46.333  35.420  27.875  1.00  0.00     0.198 A 
ATOM     94  F   UNL A   1      45.911  33.773  26.251  1.00  0.00    -0.203 F 
ATOM     95  F   UNL A   1      47.111  35.120  31.401  1.00  0.00    -0.200 F 
ATOM     96  C   UNL A   1      46.638  35.771  29.181  1.00  0.00     0.200 A 
ATOM     97  F   UNL A   1      46.148  36.375  26.951  1.00  0.00    -0.200 F 
ATOM     98  F   UNL A   1      46.724  37.063  29.526  1.00  0.00    -0.200 F 
ENDBRANCH  65  88
ENDBRANCH  39  40
ENDBRANCH  31  34
ENDBRANCH  29  30
ENDBRANCH  28  29
ENDBRANCH   1  28
TORSDOF 14
ENDMDL
MODEL 3
REMARK VINA RESULT:     -12.7      0.933      7.155
REMARK SMILES C/C(=N\[NH+]=C1\NC(=O)[C@H](CC(=O)NCCCNC(=O)c2ccc(-c3c4nc(c(-c5c(F)c(F)c(F)c(F)c5F)c5ccc([nH]5)c(-c5c(F)c(F)c(F)c(F)c5F)c5nc(c(-c6c(F)c(F)c(F)c(F)c6F)c6ccc3[nH]6)C=C5)C=C4)cc2)S1)c1ccc([N+](=O)[O-])cc1
REMARK SMILES IDX 14 1 13 2 11 3 12 4 10 6 9 7 4 8 5 9 6 11 83 12 7 13 8 15
REMARK SMILES IDX 3 16 1 17 2 18 84 19 85 20 92 21 86 22 91 23 87 24 88 25
REMARK SMILES IDX 89 26 90 27 15 28 16 29 17 30 18 31 19 33 20 34 21 35 82 36
REMARK SMILES IDX 22 37 81 38 23 39 24 40 25 41 75 42 26 43 80 44 74 45 76 46
REMARK SMILES IDX 27 47 79 48 73 49 72 50 28 52 60 53 40 54 59 55 41 56 44 57
REMARK SMILES IDX 58 58 77 59 42 60 43 61 57 63 78 64 45 65 29 66 30 67 38 68
REMARK SMILES IDX 31 69 32 70 36 71 39 72 33 73 34 74 37 75 35 76 61 77 62 78
REMARK SMILES IDX 70 79 63 80 64 81 68 82 71 83 65 84 66 85 69 86 67 87 46 88
REMARK SMILES IDX 47 89 55 90 48 91 49 92 53 93 56 94 50 95 51 96 54 97 52 98
REMARK H PARENT 13 5 4 10 6 14 17 32 76 51 44 62
REMARK Flexibility Score: inf
ROOT
ATOM      1  C   UNL A   1      31.370  30.308  25.687  1.00  0.00     0.117 C 
ENDROOT
BRANCH   1   2
ATOM      2  N   UNL A   1      31.023  30.123  24.284  1.00  0.00    -0.356 N 
ATOM      3  C   UNL A   1      30.714  28.998  23.580  1.00  0.00     0.221 C 
ATOM      4  O   UNL A   1      30.500  29.091  22.372  1.00  0.00    -0.275 OA
ATOM      5  H   UNL A   1      31.010  30.952  23.754  1.00  0.00     0.163 HD
BRANCH   3   6
ATOM      6  C   UNL A   1      30.659  27.659  24.274  1.00  0.00     0.127 C 
BRANCH   6   7
ATOM      7  C   UNL A   1      31.910  26.848  23.984  1.00  0.00     0.183 C 
ATOM      8  N   UNL A   1      33.217  24.012  26.223  1.00  0.00    -0.142 N 
ATOM      9  C   UNL A   1      32.677  25.017  25.625  1.00  0.00     0.337 C 
ATOM     10  H   UNL A   1      33.739  24.121  27.051  1.00  0.00     0.343 HD
ATOM     11  N   UNL A   1      33.132  26.247  25.936  1.00  0.00    -0.202 N 
ATOM     12  S   UNL A   1      31.590  25.067  24.270  1.00  0.00    -0.020 SA
ATOM     13  C   UNL A   1      33.034  27.164  24.941  1.00  0.00     0.322 C 
ATOM     14  H   UNL A   1      33.508  26.464  26.820  1.00  0.00     0.316 HD
ATOM     15  O   UNL A   1      33.824  28.095  24.813  1.00  0.00    -0.246 OA
BRANCH   8  16
ATOM     16  N   UNL A   1      33.026  22.768  25.636  1.00  0.00    -0.090 NA
ATOM     17  C   UNL A   1      35.526  22.631  25.703  1.00  0.00     0.071 C 
ATOM     18  C   UNL A   1      34.122  22.074  25.471  1.00  0.00     0.088 C 
BRANCH  18  19
ATOM     19  C   UNL A   1      34.014  20.666  24.975  1.00  0.00    -0.000 A 
ATOM     20  C   UNL A   1      32.756  20.153  24.626  1.00  0.00     0.017 A 
ATOM     21  C   UNL A   1      35.140  19.833  24.903  1.00  0.00     0.017 A 
ATOM     22  C   UNL A   1      32.621  18.817  24.229  1.00  0.00     0.086 A 
ATOM     23  C   UNL A   1      35.013  18.499  24.515  1.00  0.00     0.086 A 
ATOM     24  C   UNL A   1      33.751  17.992  24.187  1.00  0.00     0.269 A 
BRANCH  24  25
ATOM     25  N   UNL A   1      33.616  16.578  23.818  1.00  0.00     0.062 N 
ATOM     26  O   UNL A   1      34.132  16.207  22.756  1.00  0.00    -0.258 OA
ATOM     27  O   UNL A   1      32.988  15.840  24.592  1.00  0.00    -0.258 OA
ENDBRANCH  24  25
ENDBRANCH  18  19
ENDBRANCH   8  16
ENDBRANCH   6   7
ENDBRANCH   3   6
ENDBRANCH   1   2
BRANCH   1  28
ATOM     28  C   UNL A   1      31.304  31.769  26.125  1.00  0.00     0.042 C 
BRANCH  28  29
ATOM     29  C   UNL A   1      32.277  32.132  27.235  1.00  0.00     0.118 C 
BRANCH  29  30
ATOM     30  N   UNL A   1      32.431  33.571  27.361  1.00  0.00    -0.352 N 
ATOM     31  C   UNL A   1      33.298  34.288  28.148  1.00  0.00     0.251 C 
ATOM     32  H   UNL A   1      31.826  34.110  26.800  1.00  0.00     0.163 HD
ATOM     33  O   UNL A   1      33.106  35.487  28.326  1.00  0.00    -0.269 OA
BRANCH  31  34
ATOM     34  C   UNL A   1      34.452  33.623  28.797  1.00  0.00     0.039 A 
ATOM     35  C   UNL A   1      34.210  32.667  29.787  1.00  0.00     0.014 A 
ATOM     36  C   UNL A   1      35.767  33.966  28.472  1.00  0.00     0.014 A 
ATOM     37  C   UNL A   1      35.281  32.026  30.415  1.00  0.00     0.010 A 
ATOM     38  C   UNL A   1      36.832  33.264  29.034  1.00  0.00     0.010 A 
ATOM     39  C   UNL A   1      36.603  32.298  30.024  1.00  0.00    -0.014 A 
BRANCH  39  40
ATOM     40  C   UNL A   1      37.754  31.605  30.662  1.00  0.00     0.031 A 
ATOM     41  C   UNL A   1      38.168  31.961  32.064  1.00  0.00     0.074 A 
ATOM     42  C   UNL A   1      38.456  30.689  29.965  1.00  0.00     0.049 A 
ATOM     43  N   UNL A   1      39.178  31.516  32.770  1.00  0.00    -0.248 NA
ATOM     44  C   UNL A   1      37.354  32.970  32.762  1.00  0.00     0.031 C 
ATOM     45  C   UNL A   1      38.181  30.283  28.586  1.00  0.00     0.029 A 
ATOM     46  N   UNL A   1      39.549  29.939  30.319  1.00  0.00    -0.354 N 
ATOM     47  C   UNL A   1      39.125  32.196  33.980  1.00  0.00     0.074 A 
ATOM     48  C   UNL A   1      38.021  33.125  33.895  1.00  0.00     0.031 C 
ATOM     49  C   UNL A   1      39.066  29.342  28.219  1.00  0.00     0.029 A 
ATOM     50  C   UNL A   1      39.997  29.109  29.320  1.00  0.00     0.049 A 
ATOM     51  H   UNL A   1      39.974  29.990  31.206  1.00  0.00     0.167 HD
ATOM     52  C   UNL A   1      39.910  32.040  35.073  1.00  0.00     0.037 A 
ATOM     53  C   UNL A   1      41.046  28.265  29.289  1.00  0.00     0.037 A 
ATOM     54  C   UNL A   1      40.994  31.098  35.166  1.00  0.00     0.049 A 
ATOM     55  C   UNL A   1      41.914  28.129  30.512  1.00  0.00     0.074 A 
ATOM     56  C   UNL A   1      41.815  30.831  36.247  1.00  0.00     0.029 A 
ATOM     57  N   UNL A   1      41.409  30.268  34.135  1.00  0.00    -0.354 N 
ATOM     58  N   UNL A   1      41.813  28.730  31.672  1.00  0.00    -0.248 NA
ATOM     59  C   UNL A   1      43.041  27.188  30.423  1.00  0.00     0.031 C 
ATOM     60  C   UNL A   1      42.760  29.879  35.854  1.00  0.00     0.029 A 
ATOM     61  C   UNL A   1      42.489  29.506  34.548  1.00  0.00     0.049 A 
ATOM     62  H   UNL A   1      40.996  30.228  33.241  1.00  0.00     0.167 HD
ATOM     63  C   UNL A   1      42.837  28.218  32.459  1.00  0.00     0.074 A 
ATOM     64  C   UNL A   1      43.537  27.244  31.651  1.00  0.00     0.031 C 
ATOM     65  C   UNL A   1      43.167  28.528  33.736  1.00  0.00     0.037 A 
BRANCH  52  66
ATOM     66  C   UNL A   1      39.621  32.904  36.269  1.00  0.00     0.064 A 
ATOM     67  C   UNL A   1      40.295  34.117  36.480  1.00  0.00     0.173 A 
ATOM     68  C   UNL A   1      38.622  32.543  37.185  1.00  0.00     0.173 A 
ATOM     69  F   UNL A   1      41.267  34.505  35.640  1.00  0.00    -0.203 F 
ATOM     70  C   UNL A   1      39.996  34.923  37.576  1.00  0.00     0.198 A 
ATOM     71  C   UNL A   1      38.303  33.366  38.262  1.00  0.00     0.198 A 
ATOM     72  F   UNL A   1      37.943  31.397  37.029  1.00  0.00    -0.203 F 
ATOM     73  F   UNL A   1      40.684  36.055  37.781  1.00  0.00    -0.200 F 
ATOM     74  C   UNL A   1      38.995  34.552  38.460  1.00  0.00     0.200 A 
ATOM     75  F   UNL A   1      37.324  33.015  39.106  1.00  0.00    -0.200 F 
ATOM     76  F   UNL A   1      38.699  35.336  39.507  1.00  0.00    -0.200 F 
ENDBRANCH  52  66
BRANCH  53  77
ATOM     77  C   UNL A   1      41.333  27.470  28.064  1.00  0.00     0.064 A 
ATOM     78  C   UNL A   1      40.788  26.190  27.890  1.00  0.00     0.173 A 
ATOM     79  C   UNL A   1      42.179  27.959  27.058  1.00  0.00     0.173 A 
ATOM     80  F   UNL A   1      39.990  25.668  28.834  1.00  0.00    -0.203 F 
ATOM     81  C   UNL A   1      41.103  25.418  26.774  1.00  0.00     0.198 A 
ATOM     82  C   UNL A   1      42.466  27.199  25.925  1.00  0.00     0.198 A 
ATOM     83  F   UNL A   1      42.723  29.180  27.170  1.00  0.00    -0.203 F 
ATOM     84  F   UNL A   1      40.617  24.174  26.664  1.00  0.00    -0.200 F 
ATOM     85  C   UNL A   1      41.939  25.924  25.790  1.00  0.00     0.200 A 
ATOM     86  F   UNL A   1      43.260  27.700  24.969  1.00  0.00    -0.200 F 
ATOM     87  F   UNL A   1      42.243  25.181  24.718  1.00  0.00    -0.200 F 
ENDBRANCH  53  77
BRANCH  65  88
ATOM     88  C   UNL A   1      44.306  27.773  34.359  1.00  0.00     0.064 A 
ATOM     89  C   UNL A   1      45.619  28.265  34.338  1.00  0.00     0.173 A 
ATOM     90  C   UNL A   1      44.072  26.557  35.021  1.00  0.00     0.173 A 
ATOM     91  F   UNL A   1      45.900  29.415  33.706  1.00  0.00    -0.203 F 
ATOM     92  C   UNL A   1      46.660  27.555  34.932  1.00  0.00     0.198 A 
ATOM     93  C   UNL A   1      45.108  25.868  35.643  1.00  0.00     0.198 A 
ATOM     94  F   UNL A   1      42.833  26.046  35.078  1.00  0.00    -0.203 F 
ATOM     95  F   UNL A   1      47.915  28.019  34.854  1.00  0.00    -0.200 F 
ATOM     96  C   UNL A   1      46.402  26.362  35.591  1.00  0.00     0.200 A 
ATOM     97  F   UNL A   1      44.854  24.723  36.294  1.00  0.00    -0.200 F 
ATOM     98  F   UNL A   1      47.403  25.686  36.170  1.00  0.00    -0.200 F 
ENDBRANCH  65  88
ENDBRANCH  39  40
ENDBRANCH  31  34
ENDBRANCH  29  30
ENDBRANCH  28  29
ENDBRANCH   1  28
TORSDOF 14
ENDMDL
