MODEL 1
REMARK VINA RESULT:     -14.4      0.000      0.000
REMARK SMILES Cc1cc(OCC(=O)N[C@@H](Cc2ccc(Cl)cc2)C(=O)NCCCNC(=O)c2ccc(-c3c4nc(c(-c5c(F)c(F)c(F)c(F)c5F)c5ccc([nH]5)c(-c5c(F)c(F)c(F)c(F)c5F)c5nc(c(-c6c(F)c(F)c(F)c(F)c6F)c6ccc3[nH]6)C=C5)C=C4)cc2)c2c(C)c(C)c(=O)oc2c1
REMARK SMILES IDX 22 1 21 2 19 3 20 4 10 6 9 7 7 8 8 9 6 11 5 12 4 13 1 14
REMARK SMILES IDX 2 15 3 16 100 17 99 18 91 19 98 20 92 21 96 22 93 23 94 24
REMARK SMILES IDX 97 25 95 26 11 27 12 28 13 29 18 30 14 31 17 32 15 33 16 34
REMARK SMILES IDX 23 35 24 36 25 37 26 38 27 40 28 41 29 42 90 43 30 44 89 45
REMARK SMILES IDX 31 46 32 47 33 48 83 49 34 50 88 51 82 52 84 53 35 54 87 55
REMARK SMILES IDX 81 56 80 57 36 59 68 60 48 61 67 62 49 63 52 64 66 65 85 66
REMARK SMILES IDX 50 67 51 68 65 70 86 71 53 72 37 73 38 74 46 75 39 76 40 77
REMARK SMILES IDX 44 78 47 79 41 80 42 81 45 82 43 83 69 84 70 85 78 86 71 87
REMARK SMILES IDX 72 88 76 89 79 90 73 91 74 92 77 93 75 94 54 95 55 96 63 97
REMARK SMILES IDX 56 98 57 99 61 100 64 101 58 102 59 103 62 104 60 105
REMARK H PARENT 21 5 9 10 25 39 84 58 52 69
REMARK Flexibility Score: inf
ROOT
ATOM      1  C   UNL A   1      31.375  27.539  26.595  1.00  0.00     0.117 C 
ENDROOT
BRANCH   1   2
ATOM      2  N   UNL A   1      32.504  27.050  25.835  1.00  0.00    -0.354 N 
ATOM      3  C   UNL A   1      32.497  26.460  24.604  1.00  0.00     0.242 C 
ATOM      4  O   UNL A   1      33.509  26.598  23.910  1.00  0.00    -0.273 OA
ATOM      5  H   UNL A   1      33.387  27.154  26.259  1.00  0.00     0.163 HD
BRANCH   3   6
ATOM      6  C   UNL A   1      31.263  25.720  24.039  1.00  0.00     0.175 C 
BRANCH   6   7
ATOM      7  N   UNL A   1      30.342  25.295  25.093  1.00  0.00    -0.341 N 
ATOM      8  C   UNL A   1      30.439  24.171  25.861  1.00  0.00     0.258 C 
ATOM      9  O   UNL A   1      29.848  24.142  26.942  1.00  0.00    -0.271 OA
ATOM     10  H   UNL A   1      29.571  25.882  25.267  1.00  0.00     0.164 HD
BRANCH   8  11
ATOM     11  C   UNL A   1      31.241  22.961  25.349  1.00  0.00     0.329 C 
BRANCH  11  12
ATOM     12  O   UNL A   1      32.596  22.843  25.781  1.00  0.00    -0.483 OA
BRANCH  12  13
ATOM     13  C   UNL A   1      33.288  21.705  25.458  1.00  0.00     0.131 A 
ATOM     14  C   UNL A   1      32.487  18.108  24.432  1.00  0.00     0.044 C 
ATOM     15  C   UNL A   1      33.259  19.348  24.772  1.00  0.00    -0.044 A 
ATOM     16  C   UNL A   1      32.596  20.505  25.181  1.00  0.00     0.050 A 
ATOM     17  C   UNL A   1      34.643  19.368  24.734  1.00  0.00     0.051 A 
ATOM     18  C   UNL A   1      35.332  20.539  25.069  1.00  0.00     0.142 A 
ATOM     19  C   UNL A   1      34.705  21.743  25.427  1.00  0.00     0.063 A 
ATOM     20  O   UNL A   1      36.729  20.401  25.023  1.00  0.00    -0.422 OA
ATOM     21  C   UNL A   1      35.600  22.905  25.719  1.00  0.00    -0.026 A 
ATOM     22  C   UNL A   1      37.573  21.423  25.388  1.00  0.00     0.339 A 
ATOM     23  C   UNL A   1      35.064  24.280  26.033  1.00  0.00     0.046 C 
ATOM     24  C   UNL A   1      36.942  22.727  25.709  1.00  0.00     0.038 A 
ATOM     25  O   UNL A   1      38.789  21.263  25.414  1.00  0.00    -0.246 OA
ATOM     26  C   UNL A   1      37.971  23.789  26.019  1.00  0.00     0.052 C 
ENDBRANCH  12  13
ENDBRANCH  11  12
ENDBRANCH   8  11
ENDBRANCH   6   7
BRANCH   6  27
ATOM     27  C   UNL A   1      30.599  26.409  22.828  1.00  0.00     0.070 C 
BRANCH  27  28
ATOM     28  C   UNL A   1      29.829  27.689  23.063  1.00  0.00    -0.045 A 
ATOM     29  C   UNL A   1      30.504  28.905  23.238  1.00  0.00     0.005 A 
ATOM     30  C   UNL A   1      28.427  27.681  23.110  1.00  0.00     0.005 A 
ATOM     31  C   UNL A   1      29.790  30.097  23.403  1.00  0.00     0.021 A 
ATOM     32  C   UNL A   1      27.711  28.876  23.243  1.00  0.00     0.021 A 
ATOM     33  C   UNL A   1      28.397  30.080  23.382  1.00  0.00     0.041 A 
ATOM     34  Cl  UNL A   1      27.520  31.553  23.513  1.00  0.00    -0.084 Cl
ENDBRANCH  27  28
ENDBRANCH   6  27
ENDBRANCH   3   6
ENDBRANCH   1   2
BRANCH   1  35
ATOM     35  C   UNL A   1      31.616  28.839  27.322  1.00  0.00     0.042 C 
BRANCH  35  36
ATOM     36  C   UNL A   1      32.544  29.771  26.559  1.00  0.00     0.118 C 
BRANCH  36  37
ATOM     37  N   UNL A   1      32.370  31.190  26.894  1.00  0.00    -0.352 N 
ATOM     38  C   UNL A   1      33.227  32.098  27.476  1.00  0.00     0.251 C 
ATOM     39  H   UNL A   1      31.486  31.558  26.662  1.00  0.00     0.163 HD
ATOM     40  O   UNL A   1      32.828  33.219  27.776  1.00  0.00    -0.269 OA
BRANCH  38  41
ATOM     41  C   UNL A   1      34.616  31.700  27.773  1.00  0.00     0.039 A 
ATOM     42  C   UNL A   1      34.906  30.363  28.009  1.00  0.00     0.014 A 
ATOM     43  C   UNL A   1      35.614  32.670  27.907  1.00  0.00     0.014 A 
ATOM     44  C   UNL A   1      36.075  30.039  28.673  1.00  0.00     0.010 A 
ATOM     45  C   UNL A   1      36.863  32.306  28.424  1.00  0.00     0.010 A 
ATOM     46  C   UNL A   1      37.073  31.004  28.898  1.00  0.00    -0.014 A 
BRANCH  46  47
ATOM     47  C   UNL A   1      38.281  30.595  29.668  1.00  0.00     0.031 A 
ATOM     48  C   UNL A   1      38.447  30.966  31.120  1.00  0.00     0.074 A 
ATOM     49  C   UNL A   1      39.167  29.763  29.081  1.00  0.00     0.049 A 
ATOM     50  N   UNL A   1      39.386  30.597  31.958  1.00  0.00    -0.248 NA
ATOM     51  C   UNL A   1      37.450  31.871  31.714  1.00  0.00     0.031 C 
ATOM     52  C   UNL A   1      39.118  29.341  27.678  1.00  0.00     0.029 A 
ATOM     53  N   UNL A   1      40.233  29.068  29.594  1.00  0.00    -0.354 N 
ATOM     54  C   UNL A   1      39.115  31.255  33.152  1.00  0.00     0.074 A 
ATOM     55  C   UNL A   1      37.935  32.059  32.935  1.00  0.00     0.031 C 
ATOM     56  C   UNL A   1      40.025  28.378  27.473  1.00  0.00     0.029 A 
ATOM     57  C   UNL A   1      40.789  28.184  28.700  1.00  0.00     0.049 A 
ATOM     58  H   UNL A   1      40.566  29.190  30.512  1.00  0.00     0.167 HD
ATOM     59  C   UNL A   1      39.786  31.183  34.325  1.00  0.00     0.037 A 
ATOM     60  C   UNL A   1      41.810  27.318  28.842  1.00  0.00     0.037 A 
ATOM     61  C   UNL A   1      40.915  30.322  34.561  1.00  0.00     0.049 A 
ATOM     62  C   UNL A   1      42.523  27.249  30.161  1.00  0.00     0.074 A 
ATOM     63  C   UNL A   1      41.619  30.132  35.737  1.00  0.00     0.029 A 
ATOM     64  N   UNL A   1      41.495  29.499  33.609  1.00  0.00    -0.354 N 
ATOM     65  N   UNL A   1      42.245  27.870  31.279  1.00  0.00    -0.248 NA
ATOM     66  C   UNL A   1      43.708  26.382  30.230  1.00  0.00     0.031 C 
ATOM     67  C   UNL A   1      42.651  29.226  35.487  1.00  0.00     0.029 A 
ATOM     68  C   UNL A   1      42.567  28.822  34.164  1.00  0.00     0.049 A 
ATOM     69  H   UNL A   1      41.190  29.410  32.677  1.00  0.00     0.167 HD
ATOM     70  C   UNL A   1      43.227  27.487  32.181  1.00  0.00     0.074 A 
ATOM     71  C   UNL A   1      44.084  26.544  31.492  1.00  0.00     0.031 C 
ATOM     72  C   UNL A   1      43.412  27.896  33.457  1.00  0.00     0.037 A 
BRANCH  59  73
ATOM     73  C   UNL A   1      39.334  32.052  35.462  1.00  0.00     0.064 A 
ATOM     74  C   UNL A   1      38.473  31.574  36.460  1.00  0.00     0.173 A 
ATOM     75  C   UNL A   1      39.859  33.346  35.610  1.00  0.00     0.173 A 
ATOM     76  F   UNL A   1      37.940  30.347  36.360  1.00  0.00    -0.203 F 
ATOM     77  C   UNL A   1      38.152  32.361  37.563  1.00  0.00     0.198 A 
ATOM     78  C   UNL A   1      39.553  34.121  36.725  1.00  0.00     0.198 A 
ATOM     79  F   UNL A   1      40.694  33.845  34.686  1.00  0.00    -0.203 F 
ATOM     80  F   UNL A   1      37.315  31.890  38.498  1.00  0.00    -0.200 F 
ATOM     81  C   UNL A   1      38.701  33.628  37.700  1.00  0.00     0.200 A 
ATOM     82  F   UNL A   1      40.095  35.338  36.863  1.00  0.00    -0.200 F 
ATOM     83  F   UNL A   1      38.410  34.373  38.776  1.00  0.00    -0.200 F 
ENDBRANCH  59  73
BRANCH  60  84
ATOM     84  C   UNL A   1      42.225  26.473  27.692  1.00  0.00     0.064 A 
ATOM     85  C   UNL A   1      43.234  26.888  26.814  1.00  0.00     0.173 A 
ATOM     86  C   UNL A   1      41.639  25.217  27.465  1.00  0.00     0.173 A 
ATOM     87  F   UNL A   1      43.811  28.088  26.976  1.00  0.00    -0.203 F 
ATOM     88  C   UNL A   1      43.640  26.081  25.752  1.00  0.00     0.198 A 
ATOM     89  C   UNL A   1      42.068  24.399  26.425  1.00  0.00     0.198 A 
ATOM     90  F   UNL A   1      40.671  24.772  28.279  1.00  0.00    -0.203 F 
ATOM     91  F   UNL A   1      44.586  26.515  24.907  1.00  0.00    -0.200 F 
ATOM     92  C   UNL A   1      43.064  24.833  25.565  1.00  0.00     0.200 A 
ATOM     93  F   UNL A   1      41.523  23.186  26.263  1.00  0.00    -0.200 F 
ATOM     94  F   UNL A   1      43.467  24.051  24.555  1.00  0.00    -0.200 F 
ENDBRANCH  60  84
BRANCH  72  95
ATOM     95  C   UNL A   1      44.600  27.352  34.190  1.00  0.00     0.064 A 
ATOM     96  C   UNL A   1      44.517  26.143  34.895  1.00  0.00     0.173 A 
ATOM     97  C   UNL A   1      45.845  27.991  34.113  1.00  0.00     0.173 A 
ATOM     98  F   UNL A   1      43.343  25.504  35.005  1.00  0.00    -0.203 F 
ATOM     99  C   UNL A   1      45.642  25.595  35.503  1.00  0.00     0.198 A 
ATOM    100  C   UNL A   1      46.972  27.428  34.702  1.00  0.00     0.198 A 
ATOM    101  F   UNL A   1      45.971  29.146  33.443  1.00  0.00    -0.203 F 
ATOM    102  F   UNL A   1      45.538  24.449  36.191  1.00  0.00    -0.200 F 
ATOM    103  C   UNL A   1      46.870  26.231  35.397  1.00  0.00     0.200 A 
ATOM    104  F   UNL A   1      48.160  28.036  34.589  1.00  0.00    -0.200 F 
ATOM    105  F   UNL A   1      47.956  25.692  35.966  1.00  0.00    -0.200 F 
ENDBRANCH  72  95
ENDBRANCH  46  47
ENDBRANCH  38  41
ENDBRANCH  36  37
ENDBRANCH  35  36
ENDBRANCH   1  35
TORSDOF 16
ENDMDL
MODEL 2
REMARK VINA RESULT:     -14.1      4.237     10.057
REMARK SMILES Cc1cc(OCC(=O)N[C@@H](Cc2ccc(Cl)cc2)C(=O)NCCCNC(=O)c2ccc(-c3c4nc(c(-c5c(F)c(F)c(F)c(F)c5F)c5ccc([nH]5)c(-c5c(F)c(F)c(F)c(F)c5F)c5nc(c(-c6c(F)c(F)c(F)c(F)c6F)c6ccc3[nH]6)C=C5)C=C4)cc2)c2c(C)c(C)c(=O)oc2c1
REMARK SMILES IDX 22 1 21 2 19 3 20 4 10 6 9 7 7 8 8 9 6 11 5 12 4 13 1 14
REMARK SMILES IDX 2 15 3 16 100 17 99 18 91 19 98 20 92 21 96 22 93 23 94 24
REMARK SMILES IDX 97 25 95 26 11 27 12 28 13 29 18 30 14 31 17 32 15 33 16 34
REMARK SMILES IDX 23 35 24 36 25 37 26 38 27 40 28 41 29 42 90 43 30 44 89 45
REMARK SMILES IDX 31 46 32 47 33 48 83 49 34 50 88 51 82 52 84 53 35 54 87 55
REMARK SMILES IDX 81 56 80 57 36 59 68 60 48 61 67 62 49 63 52 64 66 65 85 66
REMARK SMILES IDX 50 67 51 68 65 70 86 71 53 72 37 73 38 74 46 75 39 76 40 77
REMARK SMILES IDX 44 78 47 79 41 80 42 81 45 82 43 83 69 84 70 85 78 86 71 87
REMARK SMILES IDX 72 88 76 89 79 90 73 91 74 92 77 93 75 94 54 95 55 96 63 97
REMARK SMILES IDX 56 98 57 99 61 100 64 101 58 102 59 103 62 104 60 105
REMARK H PARENT 21 5 9 10 25 39 84 58 52 69
REMARK Flexibility Score: inf
ROOT
ATOM      1  C   UNL A   1      35.602  22.706  23.660  1.00  0.00     0.117 C 
ENDROOT
BRANCH   1   2
ATOM      2  N   UNL A   1      35.081  23.392  24.822  1.00  0.00    -0.354 N 
ATOM      3  C   UNL A   1      33.817  23.336  25.335  1.00  0.00     0.242 C 
ATOM      4  O   UNL A   1      33.696  23.523  26.550  1.00  0.00    -0.273 OA
ATOM      5  H   UNL A   1      35.716  23.973  25.301  1.00  0.00     0.163 HD
BRANCH   3   6
ATOM      6  C   UNL A   1      32.583  22.970  24.478  1.00  0.00     0.175 C 
BRANCH   6   7
ATOM      7  N   UNL A   1      32.826  23.160  23.049  1.00  0.00    -0.341 N 
ATOM      8  C   UNL A   1      32.653  24.311  22.335  1.00  0.00     0.258 C 
ATOM      9  O   UNL A   1      33.257  24.439  21.269  1.00  0.00    -0.271 OA
ATOM     10  H   UNL A   1      33.148  22.376  22.549  1.00  0.00     0.164 HD
BRANCH   8  11
ATOM     11  C   UNL A   1      31.688  25.393  22.849  1.00  0.00     0.329 C 
BRANCH  11  12
ATOM     12  O   UNL A   1      32.190  26.312  23.818  1.00  0.00    -0.483 OA
BRANCH  12  13
ATOM     13  C   UNL A   1      31.575  27.531  23.944  1.00  0.00     0.131 A 
ATOM     14  C   UNL A   1      28.624  29.381  22.363  1.00  0.00     0.044 C 
ATOM     15  C   UNL A   1      29.797  29.073  23.245  1.00  0.00    -0.044 A 
ATOM     16  C   UNL A   1      30.499  27.876  23.096  1.00  0.00     0.050 A 
ATOM     17  C   UNL A   1      30.242  29.977  24.194  1.00  0.00     0.051 A 
ATOM     18  C   UNL A   1      31.348  29.661  24.992  1.00  0.00     0.142 A 
ATOM     19  C   UNL A   1      32.046  28.445  24.919  1.00  0.00     0.063 A 
ATOM     20  O   UNL A   1      31.708  30.687  25.882  1.00  0.00    -0.422 OA
ATOM     21  C   UNL A   1      33.182  28.266  25.875  1.00  0.00    -0.026 A 
ATOM     22  C   UNL A   1      32.811  30.587  26.697  1.00  0.00     0.339 A 
ATOM     23  C   UNL A   1      33.966  26.980  25.967  1.00  0.00     0.046 C 
ATOM     24  C   UNL A   1      33.532  29.290  26.689  1.00  0.00     0.038 A 
ATOM     25  O   UNL A   1      33.156  31.520  27.414  1.00  0.00    -0.246 OA
ATOM     26  C   UNL A   1      34.674  29.275  27.677  1.00  0.00     0.052 C 
ENDBRANCH  12  13
ENDBRANCH  11  12
ENDBRANCH   8  11
ENDBRANCH   6   7
BRANCH   6  27
ATOM     27  C   UNL A   1      31.912  21.633  24.856  1.00  0.00     0.070 C 
BRANCH  27  28
ATOM     28  C   UNL A   1      32.549  20.349  24.377  1.00  0.00    -0.045 A 
ATOM     29  C   UNL A   1      33.678  19.827  25.024  1.00  0.00     0.005 A 
ATOM     30  C   UNL A   1      32.022  19.657  23.276  1.00  0.00     0.005 A 
ATOM     31  C   UNL A   1      34.235  18.612  24.613  1.00  0.00     0.021 A 
ATOM     32  C   UNL A   1      32.559  18.426  22.883  1.00  0.00     0.021 A 
ATOM     33  C   UNL A   1      33.660  17.905  23.558  1.00  0.00     0.041 A 
ATOM     34  Cl  UNL A   1      34.302  16.378  23.099  1.00  0.00    -0.084 Cl
ENDBRANCH  27  28
ENDBRANCH   6  27
ENDBRANCH   3   6
ENDBRANCH   1   2
BRANCH   1  35
ATOM     35  C   UNL A   1      36.973  22.101  23.844  1.00  0.00     0.042 C 
BRANCH  35  36
ATOM     36  C   UNL A   1      37.288  21.802  25.302  1.00  0.00     0.118 C 
BRANCH  36  37
ATOM     37  N   UNL A   1      38.362  20.818  25.488  1.00  0.00    -0.352 N 
ATOM     38  C   UNL A   1      39.586  20.917  26.111  1.00  0.00     0.251 C 
ATOM     39  H   UNL A   1      38.174  19.933  25.100  1.00  0.00     0.163 HD
ATOM     40  O   UNL A   1      40.389  19.991  26.045  1.00  0.00    -0.269 OA
BRANCH  38  41
ATOM     41  C   UNL A   1      39.942  22.159  26.823  1.00  0.00     0.039 A 
ATOM     42  C   UNL A   1      39.411  23.368  26.393  1.00  0.00     0.014 A 
ATOM     43  C   UNL A   1      40.876  22.133  27.863  1.00  0.00     0.014 A 
ATOM     44  C   UNL A   1      40.033  24.544  26.768  1.00  0.00     0.010 A 
ATOM     45  C   UNL A   1      41.383  23.338  28.363  1.00  0.00     0.010 A 
ATOM     46  C   UNL A   1      41.034  24.552  27.755  1.00  0.00    -0.014 A 
BRANCH  46  47
ATOM     47  C   UNL A   1      41.697  25.848  28.070  1.00  0.00     0.031 A 
ATOM     48  C   UNL A   1      43.031  26.211  27.468  1.00  0.00     0.074 A 
ATOM     49  C   UNL A   1      41.017  26.760  28.795  1.00  0.00     0.049 A 
ATOM     50  N   UNL A   1      43.689  27.342  27.555  1.00  0.00    -0.248 NA
ATOM     51  C   UNL A   1      43.730  25.183  26.679  1.00  0.00     0.031 C 
ATOM     52  C   UNL A   1      39.721  26.522  29.438  1.00  0.00     0.029 A 
ATOM     53  N   UNL A   1      41.274  28.082  29.059  1.00  0.00    -0.354 N 
ATOM     54  C   UNL A   1      44.885  27.144  26.874  1.00  0.00     0.074 A 
ATOM     55  C   UNL A   1      44.877  25.783  26.390  1.00  0.00     0.031 C 
ATOM     56  C   UNL A   1      39.244  27.679  29.914  1.00  0.00     0.029 A 
ATOM     57  C   UNL A   1      40.241  28.721  29.702  1.00  0.00     0.049 A 
ATOM     58  H   UNL A   1      42.115  28.528  28.811  1.00  0.00     0.167 HD
ATOM     59  C   UNL A   1      45.891  28.024  26.665  1.00  0.00     0.037 A 
ATOM     60  C   UNL A   1      40.109  30.003  30.092  1.00  0.00     0.037 A 
ATOM     61  C   UNL A   1      45.864  29.401  27.082  1.00  0.00     0.049 A 
ATOM     62  C   UNL A   1      41.235  30.959  29.830  1.00  0.00     0.074 A 
ATOM     63  C   UNL A   1      46.809  30.386  26.857  1.00  0.00     0.029 A 
ATOM     64  N   UNL A   1      44.832  29.990  27.797  1.00  0.00    -0.354 N 
ATOM     65  N   UNL A   1      42.352  30.755  29.176  1.00  0.00    -0.248 NA
ATOM     66  C   UNL A   1      41.099  32.314  30.384  1.00  0.00     0.031 C 
ATOM     67  C   UNL A   1      46.370  31.562  27.471  1.00  0.00     0.029 A 
ATOM     68  C   UNL A   1      45.133  31.318  28.047  1.00  0.00     0.049 A 
ATOM     69  H   UNL A   1      44.010  29.532  28.084  1.00  0.00     0.167 HD
ATOM     70  C   UNL A   1      43.059  31.946  29.253  1.00  0.00     0.074 A 
ATOM     71  C   UNL A   1      42.227  32.882  29.981  1.00  0.00     0.031 C 
ATOM     72  C   UNL A   1      44.296  32.229  28.781  1.00  0.00     0.037 A 
BRANCH  59  73
ATOM     73  C   UNL A   1      47.123  27.546  25.953  1.00  0.00     0.064 A 
ATOM     74  C   UNL A   1      47.240  27.609  24.557  1.00  0.00     0.173 A 
ATOM     75  C   UNL A   1      48.241  27.122  26.688  1.00  0.00     0.173 A 
ATOM     76  F   UNL A   1      46.197  28.001  23.810  1.00  0.00    -0.203 F 
ATOM     77  C   UNL A   1      48.430  27.262  23.924  1.00  0.00     0.198 A 
ATOM     78  C   UNL A   1      49.436  26.797  26.054  1.00  0.00     0.198 A 
ATOM     79  F   UNL A   1      48.181  27.053  28.027  1.00  0.00    -0.203 F 
ATOM     80  F   UNL A   1      48.516  27.315  22.587  1.00  0.00    -0.200 F 
ATOM     81  C   UNL A   1      49.530  26.868  24.672  1.00  0.00     0.200 A 
ATOM     82  F   UNL A   1      50.501  26.430  26.779  1.00  0.00    -0.200 F 
ATOM     83  F   UNL A   1      50.683  26.558  24.062  1.00  0.00    -0.200 F 
ENDBRANCH  59  73
BRANCH  60  84
ATOM     84  C   UNL A   1      38.872  30.437  30.793  1.00  0.00     0.064 A 
ATOM     85  C   UNL A   1      38.799  30.454  32.191  1.00  0.00     0.173 A 
ATOM     86  C   UNL A   1      37.746  30.872  30.075  1.00  0.00     0.173 A 
ATOM     87  F   UNL A   1      39.841  30.030  32.922  1.00  0.00    -0.203 F 
ATOM     88  C   UNL A   1      37.646  30.887  32.845  1.00  0.00     0.198 A 
ATOM     89  C   UNL A   1      36.609  31.334  30.730  1.00  0.00     0.198 A 
ATOM     90  F   UNL A   1      37.766  30.876  28.734  1.00  0.00    -0.203 F 
ATOM     91  F   UNL A   1      37.591  30.865  34.184  1.00  0.00    -0.200 F 
ATOM     92  C   UNL A   1      36.557  31.337  32.114  1.00  0.00     0.200 A 
ATOM     93  F   UNL A   1      35.568  31.788  30.018  1.00  0.00    -0.200 F 
ATOM     94  F   UNL A   1      35.456  31.770  32.744  1.00  0.00    -0.200 F 
ENDBRANCH  60  84
BRANCH  72  95
ATOM     95  C   UNL A   1      44.842  33.596  29.057  1.00  0.00     0.064 A 
ATOM     96  C   UNL A   1      44.564  34.668  28.197  1.00  0.00     0.173 A 
ATOM     97  C   UNL A   1      45.568  33.856  30.227  1.00  0.00     0.173 A 
ATOM     98  F   UNL A   1      43.884  34.462  27.059  1.00  0.00    -0.203 F 
ATOM     99  C   UNL A   1      44.999  35.954  28.499  1.00  0.00     0.198 A 
ATOM    100  C   UNL A   1      45.981  35.148  30.537  1.00  0.00     0.198 A 
ATOM    101  F   UNL A   1      45.850  32.861  31.083  1.00  0.00    -0.203 F 
ATOM    102  F   UNL A   1      44.743  36.962  27.652  1.00  0.00    -0.200 F 
ATOM    103  C   UNL A   1      45.697  36.195  29.673  1.00  0.00     0.200 A 
ATOM    104  F   UNL A   1      46.644  35.382  31.678  1.00  0.00    -0.200 F 
ATOM    105  F   UNL A   1      46.098  37.438  29.972  1.00  0.00    -0.200 F 
ENDBRANCH  72  95
ENDBRANCH  46  47
ENDBRANCH  38  41
ENDBRANCH  36  37
ENDBRANCH  35  36
ENDBRANCH   1  35
TORSDOF 16
ENDMDL
MODEL 3
REMARK VINA RESULT:     -14.0      0.479      6.994
REMARK SMILES Cc1cc(OCC(=O)N[C@@H](Cc2ccc(Cl)cc2)C(=O)NCCCNC(=O)c2ccc(-c3c4nc(c(-c5c(F)c(F)c(F)c(F)c5F)c5ccc([nH]5)c(-c5c(F)c(F)c(F)c(F)c5F)c5nc(c(-c6c(F)c(F)c(F)c(F)c6F)c6ccc3[nH]6)C=C5)C=C4)cc2)c2c(C)c(C)c(=O)oc2c1
REMARK SMILES IDX 22 1 21 2 19 3 20 4 10 6 9 7 7 8 8 9 6 11 5 12 4 13 1 14
REMARK SMILES IDX 2 15 3 16 100 17 99 18 91 19 98 20 92 21 96 22 93 23 94 24
REMARK SMILES IDX 97 25 95 26 11 27 12 28 13 29 18 30 14 31 17 32 15 33 16 34
REMARK SMILES IDX 23 35 24 36 25 37 26 38 27 40 28 41 29 42 90 43 30 44 89 45
REMARK SMILES IDX 31 46 32 47 33 48 83 49 34 50 88 51 82 52 84 53 35 54 87 55
REMARK SMILES IDX 81 56 80 57 36 59 68 60 48 61 67 62 49 63 52 64 66 65 85 66
REMARK SMILES IDX 50 67 51 68 65 70 86 71 53 72 37 73 38 74 46 75 39 76 40 77
REMARK SMILES IDX 44 78 47 79 41 80 42 81 45 82 43 83 69 84 70 85 78 86 71 87
REMARK SMILES IDX 72 88 76 89 79 90 73 91 74 92 77 93 75 94 54 95 55 96 63 97
REMARK SMILES IDX 56 98 57 99 61 100 64 101 58 102 59 103 62 104 60 105
REMARK H PARENT 21 5 9 10 25 39 84 58 52 69
REMARK Flexibility Score: inf
ROOT
ATOM      1  C   UNL A   1      31.731  27.606  26.842  1.00  0.00     0.117 C 
ENDROOT
BRANCH   1   2
ATOM      2  N   UNL A   1      32.876  27.239  26.040  1.00  0.00    -0.354 N 
ATOM      3  C   UNL A   1      32.893  26.813  24.743  1.00  0.00     0.242 C 
ATOM      4  O   UNL A   1      33.909  27.057  24.084  1.00  0.00    -0.273 OA
ATOM      5  H   UNL A   1      33.753  27.303  26.484  1.00  0.00     0.163 HD
BRANCH   3   6
ATOM      6  C   UNL A   1      31.678  26.131  24.073  1.00  0.00     0.175 C 
BRANCH   6   7
ATOM      7  N   UNL A   1      30.682  25.690  25.049  1.00  0.00    -0.341 N 
ATOM      8  C   UNL A   1      30.683  24.516  25.745  1.00  0.00     0.258 C 
ATOM      9  O   UNL A   1      30.034  24.451  26.791  1.00  0.00    -0.271 OA
ATOM     10  H   UNL A   1      29.933  26.305  25.222  1.00  0.00     0.164 HD
BRANCH   8  11
ATOM     11  C   UNL A   1      31.450  23.301  25.196  1.00  0.00     0.329 C 
BRANCH  11  12
ATOM     12  O   UNL A   1      32.813  23.152  25.591  1.00  0.00    -0.483 OA
BRANCH  12  13
ATOM     13  C   UNL A   1      33.447  21.967  25.321  1.00  0.00     0.131 A 
ATOM     14  C   UNL A   1      32.473  18.409  24.313  1.00  0.00     0.044 C 
ATOM     15  C   UNL A   1      33.303  19.604  24.671  1.00  0.00    -0.044 A 
ATOM     16  C   UNL A   1      32.695  20.808  25.029  1.00  0.00     0.050 A 
ATOM     17  C   UNL A   1      34.686  19.538  24.701  1.00  0.00     0.051 A 
ATOM     18  C   UNL A   1      35.430  20.671  25.051  1.00  0.00     0.142 A 
ATOM     19  C   UNL A   1      34.863  21.918  25.359  1.00  0.00     0.063 A 
ATOM     20  O   UNL A   1      36.817  20.445  25.076  1.00  0.00    -0.422 OA
ATOM     21  C   UNL A   1      35.814  23.027  25.676  1.00  0.00    -0.026 A 
ATOM     22  C   UNL A   1      37.704  21.420  25.465  1.00  0.00     0.339 A 
ATOM     23  C   UNL A   1      35.350  24.438  25.942  1.00  0.00     0.046 C 
ATOM     24  C   UNL A   1      37.141  22.767  25.735  1.00  0.00     0.038 A 
ATOM     25  O   UNL A   1      38.905  21.186  25.554  1.00  0.00    -0.246 OA
ATOM     26  C   UNL A   1      38.219  23.768  26.079  1.00  0.00     0.052 C 
ENDBRANCH  12  13
ENDBRANCH  11  12
ENDBRANCH   8  11
ENDBRANCH   6   7
BRANCH   6  27
ATOM     27  C   UNL A   1      31.109  26.886  22.853  1.00  0.00     0.070 C 
BRANCH  27  28
ATOM     28  C   UNL A   1      30.161  28.038  23.100  1.00  0.00    -0.045 A 
ATOM     29  C   UNL A   1      30.652  29.305  23.445  1.00  0.00     0.005 A 
ATOM     30  C   UNL A   1      28.774  27.859  22.988  1.00  0.00     0.005 A 
ATOM     31  C   UNL A   1      29.778  30.383  23.621  1.00  0.00     0.021 A 
ATOM     32  C   UNL A   1      27.901  28.942  23.133  1.00  0.00     0.021 A 
ATOM     33  C   UNL A   1      28.408  30.202  23.442  1.00  0.00     0.041 A 
ATOM     34  Cl  UNL A   1      27.340  31.541  23.590  1.00  0.00    -0.084 Cl
ENDBRANCH  27  28
ENDBRANCH   6  27
ENDBRANCH   3   6
ENDBRANCH   1   2
BRANCH   1  35
ATOM     35  C   UNL A   1      31.683  29.059  27.249  1.00  0.00     0.042 C 
BRANCH  35  36
ATOM     36  C   UNL A   1      32.526  29.947  26.346  1.00  0.00     0.118 C 
BRANCH  36  37
ATOM     37  N   UNL A   1      32.489  31.369  26.709  1.00  0.00    -0.352 N 
ATOM     38  C   UNL A   1      33.395  32.157  27.384  1.00  0.00     0.251 C 
ATOM     39  H   UNL A   1      31.677  31.843  26.419  1.00  0.00     0.163 HD
ATOM     40  O   UNL A   1      33.105  33.311  27.685  1.00  0.00    -0.269 OA
BRANCH  38  41
ATOM     41  C   UNL A   1      34.700  31.593  27.779  1.00  0.00     0.039 A 
ATOM     42  C   UNL A   1      34.820  30.222  27.966  1.00  0.00     0.014 A 
ATOM     43  C   UNL A   1      35.779  32.437  28.051  1.00  0.00     0.014 A 
ATOM     44  C   UNL A   1      35.881  29.740  28.710  1.00  0.00     0.010 A 
ATOM     45  C   UNL A   1      36.928  31.913  28.654  1.00  0.00     0.010 A 
ATOM     46  C   UNL A   1      36.951  30.575  29.074  1.00  0.00    -0.014 A 
BRANCH  46  47
ATOM     47  C   UNL A   1      38.032  29.999  29.922  1.00  0.00     0.031 A 
ATOM     48  C   UNL A   1      39.086  29.091  29.338  1.00  0.00     0.074 A 
ATOM     49  C   UNL A   1      38.138  30.416  31.201  1.00  0.00     0.049 A 
ATOM     50  N   UNL A   1      40.153  28.596  29.918  1.00  0.00    -0.248 NA
ATOM     51  C   UNL A   1      38.928  28.671  27.937  1.00  0.00     0.031 C 
ATOM     52  C   UNL A   1      37.175  31.287  31.881  1.00  0.00     0.029 A 
ATOM     53  N   UNL A   1      39.126  30.230  32.135  1.00  0.00    -0.354 N 
ATOM     54  C   UNL A   1      40.760  27.780  28.970  1.00  0.00     0.074 A 
ATOM     55  C   UNL A   1      39.941  27.829  27.781  1.00  0.00     0.031 C 
ATOM     56  C   UNL A   1      37.671  31.654  33.069  1.00  0.00     0.029 A 
ATOM     57  C   UNL A   1      38.940  30.967  33.280  1.00  0.00     0.049 A 
ATOM     58  H   UNL A   1      39.893  29.629  31.998  1.00  0.00     0.167 HD
ATOM     59  C   UNL A   1      41.903  27.065  29.082  1.00  0.00     0.037 A 
ATOM     60  C   UNL A   1      39.698  31.075  34.388  1.00  0.00     0.037 A 
ATOM     61  C   UNL A   1      42.757  27.078  30.240  1.00  0.00     0.049 A 
ATOM     62  C   UNL A   1      40.969  30.282  34.475  1.00  0.00     0.074 A 
ATOM     63  C   UNL A   1      43.970  26.437  30.421  1.00  0.00     0.029 A 
ATOM     64  N   UNL A   1      42.495  27.777  31.408  1.00  0.00    -0.354 N 
ATOM     65  N   UNL A   1      41.531  29.526  33.565  1.00  0.00    -0.248 NA
ATOM     66  C   UNL A   1      41.697  30.333  35.751  1.00  0.00     0.031 C 
ATOM     67  C   UNL A   1      44.423  26.714  31.713  1.00  0.00     0.029 A 
ATOM     68  C   UNL A   1      43.510  27.559  32.324  1.00  0.00     0.049 A 
ATOM     69  H   UNL A   1      41.705  28.344  31.563  1.00  0.00     0.167 HD
ATOM     70  C   UNL A   1      42.666  28.997  34.160  1.00  0.00     0.074 A 
ATOM     71  C   UNL A   1      42.739  29.553  35.495  1.00  0.00     0.031 C 
ATOM     72  C   UNL A   1      43.557  28.114  33.651  1.00  0.00     0.037 A 
BRANCH  59  73
ATOM     73  C   UNL A   1      42.319  26.197  27.931  1.00  0.00     0.064 A 
ATOM     74  C   UNL A   1      41.758  24.929  27.722  1.00  0.00     0.173 A 
ATOM     75  C   UNL A   1      43.210  26.689  26.964  1.00  0.00     0.173 A 
ATOM     76  F   UNL A   1      40.907  24.412  28.621  1.00  0.00    -0.203 F 
ATOM     77  C   UNL A   1      42.076  24.184  26.590  1.00  0.00     0.198 A 
ATOM     78  C   UNL A   1      43.509  25.951  25.822  1.00  0.00     0.198 A 
ATOM     79  F   UNL A   1      43.767  27.900  27.114  1.00  0.00    -0.203 F 
ATOM     80  F   UNL A   1      41.540  22.968  26.417  1.00  0.00    -0.200 F 
ATOM     81  C   UNL A   1      42.942  24.700  25.635  1.00  0.00     0.200 A 
ATOM     82  F   UNL A   1      44.333  26.457  24.895  1.00  0.00    -0.200 F 
ATOM     83  F   UNL A   1      43.227  23.992  24.534  1.00  0.00    -0.200 F 
ENDBRANCH  59  73
BRANCH  60  84
ATOM     84  C   UNL A   1      39.251  31.947  35.505  1.00  0.00     0.064 A 
ATOM     85  C   UNL A   1      38.407  31.461  36.512  1.00  0.00     0.173 A 
ATOM     86  C   UNL A   1      39.685  33.279  35.604  1.00  0.00     0.173 A 
ATOM     87  F   UNL A   1      37.950  30.202  36.453  1.00  0.00    -0.203 F 
ATOM     88  C   UNL A   1      38.012  32.275  37.573  1.00  0.00     0.198 A 
ATOM     89  C   UNL A   1      39.316  34.080  36.680  1.00  0.00     0.198 A 
ATOM     90  F   UNL A   1      40.495  33.792  34.667  1.00  0.00    -0.203 F 
ATOM     91  F   UNL A   1      37.178  31.796  38.507  1.00  0.00    -0.200 F 
ATOM     92  C   UNL A   1      38.475  33.580  37.662  1.00  0.00     0.200 A 
ATOM     93  F   UNL A   1      39.784  35.331  36.772  1.00  0.00    -0.200 F 
ATOM     94  F   UNL A   1      38.108  34.355  38.691  1.00  0.00    -0.200 F 
ENDBRANCH  60  84
BRANCH  72  95
ATOM     95  C   UNL A   1      44.673  27.668  34.545  1.00  0.00     0.064 A 
ATOM     96  C   UNL A   1      45.866  28.400  34.624  1.00  0.00     0.173 A 
ATOM     97  C   UNL A   1      44.517  26.560  35.388  1.00  0.00     0.173 A 
ATOM     98  F   UNL A   1      46.063  29.460  33.826  1.00  0.00    -0.203 F 
ATOM     99  C   UNL A   1      46.867  28.034  35.517  1.00  0.00     0.198 A 
ATOM    100  C   UNL A   1      45.511  26.211  36.297  1.00  0.00     0.198 A 
ATOM    101  F   UNL A   1      43.389  25.834  35.350  1.00  0.00    -0.203 F 
ATOM    102  F   UNL A   1      48.010  28.734  35.563  1.00  0.00    -0.200 F 
ATOM    103  C   UNL A   1      46.685  26.948  36.360  1.00  0.00     0.200 A 
ATOM    104  F   UNL A   1      45.330  25.169  37.119  1.00  0.00    -0.200 F 
ATOM    105  F   UNL A   1      47.643  26.609  37.234  1.00  0.00    -0.200 F 
ENDBRANCH  72  95
ENDBRANCH  46  47
ENDBRANCH  38  41
ENDBRANCH  36  37
ENDBRANCH  35  36
ENDBRANCH   1  35
TORSDOF 16
ENDMDL
