MODEL 1
REMARK VINA RESULT:     -10.7      0.000      0.000
REMARK SMILES CC(C)S(=O)(=O)N[C@](C)(C(=O)NCCCNC(=O)c1ccc(-c2c3nc(c(-c4c(F)c(F)c(F)c(F)c4F)c4ccc([nH]4)c(-c4c(F)c(F)c(F)c(F)c4F)c4nc(c(-c5c(F)c(F)c(F)c(F)c5F)c5ccc2[nH]5)C=C4)C=C3)cc1)C(F)(F)F
REMARK SMILES IDX 13 1 12 2 10 3 11 4 8 6 9 7 7 8 4 10 5 11 6 12 2 13 1 14
REMARK SMILES IDX 3 15 82 16 83 17 84 18 85 19 14 20 15 21 16 22 17 23 18 25
REMARK SMILES IDX 19 26 20 27 81 28 21 29 80 30 22 31 23 32 24 33 74 34 25 35
REMARK SMILES IDX 79 36 73 37 75 38 26 39 78 40 72 41 71 42 27 44 59 45 39 46
REMARK SMILES IDX 58 47 40 48 43 49 57 50 76 51 41 52 42 53 56 55 77 56 44 57
REMARK SMILES IDX 28 58 29 59 37 60 30 61 31 62 35 63 38 64 32 65 33 66 36 67
REMARK SMILES IDX 34 68 60 69 61 70 69 71 62 72 63 73 67 74 70 75 64 76 65 77
REMARK SMILES IDX 68 78 66 79 45 80 46 81 54 82 47 83 48 84 52 85 55 86 49 87
REMARK SMILES IDX 50 88 53 89 51 90
REMARK H PARENT 12 5 7 9 16 24 75 43 43 54
REMARK Flexibility Score: inf
ROOT
ATOM      1  C   UNL A   1      34.478  34.323  30.047  1.00  0.00     0.117 C 
ENDROOT
BRANCH   1   2
ATOM      2  N   UNL A   1      34.046  33.544  31.186  1.00  0.00    -0.354 N 
ATOM      3  C   UNL A   1      34.069  33.842  32.528  1.00  0.00     0.250 C 
ATOM      4  O   UNL A   1      33.454  33.047  33.244  1.00  0.00    -0.273 OA
ATOM      5  H   UNL A   1      33.675  32.659  30.965  1.00  0.00     0.163 HD
BRANCH   3   6
ATOM      6  C   UNL A   1      34.912  35.008  33.114  1.00  0.00     0.204 C 
ATOM      7  C   UNL A   1      35.194  34.636  34.570  1.00  0.00     0.050 C 
BRANCH   6   8
ATOM      8  N   UNL A   1      36.166  35.173  32.250  1.00  0.00    -0.191 NA
ATOM      9  H   UNL A   1      35.853  35.037  31.288  1.00  0.00     0.142 HD
BRANCH   8  10
ATOM     10  S   UNL A   1      37.552  34.258  32.403  1.00  0.00     0.215 S 
ATOM     11  O   UNL A   1      37.195  32.864  32.436  1.00  0.00    -0.212 OA
ATOM     12  O   UNL A   1      38.240  34.876  33.520  1.00  0.00    -0.212 OA
BRANCH  10  13
ATOM     13  C   UNL A   1      38.566  34.579  30.924  1.00  0.00     0.118 C 
ATOM     14  C   UNL A   1      40.063  34.603  31.202  1.00  0.00     0.026 C 
ATOM     15  C   UNL A   1      38.205  33.689  29.733  1.00  0.00     0.026 C 
ENDBRANCH  10  13
ENDBRANCH   8  10
ENDBRANCH   6   8
BRANCH   6  16
ATOM     16  C   UNL A   1      34.012  36.267  33.060  1.00  0.00     0.416 C 
ATOM     17  F   UNL A   1      32.762  36.006  32.618  1.00  0.00    -0.168 F 
ATOM     18  F   UNL A   1      33.872  36.835  34.280  1.00  0.00    -0.168 F 
ATOM     19  F   UNL A   1      34.556  37.217  32.259  1.00  0.00    -0.168 F 
ENDBRANCH   6  16
ENDBRANCH   3   6
ENDBRANCH   1   2
BRANCH   1  20
ATOM     20  C   UNL A   1      34.020  33.788  28.705  1.00  0.00     0.042 C 
BRANCH  20  21
ATOM     21  C   UNL A   1      34.963  32.768  28.105  1.00  0.00     0.118 C 
BRANCH  21  22
ATOM     22  N   UNL A   1      34.336  31.465  27.896  1.00  0.00    -0.352 N 
ATOM     23  C   UNL A   1      34.834  30.184  27.901  1.00  0.00     0.251 C 
ATOM     24  H   UNL A   1      33.369  31.514  27.716  1.00  0.00     0.163 HD
ATOM     25  O   UNL A   1      34.101  29.264  27.544  1.00  0.00    -0.269 OA
BRANCH  23  26
ATOM     26  C   UNL A   1      36.234  29.891  28.290  1.00  0.00     0.039 A 
ATOM     27  C   UNL A   1      36.493  29.388  29.570  1.00  0.00     0.014 A 
ATOM     28  C   UNL A   1      37.299  30.125  27.425  1.00  0.00     0.014 A 
ATOM     29  C   UNL A   1      37.799  29.044  29.937  1.00  0.00     0.010 A 
ATOM     30  C   UNL A   1      38.566  29.648  27.732  1.00  0.00     0.010 A 
ATOM     31  C   UNL A   1      38.839  29.121  29.000  1.00  0.00    -0.014 A 
BRANCH  31  32
ATOM     32  C   UNL A   1      40.229  28.699  29.318  1.00  0.00     0.031 A 
ATOM     33  C   UNL A   1      41.134  29.623  30.093  1.00  0.00     0.074 A 
ATOM     34  C   UNL A   1      40.708  27.536  28.834  1.00  0.00     0.049 A 
ATOM     35  N   UNL A   1      42.412  29.510  30.352  1.00  0.00    -0.248 NA
ATOM     36  C   UNL A   1      40.529  30.863  30.606  1.00  0.00     0.031 C 
ATOM     37  C   UNL A   1      39.952  26.577  28.028  1.00  0.00     0.029 A 
ATOM     38  N   UNL A   1      41.956  26.972  28.936  1.00  0.00    -0.354 N 
ATOM     39  C   UNL A   1      42.764  30.672  31.027  1.00  0.00     0.074 A 
ATOM     40  C   UNL A   1      41.586  31.509  31.073  1.00  0.00     0.031 C 
ATOM     41  C   UNL A   1      40.740  25.531  27.733  1.00  0.00     0.029 A 
ATOM     42  C   UNL A   1      42.071  25.769  28.283  1.00  0.00     0.049 A 
ATOM     43  H   UNL A   1      42.697  27.390  29.430  1.00  0.00     0.167 HD
ATOM     44  C   UNL A   1      43.952  31.001  31.588  1.00  0.00     0.037 A 
ATOM     45  C   UNL A   1      43.134  24.956  28.132  1.00  0.00     0.037 A 
ATOM     46  C   UNL A   1      45.112  30.149  31.569  1.00  0.00     0.049 A 
ATOM     47  C   UNL A   1      44.447  25.344  28.758  1.00  0.00     0.074 A 
ATOM     48  C   UNL A   1      46.344  30.356  32.163  1.00  0.00     0.029 A 
ATOM     49  N   UNL A   1      45.180  28.925  30.920  1.00  0.00    -0.354 N 
ATOM     50  N   UNL A   1      44.751  26.415  29.451  1.00  0.00    -0.248 NA
ATOM     51  C   UNL A   1      45.564  24.406  28.585  1.00  0.00     0.031 C 
ATOM     52  C   UNL A   1      47.177  29.286  31.823  1.00  0.00     0.029 A 
ATOM     53  C   UNL A   1      46.443  28.377  31.076  1.00  0.00     0.049 A 
ATOM     54  H   UNL A   1      44.440  28.506  30.423  1.00  0.00     0.167 HD
ATOM     55  C   UNL A   1      46.079  26.265  29.825  1.00  0.00     0.074 A 
ATOM     56  C   UNL A   1      46.519  24.992  29.291  1.00  0.00     0.031 C 
ATOM     57  C   UNL A   1      46.864  27.104  30.545  1.00  0.00     0.037 A 
BRANCH  44  58
ATOM     58  C   UNL A   1      44.054  32.340  32.265  1.00  0.00     0.064 A 
ATOM     59  C   UNL A   1      43.751  32.507  33.627  1.00  0.00     0.173 A 
ATOM     60  C   UNL A   1      44.474  33.471  31.549  1.00  0.00     0.173 A 
ATOM     61  F   UNL A   1      43.331  31.462  34.358  1.00  0.00    -0.203 F 
ATOM     62  C   UNL A   1      43.820  33.759  34.231  1.00  0.00     0.198 A 
ATOM     63  C   UNL A   1      44.582  34.714  32.166  1.00  0.00     0.198 A 
ATOM     64  F   UNL A   1      44.785  33.370  30.247  1.00  0.00    -0.203 F 
ATOM     65  F   UNL A   1      43.455  33.904  35.512  1.00  0.00    -0.200 F 
ATOM     66  C   UNL A   1      44.243  34.860  33.502  1.00  0.00     0.200 A 
ATOM     67  F   UNL A   1      45.005  35.774  31.464  1.00  0.00    -0.200 F 
ATOM     68  F   UNL A   1      44.312  36.065  34.085  1.00  0.00    -0.200 F 
ENDBRANCH  44  58
BRANCH  45  69
ATOM     69  C   UNL A   1      42.992  23.683  27.377  1.00  0.00     0.064 A 
ATOM     70  C   UNL A   1      42.452  22.541  27.987  1.00  0.00     0.173 A 
ATOM     71  C   UNL A   1      43.384  23.579  26.034  1.00  0.00     0.173 A 
ATOM     72  F   UNL A   1      42.079  22.584  29.275  1.00  0.00    -0.203 F 
ATOM     73  C   UNL A   1      42.330  21.341  27.290  1.00  0.00     0.198 A 
ATOM     74  C   UNL A   1      43.231  22.387  25.329  1.00  0.00     0.198 A 
ATOM     75  F   UNL A   1      43.898  24.643  25.400  1.00  0.00    -0.203 F 
ATOM     76  F   UNL A   1      41.854  20.254  27.912  1.00  0.00    -0.200 F 
ATOM     77  C   UNL A   1      42.713  21.266  25.959  1.00  0.00     0.200 A 
ATOM     78  F   UNL A   1      43.584  22.325  24.038  1.00  0.00    -0.200 F 
ATOM     79  F   UNL A   1      42.586  20.114  25.287  1.00  0.00    -0.200 F 
ENDBRANCH  45  69
BRANCH  57  80
ATOM     80  C   UNL A   1      48.266  26.656  30.842  1.00  0.00     0.064 A 
ATOM     81  C   UNL A   1      49.352  27.039  30.042  1.00  0.00     0.173 A 
ATOM     82  C   UNL A   1      48.532  25.870  31.975  1.00  0.00     0.173 A 
ATOM     83  F   UNL A   1      49.152  27.779  28.941  1.00  0.00    -0.203 F 
ATOM     84  C   UNL A   1      50.647  26.627  30.347  1.00  0.00     0.198 A 
ATOM     85  C   UNL A   1      49.831  25.492  32.297  1.00  0.00     0.198 A 
ATOM     86  F   UNL A   1      47.531  25.483  32.780  1.00  0.00    -0.203 F 
ATOM     87  F   UNL A   1      51.662  26.961  29.538  1.00  0.00    -0.200 F 
ATOM     88  C   UNL A   1      50.887  25.863  31.478  1.00  0.00     0.200 A 
ATOM     89  F   UNL A   1      50.062  24.768  33.401  1.00  0.00    -0.200 F 
ATOM     90  F   UNL A   1      52.135  25.478  31.777  1.00  0.00    -0.200 F 
ENDBRANCH  57  80
ENDBRANCH  31  32
ENDBRANCH  23  26
ENDBRANCH  21  22
ENDBRANCH  20  21
ENDBRANCH   1  20
TORSDOF 14
ENDMDL
MODEL 2
REMARK VINA RESULT:     -10.6      3.975     11.559
REMARK SMILES CC(C)S(=O)(=O)N[C@](C)(C(=O)NCCCNC(=O)c1ccc(-c2c3nc(c(-c4c(F)c(F)c(F)c(F)c4F)c4ccc([nH]4)c(-c4c(F)c(F)c(F)c(F)c4F)c4nc(c(-c5c(F)c(F)c(F)c(F)c5F)c5ccc2[nH]5)C=C4)C=C3)cc1)C(F)(F)F
REMARK SMILES IDX 13 1 12 2 10 3 11 4 8 6 9 7 7 8 4 10 5 11 6 12 2 13 1 14
REMARK SMILES IDX 3 15 82 16 83 17 84 18 85 19 14 20 15 21 16 22 17 23 18 25
REMARK SMILES IDX 19 26 20 27 81 28 21 29 80 30 22 31 23 32 24 33 74 34 25 35
REMARK SMILES IDX 79 36 73 37 75 38 26 39 78 40 72 41 71 42 27 44 59 45 39 46
REMARK SMILES IDX 58 47 40 48 43 49 57 50 76 51 41 52 42 53 56 55 77 56 44 57
REMARK SMILES IDX 28 58 29 59 37 60 30 61 31 62 35 63 38 64 32 65 33 66 36 67
REMARK SMILES IDX 34 68 60 69 61 70 69 71 62 72 63 73 67 74 70 75 64 76 65 77
REMARK SMILES IDX 68 78 66 79 45 80 46 81 54 82 47 83 48 84 52 85 55 86 49 87
REMARK SMILES IDX 50 88 53 89 51 90
REMARK H PARENT 12 5 7 9 16 24 75 43 43 54
REMARK Flexibility Score: inf
ROOT
ATOM      1  C   UNL A   1      42.854  20.734  26.161  1.00  0.00     0.117 C 
ENDROOT
BRANCH   1   2
ATOM      2  N   UNL A   1      43.043  21.593  25.013  1.00  0.00    -0.354 N 
ATOM      3  C   UNL A   1      44.197  21.992  24.380  1.00  0.00     0.250 C 
ATOM      4  O   UNL A   1      44.022  22.578  23.309  1.00  0.00    -0.273 OA
ATOM      5  H   UNL A   1      42.213  21.949  24.621  1.00  0.00     0.163 HD
BRANCH   3   6
ATOM      6  C   UNL A   1      45.603  21.838  25.025  1.00  0.00     0.204 C 
ATOM      7  C   UNL A   1      46.518  22.808  24.279  1.00  0.00     0.050 C 
BRANCH   6   8
ATOM      8  N   UNL A   1      45.474  22.116  26.525  1.00  0.00    -0.191 NA
ATOM      9  H   UNL A   1      44.678  21.561  26.838  1.00  0.00     0.142 HD
BRANCH   8  10
ATOM     10  S   UNL A   1      45.256  23.628  27.195  1.00  0.00     0.215 S 
ATOM     11  O   UNL A   1      44.419  24.412  26.326  1.00  0.00    -0.212 OA
ATOM     12  O   UNL A   1      46.606  24.054  27.510  1.00  0.00    -0.212 OA
BRANCH  10  13
ATOM     13  C   UNL A   1      44.402  23.385  28.786  1.00  0.00     0.118 C 
ATOM     14  C   UNL A   1      44.954  24.246  29.914  1.00  0.00     0.026 C 
ATOM     15  C   UNL A   1      42.877  23.468  28.678  1.00  0.00     0.026 C 
ENDBRANCH  10  13
ENDBRANCH   8  10
ENDBRANCH   6   8
BRANCH   6  16
ATOM     16  C   UNL A   1      46.050  20.380  24.750  1.00  0.00     0.416 C 
ATOM     17  F   UNL A   1      45.257  19.741  23.862  1.00  0.00    -0.168 F 
ATOM     18  F   UNL A   1      47.305  20.328  24.246  1.00  0.00    -0.168 F 
ATOM     19  F   UNL A   1      46.072  19.657  25.898  1.00  0.00    -0.168 F 
ENDBRANCH   6  16
ENDBRANCH   3   6
ENDBRANCH   1   2
BRANCH   1  20
ATOM     20  C   UNL A   1      41.426  20.278  26.380  1.00  0.00     0.042 C 
BRANCH  20  21
ATOM     21  C   UNL A   1      40.587  21.264  27.163  1.00  0.00     0.118 C 
BRANCH  21  22
ATOM     22  N   UNL A   1      39.385  21.685  26.449  1.00  0.00    -0.352 N 
ATOM     23  C   UNL A   1      38.762  22.904  26.319  1.00  0.00     0.251 C 
ATOM     24  H   UNL A   1      38.932  20.955  25.968  1.00  0.00     0.163 HD
ATOM     25  O   UNL A   1      37.662  22.950  25.771  1.00  0.00    -0.269 OA
BRANCH  23  26
ATOM     26  C   UNL A   1      39.363  24.150  26.850  1.00  0.00     0.039 A 
ATOM     27  C   UNL A   1      40.135  24.949  25.999  1.00  0.00     0.014 A 
ATOM     28  C   UNL A   1      39.200  24.534  28.178  1.00  0.00     0.014 A 
ATOM     29  C   UNL A   1      40.660  26.162  26.460  1.00  0.00     0.010 A 
ATOM     30  C   UNL A   1      39.591  25.800  28.592  1.00  0.00     0.010 A 
ATOM     31  C   UNL A   1      40.346  26.623  27.746  1.00  0.00    -0.014 A 
BRANCH  31  32
ATOM     32  C   UNL A   1      40.818  27.938  28.258  1.00  0.00     0.031 A 
ATOM     33  C   UNL A   1      42.291  28.173  28.471  1.00  0.00     0.074 A 
ATOM     34  C   UNL A   1      39.925  28.880  28.619  1.00  0.00     0.049 A 
ATOM     35  N   UNL A   1      42.898  29.187  29.035  1.00  0.00    -0.248 NA
ATOM     36  C   UNL A   1      43.202  27.103  28.030  1.00  0.00     0.031 C 
ATOM     37  C   UNL A   1      38.472  28.757  28.511  1.00  0.00     0.029 A 
ATOM     38  N   UNL A   1      40.113  30.125  29.167  1.00  0.00    -0.354 N 
ATOM     39  C   UNL A   1      44.249  28.861  29.042  1.00  0.00     0.074 A 
ATOM     40  C   UNL A   1      44.366  27.528  28.496  1.00  0.00     0.031 C 
ATOM     41  C   UNL A   1      37.900  29.890  28.951  1.00  0.00     0.029 A 
ATOM     42  C   UNL A   1      38.942  30.797  29.420  1.00  0.00     0.049 A 
ATOM     43  H   UNL A   1      41.002  30.500  29.361  1.00  0.00     0.167 HD
ATOM     44  C   UNL A   1      45.301  29.615  29.439  1.00  0.00     0.037 A 
ATOM     45  C   UNL A   1      38.732  32.004  29.980  1.00  0.00     0.037 A 
ATOM     46  C   UNL A   1      45.181  30.955  29.950  1.00  0.00     0.049 A 
ATOM     47  C   UNL A   1      39.916  32.823  30.420  1.00  0.00     0.074 A 
ATOM     48  C   UNL A   1      46.186  31.832  30.318  1.00  0.00     0.029 A 
ATOM     49  N   UNL A   1      43.978  31.612  30.166  1.00  0.00    -0.354 N 
ATOM     50  N   UNL A   1      41.193  32.532  30.361  1.00  0.00    -0.248 NA
ATOM     51  C   UNL A   1      39.628  34.143  30.999  1.00  0.00     0.031 C 
ATOM     52  C   UNL A   1      45.590  32.996  30.813  1.00  0.00     0.029 A 
ATOM     53  C   UNL A   1      44.215  32.873  30.688  1.00  0.00     0.049 A 
ATOM     54  H   UNL A   1      43.087  31.237  29.975  1.00  0.00     0.167 HD
ATOM     55  C   UNL A   1      41.861  33.641  30.862  1.00  0.00     0.074 A 
ATOM     56  C   UNL A   1      40.847  34.616  31.208  1.00  0.00     0.031 C 
ATOM     57  C   UNL A   1      43.194  33.836  31.020  1.00  0.00     0.037 A 
BRANCH  44  58
ATOM     58  C   UNL A   1      46.672  29.005  29.336  1.00  0.00     0.064 A 
ATOM     59  C   UNL A   1      47.244  28.285  30.397  1.00  0.00     0.173 A 
ATOM     60  C   UNL A   1      47.420  29.131  28.156  1.00  0.00     0.173 A 
ATOM     61  F   UNL A   1      46.579  28.144  31.554  1.00  0.00    -0.203 F 
ATOM     62  C   UNL A   1      48.527  27.754  30.296  1.00  0.00     0.198 A 
ATOM     63  C   UNL A   1      48.687  28.563  28.044  1.00  0.00     0.198 A 
ATOM     64  F   UNL A   1      46.922  29.802  27.106  1.00  0.00    -0.203 F 
ATOM     65  F   UNL A   1      49.078  27.133  31.349  1.00  0.00    -0.200 F 
ATOM     66  C   UNL A   1      49.244  27.887  29.118  1.00  0.00     0.200 A 
ATOM     67  F   UNL A   1      49.373  28.680  26.898  1.00  0.00    -0.200 F 
ATOM     68  F   UNL A   1      50.478  27.373  29.021  1.00  0.00    -0.200 F 
ENDBRANCH  44  58
BRANCH  45  69
ATOM     69  C   UNL A   1      37.345  32.518  30.134  1.00  0.00     0.064 A 
ATOM     70  C   UNL A   1      36.742  33.273  29.118  1.00  0.00     0.173 A 
ATOM     71  C   UNL A   1      36.592  32.263  31.290  1.00  0.00     0.173 A 
ATOM     72  F   UNL A   1      37.426  33.559  28.001  1.00  0.00    -0.203 F 
ATOM     73  C   UNL A   1      35.448  33.771  29.260  1.00  0.00     0.198 A 
ATOM     74  C   UNL A   1      35.286  32.734  31.418  1.00  0.00     0.198 A 
ATOM     75  F   UNL A   1      37.118  31.538  32.288  1.00  0.00    -0.203 F 
ATOM     76  F   UNL A   1      34.914  34.528  28.293  1.00  0.00    -0.200 F 
ATOM     77  C   UNL A   1      34.719  33.495  30.408  1.00  0.00     0.200 A 
ATOM     78  F   UNL A   1      34.579  32.449  32.519  1.00  0.00    -0.200 F 
ATOM     79  F   UNL A   1      33.472  33.966  30.540  1.00  0.00    -0.200 F 
ENDBRANCH  45  69
BRANCH  57  80
ATOM     80  C   UNL A   1      43.641  35.169  31.548  1.00  0.00     0.064 A 
ATOM     81  C   UNL A   1      43.773  36.290  30.716  1.00  0.00     0.173 A 
ATOM     82  C   UNL A   1      43.895  35.336  32.919  1.00  0.00     0.173 A 
ATOM     83  F   UNL A   1      43.555  36.181  29.397  1.00  0.00    -0.203 F 
ATOM     84  C   UNL A   1      44.171  37.521  31.231  1.00  0.00     0.198 A 
ATOM     85  C   UNL A   1      44.257  36.576  33.436  1.00  0.00     0.198 A 
ATOM     86  F   UNL A   1      43.775  34.299  33.761  1.00  0.00    -0.203 F 
ATOM     87  F   UNL A   1      44.342  38.565  30.409  1.00  0.00    -0.200 F 
ATOM     88  C   UNL A   1      44.403  37.665  32.591  1.00  0.00     0.200 A 
ATOM     89  F   UNL A   1      44.463  36.717  34.753  1.00  0.00    -0.200 F 
ATOM     90  F   UNL A   1      44.775  38.853  33.087  1.00  0.00    -0.200 F 
ENDBRANCH  57  80
ENDBRANCH  31  32
ENDBRANCH  23  26
ENDBRANCH  21  22
ENDBRANCH  20  21
ENDBRANCH   1  20
TORSDOF 14
ENDMDL
MODEL 3
REMARK VINA RESULT:     -10.6      4.780     10.496
REMARK SMILES CC(C)S(=O)(=O)N[C@](C)(C(=O)NCCCNC(=O)c1ccc(-c2c3nc(c(-c4c(F)c(F)c(F)c(F)c4F)c4ccc([nH]4)c(-c4c(F)c(F)c(F)c(F)c4F)c4nc(c(-c5c(F)c(F)c(F)c(F)c5F)c5ccc2[nH]5)C=C4)C=C3)cc1)C(F)(F)F
REMARK SMILES IDX 13 1 12 2 10 3 11 4 8 6 9 7 7 8 4 10 5 11 6 12 2 13 1 14
REMARK SMILES IDX 3 15 82 16 83 17 84 18 85 19 14 20 15 21 16 22 17 23 18 25
REMARK SMILES IDX 19 26 20 27 81 28 21 29 80 30 22 31 23 32 24 33 74 34 25 35
REMARK SMILES IDX 79 36 73 37 75 38 26 39 78 40 72 41 71 42 27 44 59 45 39 46
REMARK SMILES IDX 58 47 40 48 43 49 57 50 76 51 41 52 42 53 56 55 77 56 44 57
REMARK SMILES IDX 28 58 29 59 37 60 30 61 31 62 35 63 38 64 32 65 33 66 36 67
REMARK SMILES IDX 34 68 60 69 61 70 69 71 62 72 63 73 67 74 70 75 64 76 65 77
REMARK SMILES IDX 68 78 66 79 45 80 46 81 54 82 47 83 48 84 52 85 55 86 49 87
REMARK SMILES IDX 50 88 53 89 51 90
REMARK H PARENT 12 5 7 9 16 24 75 43 43 54
REMARK Flexibility Score: inf
ROOT
ATOM      1  C   UNL A   1      31.661  30.835  26.074  1.00  0.00     0.117 C 
ENDROOT
BRANCH   1   2
ATOM      2  N   UNL A   1      31.559  29.699  26.962  1.00  0.00    -0.354 N 
ATOM      3  C   UNL A   1      31.749  28.359  26.718  1.00  0.00     0.250 C 
ATOM      4  O   UNL A   1      31.774  27.649  27.727  1.00  0.00    -0.273 OA
ATOM      5  H   UNL A   1      31.315  29.920  27.890  1.00  0.00     0.163 HD
BRANCH   3   6
ATOM      6  C   UNL A   1      31.794  27.766  25.282  1.00  0.00     0.204 C 
ATOM      7  C   UNL A   1      31.488  26.276  25.431  1.00  0.00     0.050 C 
BRANCH   6   8
ATOM      8  N   UNL A   1      30.791  28.534  24.416  1.00  0.00    -0.191 NA
ATOM      9  H   UNL A   1      30.157  28.989  25.072  1.00  0.00     0.142 HD
BRANCH   8  10
ATOM     10  S   UNL A   1      29.814  27.843  23.255  1.00  0.00     0.215 S 
ATOM     11  O   UNL A   1      29.064  26.768  23.850  1.00  0.00    -0.212 OA
ATOM     12  O   UNL A   1      30.724  27.593  22.154  1.00  0.00    -0.212 OA
BRANCH  10  13
ATOM     13  C   UNL A   1      28.660  29.136  22.694  1.00  0.00     0.118 C 
ATOM     14  C   UNL A   1      27.212  28.874  23.083  1.00  0.00     0.026 C 
ATOM     15  C   UNL A   1      29.115  30.554  23.048  1.00  0.00     0.026 C 
ENDBRANCH  10  13
ENDBRANCH   8  10
ENDBRANCH   6   8
BRANCH   6  16
ATOM     16  C   UNL A   1      33.246  27.954  24.779  1.00  0.00     0.416 C 
ATOM     17  F   UNL A   1      33.696  26.907  24.052  1.00  0.00    -0.168 F 
ATOM     18  F   UNL A   1      33.364  29.044  23.987  1.00  0.00    -0.168 F 
ATOM     19  F   UNL A   1      34.097  28.146  25.818  1.00  0.00    -0.168 F 
ENDBRANCH   6  16
ENDBRANCH   3   6
ENDBRANCH   1   2
BRANCH   1  20
ATOM     20  C   UNL A   1      31.418  32.177  26.734  1.00  0.00     0.042 C 
BRANCH  20  21
ATOM     21  C   UNL A   1      32.686  32.879  27.169  1.00  0.00     0.118 C 
BRANCH  21  22
ATOM     22  N   UNL A   1      32.448  34.231  27.668  1.00  0.00    -0.352 N 
ATOM     23  C   UNL A   1      33.028  34.963  28.677  1.00  0.00     0.251 C 
ATOM     24  H   UNL A   1      31.734  34.711  27.189  1.00  0.00     0.163 HD
ATOM     25  O   UNL A   1      32.527  36.042  28.986  1.00  0.00    -0.269 OA
BRANCH  23  26
ATOM     26  C   UNL A   1      34.212  34.470  29.420  1.00  0.00     0.039 A 
ATOM     27  C   UNL A   1      34.028  33.870  30.671  1.00  0.00     0.014 A 
ATOM     28  C   UNL A   1      35.502  34.609  28.917  1.00  0.00     0.014 A 
ATOM     29  C   UNL A   1      35.123  33.340  31.363  1.00  0.00     0.010 A 
ATOM     30  C   UNL A   1      36.563  33.955  29.528  1.00  0.00     0.010 A 
ATOM     31  C   UNL A   1      36.394  33.330  30.770  1.00  0.00    -0.014 A 
BRANCH  31  32
ATOM     32  C   UNL A   1      37.575  32.714  31.431  1.00  0.00     0.031 A 
ATOM     33  C   UNL A   1      38.288  31.563  30.768  1.00  0.00     0.074 A 
ATOM     34  C   UNL A   1      37.949  33.121  32.659  1.00  0.00     0.049 A 
ATOM     35  N   UNL A   1      39.243  30.798  31.234  1.00  0.00    -0.248 NA
ATOM     36  C   UNL A   1      37.834  31.194  29.418  1.00  0.00     0.031 C 
ATOM     37  C   UNL A   1      37.312  34.189  33.430  1.00  0.00     0.029 A 
ATOM     38  N   UNL A   1      38.949  32.669  33.485  1.00  0.00    -0.354 N 
ATOM     39  C   UNL A   1      39.478  29.846  30.249  1.00  0.00     0.074 A 
ATOM     40  C   UNL A   1      38.518  30.083  29.195  1.00  0.00     0.031 C 
ATOM     41  C   UNL A   1      37.952  34.330  34.601  1.00  0.00     0.029 A 
ATOM     42  C   UNL A   1      39.010  33.329  34.688  1.00  0.00     0.049 A 
ATOM     43  H   UNL A   1      39.564  31.941  33.238  1.00  0.00     0.167 HD
ATOM     44  C   UNL A   1      40.427  28.882  30.211  1.00  0.00     0.037 A 
ATOM     45  C   UNL A   1      39.819  33.139  35.748  1.00  0.00     0.037 A 
ATOM     46  C   UNL A   1      41.403  28.674  31.249  1.00  0.00     0.049 A 
ATOM     47  C   UNL A   1      40.864  32.057  35.687  1.00  0.00     0.074 A 
ATOM     48  C   UNL A   1      42.449  27.769  31.280  1.00  0.00     0.029 A 
ATOM     49  N   UNL A   1      41.449  29.381  32.441  1.00  0.00    -0.354 N 
ATOM     50  N   UNL A   1      41.120  31.206  34.722  1.00  0.00    -0.248 NA
ATOM     51  C   UNL A   1      41.737  31.914  36.860  1.00  0.00     0.031 C 
ATOM     52  C   UNL A   1      43.091  27.889  32.517  1.00  0.00     0.029 A 
ATOM     53  C   UNL A   1      42.490  28.915  33.227  1.00  0.00     0.049 A 
ATOM     54  H   UNL A   1      40.833  30.108  32.691  1.00  0.00     0.167 HD
ATOM     55  C   UNL A   1      42.201  30.450  35.156  1.00  0.00     0.074 A 
ATOM     56  C   UNL A   1      42.560  30.953  36.466  1.00  0.00     0.031 C 
ATOM     57  C   UNL A   1      42.840  29.433  34.527  1.00  0.00     0.037 A 
BRANCH  44  58
ATOM     58  C   UNL A   1      40.454  27.979  29.008  1.00  0.00     0.064 A 
ATOM     59  C   UNL A   1      41.218  28.284  27.869  1.00  0.00     0.173 A 
ATOM     60  C   UNL A   1      39.716  26.786  28.996  1.00  0.00     0.173 A 
ATOM     61  F   UNL A   1      41.933  29.419  27.820  1.00  0.00    -0.203 F 
ATOM     62  C   UNL A   1      41.206  27.454  26.752  1.00  0.00     0.198 A 
ATOM     63  C   UNL A   1      39.739  25.937  27.892  1.00  0.00     0.198 A 
ATOM     64  F   UNL A   1      38.973  26.439  30.059  1.00  0.00    -0.203 F 
ATOM     65  F   UNL A   1      41.887  27.805  25.652  1.00  0.00    -0.200 F 
ATOM     66  C   UNL A   1      40.473  26.278  26.767  1.00  0.00     0.200 A 
ATOM     67  F   UNL A   1      39.041  24.793  27.915  1.00  0.00    -0.200 F 
ATOM     68  F   UNL A   1      40.464  25.478  25.692  1.00  0.00    -0.200 F 
ENDBRANCH  44  58
BRANCH  45  69
ATOM     69  C   UNL A   1      39.688  34.010  36.946  1.00  0.00     0.064 A 
ATOM     70  C   UNL A   1      40.331  35.255  37.003  1.00  0.00     0.173 A 
ATOM     71  C   UNL A   1      38.918  33.624  38.052  1.00  0.00     0.173 A 
ATOM     72  F   UNL A   1      41.094  35.662  35.978  1.00  0.00    -0.203 F 
ATOM     73  C   UNL A   1      40.225  36.071  38.128  1.00  0.00     0.198 A 
ATOM     74  C   UNL A   1      38.786  34.455  39.164  1.00  0.00     0.198 A 
ATOM     75  F   UNL A   1      38.275  32.447  38.046  1.00  0.00    -0.203 F 
ATOM     76  F   UNL A   1      40.888  37.234  38.174  1.00  0.00    -0.200 F 
ATOM     77  C   UNL A   1      39.447  35.673  39.205  1.00  0.00     0.200 A 
ATOM     78  F   UNL A   1      38.017  34.075  40.194  1.00  0.00    -0.200 F 
ATOM     79  F   UNL A   1      39.338  36.461  40.283  1.00  0.00    -0.200 F 
ENDBRANCH  45  69
BRANCH  57  80
ATOM     80  C   UNL A   1      44.023  28.823  35.222  1.00  0.00     0.064 A 
ATOM     81  C   UNL A   1      43.891  27.726  36.086  1.00  0.00     0.173 A 
ATOM     82  C   UNL A   1      45.315  29.316  34.981  1.00  0.00     0.173 A 
ATOM     83  F   UNL A   1      42.678  27.224  36.360  1.00  0.00    -0.203 F 
ATOM     84  C   UNL A   1      45.005  27.164  36.705  1.00  0.00     0.198 A 
ATOM     85  C   UNL A   1      46.429  28.729  35.573  1.00  0.00     0.198 A 
ATOM     86  F   UNL A   1      45.499  30.358  34.157  1.00  0.00    -0.203 F 
ATOM     87  F   UNL A   1      44.849  26.150  37.568  1.00  0.00    -0.200 F 
ATOM     88  C   UNL A   1      46.273  27.660  36.441  1.00  0.00     0.200 A 
ATOM     89  F   UNL A   1      47.655  29.199  35.302  1.00  0.00    -0.200 F 
ATOM     90  F   UNL A   1      47.344  27.111  37.029  1.00  0.00    -0.200 F 
ENDBRANCH  57  80
ENDBRANCH  31  32
ENDBRANCH  23  26
ENDBRANCH  21  22
ENDBRANCH  20  21
ENDBRANCH   1  20
TORSDOF 14
ENDMDL
