MODEL 1
REMARK VINA RESULT:     -12.4      0.000      0.000
REMARK SMILES Cc1noc(C)c1[C@H](C)NC(=O)c1cccc(C(=O)NCCCNC(=O)c2ccc(-c3c4nc(c(-c5c(F)c(F)c(F)c(F)c5F)c5ccc([nH]5)c(-c5c(F)c(F)c(F)c(F)c5F)c5nc(c(-c6c(F)c(F)c(F)c(F)c6F)c6ccc3[nH]6)C=C5)C=C4)cc2)n1
REMARK SMILES IDX 21 1 20 2 18 3 19 4 17 6 13 7 14 8 90 9 15 10 16 11 11 12
REMARK SMILES IDX 10 13 12 15 8 16 9 17 7 18 1 19 2 20 3 21 4 22 5 23 6 24
REMARK SMILES IDX 22 25 23 26 24 27 25 28 26 30 27 31 28 32 89 33 29 34 88 35
REMARK SMILES IDX 30 36 31 37 32 38 82 39 33 40 87 41 81 42 83 43 34 44 86 45
REMARK SMILES IDX 80 46 79 47 35 49 67 50 47 51 66 52 48 53 51 54 65 55 84 56
REMARK SMILES IDX 49 57 50 58 64 60 85 61 52 62 36 63 37 64 45 65 38 66 39 67
REMARK SMILES IDX 43 68 46 69 40 70 41 71 44 72 42 73 68 74 69 75 77 76 70 77
REMARK SMILES IDX 71 78 75 79 78 80 72 81 73 82 76 83 74 84 53 85 54 86 62 87
REMARK SMILES IDX 55 88 56 89 60 90 63 91 57 92 58 93 61 94 59 95
REMARK H PARENT 20 5 10 14 24 29 83 48 51 59
REMARK Flexibility Score: inf
ROOT
ATOM      1  C   UNL A   1      36.801  19.964  25.001  1.00  0.00     0.118 C 
ENDROOT
BRANCH   1   2
ATOM      2  N   UNL A   1      36.006  18.761  24.842  1.00  0.00    -0.351 N 
ATOM      3  C   UNL A   1      34.649  18.558  24.698  1.00  0.00     0.269 C 
ATOM      4  O   UNL A   1      34.290  17.402  24.472  1.00  0.00    -0.268 OA
ATOM      5  H   UNL A   1      36.535  17.931  24.837  1.00  0.00     0.163 HD
BRANCH   3   6
ATOM      6  C   UNL A   1      33.629  19.661  24.811  1.00  0.00     0.129 A 
ATOM      7  C   UNL A   1      32.944  21.554  25.959  1.00  0.00     0.129 A 
ATOM      8  C   UNL A   1      31.950  21.799  25.022  1.00  0.00     0.034 A 
ATOM      9  N   UNL A   1      33.784  20.497  25.875  1.00  0.00    -0.237 NA
ATOM     10  C   UNL A   1      31.777  20.933  23.965  1.00  0.00     0.005 A 
ATOM     11  C   UNL A   1      32.648  19.867  23.844  1.00  0.00     0.034 A 
BRANCH   7  12
ATOM     12  C   UNL A   1      33.184  22.572  27.031  1.00  0.00     0.270 C 
ATOM     13  N   UNL A   1      33.850  23.752  26.741  1.00  0.00    -0.344 N 
ATOM     14  H   UNL A   1      34.336  24.170  27.489  1.00  0.00     0.164 HD
ATOM     15  O   UNL A   1      32.867  22.343  28.196  1.00  0.00    -0.267 OA
BRANCH  13  16
ATOM     16  C   UNL A   1      33.919  24.451  25.463  1.00  0.00     0.115 C 
ATOM     17  C   UNL A   1      34.028  25.950  25.751  1.00  0.00     0.036 C 
BRANCH  16  18
ATOM     18  C   UNL A   1      35.025  23.860  24.624  1.00  0.00     0.040 A 
ATOM     19  C   UNL A   1      33.835  23.328  22.303  1.00  0.00     0.071 C 
ATOM     20  C   UNL A   1      34.966  23.410  23.256  1.00  0.00     0.086 A 
ATOM     21  N   UNL A   1      36.166  23.030  22.808  1.00  0.00    -0.085 NA
ATOM     22  O   UNL A   1      37.028  23.183  23.857  1.00  0.00    -0.361 OA
ATOM     23  C   UNL A   1      36.364  23.668  24.936  1.00  0.00     0.139 A 
ATOM     24  C   UNL A   1      37.218  23.871  26.123  1.00  0.00     0.091 C 
ENDBRANCH  16  18
ENDBRANCH  13  16
ENDBRANCH   7  12
ENDBRANCH   3   6
ENDBRANCH   1   2
BRANCH   1  25
ATOM     25  C   UNL A   1      38.290  19.695  24.773  1.00  0.00     0.042 C 
BRANCH  25  26
ATOM     26  C   UNL A   1      39.163  20.013  25.977  1.00  0.00     0.118 C 
BRANCH  26  27
ATOM     27  N   UNL A   1      40.295  19.106  26.076  1.00  0.00    -0.352 N 
ATOM     28  C   UNL A   1      41.639  19.375  26.126  1.00  0.00     0.251 C 
ATOM     29  H   UNL A   1      40.060  18.151  26.113  1.00  0.00     0.163 HD
ATOM     30  O   UNL A   1      42.441  18.465  25.945  1.00  0.00    -0.269 OA
BRANCH  28  31
ATOM     31  C   UNL A   1      42.130  20.744  26.396  1.00  0.00     0.039 A 
ATOM     32  C   UNL A   1      42.378  21.120  27.720  1.00  0.00     0.014 A 
ATOM     33  C   UNL A   1      42.282  21.679  25.368  1.00  0.00     0.014 A 
ATOM     34  C   UNL A   1      42.809  22.416  28.007  1.00  0.00     0.010 A 
ATOM     35  C   UNL A   1      42.788  22.945  25.645  1.00  0.00     0.010 A 
ATOM     36  C   UNL A   1      43.038  23.333  26.969  1.00  0.00    -0.014 A 
BRANCH  36  37
ATOM     37  C   UNL A   1      43.505  24.714  27.250  1.00  0.00     0.031 A 
ATOM     38  C   UNL A   1      42.548  25.731  27.806  1.00  0.00     0.074 A 
ATOM     39  C   UNL A   1      44.768  25.063  26.947  1.00  0.00     0.049 A 
ATOM     40  N   UNL A   1      42.738  27.005  28.047  1.00  0.00    -0.248 NA
ATOM     41  C   UNL A   1      41.184  25.263  28.103  1.00  0.00     0.031 C 
ATOM     42  C   UNL A   1      45.774  24.175  26.364  1.00  0.00     0.029 A 
ATOM     43  N   UNL A   1      45.420  26.264  27.078  1.00  0.00    -0.354 N 
ATOM     44  C   UNL A   1      41.518  27.489  28.501  1.00  0.00     0.074 A 
ATOM     45  C   UNL A   1      40.581  26.389  28.452  1.00  0.00     0.031 C 
ATOM     46  C   UNL A   1      46.921  24.853  26.207  1.00  0.00     0.029 A 
ATOM     47  C   UNL A   1      46.721  26.232  26.642  1.00  0.00     0.049 A 
ATOM     48  H   UNL A   1      44.994  27.071  27.447  1.00  0.00     0.167 HD
ATOM     49  C   UNL A   1      41.215  28.734  28.941  1.00  0.00     0.037 A 
ATOM     50  C   UNL A   1      47.647  27.209  26.595  1.00  0.00     0.037 A 
ATOM     51  C   UNL A   1      42.161  29.815  29.014  1.00  0.00     0.049 A 
ATOM     52  C   UNL A   1      47.286  28.582  27.093  1.00  0.00     0.074 A 
ATOM     53  C   UNL A   1      41.973  31.097  29.502  1.00  0.00     0.029 A 
ATOM     54  N   UNL A   1      43.478  29.740  28.584  1.00  0.00    -0.354 N 
ATOM     55  N   UNL A   1      46.148  29.014  27.581  1.00  0.00    -0.248 NA
ATOM     56  C   UNL A   1      48.342  29.603  27.039  1.00  0.00     0.031 C 
ATOM     57  C   UNL A   1      43.165  31.809  29.327  1.00  0.00     0.029 A 
ATOM     58  C   UNL A   1      44.110  30.958  28.777  1.00  0.00     0.049 A 
ATOM     59  H   UNL A   1      43.902  28.939  28.199  1.00  0.00     0.167 HD
ATOM     60  C   UNL A   1      46.357  30.343  27.919  1.00  0.00     0.074 A 
ATOM     61  C   UNL A   1      47.736  30.645  27.591  1.00  0.00     0.031 C 
ATOM     62  C   UNL A   1      45.486  31.234  28.451  1.00  0.00     0.037 A 
BRANCH  49  63
ATOM     63  C   UNL A   1      39.800  28.989  29.379  1.00  0.00     0.064 A 
ATOM     64  C   UNL A   1      38.822  29.448  28.482  1.00  0.00     0.173 A 
ATOM     65  C   UNL A   1      39.410  28.751  30.705  1.00  0.00     0.173 A 
ATOM     66  F   UNL A   1      39.144  29.703  27.205  1.00  0.00    -0.203 F 
ATOM     67  C   UNL A   1      37.519  29.693  28.905  1.00  0.00     0.198 A 
ATOM     68  C   UNL A   1      38.097  28.966  31.118  1.00  0.00     0.198 A 
ATOM     69  F   UNL A   1      40.302  28.305  31.603  1.00  0.00    -0.203 F 
ATOM     70  F   UNL A   1      36.618  30.187  28.044  1.00  0.00    -0.200 F 
ATOM     71  C   UNL A   1      37.156  29.447  30.221  1.00  0.00     0.200 A 
ATOM     72  F   UNL A   1      37.745  28.715  32.386  1.00  0.00    -0.200 F 
ATOM     73  F   UNL A   1      35.900  29.681  30.626  1.00  0.00    -0.200 F 
ENDBRANCH  49  63
BRANCH  50  74
ATOM     74  C   UNL A   1      49.011  26.912  26.088  1.00  0.00     0.064 A 
ATOM     75  C   UNL A   1      50.016  26.462  26.955  1.00  0.00     0.173 A 
ATOM     76  C   UNL A   1      49.336  27.060  24.732  1.00  0.00     0.173 A 
ATOM     77  F   UNL A   1      49.757  26.321  28.263  1.00  0.00    -0.203 F 
ATOM     78  C   UNL A   1      51.300  26.187  26.489  1.00  0.00     0.198 A 
ATOM     79  C   UNL A   1      50.614  26.759  24.261  1.00  0.00     0.198 A 
ATOM     80  F   UNL A   1      48.408  27.479  23.860  1.00  0.00    -0.203 F 
ATOM     81  F   UNL A   1      52.252  25.796  27.346  1.00  0.00    -0.200 F 
ATOM     82  C   UNL A   1      51.596  26.330  25.141  1.00  0.00     0.200 A 
ATOM     83  F   UNL A   1      50.890  26.880  22.956  1.00  0.00    -0.200 F 
ATOM     84  F   UNL A   1      52.828  26.058  24.692  1.00  0.00    -0.200 F 
ENDBRANCH  50  74
BRANCH  62  85
ATOM     85  C   UNL A   1      46.008  32.611  28.747  1.00  0.00     0.064 A 
ATOM     86  C   UNL A   1      45.926  33.648  27.807  1.00  0.00     0.173 A 
ATOM     87  C   UNL A   1      46.562  32.903  30.003  1.00  0.00     0.173 A 
ATOM     88  F   UNL A   1      45.419  33.414  26.587  1.00  0.00    -0.203 F 
ATOM     89  C   UNL A   1      46.401  34.922  28.105  1.00  0.00     0.198 A 
ATOM     90  C   UNL A   1      47.009  34.185  30.308  1.00  0.00     0.198 A 
ATOM     91  F   UNL A   1      46.658  31.947  30.939  1.00  0.00    -0.203 F 
ATOM     92  F   UNL A   1      46.356  35.885  27.175  1.00  0.00    -0.200 F 
ATOM     93  C   UNL A   1      46.935  35.192  29.356  1.00  0.00     0.200 A 
ATOM     94  F   UNL A   1      47.512  34.448  31.523  1.00  0.00    -0.200 F 
ATOM     95  F   UNL A   1      47.385  36.421  29.643  1.00  0.00    -0.200 F 
ENDBRANCH  62  85
ENDBRANCH  36  37
ENDBRANCH  28  31
ENDBRANCH  26  27
ENDBRANCH  25  26
ENDBRANCH   1  25
TORSDOF 13
ENDMDL
MODEL 2
REMARK VINA RESULT:     -12.4      5.814     11.053
REMARK SMILES Cc1noc(C)c1[C@H](C)NC(=O)c1cccc(C(=O)NCCCNC(=O)c2ccc(-c3c4nc(c(-c5c(F)c(F)c(F)c(F)c5F)c5ccc([nH]5)c(-c5c(F)c(F)c(F)c(F)c5F)c5nc(c(-c6c(F)c(F)c(F)c(F)c6F)c6ccc3[nH]6)C=C5)C=C4)cc2)n1
REMARK SMILES IDX 21 1 20 2 18 3 19 4 17 6 13 7 14 8 90 9 15 10 16 11 11 12
REMARK SMILES IDX 10 13 12 15 8 16 9 17 7 18 1 19 2 20 3 21 4 22 5 23 6 24
REMARK SMILES IDX 22 25 23 26 24 27 25 28 26 30 27 31 28 32 89 33 29 34 88 35
REMARK SMILES IDX 30 36 31 37 32 38 82 39 33 40 87 41 81 42 83 43 34 44 86 45
REMARK SMILES IDX 80 46 79 47 35 49 67 50 47 51 66 52 48 53 51 54 65 55 84 56
REMARK SMILES IDX 49 57 50 58 64 60 85 61 52 62 36 63 37 64 45 65 38 66 39 67
REMARK SMILES IDX 43 68 46 69 40 70 41 71 44 72 42 73 68 74 69 75 77 76 70 77
REMARK SMILES IDX 71 78 75 79 78 80 72 81 73 82 76 83 74 84 53 85 54 86 62 87
REMARK SMILES IDX 55 88 56 89 60 90 63 91 57 92 58 93 61 94 59 95
REMARK H PARENT 20 5 10 14 24 29 83 48 51 59
REMARK Flexibility Score: inf
ROOT
ATOM      1  C   UNL A   1      31.350  30.705  26.311  1.00  0.00     0.118 C 
ENDROOT
BRANCH   1   2
ATOM      2  N   UNL A   1      32.384  30.283  25.387  1.00  0.00    -0.351 N 
ATOM      3  C   UNL A   1      32.434  29.275  24.446  1.00  0.00     0.269 C 
ATOM      4  O   UNL A   1      33.436  29.242  23.731  1.00  0.00    -0.268 OA
ATOM      5  H   UNL A   1      33.209  30.817  25.441  1.00  0.00     0.163 HD
BRANCH   3   6
ATOM      6  C   UNL A   1      31.347  28.246  24.276  1.00  0.00     0.129 A 
ATOM      7  C   UNL A   1      30.465  26.225  24.990  1.00  0.00     0.129 A 
ATOM      8  C   UNL A   1      29.348  26.394  24.184  1.00  0.00     0.034 A 
ATOM      9  N   UNL A   1      31.470  27.129  25.046  1.00  0.00    -0.237 NA
ATOM     10  C   UNL A   1      29.244  27.510  23.382  1.00  0.00     0.005 A 
ATOM     11  C   UNL A   1      30.244  28.461  23.453  1.00  0.00     0.034 A 
BRANCH   7  12
ATOM     12  C   UNL A   1      30.497  25.063  25.934  1.00  0.00     0.270 C 
ATOM     13  N   UNL A   1      31.491  24.104  25.832  1.00  0.00    -0.344 N 
ATOM     14  H   UNL A   1      31.258  23.202  26.154  1.00  0.00     0.164 HD
ATOM     15  O   UNL A   1      29.601  24.900  26.760  1.00  0.00    -0.267 OA
BRANCH  13  16
ATOM     16  C   UNL A   1      32.841  24.266  25.303  1.00  0.00     0.115 C 
ATOM     17  C   UNL A   1      33.814  23.622  26.294  1.00  0.00     0.036 C 
BRANCH  16  18
ATOM     18  C   UNL A   1      32.897  23.740  23.890  1.00  0.00     0.040 A 
ATOM     19  C   UNL A   1      33.545  25.882  22.450  1.00  0.00     0.071 C 
ATOM     20  C   UNL A   1      33.230  24.454  22.684  1.00  0.00     0.086 A 
ATOM     21  N   UNL A   1      33.267  23.643  21.623  1.00  0.00    -0.085 NA
ATOM     22  O   UNL A   1      32.935  22.400  22.084  1.00  0.00    -0.361 OA
ATOM     23  C   UNL A   1      32.709  22.447  23.421  1.00  0.00     0.139 A 
ATOM     24  C   UNL A   1      32.345  21.144  24.012  1.00  0.00     0.091 C 
ENDBRANCH  16  18
ENDBRANCH  13  16
ENDBRANCH   7  12
ENDBRANCH   3   6
ENDBRANCH   1   2
BRANCH   1  25
ATOM     25  C   UNL A   1      31.368  32.218  26.533  1.00  0.00     0.042 C 
BRANCH  25  26
ATOM     26  C   UNL A   1      32.650  32.729  27.174  1.00  0.00     0.118 C 
BRANCH  26  27
ATOM     27  N   UNL A   1      32.525  34.114  27.597  1.00  0.00    -0.352 N 
ATOM     28  C   UNL A   1      33.110  34.771  28.650  1.00  0.00     0.251 C 
ATOM     29  H   UNL A   1      31.929  34.666  27.042  1.00  0.00     0.163 HD
ATOM     30  O   UNL A   1      32.675  35.866  28.991  1.00  0.00    -0.269 OA
BRANCH  28  31
ATOM     31  C   UNL A   1      34.255  34.178  29.375  1.00  0.00     0.039 A 
ATOM     32  C   UNL A   1      35.550  34.473  28.940  1.00  0.00     0.014 A 
ATOM     33  C   UNL A   1      34.062  33.282  30.430  1.00  0.00     0.014 A 
ATOM     34  C   UNL A   1      36.649  33.900  29.584  1.00  0.00     0.010 A 
ATOM     35  C   UNL A   1      35.158  32.774  31.122  1.00  0.00     0.010 A 
ATOM     36  C   UNL A   1      36.461  33.062  30.693  1.00  0.00    -0.014 A 
BRANCH  36  37
ATOM     37  C   UNL A   1      37.614  32.448  31.399  1.00  0.00     0.031 A 
ATOM     38  C   UNL A   1      38.353  31.300  30.771  1.00  0.00     0.074 A 
ATOM     39  C   UNL A   1      37.952  32.885  32.626  1.00  0.00     0.049 A 
ATOM     40  N   UNL A   1      39.333  30.579  31.257  1.00  0.00    -0.248 NA
ATOM     41  C   UNL A   1      37.913  30.884  29.429  1.00  0.00     0.031 C 
ATOM     42  C   UNL A   1      37.282  33.963  33.354  1.00  0.00     0.029 A 
ATOM     43  N   UNL A   1      38.939  32.468  33.483  1.00  0.00    -0.354 N 
ATOM     44  C   UNL A   1      39.609  29.618  30.293  1.00  0.00     0.074 A 
ATOM     45  C   UNL A   1      38.659  29.812  29.218  1.00  0.00     0.031 C 
ATOM     46  C   UNL A   1      37.889  34.137  34.538  1.00  0.00     0.029 A 
ATOM     47  C   UNL A   1      38.965  33.160  34.669  1.00  0.00     0.049 A 
ATOM     48  H   UNL A   1      39.567  31.740  33.269  1.00  0.00     0.167 HD
ATOM     49  C   UNL A   1      40.581  28.675  30.294  1.00  0.00     0.037 A 
ATOM     50  C   UNL A   1      39.766  33.017  35.742  1.00  0.00     0.037 A 
ATOM     51  C   UNL A   1      41.540  28.507  31.353  1.00  0.00     0.049 A 
ATOM     52  C   UNL A   1      40.840  31.964  35.717  1.00  0.00     0.074 A 
ATOM     53  C   UNL A   1      42.603  27.625  31.425  1.00  0.00     0.029 A 
ATOM     54  N   UNL A   1      41.549  29.242  32.530  1.00  0.00    -0.354 N 
ATOM     55  N   UNL A   1      41.134  31.103  34.773  1.00  0.00    -0.248 NA
ATOM     56  C   UNL A   1      41.699  31.868  36.905  1.00  0.00     0.031 C 
ATOM     57  C   UNL A   1      43.229  27.796  32.665  1.00  0.00     0.029 A 
ATOM     58  C   UNL A   1      42.588  28.820  33.343  1.00  0.00     0.049 A 
ATOM     59  H   UNL A   1      40.912  29.959  32.754  1.00  0.00     0.167 HD
ATOM     60  C   UNL A   1      42.226  30.383  35.238  1.00  0.00     0.074 A 
ATOM     61  C   UNL A   1      42.551  30.918  36.545  1.00  0.00     0.031 C 
ATOM     62  C   UNL A   1      42.899  29.372  34.639  1.00  0.00     0.037 A 
BRANCH  49  63
ATOM     63  C   UNL A   1      40.654  27.753  29.109  1.00  0.00     0.064 A 
ATOM     64  C   UNL A   1      41.558  27.973  28.058  1.00  0.00     0.173 A 
ATOM     65  C   UNL A   1      39.825  26.624  29.032  1.00  0.00     0.173 A 
ATOM     66  F   UNL A   1      42.366  29.044  28.075  1.00  0.00    -0.203 F 
ATOM     67  C   UNL A   1      41.604  27.118  26.960  1.00  0.00     0.198 A 
ATOM     68  C   UNL A   1      39.896  25.753  27.947  1.00  0.00     0.198 A 
ATOM     69  F   UNL A   1      38.946  26.362  30.011  1.00  0.00    -0.203 F 
ATOM     70  F   UNL A   1      42.435  27.382  25.942  1.00  0.00    -0.200 F 
ATOM     71  C   UNL A   1      40.778  26.006  26.907  1.00  0.00     0.200 A 
ATOM     72  F   UNL A   1      39.106  24.671  27.906  1.00  0.00    -0.200 F 
ATOM     73  F   UNL A   1      40.824  25.183  25.851  1.00  0.00    -0.200 F 
ENDBRANCH  49  63
BRANCH  50  74
ATOM     74  C   UNL A   1      39.602  33.916  36.913  1.00  0.00     0.064 A 
ATOM     75  C   UNL A   1      38.812  33.534  38.005  1.00  0.00     0.173 A 
ATOM     76  C   UNL A   1      40.236  35.166  36.970  1.00  0.00     0.173 A 
ATOM     77  F   UNL A   1      38.172  32.356  37.988  1.00  0.00    -0.203 F 
ATOM     78  C   UNL A   1      38.647  34.375  39.104  1.00  0.00     0.198 A 
ATOM     79  C   UNL A   1      40.093  35.995  38.082  1.00  0.00     0.198 A 
ATOM     80  F   UNL A   1      41.010  35.574  35.954  1.00  0.00    -0.203 F 
ATOM     81  F   UNL A   1      37.854  34.001  40.117  1.00  0.00    -0.200 F 
ATOM     82  C   UNL A   1      39.293  35.601  39.144  1.00  0.00     0.200 A 
ATOM     83  F   UNL A   1      40.732  37.171  38.125  1.00  0.00    -0.200 F 
ATOM     84  F   UNL A   1      39.141  36.406  40.205  1.00  0.00    -0.200 F 
ENDBRANCH  50  74
BRANCH  62  85
ATOM     85  C   UNL A   1      44.077  28.800  35.374  1.00  0.00     0.064 A 
ATOM     86  C   UNL A   1      45.372  29.305  35.196  1.00  0.00     0.173 A 
ATOM     87  C   UNL A   1      43.896  27.759  36.298  1.00  0.00     0.173 A 
ATOM     88  F   UNL A   1      45.598  30.289  34.312  1.00  0.00    -0.203 F 
ATOM     89  C   UNL A   1      46.449  28.772  35.898  1.00  0.00     0.198 A 
ATOM     90  C   UNL A   1      44.971  27.248  37.020  1.00  0.00     0.198 A 
ATOM     91  F   UNL A   1      42.675  27.245  36.509  1.00  0.00    -0.203 F 
ATOM     92  F   UNL A   1      47.686  29.237  35.677  1.00  0.00    -0.200 F 
ATOM     93  C   UNL A   1      46.247  27.750  36.814  1.00  0.00     0.200 A 
ATOM     94  F   UNL A   1      44.771  26.271  37.915  1.00  0.00    -0.200 F 
ATOM     95  F   UNL A   1      47.285  27.243  37.495  1.00  0.00    -0.200 F 
ENDBRANCH  62  85
ENDBRANCH  36  37
ENDBRANCH  28  31
ENDBRANCH  26  27
ENDBRANCH  25  26
ENDBRANCH   1  25
TORSDOF 13
ENDMDL
MODEL 3
REMARK VINA RESULT:     -12.4      1.855      3.028
REMARK SMILES Cc1noc(C)c1[C@H](C)NC(=O)c1cccc(C(=O)NCCCNC(=O)c2ccc(-c3c4nc(c(-c5c(F)c(F)c(F)c(F)c5F)c5ccc([nH]5)c(-c5c(F)c(F)c(F)c(F)c5F)c5nc(c(-c6c(F)c(F)c(F)c(F)c6F)c6ccc3[nH]6)C=C5)C=C4)cc2)n1
REMARK SMILES IDX 21 1 20 2 18 3 19 4 17 6 13 7 14 8 90 9 15 10 16 11 11 12
REMARK SMILES IDX 10 13 12 15 8 16 9 17 7 18 1 19 2 20 3 21 4 22 5 23 6 24
REMARK SMILES IDX 22 25 23 26 24 27 25 28 26 30 27 31 28 32 89 33 29 34 88 35
REMARK SMILES IDX 30 36 31 37 32 38 82 39 33 40 87 41 81 42 83 43 34 44 86 45
REMARK SMILES IDX 80 46 79 47 35 49 67 50 47 51 66 52 48 53 51 54 65 55 84 56
REMARK SMILES IDX 49 57 50 58 64 60 85 61 52 62 36 63 37 64 45 65 38 66 39 67
REMARK SMILES IDX 43 68 46 69 40 70 41 71 44 72 42 73 68 74 69 75 77 76 70 77
REMARK SMILES IDX 71 78 75 79 78 80 72 81 73 82 76 83 74 84 53 85 54 86 62 87
REMARK SMILES IDX 55 88 56 89 60 90 63 91 57 92 58 93 61 94 59 95
REMARK H PARENT 20 5 10 14 24 29 83 48 51 59
REMARK Flexibility Score: inf
ROOT
ATOM      1  C   UNL A   1      37.421  20.933  24.640  1.00  0.00     0.118 C 
ENDROOT
BRANCH   1   2
ATOM      2  N   UNL A   1      37.969  22.157  25.192  1.00  0.00    -0.351 N 
ATOM      3  C   UNL A   1      37.378  23.323  25.632  1.00  0.00     0.269 C 
ATOM      4  O   UNL A   1      38.125  24.151  26.155  1.00  0.00    -0.268 OA
ATOM      5  H   UNL A   1      38.951  22.156  25.266  1.00  0.00     0.163 HD
BRANCH   3   6
ATOM      6  C   UNL A   1      35.907  23.610  25.492  1.00  0.00     0.129 A 
ATOM      7  C   UNL A   1      34.188  24.269  24.083  1.00  0.00     0.129 A 
ATOM      8  C   UNL A   1      33.242  24.000  25.062  1.00  0.00     0.034 A 
ATOM      9  N   UNL A   1      35.514  24.087  24.277  1.00  0.00    -0.237 NA
ATOM     10  C   UNL A   1      33.646  23.549  26.300  1.00  0.00     0.005 A 
ATOM     11  C   UNL A   1      34.994  23.325  26.505  1.00  0.00     0.034 A 
BRANCH   7  12
ATOM     12  C   UNL A   1      33.713  24.647  22.713  1.00  0.00     0.270 C 
ATOM     13  N   UNL A   1      33.288  25.939  22.450  1.00  0.00    -0.344 N 
ATOM     14  H   UNL A   1      32.629  26.039  21.725  1.00  0.00     0.164 HD
ATOM     15  O   UNL A   1      33.617  23.801  21.827  1.00  0.00    -0.267 OA
BRANCH  13  16
ATOM     16  C   UNL A   1      33.698  27.169  23.118  1.00  0.00     0.115 C 
ATOM     17  C   UNL A   1      34.002  28.211  22.039  1.00  0.00     0.036 C 
BRANCH  16  18
ATOM     18  C   UNL A   1      32.656  27.562  24.136  1.00  0.00     0.040 A 
ATOM     19  C   UNL A   1      30.397  27.625  22.730  1.00  0.00     0.071 C 
ATOM     20  C   UNL A   1      31.237  27.724  23.946  1.00  0.00     0.086 A 
ATOM     21  N   UNL A   1      30.611  27.989  25.096  1.00  0.00    -0.085 NA
ATOM     22  O   UNL A   1      31.583  28.041  26.054  1.00  0.00    -0.361 OA
ATOM     23  C   UNL A   1      32.796  27.795  25.498  1.00  0.00     0.139 A 
ATOM     24  C   UNL A   1      33.914  27.827  26.461  1.00  0.00     0.091 C 
ENDBRANCH  16  18
ENDBRANCH  13  16
ENDBRANCH   7  12
ENDBRANCH   3   6
ENDBRANCH   1   2
BRANCH   1  25
ATOM     25  C   UNL A   1      38.324  19.730  24.917  1.00  0.00     0.042 C 
BRANCH  25  26
ATOM     26  C   UNL A   1      39.260  19.925  26.100  1.00  0.00     0.118 C 
BRANCH  26  27
ATOM     27  N   UNL A   1      40.431  19.068  26.007  1.00  0.00    -0.352 N 
ATOM     28  C   UNL A   1      41.764  19.392  26.011  1.00  0.00     0.251 C 
ATOM     29  H   UNL A   1      40.236  18.106  25.928  1.00  0.00     0.163 HD
ATOM     30  O   UNL A   1      42.587  18.553  25.660  1.00  0.00    -0.269 OA
BRANCH  28  31
ATOM     31  C   UNL A   1      42.218  20.735  26.433  1.00  0.00     0.039 A 
ATOM     32  C   UNL A   1      42.261  21.030  27.799  1.00  0.00     0.014 A 
ATOM     33  C   UNL A   1      42.533  21.724  25.498  1.00  0.00     0.014 A 
ATOM     34  C   UNL A   1      42.652  22.301  28.225  1.00  0.00     0.010 A 
ATOM     35  C   UNL A   1      43.001  22.964  25.924  1.00  0.00     0.010 A 
ATOM     36  C   UNL A   1      43.045  23.271  27.291  1.00  0.00    -0.014 A 
BRANCH  36  37
ATOM     37  C   UNL A   1      43.474  24.626  27.721  1.00  0.00     0.031 A 
ATOM     38  C   UNL A   1      42.444  25.667  28.057  1.00  0.00     0.074 A 
ATOM     39  C   UNL A   1      44.784  24.932  27.748  1.00  0.00     0.049 A 
ATOM     40  N   UNL A   1      42.611  26.927  28.377  1.00  0.00    -0.248 NA
ATOM     41  C   UNL A   1      41.034  25.247  27.996  1.00  0.00     0.031 C 
ATOM     42  C   UNL A   1      45.873  24.017  27.402  1.00  0.00     0.029 A 
ATOM     43  N   UNL A   1      45.422  26.102  28.072  1.00  0.00    -0.354 N 
ATOM     44  C   UNL A   1      41.333  27.449  28.533  1.00  0.00     0.074 A 
ATOM     45  C   UNL A   1      40.401  26.388  28.221  1.00  0.00     0.031 C 
ATOM     46  C   UNL A   1      47.045  24.653  27.553  1.00  0.00     0.029 A 
ATOM     47  C   UNL A   1      46.789  26.029  27.968  1.00  0.00     0.049 A 
ATOM     48  H   UNL A   1      44.946  26.917  28.351  1.00  0.00     0.167 HD
ATOM     49  C   UNL A   1      40.972  28.694  28.925  1.00  0.00     0.037 A 
ATOM     50  C   UNL A   1      47.729  26.969  28.181  1.00  0.00     0.037 A 
ATOM     51  C   UNL A   1      41.905  29.736  29.262  1.00  0.00     0.049 A 
ATOM     52  C   UNL A   1      47.302  28.344  28.618  1.00  0.00     0.074 A 
ATOM     53  C   UNL A   1      41.645  31.012  29.728  1.00  0.00     0.029 A 
ATOM     54  N   UNL A   1      43.285  29.618  29.166  1.00  0.00    -0.354 N 
ATOM     55  N   UNL A   1      46.094  28.809  28.825  1.00  0.00    -0.248 NA
ATOM     56  C   UNL A   1      48.372  29.323  28.857  1.00  0.00     0.031 C 
ATOM     57  C   UNL A   1      42.866  31.681  29.873  1.00  0.00     0.029 A 
ATOM     58  C   UNL A   1      43.889  30.805  29.546  1.00  0.00     0.049 A 
ATOM     59  H   UNL A   1      43.764  28.809  28.871  1.00  0.00     0.167 HD
ATOM     60  C   UNL A   1      46.257  30.122  29.246  1.00  0.00     0.074 A 
ATOM     61  C   UNL A   1      47.683  30.376  29.276  1.00  0.00     0.031 C 
ATOM     62  C   UNL A   1      45.312  31.034  29.576  1.00  0.00     0.037 A 
BRANCH  49  63
ATOM     63  C   UNL A   1      39.502  28.995  29.010  1.00  0.00     0.064 A 
ATOM     64  C   UNL A   1      38.761  29.381  27.881  1.00  0.00     0.173 A 
ATOM     65  C   UNL A   1      38.819  28.875  30.230  1.00  0.00     0.173 A 
ATOM     66  F   UNL A   1      39.367  29.521  26.692  1.00  0.00    -0.203 F 
ATOM     67  C   UNL A   1      37.403  29.670  27.978  1.00  0.00     0.198 A 
ATOM     68  C   UNL A   1      37.453  29.134  30.316  1.00  0.00     0.198 A 
ATOM     69  F   UNL A   1      39.475  28.504  31.339  1.00  0.00    -0.203 F 
ATOM     70  F   UNL A   1      36.730  30.092  26.898  1.00  0.00    -0.200 F 
ATOM     71  C   UNL A   1      36.748  29.541  29.194  1.00  0.00     0.200 A 
ATOM     72  F   UNL A   1      36.819  28.996  31.489  1.00  0.00    -0.200 F 
ATOM     73  F   UNL A   1      35.441  29.817  29.285  1.00  0.00    -0.200 F 
ENDBRANCH  49  63
BRANCH  50  74
ATOM     74  C   UNL A   1      49.166  26.630  28.015  1.00  0.00     0.064 A 
ATOM     75  C   UNL A   1      49.751  26.590  26.743  1.00  0.00     0.173 A 
ATOM     76  C   UNL A   1      49.984  26.350  29.119  1.00  0.00     0.173 A 
ATOM     77  F   UNL A   1      49.005  26.834  25.655  1.00  0.00    -0.203 F 
ATOM     78  C   UNL A   1      51.097  26.266  26.578  1.00  0.00     0.198 A 
ATOM     79  C   UNL A   1      51.336  26.053  28.956  1.00  0.00     0.198 A 
ATOM     80  F   UNL A   1      49.474  26.384  30.359  1.00  0.00    -0.203 F 
ATOM     81  F   UNL A   1      51.621  26.197  25.347  1.00  0.00    -0.200 F 
ATOM     82  C   UNL A   1      51.889  26.004  27.685  1.00  0.00     0.200 A 
ATOM     83  F   UNL A   1      52.103  25.818  30.029  1.00  0.00    -0.200 F 
ATOM     84  F   UNL A   1      53.185  25.701  27.527  1.00  0.00    -0.200 F 
ENDBRANCH  50  74
BRANCH  62  85
ATOM     85  C   UNL A   1      45.789  32.382  30.034  1.00  0.00     0.064 A 
ATOM     86  C   UNL A   1      45.961  33.447  29.138  1.00  0.00     0.173 A 
ATOM     87  C   UNL A   1      46.040  32.620  31.395  1.00  0.00     0.173 A 
ATOM     88  F   UNL A   1      45.749  33.265  27.826  1.00  0.00    -0.203 F 
ATOM     89  C   UNL A   1      46.390  34.693  29.583  1.00  0.00     0.198 A 
ATOM     90  C   UNL A   1      46.441  33.875  31.841  1.00  0.00     0.198 A 
ATOM     91  F   UNL A   1      45.885  31.636  32.293  1.00  0.00    -0.203 F 
ATOM     92  F   UNL A   1      46.594  35.683  28.703  1.00  0.00    -0.200 F 
ATOM     93  C   UNL A   1      46.622  34.909  30.934  1.00  0.00     0.200 A 
ATOM     94  F   UNL A   1      46.651  34.086  33.148  1.00  0.00    -0.200 F 
ATOM     95  F   UNL A   1      47.028  36.113  31.361  1.00  0.00    -0.200 F 
ENDBRANCH  62  85
ENDBRANCH  36  37
ENDBRANCH  28  31
ENDBRANCH  26  27
ENDBRANCH  25  26
ENDBRANCH   1  25
TORSDOF 13
ENDMDL
