MODEL 1
REMARK VINA RESULT:     -11.1      0.000      0.000
REMARK SMILES CC(C)SSC(=O)N1CCC[C@@H]1C(=O)NCCCNC(=O)c1ccc(-c2c3nc(c(-c4c(F)c(F)c(F)c(F)c4F)c4ccc([nH]4)c(-c4c(F)c(F)c(F)c(F)c4F)c4nc(c(-c5c(F)c(F)c(F)c(F)c5F)c5ccc2[nH]5)C=C4)C=C3)cc1
REMARK SMILES IDX 16 1 15 2 13 3 14 4 12 6 8 7 9 8 10 9 11 10 6 11 7 12 5 13
REMARK SMILES IDX 4 14 2 15 1 16 3 17 17 18 18 19 19 20 20 21 21 23 22 24
REMARK SMILES IDX 23 25 84 26 24 27 83 28 25 29 26 30 27 31 77 32 28 33 82 34
REMARK SMILES IDX 76 35 78 36 29 37 81 38 75 39 74 40 30 42 62 43 42 44 61 45
REMARK SMILES IDX 43 46 46 47 60 48 79 49 44 50 45 51 59 53 80 54 47 55 31 56
REMARK SMILES IDX 32 57 40 58 33 59 34 60 38 61 41 62 35 63 36 64 39 65 37 66
REMARK SMILES IDX 63 67 64 68 72 69 65 70 66 71 70 72 73 73 67 74 68 75 71 76
REMARK SMILES IDX 69 77 48 78 49 79 57 80 50 81 51 82 55 83 58 84 52 85 53 86
REMARK SMILES IDX 56 87 54 88
REMARK H PARENT 15 5 19 22 78 41 46 52
REMARK Flexibility Score: inf
ROOT
ATOM      1  C   UNL A   1      36.770  20.426  25.016  1.00  0.00     0.117 C 
ENDROOT
BRANCH   1   2
ATOM      2  N   UNL A   1      36.844  21.500  24.049  1.00  0.00    -0.354 N 
ATOM      3  C   UNL A   1      36.077  22.614  23.894  1.00  0.00     0.242 C 
ATOM      4  O   UNL A   1      36.178  23.209  22.815  1.00  0.00    -0.273 OA
ATOM      5  H   UNL A   1      37.572  21.409  23.392  1.00  0.00     0.163 HD
BRANCH   3   6
ATOM      6  C   UNL A   1      34.989  23.018  24.908  1.00  0.00     0.175 C 
ATOM      7  N   UNL A   1      33.604  22.964  24.444  1.00  0.00    -0.321 N 
ATOM      8  C   UNL A   1      32.885  24.181  24.789  1.00  0.00     0.121 C 
ATOM      9  C   UNL A   1      33.968  25.237  24.926  1.00  0.00     0.024 C 
ATOM     10  C   UNL A   1      35.200  24.462  25.389  1.00  0.00     0.037 C 
BRANCH   7  11
ATOM     11  C   UNL A   1      33.096  21.768  23.965  1.00  0.00     0.292 C 
ATOM     12  O   UNL A   1      32.631  21.663  22.833  1.00  0.00    -0.261 OA
BRANCH  11  13
ATOM     13  S   UNL A   1      33.107  20.408  25.097  1.00  0.00     0.005 SA
BRANCH  13  14
ATOM     14  S   UNL A   1      32.526  18.797  23.937  1.00  0.00    -0.081 SA
BRANCH  14  15
ATOM     15  C   UNL A   1      33.444  17.326  24.563  1.00  0.00     0.052 C 
ATOM     16  C   UNL A   1      32.540  16.391  25.361  1.00  0.00     0.020 C 
ATOM     17  C   UNL A   1      34.211  16.576  23.480  1.00  0.00     0.020 C 
ENDBRANCH  14  15
ENDBRANCH  13  14
ENDBRANCH  11  13
ENDBRANCH   7  11
ENDBRANCH   3   6
ENDBRANCH   1   2
BRANCH   1  18
ATOM     18  C   UNL A   1      38.019  19.558  24.959  1.00  0.00     0.042 C 
BRANCH  18  19
ATOM     19  C   UNL A   1      39.103  20.043  25.907  1.00  0.00     0.118 C 
BRANCH  19  20
ATOM     20  N   UNL A   1      40.252  19.145  25.919  1.00  0.00    -0.352 N 
ATOM     21  C   UNL A   1      41.590  19.438  26.001  1.00  0.00     0.251 C 
ATOM     22  H   UNL A   1      40.037  18.186  25.858  1.00  0.00     0.163 HD
ATOM     23  O   UNL A   1      42.428  18.579  25.753  1.00  0.00    -0.269 OA
BRANCH  21  24
ATOM     24  C   UNL A   1      42.014  20.799  26.382  1.00  0.00     0.039 A 
ATOM     25  C   UNL A   1      42.286  21.082  27.722  1.00  0.00     0.014 A 
ATOM     26  C   UNL A   1      42.132  21.795  25.410  1.00  0.00     0.014 A 
ATOM     27  C   UNL A   1      42.739  22.353  28.079  1.00  0.00     0.010 A 
ATOM     28  C   UNL A   1      42.670  23.028  25.752  1.00  0.00     0.010 A 
ATOM     29  C   UNL A   1      42.965  23.324  27.091  1.00  0.00    -0.014 A 
BRANCH  29  30
ATOM     30  C   UNL A   1      43.473  24.677  27.419  1.00  0.00     0.031 A 
ATOM     31  C   UNL A   1      42.525  25.704  27.974  1.00  0.00     0.074 A 
ATOM     32  C   UNL A   1      44.745  25.009  27.128  1.00  0.00     0.049 A 
ATOM     33  N   UNL A   1      42.709  26.984  28.170  1.00  0.00    -0.248 NA
ATOM     34  C   UNL A   1      41.175  25.231  28.321  1.00  0.00     0.031 C 
ATOM     35  C   UNL A   1      45.747  24.106  26.562  1.00  0.00     0.029 A 
ATOM     36  N   UNL A   1      45.404  26.207  27.245  1.00  0.00    -0.354 N 
ATOM     37  C   UNL A   1      41.494  27.470  28.636  1.00  0.00     0.074 A 
ATOM     38  C   UNL A   1      40.565  26.362  28.640  1.00  0.00     0.031 C 
ATOM     39  C   UNL A   1      46.896  24.780  26.387  1.00  0.00     0.029 A 
ATOM     40  C   UNL A   1      46.695  26.172  26.780  1.00  0.00     0.049 A 
ATOM     41  H   UNL A   1      44.990  27.015  27.626  1.00  0.00     0.167 HD
ATOM     42  C   UNL A   1      41.190  28.724  29.045  1.00  0.00     0.037 A 
ATOM     43  C   UNL A   1      47.606  27.158  26.662  1.00  0.00     0.037 A 
ATOM     44  C   UNL A   1      42.129  29.813  29.058  1.00  0.00     0.049 A 
ATOM     45  C   UNL A   1      47.235  28.551  27.101  1.00  0.00     0.074 A 
ATOM     46  C   UNL A   1      41.937  31.112  29.495  1.00  0.00     0.029 A 
ATOM     47  N   UNL A   1      43.440  29.729  28.610  1.00  0.00    -0.354 N 
ATOM     48  N   UNL A   1      46.100  28.991  27.588  1.00  0.00    -0.248 NA
ATOM     49  C   UNL A   1      48.274  29.583  26.980  1.00  0.00     0.031 C 
ATOM     50  C   UNL A   1      43.114  31.827  29.260  1.00  0.00     0.029 A 
ATOM     51  C   UNL A   1      44.062  30.958  28.743  1.00  0.00     0.049 A 
ATOM     52  H   UNL A   1      43.864  28.916  28.251  1.00  0.00     0.167 HD
ATOM     53  C   UNL A   1      46.301  30.335  27.872  1.00  0.00     0.074 A 
ATOM     54  C   UNL A   1      47.667  30.639  27.502  1.00  0.00     0.031 C 
ATOM     55  C   UNL A   1      45.434  31.234  28.398  1.00  0.00     0.037 A 
BRANCH  42  56
ATOM     56  C   UNL A   1      39.784  28.984  29.506  1.00  0.00     0.064 A 
ATOM     57  C   UNL A   1      38.791  29.442  28.626  1.00  0.00     0.173 A 
ATOM     58  C   UNL A   1      39.415  28.740  30.838  1.00  0.00     0.173 A 
ATOM     59  F   UNL A   1      39.091  29.702  27.344  1.00  0.00    -0.203 F 
ATOM     60  C   UNL A   1      37.493  29.681  29.071  1.00  0.00     0.198 A 
ATOM     61  C   UNL A   1      38.108  28.945  31.270  1.00  0.00     0.198 A 
ATOM     62  F   UNL A   1      40.322  28.296  31.721  1.00  0.00    -0.203 F 
ATOM     63  F   UNL A   1      36.578  30.175  28.225  1.00  0.00    -0.200 F 
ATOM     64  C   UNL A   1      37.150  29.424  30.389  1.00  0.00     0.200 A 
ATOM     65  F   UNL A   1      37.775  28.680  32.541  1.00  0.00    -0.200 F 
ATOM     66  F   UNL A   1      35.899  29.645  30.814  1.00  0.00    -0.200 F 
ENDBRANCH  42  56
BRANCH  43  67
ATOM     67  C   UNL A   1      48.957  26.863  26.116  1.00  0.00     0.064 A 
ATOM     68  C   UNL A   1      49.986  26.406  26.952  1.00  0.00     0.173 A 
ATOM     69  C   UNL A   1      49.251  27.036  24.756  1.00  0.00     0.173 A 
ATOM     70  F   UNL A   1      49.760  26.241  28.263  1.00  0.00    -0.203 F 
ATOM     71  C   UNL A   1      51.264  26.162  26.452  1.00  0.00     0.198 A 
ATOM     72  C   UNL A   1      50.520  26.759  24.252  1.00  0.00     0.198 A 
ATOM     73  F   UNL A   1      48.300  27.460  23.911  1.00  0.00    -0.203 F 
ATOM     74  F   UNL A   1      52.243  25.777  27.283  1.00  0.00    -0.200 F 
ATOM     75  C   UNL A   1      51.529  26.332  25.102  1.00  0.00     0.200 A 
ATOM     76  F   UNL A   1      50.765  26.907  22.943  1.00  0.00    -0.200 F 
ATOM     77  F   UNL A   1      52.756  26.093  24.622  1.00  0.00    -0.200 F 
ENDBRANCH  43  67
BRANCH  55  78
ATOM     78  C   UNL A   1      45.948  32.617  28.682  1.00  0.00     0.064 A 
ATOM     79  C   UNL A   1      46.581  32.942  29.888  1.00  0.00     0.173 A 
ATOM     80  C   UNL A   1      45.872  33.608  27.689  1.00  0.00     0.173 A 
ATOM     81  F   UNL A   1      46.666  32.035  30.873  1.00  0.00    -0.203 F 
ATOM     82  C   UNL A   1      47.105  34.216  30.098  1.00  0.00     0.198 A 
ATOM     83  C   UNL A   1      46.427  34.867  27.889  1.00  0.00     0.198 A 
ATOM     84  F   UNL A   1      45.283  33.343  26.513  1.00  0.00    -0.203 F 
ATOM     85  F   UNL A   1      47.673  34.518  31.274  1.00  0.00    -0.200 F 
ATOM     86  C   UNL A   1      47.039  35.172  29.095  1.00  0.00     0.200 A 
ATOM     87  F   UNL A   1      46.378  35.783  26.912  1.00  0.00    -0.200 F 
ATOM     88  F   UNL A   1      47.563  36.389  29.292  1.00  0.00    -0.200 F 
ENDBRANCH  55  78
ENDBRANCH  29  30
ENDBRANCH  21  24
ENDBRANCH  19  20
ENDBRANCH  18  19
ENDBRANCH   1  18
TORSDOF 14
ENDMDL
MODEL 2
REMARK VINA RESULT:     -11.0      6.235     11.428
REMARK SMILES CC(C)SSC(=O)N1CCC[C@@H]1C(=O)NCCCNC(=O)c1ccc(-c2c3nc(c(-c4c(F)c(F)c(F)c(F)c4F)c4ccc([nH]4)c(-c4c(F)c(F)c(F)c(F)c4F)c4nc(c(-c5c(F)c(F)c(F)c(F)c5F)c5ccc2[nH]5)C=C4)C=C3)cc1
REMARK SMILES IDX 16 1 15 2 13 3 14 4 12 6 8 7 9 8 10 9 11 10 6 11 7 12 5 13
REMARK SMILES IDX 4 14 2 15 1 16 3 17 17 18 18 19 19 20 20 21 21 23 22 24
REMARK SMILES IDX 23 25 84 26 24 27 83 28 25 29 26 30 27 31 77 32 28 33 82 34
REMARK SMILES IDX 76 35 78 36 29 37 81 38 75 39 74 40 30 42 62 43 42 44 61 45
REMARK SMILES IDX 43 46 46 47 60 48 79 49 44 50 45 51 59 53 80 54 47 55 31 56
REMARK SMILES IDX 32 57 40 58 33 59 34 60 38 61 41 62 35 63 36 64 39 65 37 66
REMARK SMILES IDX 63 67 64 68 72 69 65 70 66 71 70 72 73 73 67 74 68 75 71 76
REMARK SMILES IDX 69 77 48 78 49 79 57 80 50 81 51 82 55 83 58 84 52 85 53 86
REMARK SMILES IDX 56 87 54 88
REMARK H PARENT 15 5 19 22 78 41 46 52
REMARK Flexibility Score: inf
ROOT
ATOM      1  C   UNL A   1      31.335  30.087  25.698  1.00  0.00     0.117 C 
ENDROOT
BRANCH   1   2
ATOM      2  N   UNL A   1      32.371  30.027  24.690  1.00  0.00    -0.354 N 
ATOM      3  C   UNL A   1      32.981  28.962  24.101  1.00  0.00     0.242 C 
ATOM      4  O   UNL A   1      34.031  29.193  23.489  1.00  0.00    -0.273 OA
ATOM      5  H   UNL A   1      32.689  30.905  24.377  1.00  0.00     0.163 HD
BRANCH   3   6
ATOM      6  C   UNL A   1      32.523  27.509  24.337  1.00  0.00     0.175 C 
ATOM      7  N   UNL A   1      31.095  27.236  24.189  1.00  0.00    -0.321 N 
ATOM      8  C   UNL A   1      30.587  26.461  25.310  1.00  0.00     0.121 C 
ATOM      9  C   UNL A   1      31.545  26.766  26.448  1.00  0.00     0.024 C 
ATOM     10  C   UNL A   1      32.879  27.048  25.759  1.00  0.00     0.037 C 
BRANCH   7  11
ATOM     11  C   UNL A   1      30.472  27.524  22.985  1.00  0.00     0.292 C 
ATOM     12  O   UNL A   1      30.950  27.183  21.906  1.00  0.00    -0.261 OA
BRANCH  11  13
ATOM     13  S   UNL A   1      28.972  28.456  23.087  1.00  0.00     0.005 SA
BRANCH  13  14
ATOM     14  S   UNL A   1      29.329  30.094  21.874  1.00  0.00    -0.081 SA
BRANCH  14  15
ATOM     15  C   UNL A   1      27.923  31.261  22.123  1.00  0.00     0.052 C 
ATOM     16  C   UNL A   1      27.577  31.426  23.600  1.00  0.00     0.020 C 
ATOM     17  C   UNL A   1      28.119  32.610  21.439  1.00  0.00     0.020 C 
ENDBRANCH  14  15
ENDBRANCH  13  14
ENDBRANCH  11  13
ENDBRANCH   7  11
ENDBRANCH   3   6
ENDBRANCH   1   2
BRANCH   1  18
ATOM     18  C   UNL A   1      31.147  31.512  26.196  1.00  0.00     0.042 C 
BRANCH  18  19
ATOM     19  C   UNL A   1      32.385  32.049  26.894  1.00  0.00     0.118 C 
BRANCH  19  20
ATOM     20  N   UNL A   1      32.240  33.456  27.248  1.00  0.00    -0.352 N 
ATOM     21  C   UNL A   1      32.927  34.200  28.173  1.00  0.00     0.251 C 
ATOM     22  H   UNL A   1      31.546  33.945  26.750  1.00  0.00     0.163 HD
ATOM     23  O   UNL A   1      32.511  35.303  28.512  1.00  0.00    -0.269 OA
BRANCH  21  24
ATOM     24  C   UNL A   1      34.165  33.660  28.767  1.00  0.00     0.039 A 
ATOM     25  C   UNL A   1      35.384  34.283  28.492  1.00  0.00     0.014 A 
ATOM     26  C   UNL A   1      34.116  32.532  29.588  1.00  0.00     0.014 A 
ATOM     27  C   UNL A   1      36.550  33.809  29.094  1.00  0.00     0.010 A 
ATOM     28  C   UNL A   1      35.259  32.120  30.257  1.00  0.00     0.010 A 
ATOM     29  C   UNL A   1      36.490  32.744  30.006  1.00  0.00    -0.014 A 
BRANCH  29  30
ATOM     30  C   UNL A   1      37.697  32.225  30.692  1.00  0.00     0.031 A 
ATOM     31  C   UNL A   1      38.498  31.130  30.042  1.00  0.00     0.074 A 
ATOM     32  C   UNL A   1      38.012  32.660  31.926  1.00  0.00     0.049 A 
ATOM     33  N   UNL A   1      39.478  30.417  30.532  1.00  0.00    -0.248 NA
ATOM     34  C   UNL A   1      38.118  30.766  28.667  1.00  0.00     0.031 C 
ATOM     35  C   UNL A   1      37.293  33.697  32.666  1.00  0.00     0.029 A 
ATOM     36  N   UNL A   1      39.005  32.265  32.786  1.00  0.00    -0.354 N 
ATOM     37  C   UNL A   1      39.812  29.505  29.538  1.00  0.00     0.074 A 
ATOM     38  C   UNL A   1      38.894  29.717  28.441  1.00  0.00     0.031 C 
ATOM     39  C   UNL A   1      37.872  33.861  33.867  1.00  0.00     0.029 A 
ATOM     40  C   UNL A   1      38.969  32.907  33.999  1.00  0.00     0.049 A 
ATOM     41  H   UNL A   1      39.679  31.586  32.555  1.00  0.00     0.167 HD
ATOM     42  C   UNL A   1      40.809  28.590  29.534  1.00  0.00     0.037 A 
ATOM     43  C   UNL A   1      39.722  32.727  35.102  1.00  0.00     0.037 A 
ATOM     44  C   UNL A   1      41.731  28.404  30.623  1.00  0.00     0.049 A 
ATOM     45  C   UNL A   1      40.810  31.685  35.082  1.00  0.00     0.074 A 
ATOM     46  C   UNL A   1      42.805  27.537  30.704  1.00  0.00     0.029 A 
ATOM     47  N   UNL A   1      41.683  29.098  31.824  1.00  0.00    -0.354 N 
ATOM     48  N   UNL A   1      41.152  30.863  34.120  1.00  0.00    -0.248 NA
ATOM     49  C   UNL A   1      41.622  31.550  36.300  1.00  0.00     0.031 C 
ATOM     50  C   UNL A   1      43.373  27.666  31.974  1.00  0.00     0.029 A 
ATOM     51  C   UNL A   1      42.698  28.664  32.659  1.00  0.00     0.049 A 
ATOM     52  H   UNL A   1      41.024  29.795  32.049  1.00  0.00     0.167 HD
ATOM     53  C   UNL A   1      42.241  30.147  34.596  1.00  0.00     0.074 A 
ATOM     54  C   UNL A   1      42.505  30.631  35.935  1.00  0.00     0.031 C 
ATOM     55  C   UNL A   1      42.963  29.181  33.978  1.00  0.00     0.037 A 
BRANCH  42  56
ATOM     56  C   UNL A   1      40.951  27.720  28.319  1.00  0.00     0.064 A 
ATOM     57  C   UNL A   1      40.288  26.488  28.211  1.00  0.00     0.173 A 
ATOM     58  C   UNL A   1      41.733  28.138  27.231  1.00  0.00     0.173 A 
ATOM     59  F   UNL A   1      39.535  26.034  29.225  1.00  0.00    -0.203 F 
ATOM     60  C   UNL A   1      40.432  25.691  27.078  1.00  0.00     0.198 A 
ATOM     61  C   UNL A   1      41.846  27.356  26.085  1.00  0.00     0.198 A 
ATOM     62  F   UNL A   1      42.385  29.310  27.276  1.00  0.00    -0.203 F 
ATOM     63  F   UNL A   1      39.837  24.492  27.024  1.00  0.00    -0.200 F 
ATOM     64  C   UNL A   1      41.204  26.130  26.013  1.00  0.00     0.200 A 
ATOM     65  F   UNL A   1      42.578  27.790  25.049  1.00  0.00    -0.200 F 
ATOM     66  F   UNL A   1      41.334  25.367  24.919  1.00  0.00    -0.200 F 
ENDBRANCH  42  56
BRANCH  43  67
ATOM     67  C   UNL A   1      39.482  33.558  36.312  1.00  0.00     0.064 A 
ATOM     68  C   UNL A   1      40.060  34.829  36.438  1.00  0.00     0.173 A 
ATOM     69  C   UNL A   1      38.679  33.100  37.367  1.00  0.00     0.173 A 
ATOM     70  F   UNL A   1      40.849  35.305  35.464  1.00  0.00    -0.203 F 
ATOM     71  C   UNL A   1      39.867  35.597  37.585  1.00  0.00     0.198 A 
ATOM     72  C   UNL A   1      38.460  33.883  38.498  1.00  0.00     0.198 A 
ATOM     73  F   UNL A   1      38.094  31.895  37.293  1.00  0.00    -0.203 F 
ATOM     74  F   UNL A   1      40.474  36.786  37.701  1.00  0.00    -0.200 F 
ATOM     75  C   UNL A   1      39.062  35.127  38.611  1.00  0.00     0.200 A 
ATOM     76  F   UNL A   1      37.666  33.432  39.479  1.00  0.00    -0.200 F 
ATOM     77  F   UNL A   1      38.874  35.868  39.711  1.00  0.00    -0.200 F 
ENDBRANCH  43  67
BRANCH  55  78
ATOM     78  C   UNL A   1      44.157  28.628  34.703  1.00  0.00     0.064 A 
ATOM     79  C   UNL A   1      44.075  27.484  35.507  1.00  0.00     0.173 A 
ATOM     80  C   UNL A   1      45.420  29.216  34.520  1.00  0.00     0.173 A 
ATOM     81  F   UNL A   1      42.890  26.895  35.726  1.00  0.00    -0.203 F 
ATOM     82  C   UNL A   1      45.212  26.957  36.116  1.00  0.00     0.198 A 
ATOM     83  C   UNL A   1      46.557  28.666  35.100  1.00  0.00     0.198 A 
ATOM     84  F   UNL A   1      45.552  30.307  33.752  1.00  0.00    -0.203 F 
ATOM     85  F   UNL A   1      45.106  25.884  36.912  1.00  0.00    -0.200 F 
ATOM     86  C   UNL A   1      46.452  27.540  35.902  1.00  0.00     0.200 A 
ATOM     87  F   UNL A   1      47.757  29.221  34.877  1.00  0.00    -0.200 F 
ATOM     88  F   UNL A   1      47.547  27.018  36.471  1.00  0.00    -0.200 F 
ENDBRANCH  55  78
ENDBRANCH  29  30
ENDBRANCH  21  24
ENDBRANCH  19  20
ENDBRANCH  18  19
ENDBRANCH   1  18
TORSDOF 14
ENDMDL
MODEL 3
REMARK VINA RESULT:     -11.0      6.258     11.464
REMARK SMILES CC(C)SSC(=O)N1CCC[C@@H]1C(=O)NCCCNC(=O)c1ccc(-c2c3nc(c(-c4c(F)c(F)c(F)c(F)c4F)c4ccc([nH]4)c(-c4c(F)c(F)c(F)c(F)c4F)c4nc(c(-c5c(F)c(F)c(F)c(F)c5F)c5ccc2[nH]5)C=C4)C=C3)cc1
REMARK SMILES IDX 16 1 15 2 13 3 14 4 12 6 8 7 9 8 10 9 11 10 6 11 7 12 5 13
REMARK SMILES IDX 4 14 2 15 1 16 3 17 17 18 18 19 19 20 20 21 21 23 22 24
REMARK SMILES IDX 23 25 84 26 24 27 83 28 25 29 26 30 27 31 77 32 28 33 82 34
REMARK SMILES IDX 76 35 78 36 29 37 81 38 75 39 74 40 30 42 62 43 42 44 61 45
REMARK SMILES IDX 43 46 46 47 60 48 79 49 44 50 45 51 59 53 80 54 47 55 31 56
REMARK SMILES IDX 32 57 40 58 33 59 34 60 38 61 41 62 35 63 36 64 39 65 37 66
REMARK SMILES IDX 63 67 64 68 72 69 65 70 66 71 70 72 73 73 67 74 68 75 71 76
REMARK SMILES IDX 69 77 48 78 49 79 57 80 50 81 51 82 55 83 58 84 52 85 53 86
REMARK SMILES IDX 56 87 54 88
REMARK H PARENT 15 5 19 22 78 41 46 52
REMARK Flexibility Score: inf
ROOT
ATOM      1  C   UNL A   1      31.382  30.150  25.752  1.00  0.00     0.117 C 
ENDROOT
BRANCH   1   2
ATOM      2  N   UNL A   1      32.316  30.078  24.649  1.00  0.00    -0.354 N 
ATOM      3  C   UNL A   1      32.897  29.007  24.042  1.00  0.00     0.242 C 
ATOM      4  O   UNL A   1      33.874  29.242  23.321  1.00  0.00    -0.273 OA
ATOM      5  H   UNL A   1      32.575  30.951  24.274  1.00  0.00     0.163 HD
BRANCH   3   6
ATOM      6  C   UNL A   1      32.508  27.553  24.375  1.00  0.00     0.175 C 
ATOM      7  N   UNL A   1      31.091  27.211  24.275  1.00  0.00    -0.321 N 
ATOM      8  C   UNL A   1      30.640  26.484  25.451  1.00  0.00     0.121 C 
ATOM      9  C   UNL A   1      31.605  26.899  26.548  1.00  0.00     0.024 C 
ATOM     10  C   UNL A   1      32.911  27.196  25.815  1.00  0.00     0.037 C 
BRANCH   7  11
ATOM     11  C   UNL A   1      30.433  27.397  23.070  1.00  0.00     0.292 C 
ATOM     12  O   UNL A   1      30.862  26.934  22.015  1.00  0.00    -0.261 OA
BRANCH  11  13
ATOM     13  S   UNL A   1      28.966  28.384  23.127  1.00  0.00     0.005 SA
BRANCH  13  14
ATOM     14  S   UNL A   1      29.453  30.052  22.003  1.00  0.00    -0.081 SA
BRANCH  14  15
ATOM     15  C   UNL A   1      28.000  31.185  22.070  1.00  0.00     0.052 C 
ATOM     16  C   UNL A   1      27.653  31.580  23.503  1.00  0.00     0.020 C 
ATOM     17  C   UNL A   1      28.135  32.408  21.169  1.00  0.00     0.020 C 
ENDBRANCH  14  15
ENDBRANCH  13  14
ENDBRANCH  11  13
ENDBRANCH   7  11
ENDBRANCH   3   6
ENDBRANCH   1   2
BRANCH   1  18
ATOM     18  C   UNL A   1      31.213  31.585  26.226  1.00  0.00     0.042 C 
BRANCH  18  19
ATOM     19  C   UNL A   1      32.483  32.141  26.850  1.00  0.00     0.118 C 
BRANCH  19  20
ATOM     20  N   UNL A   1      32.313  33.524  27.281  1.00  0.00    -0.352 N 
ATOM     21  C   UNL A   1      32.966  34.218  28.268  1.00  0.00     0.251 C 
ATOM     22  H   UNL A   1      31.629  34.035  26.792  1.00  0.00     0.163 HD
ATOM     23  O   UNL A   1      32.530  35.296  28.659  1.00  0.00    -0.269 OA
BRANCH  21  24
ATOM     24  C   UNL A   1      34.192  33.654  28.865  1.00  0.00     0.039 A 
ATOM     25  C   UNL A   1      35.431  34.209  28.537  1.00  0.00     0.014 A 
ATOM     26  C   UNL A   1      34.112  32.570  29.743  1.00  0.00     0.014 A 
ATOM     27  C   UNL A   1      36.588  33.713  29.140  1.00  0.00     0.010 A 
ATOM     28  C   UNL A   1      35.250  32.142  30.410  1.00  0.00     0.010 A 
ATOM     29  C   UNL A   1      36.501  32.698  30.105  1.00  0.00    -0.014 A 
BRANCH  29  30
ATOM     30  C   UNL A   1      37.698  32.161  30.794  1.00  0.00     0.031 A 
ATOM     31  C   UNL A   1      38.503  31.077  30.131  1.00  0.00     0.074 A 
ATOM     32  C   UNL A   1      38.001  32.570  32.040  1.00  0.00     0.049 A 
ATOM     33  N   UNL A   1      39.475  30.350  30.617  1.00  0.00    -0.248 NA
ATOM     34  C   UNL A   1      38.137  30.742  28.745  1.00  0.00     0.031 C 
ATOM     35  C   UNL A   1      37.277  33.594  32.794  1.00  0.00     0.029 A 
ATOM     36  N   UNL A   1      38.983  32.154  32.903  1.00  0.00    -0.354 N 
ATOM     37  C   UNL A   1      39.817  29.458  29.609  1.00  0.00     0.074 A 
ATOM     38  C   UNL A   1      38.913  29.696  28.506  1.00  0.00     0.031 C 
ATOM     39  C   UNL A   1      37.843  33.732  34.003  1.00  0.00     0.029 A 
ATOM     40  C   UNL A   1      38.936  32.771  34.128  1.00  0.00     0.049 A 
ATOM     41  H   UNL A   1      39.657  31.478  32.665  1.00  0.00     0.167 HD
ATOM     42  C   UNL A   1      40.812  28.540  29.597  1.00  0.00     0.037 A 
ATOM     43  C   UNL A   1      39.676  32.567  35.236  1.00  0.00     0.037 A 
ATOM     44  C   UNL A   1      41.720  28.328  30.692  1.00  0.00     0.049 A 
ATOM     45  C   UNL A   1      40.760  31.521  35.206  1.00  0.00     0.074 A 
ATOM     46  C   UNL A   1      42.791  27.456  30.767  1.00  0.00     0.029 A 
ATOM     47  N   UNL A   1      41.661  28.998  31.906  1.00  0.00    -0.354 N 
ATOM     48  N   UNL A   1      41.110  30.718  34.231  1.00  0.00    -0.248 NA
ATOM     49  C   UNL A   1      41.558  31.358  36.431  1.00  0.00     0.031 C 
ATOM     50  C   UNL A   1      43.345  27.558  32.046  1.00  0.00     0.029 A 
ATOM     51  C   UNL A   1      42.665  28.544  32.743  1.00  0.00     0.049 A 
ATOM     52  H   UNL A   1      41.002  29.692  32.138  1.00  0.00     0.167 HD
ATOM     53  C   UNL A   1      42.192  29.988  34.706  1.00  0.00     0.074 A 
ATOM     54  C   UNL A   1      42.442  30.444  36.057  1.00  0.00     0.031 C 
ATOM     55  C   UNL A   1      42.917  29.032  34.076  1.00  0.00     0.037 A 
BRANCH  42  56
ATOM     56  C   UNL A   1      40.964  27.694  28.366  1.00  0.00     0.064 A 
ATOM     57  C   UNL A   1      41.775  28.091  27.292  1.00  0.00     0.173 A 
ATOM     58  C   UNL A   1      40.316  26.452  28.271  1.00  0.00     0.173 A 
ATOM     59  F   UNL A   1      42.409  29.273  27.324  1.00  0.00    -0.203 F 
ATOM     60  C   UNL A   1      41.903  27.296  26.156  1.00  0.00     0.198 A 
ATOM     61  C   UNL A   1      40.476  25.643  27.150  1.00  0.00     0.198 A 
ATOM     62  F   UNL A   1      39.533  26.019  29.271  1.00  0.00    -0.203 F 
ATOM     63  F   UNL A   1      42.636  27.724  25.120  1.00  0.00    -0.200 F 
ATOM     64  C   UNL A   1      41.261  26.069  26.090  1.00  0.00     0.200 A 
ATOM     65  F   UNL A   1      39.868  24.450  27.095  1.00  0.00    -0.200 F 
ATOM     66  F   UNL A   1      41.392  25.299  25.001  1.00  0.00    -0.200 F 
ENDBRANCH  42  56
BRANCH  43  67
ATOM     67  C   UNL A   1      39.424  33.373  36.459  1.00  0.00     0.064 A 
ATOM     68  C   UNL A   1      38.603  32.885  37.486  1.00  0.00     0.173 A 
ATOM     69  C   UNL A   1      39.989  34.646  36.627  1.00  0.00     0.173 A 
ATOM     70  F   UNL A   1      38.025  31.681  37.366  1.00  0.00    -0.203 F 
ATOM     71  C   UNL A   1      38.334  33.651  38.619  1.00  0.00     0.198 A 
ATOM     72  C   UNL A   1      39.747  35.397  37.775  1.00  0.00     0.198 A 
ATOM     73  F   UNL A   1      40.790  35.155  35.680  1.00  0.00    -0.203 F 
ATOM     74  F   UNL A   1      37.504  33.182  39.560  1.00  0.00    -0.200 F 
ATOM     75  C   UNL A   1      38.911  34.904  38.766  1.00  0.00     0.200 A 
ATOM     76  F   UNL A   1      40.322  36.598  37.921  1.00  0.00    -0.200 F 
ATOM     77  F   UNL A   1      38.656  35.637  39.857  1.00  0.00    -0.200 F 
ENDBRANCH  43  67
BRANCH  55  78
ATOM     78  C   UNL A   1      44.101  28.461  34.803  1.00  0.00     0.064 A 
ATOM     79  C   UNL A   1      45.372  29.046  34.731  1.00  0.00     0.173 A 
ATOM     80  C   UNL A   1      43.933  27.352  35.649  1.00  0.00     0.173 A 
ATOM     81  F   UNL A   1      45.587  30.097  33.925  1.00  0.00    -0.203 F 
ATOM     82  C   UNL A   1      46.437  28.532  35.467  1.00  0.00     0.198 A 
ATOM     83  C   UNL A   1      44.990  26.864  36.409  1.00  0.00     0.198 A 
ATOM     84  F   UNL A   1      42.734  26.762  35.760  1.00  0.00    -0.203 F 
ATOM     85  F   UNL A   1      47.653  29.083  35.355  1.00  0.00    -0.200 F 
ATOM     86  C   UNL A   1      46.242  27.451  36.314  1.00  0.00     0.200 A 
ATOM     87  F   UNL A   1      44.795  25.831  37.241  1.00  0.00    -0.200 F 
ATOM     88  F   UNL A   1      47.264  26.972  37.037  1.00  0.00    -0.200 F 
ENDBRANCH  55  78
ENDBRANCH  29  30
ENDBRANCH  21  24
ENDBRANCH  19  20
ENDBRANCH  18  19
ENDBRANCH   1  18
TORSDOF 14
ENDMDL
