MODEL 1
REMARK VINA RESULT:     -13.7      0.000      0.000
REMARK SMILES CCc1nn(-c2cc(F)c(F)c(F)c2)c(Cl)c1C(=O)NCCCNC(=O)c1ccc(-c2c3nc(c(-c4c(F)c(F)c(F)c(F)c4F)c4ccc([nH]4)c(-c4c(F)c(F)c(F)c(F)c4F)c4nc(c(-c5c(F)c(F)c(F)c(F)c5F)c5ccc2[nH]5)C=C4)C=C3)cc1
REMARK SMILES IDX 22 1 21 2 20 3 18 4 19 5 17 7 3 8 4 9 5 10 15 11 16 12 2 13
REMARK SMILES IDX 1 14 6 15 7 16 14 17 8 18 12 19 9 20 10 21 13 22 11 23 23 24
REMARK SMILES IDX 24 25 25 26 26 28 27 29 28 30 89 31 29 32 88 33 30 34 31 35
REMARK SMILES IDX 32 36 82 37 33 38 87 39 81 40 83 41 34 42 86 43 80 44 79 45
REMARK SMILES IDX 35 47 67 48 47 49 66 50 48 51 51 52 65 53 84 54 49 55 50 56
REMARK SMILES IDX 64 58 85 59 52 60 36 61 37 62 45 63 38 64 39 65 43 66 46 67
REMARK SMILES IDX 40 68 41 69 44 70 42 71 68 72 69 73 77 74 70 75 71 76 75 77
REMARK SMILES IDX 78 78 72 79 73 80 76 81 74 82 53 83 54 84 62 85 55 86 56 87
REMARK SMILES IDX 60 88 63 89 57 90 58 91 61 92 59 93
REMARK H PARENT 20 6 24 27 83 46 51 57
REMARK Flexibility Score: inf
ROOT
ATOM      1  C   UNL A   1      38.013  21.118  25.327  1.00  0.00     0.042 C 
ENDROOT
BRANCH   1   2
ATOM      2  C   UNL A   1      36.569  21.561  25.061  1.00  0.00     0.118 C 
BRANCH   2   3
ATOM      3  N   UNL A   1      35.762  21.366  26.235  1.00  0.00    -0.352 N 
ATOM      4  C   UNL A   1      34.452  21.611  26.525  1.00  0.00     0.256 C 
ATOM      5  O   UNL A   1      34.178  21.430  27.715  1.00  0.00    -0.269 OA
ATOM      6  H   UNL A   1      36.260  20.972  26.988  1.00  0.00     0.163 HD
BRANCH   4   7
ATOM      7  C   UNL A   1      33.417  22.000  25.564  1.00  0.00     0.100 A 
ATOM      8  C   UNL A   1      32.569  21.385  24.568  1.00  0.00     0.077 A 
ATOM      9  N   UNL A   1      31.737  22.281  23.994  1.00  0.00    -0.171 NA
ATOM     10  N   UNL A   1      32.213  23.481  24.377  1.00  0.00    -0.221 N 
ATOM     11  C   UNL A   1      33.093  23.341  25.413  1.00  0.00     0.145 A 
ATOM     12  Cl  UNL A   1      33.534  24.723  26.337  1.00  0.00    -0.061 Cl
BRANCH   8  13
ATOM     13  C   UNL A   1      32.522  20.011  23.958  1.00  0.00     0.056 C 
ATOM     14  C   UNL A   1      33.566  19.013  24.449  1.00  0.00     0.011 C 
ENDBRANCH   8  13
BRANCH  10  15
ATOM     15  C   UNL A   1      31.841  24.660  23.684  1.00  0.00     0.072 A 
ATOM     16  C   UNL A   1      32.786  25.337  22.897  1.00  0.00     0.071 A 
ATOM     17  C   UNL A   1      30.543  25.162  23.817  1.00  0.00     0.071 A 
ATOM     18  C   UNL A   1      32.439  26.545  22.298  1.00  0.00     0.164 A 
ATOM     19  C   UNL A   1      30.236  26.394  23.241  1.00  0.00     0.164 A 
ATOM     20  F   UNL A   1      33.344  27.183  21.544  1.00  0.00    -0.204 F 
ATOM     21  C   UNL A   1      31.177  27.090  22.489  1.00  0.00     0.194 A 
ATOM     22  F   UNL A   1      29.023  26.927  23.447  1.00  0.00    -0.204 F 
ATOM     23  F   UNL A   1      30.874  28.282  21.958  1.00  0.00    -0.200 F 
ENDBRANCH  10  15
ENDBRANCH   4   7
ENDBRANCH   2   3
ENDBRANCH   1   2
BRANCH   1  24
ATOM     24  C   UNL A   1      38.805  22.131  26.135  1.00  0.00     0.118 C 
BRANCH  24  25
ATOM     25  N   UNL A   1      40.250  21.967  25.959  1.00  0.00    -0.352 N 
ATOM     26  C   UNL A   1      41.269  22.864  26.258  1.00  0.00     0.251 C 
ATOM     27  H   UNL A   1      40.539  21.107  25.576  1.00  0.00     0.163 HD
ATOM     28  O   UNL A   1      42.373  22.754  25.786  1.00  0.00    -0.269 OA
BRANCH  26  29
ATOM     29  C   UNL A   1      40.928  23.982  27.159  1.00  0.00     0.039 A 
ATOM     30  C   UNL A   1      41.798  24.363  28.178  1.00  0.00     0.014 A 
ATOM     31  C   UNL A   1      39.829  24.756  26.820  1.00  0.00     0.014 A 
ATOM     32  C   UNL A   1      41.636  25.623  28.753  1.00  0.00     0.010 A 
ATOM     33  C   UNL A   1      39.792  26.061  27.256  1.00  0.00     0.010 A 
ATOM     34  C   UNL A   1      40.670  26.509  28.241  1.00  0.00    -0.014 A 
BRANCH  34  35
ATOM     35  C   UNL A   1      40.649  27.914  28.670  1.00  0.00     0.031 A 
ATOM     36  C   UNL A   1      41.730  28.805  28.140  1.00  0.00     0.074 A 
ATOM     37  C   UNL A   1      39.659  28.491  29.387  1.00  0.00     0.049 A 
ATOM     38  N   UNL A   1      42.678  29.373  28.817  1.00  0.00    -0.248 NA
ATOM     39  C   UNL A   1      41.804  29.055  26.694  1.00  0.00     0.031 C 
ATOM     40  C   UNL A   1      38.368  27.949  29.824  1.00  0.00     0.029 A 
ATOM     41  N   UNL A   1      39.604  29.778  29.832  1.00  0.00    -0.354 N 
ATOM     42  C   UNL A   1      43.399  30.159  27.919  1.00  0.00     0.074 A 
ATOM     43  C   UNL A   1      42.873  29.854  26.611  1.00  0.00     0.031 C 
ATOM     44  C   UNL A   1      37.575  28.949  30.262  1.00  0.00     0.029 A 
ATOM     45  C   UNL A   1      38.372  30.154  30.339  1.00  0.00     0.049 A 
ATOM     46  H   UNL A   1      40.375  30.389  29.795  1.00  0.00     0.167 HD
ATOM     47  C   UNL A   1      44.279  31.112  28.342  1.00  0.00     0.037 A 
ATOM     48  C   UNL A   1      38.030  31.366  30.827  1.00  0.00     0.037 A 
ATOM     49  C   UNL A   1      44.638  30.924  29.724  1.00  0.00     0.049 A 
ATOM     50  C   UNL A   1      39.284  32.021  31.267  1.00  0.00     0.074 A 
ATOM     51  C   UNL A   1      45.246  29.906  30.436  1.00  0.00     0.029 A 
ATOM     52  N   UNL A   1      44.053  31.723  30.674  1.00  0.00    -0.354 N 
ATOM     53  N   UNL A   1      40.006  31.611  32.273  1.00  0.00    -0.248 NA
ATOM     54  C   UNL A   1      39.959  32.904  30.330  1.00  0.00     0.031 C 
ATOM     55  C   UNL A   1      44.545  29.860  31.678  1.00  0.00     0.029 A 
ATOM     56  C   UNL A   1      43.597  30.884  31.659  1.00  0.00     0.049 A 
ATOM     57  H   UNL A   1      43.976  32.705  30.654  1.00  0.00     0.167 HD
ATOM     58  C   UNL A   1      41.317  31.831  31.878  1.00  0.00     0.074 A 
ATOM     59  C   UNL A   1      41.220  32.724  30.726  1.00  0.00     0.031 C 
ATOM     60  C   UNL A   1      42.340  31.060  32.349  1.00  0.00     0.037 A 
BRANCH  47  61
ATOM     61  C   UNL A   1      44.631  32.372  27.592  1.00  0.00     0.064 A 
ATOM     62  C   UNL A   1      43.945  33.592  27.767  1.00  0.00     0.173 A 
ATOM     63  C   UNL A   1      45.849  32.457  26.887  1.00  0.00     0.173 A 
ATOM     64  F   UNL A   1      42.835  33.674  28.511  1.00  0.00    -0.203 F 
ATOM     65  C   UNL A   1      44.435  34.802  27.274  1.00  0.00     0.198 A 
ATOM     66  C   UNL A   1      46.364  33.679  26.439  1.00  0.00     0.198 A 
ATOM     67  F   UNL A   1      46.603  31.365  26.688  1.00  0.00    -0.203 F 
ATOM     68  F   UNL A   1      43.746  35.931  27.491  1.00  0.00    -0.200 F 
ATOM     69  C   UNL A   1      45.657  34.850  26.634  1.00  0.00     0.200 A 
ATOM     70  F   UNL A   1      47.578  33.723  25.871  1.00  0.00    -0.200 F 
ATOM     71  F   UNL A   1      46.170  36.027  26.253  1.00  0.00    -0.200 F 
ENDBRANCH  47  61
BRANCH  48  72
ATOM     72  C   UNL A   1      36.751  32.087  30.657  1.00  0.00     0.064 A 
ATOM     73  C   UNL A   1      36.515  32.921  29.545  1.00  0.00     0.173 A 
ATOM     74  C   UNL A   1      35.858  32.208  31.733  1.00  0.00     0.173 A 
ATOM     75  F   UNL A   1      37.339  32.914  28.487  1.00  0.00    -0.203 F 
ATOM     76  C   UNL A   1      35.483  33.858  29.537  1.00  0.00     0.198 A 
ATOM     77  C   UNL A   1      34.832  33.155  31.728  1.00  0.00     0.198 A 
ATOM     78  F   UNL A   1      36.027  31.465  32.835  1.00  0.00    -0.203 F 
ATOM     79  F   UNL A   1      35.340  34.680  28.488  1.00  0.00    -0.200 F 
ATOM     80  C   UNL A   1      34.657  33.992  30.638  1.00  0.00     0.200 A 
ATOM     81  F   UNL A   1      34.056  33.302  32.810  1.00  0.00    -0.200 F 
ATOM     82  F   UNL A   1      33.724  34.954  30.666  1.00  0.00    -0.200 F 
ENDBRANCH  48  72
BRANCH  60  83
ATOM     83  C   UNL A   1      42.061  30.130  33.498  1.00  0.00     0.064 A 
ATOM     84  C   UNL A   1      42.377  30.556  34.796  1.00  0.00     0.173 A 
ATOM     85  C   UNL A   1      41.642  28.796  33.346  1.00  0.00     0.173 A 
ATOM     86  F   UNL A   1      42.834  31.801  35.001  1.00  0.00    -0.203 F 
ATOM     87  C   UNL A   1      42.279  29.694  35.885  1.00  0.00     0.198 A 
ATOM     88  C   UNL A   1      41.509  27.946  34.443  1.00  0.00     0.198 A 
ATOM     89  F   UNL A   1      41.418  28.277  32.134  1.00  0.00    -0.203 F 
ATOM     90  F   UNL A   1      42.642  30.117  37.105  1.00  0.00    -0.200 F 
ATOM     91  C   UNL A   1      41.836  28.393  35.711  1.00  0.00     0.200 A 
ATOM     92  F   UNL A   1      41.100  26.680  34.267  1.00  0.00    -0.200 F 
ATOM     93  F   UNL A   1      41.751  27.563  36.761  1.00  0.00    -0.200 F 
ENDBRANCH  60  83
ENDBRANCH  34  35
ENDBRANCH  26  29
ENDBRANCH  24  25
ENDBRANCH   1  24
TORSDOF 12
ENDMDL
MODEL 2
REMARK VINA RESULT:     -13.6      3.711      8.981
REMARK SMILES CCc1nn(-c2cc(F)c(F)c(F)c2)c(Cl)c1C(=O)NCCCNC(=O)c1ccc(-c2c3nc(c(-c4c(F)c(F)c(F)c(F)c4F)c4ccc([nH]4)c(-c4c(F)c(F)c(F)c(F)c4F)c4nc(c(-c5c(F)c(F)c(F)c(F)c5F)c5ccc2[nH]5)C=C4)C=C3)cc1
REMARK SMILES IDX 22 1 21 2 20 3 18 4 19 5 17 7 3 8 4 9 5 10 15 11 16 12 2 13
REMARK SMILES IDX 1 14 6 15 7 16 14 17 8 18 12 19 9 20 10 21 13 22 11 23 23 24
REMARK SMILES IDX 24 25 25 26 26 28 27 29 28 30 89 31 29 32 88 33 30 34 31 35
REMARK SMILES IDX 32 36 82 37 33 38 87 39 81 40 83 41 34 42 86 43 80 44 79 45
REMARK SMILES IDX 35 47 67 48 47 49 66 50 48 51 51 52 65 53 84 54 49 55 50 56
REMARK SMILES IDX 64 58 85 59 52 60 36 61 37 62 45 63 38 64 39 65 43 66 46 67
REMARK SMILES IDX 40 68 41 69 44 70 42 71 68 72 69 73 77 74 70 75 71 76 75 77
REMARK SMILES IDX 78 78 72 79 73 80 76 81 74 82 53 83 54 84 62 85 55 86 56 87
REMARK SMILES IDX 60 88 63 89 57 90 58 91 61 92 59 93
REMARK H PARENT 20 6 24 27 83 46 51 57
REMARK Flexibility Score: inf
ROOT
ATOM      1  C   UNL A   1      32.764  29.314  27.239  1.00  0.00     0.042 C 
ENDROOT
BRANCH   1   2
ATOM      2  C   UNL A   1      33.126  27.870  26.867  1.00  0.00     0.118 C 
BRANCH   2   3
ATOM      3  N   UNL A   1      31.957  27.034  26.911  1.00  0.00    -0.352 N 
ATOM      4  C   UNL A   1      31.619  25.861  26.303  1.00  0.00     0.256 C 
ATOM      5  O   UNL A   1      30.443  25.537  26.497  1.00  0.00    -0.269 OA
ATOM      6  H   UNL A   1      31.252  27.382  27.504  1.00  0.00     0.163 HD
BRANCH   4   7
ATOM      7  C   UNL A   1      32.520  25.001  25.532  1.00  0.00     0.100 A 
ATOM      8  C   UNL A   1      33.226  25.016  24.271  1.00  0.00     0.077 A 
ATOM      9  N   UNL A   1      33.980  23.908  24.104  1.00  0.00    -0.171 NA
ATOM     10  N   UNL A   1      33.565  23.066  25.069  1.00  0.00    -0.221 N 
ATOM     11  C   UNL A   1      32.828  23.734  26.007  1.00  0.00     0.145 A 
ATOM     12  Cl  UNL A   1      32.521  22.988  27.526  1.00  0.00    -0.061 Cl
BRANCH   8  13
ATOM     13  C   UNL A   1      33.185  25.928  23.076  1.00  0.00     0.056 C 
ATOM     14  C   UNL A   1      33.593  27.378  23.313  1.00  0.00     0.011 C 
ENDBRANCH   8  13
BRANCH  10  15
ATOM     15  C   UNL A   1      33.848  21.679  24.990  1.00  0.00     0.072 A 
ATOM     16  C   UNL A   1      35.174  21.229  25.086  1.00  0.00     0.071 A 
ATOM     17  C   UNL A   1      32.806  20.770  24.781  1.00  0.00     0.071 A 
ATOM     18  C   UNL A   1      35.452  19.876  24.911  1.00  0.00     0.164 A 
ATOM     19  C   UNL A   1      33.118  19.428  24.567  1.00  0.00     0.164 A 
ATOM     20  F   UNL A   1      36.719  19.452  25.010  1.00  0.00    -0.204 F 
ATOM     21  C   UNL A   1      34.433  18.978  24.625  1.00  0.00     0.194 A 
ATOM     22  F   UNL A   1      32.133  18.569  24.269  1.00  0.00    -0.204 F 
ATOM     23  F   UNL A   1      34.719  17.688  24.399  1.00  0.00    -0.200 F 
ENDBRANCH  10  15
ENDBRANCH   4   7
ENDBRANCH   2   3
ENDBRANCH   1   2
BRANCH   1  24
ATOM     24  C   UNL A   1      33.904  30.289  27.005  1.00  0.00     0.118 C 
BRANCH  24  25
ATOM     25  N   UNL A   1      33.933  31.354  28.011  1.00  0.00    -0.352 N 
ATOM     26  C   UNL A   1      34.948  31.678  28.902  1.00  0.00     0.251 C 
ATOM     27  H   UNL A   1      33.125  31.914  28.064  1.00  0.00     0.163 HD
ATOM     28  O   UNL A   1      34.745  32.353  29.881  1.00  0.00    -0.269 OA
BRANCH  26  29
ATOM     29  C   UNL A   1      36.287  31.130  28.615  1.00  0.00     0.039 A 
ATOM     30  C   UNL A   1      37.431  31.754  29.108  1.00  0.00     0.014 A 
ATOM     31  C   UNL A   1      36.345  29.875  28.027  1.00  0.00     0.014 A 
ATOM     32  C   UNL A   1      38.621  31.028  29.143  1.00  0.00     0.010 A 
ATOM     33  C   UNL A   1      37.469  29.108  28.237  1.00  0.00     0.010 A 
ATOM     34  C   UNL A   1      38.627  29.671  28.771  1.00  0.00    -0.014 A 
BRANCH  34  35
ATOM     35  C   UNL A   1      39.806  28.834  29.030  1.00  0.00     0.031 A 
ATOM     36  C   UNL A   1      40.159  28.578  30.462  1.00  0.00     0.074 A 
ATOM     37  C   UNL A   1      40.508  28.170  28.085  1.00  0.00     0.049 A 
ATOM     38  N   UNL A   1      41.216  28.984  31.094  1.00  0.00    -0.248 NA
ATOM     39  C   UNL A   1      39.217  27.832  31.308  1.00  0.00     0.031 C 
ATOM     40  C   UNL A   1      40.253  28.020  26.648  1.00  0.00     0.029 A 
ATOM     41  N   UNL A   1      41.621  27.405  28.268  1.00  0.00    -0.354 N 
ATOM     42  C   UNL A   1      41.150  28.447  32.378  1.00  0.00     0.074 A 
ATOM     43  C   UNL A   1      39.854  27.822  32.483  1.00  0.00     0.031 C 
ATOM     44  C   UNL A   1      41.038  27.046  26.142  1.00  0.00     0.029 A 
ATOM     45  C   UNL A   1      41.990  26.662  27.160  1.00  0.00     0.049 A 
ATOM     46  H   UNL A   1      42.120  27.383  29.116  1.00  0.00     0.167 HD
ATOM     47  C   UNL A   1      42.232  28.435  33.210  1.00  0.00     0.037 A 
ATOM     48  C   UNL A   1      43.034  25.808  27.065  1.00  0.00     0.037 A 
ATOM     49  C   UNL A   1      43.251  29.350  32.765  1.00  0.00     0.049 A 
ATOM     50  C   UNL A   1      44.023  26.225  28.088  1.00  0.00     0.074 A 
ATOM     51  C   UNL A   1      43.301  30.717  32.560  1.00  0.00     0.029 A 
ATOM     52  N   UNL A   1      44.348  28.851  32.109  1.00  0.00    -0.354 N 
ATOM     53  N   UNL A   1      44.691  27.343  28.041  1.00  0.00    -0.248 NA
ATOM     54  C   UNL A   1      43.976  25.576  29.387  1.00  0.00     0.031 C 
ATOM     55  C   UNL A   1      44.085  30.880  31.379  1.00  0.00     0.029 A 
ATOM     56  C   UNL A   1      44.502  29.611  30.977  1.00  0.00     0.049 A 
ATOM     57  H   UNL A   1      44.914  28.097  32.395  1.00  0.00     0.167 HD
ATOM     58  C   UNL A   1      44.786  27.752  29.362  1.00  0.00     0.074 A 
ATOM     59  C   UNL A   1      44.425  26.576  30.149  1.00  0.00     0.031 C 
ATOM     60  C   UNL A   1      44.885  29.072  29.693  1.00  0.00     0.037 A 
BRANCH  47  61
ATOM     61  C   UNL A   1      42.493  27.414  34.289  1.00  0.00     0.064 A 
ATOM     62  C   UNL A   1      41.894  27.469  35.564  1.00  0.00     0.173 A 
ATOM     63  C   UNL A   1      43.133  26.199  33.971  1.00  0.00     0.173 A 
ATOM     64  F   UNL A   1      41.160  28.519  35.952  1.00  0.00    -0.203 F 
ATOM     65  C   UNL A   1      41.933  26.395  36.454  1.00  0.00     0.198 A 
ATOM     66  C   UNL A   1      43.126  25.106  34.844  1.00  0.00     0.198 A 
ATOM     67  F   UNL A   1      43.710  26.022  32.772  1.00  0.00    -0.203 F 
ATOM     68  F   UNL A   1      41.327  26.502  37.645  1.00  0.00    -0.200 F 
ATOM     69  C   UNL A   1      42.525  25.205  36.085  1.00  0.00     0.200 A 
ATOM     70  F   UNL A   1      43.652  23.936  34.453  1.00  0.00    -0.200 F 
ATOM     71  F   UNL A   1      42.472  24.145  36.903  1.00  0.00    -0.200 F 
ENDBRANCH  47  61
BRANCH  48  72
ATOM     72  C   UNL A   1      43.083  24.507  26.366  1.00  0.00     0.064 A 
ATOM     73  C   UNL A   1      42.579  23.331  26.957  1.00  0.00     0.173 A 
ATOM     74  C   UNL A   1      43.899  24.342  25.236  1.00  0.00     0.173 A 
ATOM     75  F   UNL A   1      41.829  23.381  28.068  1.00  0.00    -0.203 F 
ATOM     76  C   UNL A   1      42.918  22.065  26.480  1.00  0.00     0.198 A 
ATOM     77  C   UNL A   1      44.247  23.073  24.766  1.00  0.00     0.198 A 
ATOM     78  F   UNL A   1      44.435  25.410  24.629  1.00  0.00    -0.203 F 
ATOM     79  F   UNL A   1      42.474  20.973  27.117  1.00  0.00    -0.200 F 
ATOM     80  C   UNL A   1      43.772  21.937  25.399  1.00  0.00     0.200 A 
ATOM     81  F   UNL A   1      45.100  22.955  23.740  1.00  0.00    -0.200 F 
ATOM     82  F   UNL A   1      44.170  20.722  24.998  1.00  0.00    -0.200 F 
ENDBRANCH  48  72
BRANCH  60  83
ATOM     83  C   UNL A   1      45.146  30.065  28.592  1.00  0.00     0.064 A 
ATOM     84  C   UNL A   1      46.446  30.564  28.435  1.00  0.00     0.173 A 
ATOM     85  C   UNL A   1      44.137  30.644  27.801  1.00  0.00     0.173 A 
ATOM     86  F   UNL A   1      47.444  30.092  29.199  1.00  0.00    -0.203 F 
ATOM     87  C   UNL A   1      46.725  31.588  27.534  1.00  0.00     0.198 A 
ATOM     88  C   UNL A   1      44.425  31.644  26.873  1.00  0.00     0.198 A 
ATOM     89  F   UNL A   1      42.854  30.300  27.957  1.00  0.00    -0.203 F 
ATOM     90  F   UNL A   1      47.970  32.081  27.449  1.00  0.00    -0.200 F 
ATOM     91  C   UNL A   1      45.718  32.121  26.746  1.00  0.00     0.200 A 
ATOM     92  F   UNL A   1      43.443  32.172  26.127  1.00  0.00    -0.200 F 
ATOM     93  F   UNL A   1      45.988  33.114  25.886  1.00  0.00    -0.200 F 
ENDBRANCH  60  83
ENDBRANCH  34  35
ENDBRANCH  26  29
ENDBRANCH  24  25
ENDBRANCH   1  24
TORSDOF 12
ENDMDL
MODEL 3
REMARK VINA RESULT:     -13.5      6.668     13.321
REMARK SMILES CCc1nn(-c2cc(F)c(F)c(F)c2)c(Cl)c1C(=O)NCCCNC(=O)c1ccc(-c2c3nc(c(-c4c(F)c(F)c(F)c(F)c4F)c4ccc([nH]4)c(-c4c(F)c(F)c(F)c(F)c4F)c4nc(c(-c5c(F)c(F)c(F)c(F)c5F)c5ccc2[nH]5)C=C4)C=C3)cc1
REMARK SMILES IDX 22 1 21 2 20 3 18 4 19 5 17 7 3 8 4 9 5 10 15 11 16 12 2 13
REMARK SMILES IDX 1 14 6 15 7 16 14 17 8 18 12 19 9 20 10 21 13 22 11 23 23 24
REMARK SMILES IDX 24 25 25 26 26 28 27 29 28 30 89 31 29 32 88 33 30 34 31 35
REMARK SMILES IDX 32 36 82 37 33 38 87 39 81 40 83 41 34 42 86 43 80 44 79 45
REMARK SMILES IDX 35 47 67 48 47 49 66 50 48 51 51 52 65 53 84 54 49 55 50 56
REMARK SMILES IDX 64 58 85 59 52 60 36 61 37 62 45 63 38 64 39 65 43 66 46 67
REMARK SMILES IDX 40 68 41 69 44 70 42 71 68 72 69 73 77 74 70 75 71 76 75 77
REMARK SMILES IDX 78 78 72 79 73 80 76 81 74 82 53 83 54 84 62 85 55 86 56 87
REMARK SMILES IDX 60 88 63 89 57 90 58 91 61 92 59 93
REMARK H PARENT 20 6 24 27 83 46 51 57
REMARK Flexibility Score: inf
ROOT
ATOM      1  C   UNL A   1      42.248  39.697  27.161  1.00  0.00     0.042 C 
ENDROOT
BRANCH   1   2
ATOM      2  C   UNL A   1      42.713  40.449  25.908  1.00  0.00     0.118 C 
BRANCH   2   3
ATOM      3  N   UNL A   1      43.312  41.704  26.272  1.00  0.00    -0.352 N 
ATOM      4  C   UNL A   1      44.097  42.598  25.605  1.00  0.00     0.256 C 
ATOM      5  O   UNL A   1      44.529  43.499  26.331  1.00  0.00    -0.269 OA
ATOM      6  H   UNL A   1      43.115  41.975  27.198  1.00  0.00     0.163 HD
BRANCH   4   7
ATOM      7  C   UNL A   1      44.393  42.579  24.170  1.00  0.00     0.100 A 
ATOM      8  C   UNL A   1      45.531  42.412  23.295  1.00  0.00     0.077 A 
ATOM      9  N   UNL A   1      45.173  42.449  21.993  1.00  0.00    -0.171 NA
ATOM     10  N   UNL A   1      43.908  42.911  22.001  1.00  0.00    -0.221 N 
ATOM     11  C   UNL A   1      43.380  42.847  23.260  1.00  0.00     0.145 A 
ATOM     12  Cl  UNL A   1      41.680  42.998  23.469  1.00  0.00    -0.061 Cl
BRANCH   8  13
ATOM     13  C   UNL A   1      47.014  42.347  23.532  1.00  0.00     0.056 C 
ATOM     14  C   UNL A   1      47.909  42.739  22.360  1.00  0.00     0.011 C 
ENDBRANCH   8  13
BRANCH  10  15
ATOM     15  C   UNL A   1      43.324  43.437  20.821  1.00  0.00     0.072 A 
ATOM     16  C   UNL A   1      43.981  44.451  20.107  1.00  0.00     0.071 A 
ATOM     17  C   UNL A   1      42.079  42.965  20.395  1.00  0.00     0.071 A 
ATOM     18  C   UNL A   1      43.355  45.027  19.005  1.00  0.00     0.164 A 
ATOM     19  C   UNL A   1      41.457  43.590  19.314  1.00  0.00     0.164 A 
ATOM     20  F   UNL A   1      43.990  45.991  18.325  1.00  0.00    -0.204 F 
ATOM     21  C   UNL A   1      42.085  44.620  18.622  1.00  0.00     0.194 A 
ATOM     22  F   UNL A   1      40.222  43.208  18.962  1.00  0.00    -0.204 F 
ATOM     23  F   UNL A   1      41.468  45.223  17.597  1.00  0.00    -0.200 F 
ENDBRANCH  10  15
ENDBRANCH   4   7
ENDBRANCH   2   3
ENDBRANCH   1   2
BRANCH   1  24
ATOM     24  C   UNL A   1      42.360  38.189  27.023  1.00  0.00     0.118 C 
BRANCH  24  25
ATOM     25  N   UNL A   1      43.698  37.773  26.593  1.00  0.00    -0.352 N 
ATOM     26  C   UNL A   1      44.610  36.961  27.256  1.00  0.00     0.251 C 
ATOM     27  H   UNL A   1      43.991  38.116  25.718  1.00  0.00     0.163 HD
ATOM     28  O   UNL A   1      45.779  36.946  26.963  1.00  0.00    -0.269 OA
BRANCH  26  29
ATOM     29  C   UNL A   1      44.086  36.139  28.363  1.00  0.00     0.039 A 
ATOM     30  C   UNL A   1      43.848  36.702  29.615  1.00  0.00     0.014 A 
ATOM     31  C   UNL A   1      43.650  34.860  28.052  1.00  0.00     0.014 A 
ATOM     32  C   UNL A   1      43.021  36.017  30.506  1.00  0.00     0.010 A 
ATOM     33  C   UNL A   1      42.692  34.285  28.855  1.00  0.00     0.010 A 
ATOM     34  C   UNL A   1      42.380  34.833  30.098  1.00  0.00    -0.014 A 
BRANCH  34  35
ATOM     35  C   UNL A   1      41.327  34.235  30.930  1.00  0.00     0.031 A 
ATOM     36  C   UNL A   1      41.676  33.921  32.352  1.00  0.00     0.074 A 
ATOM     37  C   UNL A   1      40.039  34.076  30.552  1.00  0.00     0.049 A 
ATOM     38  N   UNL A   1      41.757  32.749  32.898  1.00  0.00    -0.248 NA
ATOM     39  C   UNL A   1      42.024  35.022  33.261  1.00  0.00     0.031 C 
ATOM     40  C   UNL A   1      39.348  34.516  29.335  1.00  0.00     0.029 A 
ATOM     41  N   UNL A   1      39.032  33.505  31.272  1.00  0.00    -0.354 N 
ATOM     42  C   UNL A   1      42.038  32.951  34.248  1.00  0.00     0.074 A 
ATOM     43  C   UNL A   1      42.282  34.365  34.397  1.00  0.00     0.031 C 
ATOM     44  C   UNL A   1      38.013  34.402  29.498  1.00  0.00     0.029 A 
ATOM     45  C   UNL A   1      37.771  33.687  30.732  1.00  0.00     0.049 A 
ATOM     46  H   UNL A   1      39.188  33.006  32.106  1.00  0.00     0.167 HD
ATOM     47  C   UNL A   1      41.906  31.953  35.169  1.00  0.00     0.037 A 
ATOM     48  C   UNL A   1      36.598  33.249  31.240  1.00  0.00     0.037 A 
ATOM     49  C   UNL A   1      41.841  30.659  34.540  1.00  0.00     0.049 A 
ATOM     50  C   UNL A   1      36.913  32.089  32.107  1.00  0.00     0.074 A 
ATOM     51  C   UNL A   1      42.694  29.933  33.730  1.00  0.00     0.029 A 
ATOM     52  N   UNL A   1      40.618  30.050  34.407  1.00  0.00    -0.354 N 
ATOM     53  N   UNL A   1      37.361  30.948  31.663  1.00  0.00    -0.248 NA
ATOM     54  C   UNL A   1      37.112  32.331  33.527  1.00  0.00     0.031 C 
ATOM     55  C   UNL A   1      41.841  29.301  32.775  1.00  0.00     0.029 A 
ATOM     56  C   UNL A   1      40.528  29.642  33.100  1.00  0.00     0.049 A 
ATOM     57  H   UNL A   1      39.940  29.928  35.111  1.00  0.00     0.167 HD
ATOM     58  C   UNL A   1      38.259  30.523  32.630  1.00  0.00     0.074 A 
ATOM     59  C   UNL A   1      37.982  31.356  33.796  1.00  0.00     0.031 C 
ATOM     60  C   UNL A   1      39.319  29.724  32.313  1.00  0.00     0.037 A 
BRANCH  47  61
ATOM     61  C   UNL A   1      41.579  32.147  36.628  1.00  0.00     0.064 A 
ATOM     62  C   UNL A   1      42.518  31.955  37.662  1.00  0.00     0.173 A 
ATOM     63  C   UNL A   1      40.390  32.807  37.003  1.00  0.00     0.173 A 
ATOM     64  F   UNL A   1      43.732  31.444  37.424  1.00  0.00    -0.203 F 
ATOM     65  C   UNL A   1      42.287  32.385  38.969  1.00  0.00     0.198 A 
ATOM     66  C   UNL A   1      40.184  33.283  38.302  1.00  0.00     0.198 A 
ATOM     67  F   UNL A   1      39.438  33.072  36.094  1.00  0.00    -0.203 F 
ATOM     68  F   UNL A   1      43.229  32.191  39.904  1.00  0.00    -0.200 F 
ATOM     69  C   UNL A   1      41.133  33.073  39.284  1.00  0.00     0.200 A 
ATOM     70  F   UNL A   1      39.086  34.000  38.583  1.00  0.00    -0.200 F 
ATOM     71  F   UNL A   1      40.962  33.571  40.515  1.00  0.00    -0.200 F 
ENDBRANCH  47  61
BRANCH  48  72
ATOM     72  C   UNL A   1      35.296  33.949  31.256  1.00  0.00     0.064 A 
ATOM     73  C   UNL A   1      34.413  33.892  30.159  1.00  0.00     0.173 A 
ATOM     74  C   UNL A   1      35.033  34.931  32.224  1.00  0.00     0.173 A 
ATOM     75  F   UNL A   1      34.607  33.021  29.159  1.00  0.00    -0.203 F 
ATOM     76  C   UNL A   1      33.365  34.801  30.013  1.00  0.00     0.198 A 
ATOM     77  C   UNL A   1      33.991  35.847  32.070  1.00  0.00     0.198 A 
ATOM     78  F   UNL A   1      35.839  35.063  33.287  1.00  0.00    -0.203 F 
ATOM     79  F   UNL A   1      32.595  34.756  28.918  1.00  0.00    -0.200 F 
ATOM     80  C   UNL A   1      33.170  35.794  30.956  1.00  0.00     0.200 A 
ATOM     81  F   UNL A   1      33.827  36.826  32.970  1.00  0.00    -0.200 F 
ATOM     82  F   UNL A   1      32.221  36.721  30.769  1.00  0.00    -0.200 F 
ENDBRANCH  48  72
BRANCH  60  83
ATOM     83  C   UNL A   1      39.359  29.102  30.943  1.00  0.00     0.064 A 
ATOM     84  C   UNL A   1      38.990  27.756  30.808  1.00  0.00     0.173 A 
ATOM     85  C   UNL A   1      39.889  29.738  29.806  1.00  0.00     0.173 A 
ATOM     86  F   UNL A   1      38.529  27.077  31.870  1.00  0.00    -0.203 F 
ATOM     87  C   UNL A   1      39.140  27.081  29.599  1.00  0.00     0.198 A 
ATOM     88  C   UNL A   1      40.005  29.071  28.587  1.00  0.00     0.198 A 
ATOM     89  F   UNL A   1      40.360  30.988  29.872  1.00  0.00    -0.203 F 
ATOM     90  F   UNL A   1      38.829  25.780  29.519  1.00  0.00    -0.200 F 
ATOM     91  C   UNL A   1      39.638  27.741  28.487  1.00  0.00     0.200 A 
ATOM     92  F   UNL A   1      40.507  29.707  27.518  1.00  0.00    -0.200 F 
ATOM     93  F   UNL A   1      39.790  27.085  27.327  1.00  0.00    -0.200 F 
ENDBRANCH  60  83
ENDBRANCH  34  35
ENDBRANCH  26  29
ENDBRANCH  24  25
ENDBRANCH   1  24
TORSDOF 12
ENDMDL
