MODEL 1
REMARK VINA RESULT:     -12.4      0.000      0.000
REMARK SMILES CC[C@@](C)(NC(=O)/C=C/c1cccc(F)c1)C(=O)NCCCNC(=O)c1ccc(-c2c3nc(c(-c4c(F)c(F)c(F)c(F)c4F)c4ccc([nH]4)c(-c4c(F)c(F)c(F)c(F)c4F)c4nc(c(-c5c(F)c(F)c(F)c(F)c5F)c5ccc2[nH]5)C=C4)C=C3)cc1
REMARK SMILES IDX 20 1 19 2 17 3 18 4 3 6 4 7 2 8 1 9 5 10 6 11 7 13 8 14 9 15
REMARK SMILES IDX 10 16 11 17 16 18 12 19 14 20 13 21 15 22 21 23 22 24 23 25
REMARK SMILES IDX 24 26 25 28 26 29 27 30 88 31 28 32 87 33 29 34 30 35 31 36
REMARK SMILES IDX 81 37 32 38 86 39 80 40 82 41 33 42 85 43 79 44 78 45 34 47
REMARK SMILES IDX 66 48 46 49 65 50 47 51 50 52 64 53 83 54 48 55 49 56 63 58
REMARK SMILES IDX 84 59 51 60 35 61 36 62 44 63 37 64 38 65 42 66 45 67 39 68
REMARK SMILES IDX 40 69 43 70 41 71 67 72 68 73 76 74 69 75 70 76 74 77 77 78
REMARK SMILES IDX 71 79 72 80 75 81 73 82 52 83 53 84 61 85 54 86 55 87 59 88
REMARK SMILES IDX 62 89 56 90 57 91 60 92 58 93
REMARK H PARENT 19 5 5 12 23 27 82 46 50 57
REMARK Flexibility Score: inf
ROOT
ATOM      1  C   UNL A   1      31.527  30.774  26.045  1.00  0.00     0.117 C 
ENDROOT
BRANCH   1   2
ATOM      2  N   UNL A   1      30.860  30.476  24.788  1.00  0.00    -0.354 N 
ATOM      3  C   UNL A   1      30.850  29.375  23.976  1.00  0.00     0.245 C 
ATOM      4  O   UNL A   1      29.917  29.328  23.168  1.00  0.00    -0.272 OA
ATOM      5  H   UNL A   1      30.301  31.214  24.454  1.00  0.00     0.163 HD
BRANCH   3   6
ATOM      6  C   UNL A   1      31.839  28.180  24.146  1.00  0.00     0.116 C 
ATOM      7  C   UNL A   1      31.580  27.255  22.930  1.00  0.00     0.045 C 
BRANCH   6   8
ATOM      8  C   UNL A   1      33.359  28.537  24.128  1.00  0.00     0.035 C 
ATOM      9  C   UNL A   1      34.055  28.674  22.779  1.00  0.00     0.007 C 
ENDBRANCH   6   8
BRANCH   6  10
ATOM     10  N   UNL A   1      31.597  27.420  25.394  1.00  0.00    -0.338 N 
ATOM     11  C   UNL A   1      31.858  26.122  25.725  1.00  0.00     0.244 C 
ATOM     12  H   UNL A   1      31.171  27.943  26.112  1.00  0.00     0.164 HD
ATOM     13  O   UNL A   1      31.256  25.626  26.677  1.00  0.00    -0.270 OA
BRANCH  11  14
ATOM     14  C   UNL A   1      33.015  25.378  25.161  1.00  0.00     0.072 C 
ATOM     15  C   UNL A   1      34.261  25.247  25.635  1.00  0.00     0.014 C 
BRANCH  15  16
ATOM     16  C   UNL A   1      35.209  24.292  25.046  1.00  0.00    -0.023 A 
ATOM     17  C   UNL A   1      35.028  23.734  23.776  1.00  0.00     0.008 A 
ATOM     18  C   UNL A   1      36.328  23.916  25.801  1.00  0.00     0.047 A 
ATOM     19  C   UNL A   1      35.948  22.802  23.278  1.00  0.00     0.004 A 
ATOM     20  C   UNL A   1      37.224  22.978  25.305  1.00  0.00     0.123 A 
ATOM     21  C   UNL A   1      37.045  22.417  24.049  1.00  0.00     0.039 A 
ATOM     22  F   UNL A   1      38.268  22.605  26.056  1.00  0.00    -0.207 F 
ENDBRANCH  15  16
ENDBRANCH  11  14
ENDBRANCH   6  10
ENDBRANCH   3   6
ENDBRANCH   1   2
BRANCH   1  23
ATOM     23  C   UNL A   1      31.378  32.204  26.563  1.00  0.00     0.042 C 
BRANCH  23  24
ATOM     24  C   UNL A   1      32.604  32.819  27.227  1.00  0.00     0.118 C 
BRANCH  24  25
ATOM     25  N   UNL A   1      32.390  34.174  27.700  1.00  0.00    -0.352 N 
ATOM     26  C   UNL A   1      33.026  34.903  28.675  1.00  0.00     0.251 C 
ATOM     27  H   UNL A   1      31.663  34.655  27.243  1.00  0.00     0.163 HD
ATOM     28  O   UNL A   1      32.570  35.996  28.998  1.00  0.00    -0.269 OA
BRANCH  26  29
ATOM     29  C   UNL A   1      34.226  34.386  29.374  1.00  0.00     0.039 A 
ATOM     30  C   UNL A   1      34.040  33.692  30.573  1.00  0.00     0.014 A 
ATOM     31  C   UNL A   1      35.521  34.622  28.906  1.00  0.00     0.014 A 
ATOM     32  C   UNL A   1      35.140  33.168  31.261  1.00  0.00     0.010 A 
ATOM     33  C   UNL A   1      36.615  34.045  29.558  1.00  0.00     0.010 A 
ATOM     34  C   UNL A   1      36.434  33.303  30.736  1.00  0.00    -0.014 A 
BRANCH  34  35
ATOM     35  C   UNL A   1      37.595  32.639  31.386  1.00  0.00     0.031 A 
ATOM     36  C   UNL A   1      38.304  31.494  30.719  1.00  0.00     0.074 A 
ATOM     37  C   UNL A   1      37.984  33.042  32.613  1.00  0.00     0.049 A 
ATOM     38  N   UNL A   1      39.286  30.754  31.172  1.00  0.00    -0.248 NA
ATOM     39  C   UNL A   1      37.842  31.122  29.374  1.00  0.00     0.031 C 
ATOM     40  C   UNL A   1      37.367  34.127  33.376  1.00  0.00     0.029 A 
ATOM     41  N   UNL A   1      38.982  32.582  33.437  1.00  0.00    -0.354 N 
ATOM     42  C   UNL A   1      39.554  29.829  30.173  1.00  0.00     0.074 A 
ATOM     43  C   UNL A   1      38.607  30.071  29.107  1.00  0.00     0.031 C 
ATOM     44  C   UNL A   1      38.012  34.264  34.545  1.00  0.00     0.029 A 
ATOM     45  C   UNL A   1      39.055  33.248  34.638  1.00  0.00     0.049 A 
ATOM     46  H   UNL A   1      39.587  31.845  33.192  1.00  0.00     0.167 HD
ATOM     47  C   UNL A   1      40.517  28.875  30.144  1.00  0.00     0.037 A 
ATOM     48  C   UNL A   1      39.861  33.054  35.700  1.00  0.00     0.037 A 
ATOM     49  C   UNL A   1      41.473  28.648  31.197  1.00  0.00     0.049 A 
ATOM     50  C   UNL A   1      40.892  31.961  35.659  1.00  0.00     0.074 A 
ATOM     51  C   UNL A   1      42.515  27.738  31.229  1.00  0.00     0.029 A 
ATOM     52  N   UNL A   1      41.501  29.331  32.403  1.00  0.00    -0.354 N 
ATOM     53  N   UNL A   1      41.165  31.121  34.691  1.00  0.00    -0.248 NA
ATOM     54  C   UNL A   1      41.726  31.785  36.858  1.00  0.00     0.031 C 
ATOM     55  C   UNL A   1      43.143  27.834  32.474  1.00  0.00     0.029 A 
ATOM     56  C   UNL A   1      42.527  28.842  33.198  1.00  0.00     0.049 A 
ATOM     57  H   UNL A   1      40.884  30.056  32.658  1.00  0.00     0.167 HD
ATOM     58  C   UNL A   1      42.212  30.334  35.150  1.00  0.00     0.074 A 
ATOM     59  C   UNL A   1      42.534  30.802  36.482  1.00  0.00     0.031 C 
ATOM     60  C   UNL A   1      42.846  29.317  34.519  1.00  0.00     0.037 A 
BRANCH  47  61
ATOM     61  C   UNL A   1      40.604  27.999  28.928  1.00  0.00     0.064 A 
ATOM     62  C   UNL A   1      41.387  28.384  27.828  1.00  0.00     0.173 A 
ATOM     63  C   UNL A   1      39.843  26.827  28.814  1.00  0.00     0.173 A 
ATOM     64  F   UNL A   1      42.126  29.501  27.882  1.00  0.00    -0.203 F 
ATOM     65  C   UNL A   1      41.391  27.634  26.655  1.00  0.00     0.198 A 
ATOM     66  C   UNL A   1      39.870  26.066  27.649  1.00  0.00     0.198 A 
ATOM     67  F   UNL A   1      39.083  26.414  29.840  1.00  0.00    -0.203 F 
ATOM     68  F   UNL A   1      42.117  28.041  25.605  1.00  0.00    -0.200 F 
ATOM     69  C   UNL A   1      40.634  26.475  26.568  1.00  0.00     0.200 A 
ATOM     70  F   UNL A   1      39.155  24.935  27.573  1.00  0.00    -0.200 F 
ATOM     71  F   UNL A   1      40.643  25.752  25.439  1.00  0.00    -0.200 F 
ENDBRANCH  47  61
BRANCH  48  72
ATOM     72  C   UNL A   1      39.727  33.936  36.888  1.00  0.00     0.064 A 
ATOM     73  C   UNL A   1      38.930  33.572  37.983  1.00  0.00     0.173 A 
ATOM     74  C   UNL A   1      40.371  35.180  36.934  1.00  0.00     0.173 A 
ATOM     75  F   UNL A   1      38.292  32.394  37.987  1.00  0.00    -0.203 F 
ATOM     76  C   UNL A   1      38.762  34.431  39.068  1.00  0.00     0.198 A 
ATOM     77  C   UNL A   1      40.224  36.027  38.031  1.00  0.00     0.198 A 
ATOM     78  F   UNL A   1      41.162  35.563  35.921  1.00  0.00    -0.203 F 
ATOM     79  F   UNL A   1      37.964  34.075  40.084  1.00  0.00    -0.200 F 
ATOM     80  C   UNL A   1      39.412  35.656  39.092  1.00  0.00     0.200 A 
ATOM     81  F   UNL A   1      40.872  37.199  38.062  1.00  0.00    -0.200 F 
ATOM     82  F   UNL A   1      39.257  36.478  40.139  1.00  0.00    -0.200 F 
ENDBRANCH  48  72
BRANCH  60  83
ATOM     83  C   UNL A   1      43.973  28.638  35.240  1.00  0.00     0.064 A 
ATOM     84  C   UNL A   1      43.718  27.561  36.103  1.00  0.00     0.173 A 
ATOM     85  C   UNL A   1      45.289  29.116  35.157  1.00  0.00     0.173 A 
ATOM     86  F   UNL A   1      42.474  27.073  36.224  1.00  0.00    -0.203 F 
ATOM     87  C   UNL A   1      44.734  27.004  36.875  1.00  0.00     0.198 A 
ATOM     88  C   UNL A   1      46.308  28.538  35.910  1.00  0.00     0.198 A 
ATOM     89  F   UNL A   1      45.586  30.134  34.336  1.00  0.00    -0.203 F 
ATOM     90  F   UNL A   1      44.457  26.004  37.723  1.00  0.00    -0.200 F 
ATOM     91  C   UNL A   1      46.027  27.492  36.778  1.00  0.00     0.200 A 
ATOM     92  F   UNL A   1      47.562  28.997  35.800  1.00  0.00    -0.200 F 
ATOM     93  F   UNL A   1      47.004  26.955  37.521  1.00  0.00    -0.200 F 
ENDBRANCH  60  83
ENDBRANCH  34  35
ENDBRANCH  26  29
ENDBRANCH  24  25
ENDBRANCH  23  24
ENDBRANCH   1  23
TORSDOF 14
ENDMDL
MODEL 2
REMARK VINA RESULT:     -12.4      2.068      3.709
REMARK SMILES CC[C@@](C)(NC(=O)/C=C/c1cccc(F)c1)C(=O)NCCCNC(=O)c1ccc(-c2c3nc(c(-c4c(F)c(F)c(F)c(F)c4F)c4ccc([nH]4)c(-c4c(F)c(F)c(F)c(F)c4F)c4nc(c(-c5c(F)c(F)c(F)c(F)c5F)c5ccc2[nH]5)C=C4)C=C3)cc1
REMARK SMILES IDX 20 1 19 2 17 3 18 4 3 6 4 7 2 8 1 9 5 10 6 11 7 13 8 14 9 15
REMARK SMILES IDX 10 16 11 17 16 18 12 19 14 20 13 21 15 22 21 23 22 24 23 25
REMARK SMILES IDX 24 26 25 28 26 29 27 30 88 31 28 32 87 33 29 34 30 35 31 36
REMARK SMILES IDX 81 37 32 38 86 39 80 40 82 41 33 42 85 43 79 44 78 45 34 47
REMARK SMILES IDX 66 48 46 49 65 50 47 51 50 52 64 53 83 54 48 55 49 56 63 58
REMARK SMILES IDX 84 59 51 60 35 61 36 62 44 63 37 64 38 65 42 66 45 67 39 68
REMARK SMILES IDX 40 69 43 70 41 71 67 72 68 73 76 74 69 75 70 76 74 77 77 78
REMARK SMILES IDX 71 79 72 80 75 81 73 82 52 83 53 84 61 85 54 86 55 87 59 88
REMARK SMILES IDX 62 89 56 90 57 91 60 92 58 93
REMARK H PARENT 19 5 5 12 23 27 82 46 50 57
REMARK Flexibility Score: inf
ROOT
ATOM      1  C   UNL A   1      31.603  30.331  26.076  1.00  0.00     0.117 C 
ENDROOT
BRANCH   1   2
ATOM      2  N   UNL A   1      32.692  30.079  25.146  1.00  0.00    -0.354 N 
ATOM      3  C   UNL A   1      33.109  28.958  24.480  1.00  0.00     0.245 C 
ATOM      4  O   UNL A   1      33.851  29.168  23.515  1.00  0.00    -0.272 OA
ATOM      5  H   UNL A   1      33.240  30.874  24.956  1.00  0.00     0.163 HD
BRANCH   3   6
ATOM      6  C   UNL A   1      32.577  27.527  24.800  1.00  0.00     0.116 C 
ATOM      7  C   UNL A   1      33.718  26.828  25.580  1.00  0.00     0.045 C 
BRANCH   6   8
ATOM      8  C   UNL A   1      31.302  27.452  25.699  1.00  0.00     0.035 C 
ATOM      9  C   UNL A   1      30.842  26.085  26.190  1.00  0.00     0.007 C 
ENDBRANCH   6   8
BRANCH   6  10
ATOM     10  N   UNL A   1      32.278  26.750  23.575  1.00  0.00    -0.338 N 
ATOM     11  C   UNL A   1      31.253  26.838  22.679  1.00  0.00     0.244 C 
ATOM     12  H   UNL A   1      32.935  26.044  23.372  1.00  0.00     0.164 HD
ATOM     13  O   UNL A   1      31.025  25.872  21.951  1.00  0.00    -0.270 OA
BRANCH  11  14
ATOM     14  C   UNL A   1      30.582  28.126  22.366  1.00  0.00     0.072 C 
ATOM     15  C   UNL A   1      29.458  28.651  22.872  1.00  0.00     0.014 C 
BRANCH  15  16
ATOM     16  C   UNL A   1      29.066  30.039  22.594  1.00  0.00    -0.023 A 
ATOM     17  C   UNL A   1      29.143  31.053  23.554  1.00  0.00     0.008 A 
ATOM     18  C   UNL A   1      28.576  30.347  21.318  1.00  0.00     0.047 A 
ATOM     19  C   UNL A   1      28.723  32.353  23.243  1.00  0.00     0.004 A 
ATOM     20  C   UNL A   1      28.146  31.635  21.025  1.00  0.00     0.123 A 
ATOM     21  C   UNL A   1      28.216  32.642  21.976  1.00  0.00     0.039 A 
ATOM     22  F   UNL A   1      27.650  31.902  19.810  1.00  0.00    -0.207 F 
ENDBRANCH  15  16
ENDBRANCH  11  14
ENDBRANCH   6  10
ENDBRANCH   3   6
ENDBRANCH   1   2
BRANCH   1  23
ATOM     23  C   UNL A   1      31.434  31.778  26.536  1.00  0.00     0.042 C 
BRANCH  23  24
ATOM     24  C   UNL A   1      32.682  32.475  27.062  1.00  0.00     0.118 C 
BRANCH  24  25
ATOM     25  N   UNL A   1      32.439  33.830  27.526  1.00  0.00    -0.352 N 
ATOM     26  C   UNL A   1      33.043  34.570  28.512  1.00  0.00     0.251 C 
ATOM     27  H   UNL A   1      31.716  34.299  27.051  1.00  0.00     0.163 HD
ATOM     28  O   UNL A   1      32.565  35.658  28.821  1.00  0.00    -0.269 OA
BRANCH  26  29
ATOM     29  C   UNL A   1      34.234  34.072  29.240  1.00  0.00     0.039 A 
ATOM     30  C   UNL A   1      34.029  33.245  30.348  1.00  0.00     0.014 A 
ATOM     31  C   UNL A   1      35.533  34.448  28.890  1.00  0.00     0.014 A 
ATOM     32  C   UNL A   1      35.121  32.734  31.056  1.00  0.00     0.010 A 
ATOM     33  C   UNL A   1      36.626  33.889  29.557  1.00  0.00     0.010 A 
ATOM     34  C   UNL A   1      36.431  33.016  30.641  1.00  0.00    -0.014 A 
BRANCH  34  35
ATOM     35  C   UNL A   1      37.598  32.375  31.302  1.00  0.00     0.031 A 
ATOM     36  C   UNL A   1      38.336  31.245  30.642  1.00  0.00     0.074 A 
ATOM     37  C   UNL A   1      37.966  32.783  32.534  1.00  0.00     0.049 A 
ATOM     38  N   UNL A   1      39.328  30.524  31.103  1.00  0.00    -0.248 NA
ATOM     39  C   UNL A   1      37.897  30.866  29.291  1.00  0.00     0.031 C 
ATOM     40  C   UNL A   1      37.319  33.855  33.291  1.00  0.00     0.029 A 
ATOM     41  N   UNL A   1      38.964  32.343  33.368  1.00  0.00    -0.354 N 
ATOM     42  C   UNL A   1      39.625  29.605  30.107  1.00  0.00     0.074 A 
ATOM     43  C   UNL A   1      38.685  29.830  29.031  1.00  0.00     0.031 C 
ATOM     44  C   UNL A   1      37.949  34.003  34.467  1.00  0.00     0.029 A 
ATOM     45  C   UNL A   1      39.012  33.008  34.570  1.00  0.00     0.049 A 
ATOM     46  H   UNL A   1      39.586  31.618  33.128  1.00  0.00     0.167 HD
ATOM     47  C   UNL A   1      40.606  28.671  30.087  1.00  0.00     0.037 A 
ATOM     48  C   UNL A   1      39.809  32.829  35.640  1.00  0.00     0.037 A 
ATOM     49  C   UNL A   1      41.555  28.461  31.150  1.00  0.00     0.049 A 
ATOM     50  C   UNL A   1      40.862  31.756  35.609  1.00  0.00     0.074 A 
ATOM     51  C   UNL A   1      42.615  27.572  31.192  1.00  0.00     0.029 A 
ATOM     52  N   UNL A   1      41.558  29.143  32.357  1.00  0.00    -0.354 N 
ATOM     53  N   UNL A   1      41.162  30.923  34.643  1.00  0.00    -0.248 NA
ATOM     54  C   UNL A   1      41.687  31.595  36.816  1.00  0.00     0.031 C 
ATOM     55  C   UNL A   1      43.228  27.679  32.444  1.00  0.00     0.029 A 
ATOM     56  C   UNL A   1      42.584  28.673  33.162  1.00  0.00     0.049 A 
ATOM     57  H   UNL A   1      40.924  29.855  32.606  1.00  0.00     0.167 HD
ATOM     58  C   UNL A   1      42.220  30.157  35.113  1.00  0.00     0.074 A 
ATOM     59  C   UNL A   1      42.518  30.628  36.448  1.00  0.00     0.031 C 
ATOM     60  C   UNL A   1      42.880  29.153  34.487  1.00  0.00     0.037 A 
BRANCH  47  61
ATOM     61  C   UNL A   1      40.724  27.798  28.871  1.00  0.00     0.064 A 
ATOM     62  C   UNL A   1      41.584  28.154  27.820  1.00  0.00     0.173 A 
ATOM     63  C   UNL A   1      39.920  26.662  28.706  1.00  0.00     0.173 A 
ATOM     64  F   UNL A   1      42.367  29.237  27.924  1.00  0.00    -0.203 F 
ATOM     65  C   UNL A   1      41.621  27.411  26.643  1.00  0.00     0.198 A 
ATOM     66  C   UNL A   1      39.979  25.906  27.538  1.00  0.00     0.198 A 
ATOM     67  F   UNL A   1      39.086  26.277  29.684  1.00  0.00    -0.203 F 
ATOM     68  F   UNL A   1      42.423  27.792  25.638  1.00  0.00    -0.200 F 
ATOM     69  C   UNL A   1      40.821  26.287  26.504  1.00  0.00     0.200 A 
ATOM     70  F   UNL A   1      39.221  24.809  27.413  1.00  0.00    -0.200 F 
ATOM     71  F   UNL A   1      40.862  25.571  25.372  1.00  0.00    -0.200 F 
ENDBRANCH  47  61
BRANCH  48  72
ATOM     72  C   UNL A   1      39.645  33.707  36.828  1.00  0.00     0.064 A 
ATOM     73  C   UNL A   1      38.810  33.345  37.895  1.00  0.00     0.173 A 
ATOM     74  C   UNL A   1      40.299  34.944  36.901  1.00  0.00     0.173 A 
ATOM     75  F   UNL A   1      38.161  32.173  37.872  1.00  0.00    -0.203 F 
ATOM     76  C   UNL A   1      38.615  34.200  38.978  1.00  0.00     0.198 A 
ATOM     77  C   UNL A   1      40.125  35.787  37.997  1.00  0.00     0.198 A 
ATOM     78  F   UNL A   1      41.126  35.324  35.915  1.00  0.00    -0.203 F 
ATOM     79  F   UNL A   1      37.781  33.847  39.966  1.00  0.00    -0.200 F 
ATOM     80  C   UNL A   1      39.275  35.419  39.029  1.00  0.00     0.200 A 
ATOM     81  F   UNL A   1      40.782  36.953  38.054  1.00  0.00    -0.200 F 
ATOM     82  F   UNL A   1      39.094  36.237  40.075  1.00  0.00    -0.200 F 
ENDBRANCH  48  72
BRANCH  60  83
ATOM     83  C   UNL A   1      44.013  28.495  35.220  1.00  0.00     0.064 A 
ATOM     84  C   UNL A   1      43.768  27.416  36.083  1.00  0.00     0.173 A 
ATOM     85  C   UNL A   1      45.320  28.996  35.146  1.00  0.00     0.173 A 
ATOM     86  F   UNL A   1      42.533  26.907  36.194  1.00  0.00    -0.203 F 
ATOM     87  C   UNL A   1      44.788  26.878  36.864  1.00  0.00     0.198 A 
ATOM     88  C   UNL A   1      46.343  28.438  35.909  1.00  0.00     0.198 A 
ATOM     89  F   UNL A   1      45.607  30.017  34.325  1.00  0.00    -0.203 F 
ATOM     90  F   UNL A   1      44.521  25.876  37.713  1.00  0.00    -0.200 F 
ATOM     91  C   UNL A   1      46.073  27.389  36.777  1.00  0.00     0.200 A 
ATOM     92  F   UNL A   1      47.590  28.918  35.809  1.00  0.00    -0.200 F 
ATOM     93  F   UNL A   1      47.053  26.871  37.530  1.00  0.00    -0.200 F 
ENDBRANCH  60  83
ENDBRANCH  34  35
ENDBRANCH  26  29
ENDBRANCH  24  25
ENDBRANCH  23  24
ENDBRANCH   1  23
TORSDOF 14
ENDMDL
MODEL 3
REMARK VINA RESULT:     -12.3      5.710     10.801
REMARK SMILES CC[C@@](C)(NC(=O)/C=C/c1cccc(F)c1)C(=O)NCCCNC(=O)c1ccc(-c2c3nc(c(-c4c(F)c(F)c(F)c(F)c4F)c4ccc([nH]4)c(-c4c(F)c(F)c(F)c(F)c4F)c4nc(c(-c5c(F)c(F)c(F)c(F)c5F)c5ccc2[nH]5)C=C4)C=C3)cc1
REMARK SMILES IDX 20 1 19 2 17 3 18 4 3 6 4 7 2 8 1 9 5 10 6 11 7 13 8 14 9 15
REMARK SMILES IDX 10 16 11 17 16 18 12 19 14 20 13 21 15 22 21 23 22 24 23 25
REMARK SMILES IDX 24 26 25 28 26 29 27 30 88 31 28 32 87 33 29 34 30 35 31 36
REMARK SMILES IDX 81 37 32 38 86 39 80 40 82 41 33 42 85 43 79 44 78 45 34 47
REMARK SMILES IDX 66 48 46 49 65 50 47 51 50 52 64 53 83 54 48 55 49 56 63 58
REMARK SMILES IDX 84 59 51 60 35 61 36 62 44 63 37 64 38 65 42 66 45 67 39 68
REMARK SMILES IDX 40 69 43 70 41 71 67 72 68 73 76 74 69 75 70 76 74 77 77 78
REMARK SMILES IDX 71 79 72 80 75 81 73 82 52 83 53 84 61 85 54 86 55 87 59 88
REMARK SMILES IDX 62 89 56 90 57 91 60 92 58 93
REMARK H PARENT 19 5 5 12 23 27 82 46 50 57
REMARK Flexibility Score: inf
ROOT
ATOM      1  C   UNL A   1      36.549  20.595  24.984  1.00  0.00     0.117 C 
ENDROOT
BRANCH   1   2
ATOM      2  N   UNL A   1      35.250  19.947  25.071  1.00  0.00    -0.354 N 
ATOM      3  C   UNL A   1      33.968  20.426  25.080  1.00  0.00     0.245 C 
ATOM      4  O   UNL A   1      33.095  19.591  24.823  1.00  0.00    -0.272 OA
ATOM      5  H   UNL A   1      35.302  18.966  25.136  1.00  0.00     0.163 HD
BRANCH   3   6
ATOM      6  C   UNL A   1      33.622  21.938  25.243  1.00  0.00     0.116 C 
ATOM      7  C   UNL A   1      32.078  22.019  25.161  1.00  0.00     0.045 C 
BRANCH   6   8
ATOM      8  C   UNL A   1      34.040  22.597  26.596  1.00  0.00     0.035 C 
ATOM      9  C   UNL A   1      33.399  22.084  27.879  1.00  0.00     0.007 C 
ENDBRANCH   6   8
BRANCH   6  10
ATOM     10  N   UNL A   1      34.210  22.771  24.168  1.00  0.00    -0.338 N 
ATOM     11  C   UNL A   1      33.908  24.029  23.735  1.00  0.00     0.244 C 
ATOM     12  H   UNL A   1      34.949  22.340  23.678  1.00  0.00     0.164 HD
ATOM     13  O   UNL A   1      34.286  24.370  22.614  1.00  0.00    -0.270 OA
BRANCH  11  14
ATOM     14  C   UNL A   1      33.383  25.077  24.648  1.00  0.00     0.072 C 
ATOM     15  C   UNL A   1      34.045  25.951  25.417  1.00  0.00     0.014 C 
BRANCH  15  16
ATOM     16  C   UNL A   1      33.353  27.057  26.092  1.00  0.00    -0.023 A 
ATOM     17  C   UNL A   1      32.054  26.940  26.597  1.00  0.00     0.008 A 
ATOM     18  C   UNL A   1      34.021  28.283  26.213  1.00  0.00     0.047 A 
ATOM     19  C   UNL A   1      31.430  28.039  27.201  1.00  0.00     0.004 A 
ATOM     20  C   UNL A   1      33.387  29.371  26.798  1.00  0.00     0.123 A 
ATOM     21  C   UNL A   1      32.096  29.261  27.294  1.00  0.00     0.039 A 
ATOM     22  F   UNL A   1      34.029  30.544  26.873  1.00  0.00    -0.207 F 
ENDBRANCH  15  16
ENDBRANCH  11  14
ENDBRANCH   6  10
ENDBRANCH   3   6
ENDBRANCH   1   2
BRANCH   1  23
ATOM     23  C   UNL A   1      37.764  19.668  24.992  1.00  0.00     0.042 C 
BRANCH  23  24
ATOM     24  C   UNL A   1      38.964  20.128  25.811  1.00  0.00     0.118 C 
BRANCH  24  25
ATOM     25  N   UNL A   1      40.060  19.176  25.819  1.00  0.00    -0.352 N 
ATOM     26  C   UNL A   1      41.401  19.342  26.067  1.00  0.00     0.251 C 
ATOM     27  H   UNL A   1      39.798  18.251  25.609  1.00  0.00     0.163 HD
ATOM     28  O   UNL A   1      42.166  18.402  25.874  1.00  0.00    -0.269 OA
BRANCH  26  29
ATOM     29  C   UNL A   1      41.952  20.639  26.525  1.00  0.00     0.039 A 
ATOM     30  C   UNL A   1      42.403  21.541  25.556  1.00  0.00     0.014 A 
ATOM     31  C   UNL A   1      42.086  20.957  27.879  1.00  0.00     0.014 A 
ATOM     32  C   UNL A   1      42.914  22.785  25.937  1.00  0.00     0.010 A 
ATOM     33  C   UNL A   1      42.538  22.224  28.258  1.00  0.00     0.010 A 
ATOM     34  C   UNL A   1      42.946  23.156  27.290  1.00  0.00    -0.014 A 
BRANCH  34  35
ATOM     35  C   UNL A   1      43.362  24.524  27.699  1.00  0.00     0.031 A 
ATOM     36  C   UNL A   1      42.341  25.574  28.033  1.00  0.00     0.074 A 
ATOM     37  C   UNL A   1      44.674  24.835  27.722  1.00  0.00     0.049 A 
ATOM     38  N   UNL A   1      42.524  26.836  28.338  1.00  0.00    -0.248 NA
ATOM     39  C   UNL A   1      40.931  25.161  28.009  1.00  0.00     0.031 C 
ATOM     40  C   UNL A   1      45.763  23.911  27.400  1.00  0.00     0.029 A 
ATOM     41  N   UNL A   1      45.315  26.013  28.021  1.00  0.00    -0.354 N 
ATOM     42  C   UNL A   1      41.256  27.365  28.535  1.00  0.00     0.074 A 
ATOM     43  C   UNL A   1      40.309  26.302  28.276  1.00  0.00     0.031 C 
ATOM     44  C   UNL A   1      46.935  24.550  27.539  1.00  0.00     0.029 A 
ATOM     45  C   UNL A   1      46.683  25.938  27.911  1.00  0.00     0.049 A 
ATOM     46  H   UNL A   1      44.839  26.832  28.286  1.00  0.00     0.167 HD
ATOM     47  C   UNL A   1      40.917  28.620  28.915  1.00  0.00     0.037 A 
ATOM     48  C   UNL A   1      47.628  26.884  28.077  1.00  0.00     0.037 A 
ATOM     49  C   UNL A   1      41.861  29.672  29.193  1.00  0.00     0.049 A 
ATOM     50  C   UNL A   1      47.222  28.280  28.457  1.00  0.00     0.074 A 
ATOM     51  C   UNL A   1      41.607  30.960  29.634  1.00  0.00     0.029 A 
ATOM     52  N   UNL A   1      43.236  29.562  29.053  1.00  0.00    -0.354 N 
ATOM     53  N   UNL A   1      46.023  28.756  28.684  1.00  0.00    -0.248 NA
ATOM     54  C   UNL A   1      48.298  29.272  28.603  1.00  0.00     0.031 C 
ATOM     55  C   UNL A   1      42.823  31.644  29.712  1.00  0.00     0.029 A 
ATOM     56  C   UNL A   1      43.841  30.768  29.372  1.00  0.00     0.049 A 
ATOM     57  H   UNL A   1      43.712  28.747  28.768  1.00  0.00     0.167 HD
ATOM     58  C   UNL A   1      46.198  30.092  29.020  1.00  0.00     0.074 A 
ATOM     59  C   UNL A   1      47.622  30.351  28.976  1.00  0.00     0.031 C 
ATOM     60  C   UNL A   1      45.259  31.015  29.334  1.00  0.00     0.037 A 
BRANCH  47  61
ATOM     61  C   UNL A   1      39.458  28.940  29.069  1.00  0.00     0.064 A 
ATOM     62  C   UNL A   1      38.726  29.460  27.991  1.00  0.00     0.173 A 
ATOM     63  C   UNL A   1      38.809  28.820  30.306  1.00  0.00     0.173 A 
ATOM     64  F   UNL A   1      39.303  29.605  26.789  1.00  0.00    -0.203 F 
ATOM     65  C   UNL A   1      37.403  29.861  28.151  1.00  0.00     0.198 A 
ATOM     66  C   UNL A   1      37.478  29.197  30.456  1.00  0.00     0.198 A 
ATOM     67  F   UNL A   1      39.464  28.323  31.367  1.00  0.00    -0.203 F 
ATOM     68  F   UNL A   1      36.735  30.390  27.115  1.00  0.00    -0.200 F 
ATOM     69  C   UNL A   1      36.779  29.727  29.382  1.00  0.00     0.200 A 
ATOM     70  F   UNL A   1      36.870  29.048  31.641  1.00  0.00    -0.200 F 
ATOM     71  F   UNL A   1      35.503  30.109  29.533  1.00  0.00    -0.200 F 
ENDBRANCH  47  61
BRANCH  48  72
ATOM     72  C   UNL A   1      49.059  26.524  27.899  1.00  0.00     0.064 A 
ATOM     73  C   UNL A   1      49.884  26.239  28.997  1.00  0.00     0.173 A 
ATOM     74  C   UNL A   1      49.636  26.492  26.623  1.00  0.00     0.173 A 
ATOM     75  F   UNL A   1      49.380  26.259  30.238  1.00  0.00    -0.203 F 
ATOM     76  C   UNL A   1      51.238  25.960  28.826  1.00  0.00     0.198 A 
ATOM     77  C   UNL A   1      50.985  26.186  26.450  1.00  0.00     0.198 A 
ATOM     78  F   UNL A   1      48.883  26.735  25.540  1.00  0.00    -0.203 F 
ATOM     79  F   UNL A   1      52.013  25.730  29.895  1.00  0.00    -0.200 F 
ATOM     80  C   UNL A   1      51.788  25.932  27.552  1.00  0.00     0.200 A 
ATOM     81  F   UNL A   1      51.506  26.136  25.217  1.00  0.00    -0.200 F 
ATOM     82  F   UNL A   1      53.088  25.655  27.388  1.00  0.00    -0.200 F 
ENDBRANCH  48  72
BRANCH  60  83
ATOM     83  C   UNL A   1      45.724  32.399  29.682  1.00  0.00     0.064 A 
ATOM     84  C   UNL A   1      45.871  33.371  28.680  1.00  0.00     0.173 A 
ATOM     85  C   UNL A   1      46.121  32.732  30.985  1.00  0.00     0.173 A 
ATOM     86  F   UNL A   1      45.514  33.098  27.416  1.00  0.00    -0.203 F 
ATOM     87  C   UNL A   1      46.421  34.618  28.966  1.00  0.00     0.198 A 
ATOM     88  C   UNL A   1      46.646  33.990  31.272  1.00  0.00     0.198 A 
ATOM     89  F   UNL A   1      45.987  31.843  31.979  1.00  0.00    -0.203 F 
ATOM     90  F   UNL A   1      46.592  35.514  27.984  1.00  0.00    -0.200 F 
ATOM     91  C   UNL A   1      46.808  34.926  30.261  1.00  0.00     0.200 A 
ATOM     92  F   UNL A   1      47.000  34.295  32.528  1.00  0.00    -0.200 F 
ATOM     93  F   UNL A   1      47.337  36.126  30.535  1.00  0.00    -0.200 F 
ENDBRANCH  60  83
ENDBRANCH  34  35
ENDBRANCH  26  29
ENDBRANCH  24  25
ENDBRANCH  23  24
ENDBRANCH   1  23
TORSDOF 14
ENDMDL
