MODEL 1
REMARK VINA RESULT:     -11.6      0.000      0.000
REMARK SMILES Cc1cc(Br)cc([N+](=O)[O-])c1OCCC(=O)NCCCNC(=O)c1ccc(-c2c3nc(c(-c4c(F)c(F)c(F)c(F)c4F)c4ccc([nH]4)c(-c4c(F)c(F)c(F)c(F)c4F)c4nc(c(-c5c(F)c(F)c(F)c(F)c5F)c5ccc2[nH]5)C=C4)C=C3)cc1
REMARK SMILES IDX 18 1 17 2 15 3 16 4 14 6 13 7 12 8 11 9 1 10 2 11 3 12 4 13
REMARK SMILES IDX 7 14 5 15 6 16 8 17 9 18 10 19 19 20 20 21 21 22 22 23 23 25
REMARK SMILES IDX 24 26 25 27 86 28 26 29 85 30 27 31 28 32 29 33 79 34 30 35
REMARK SMILES IDX 84 36 78 37 80 38 31 39 83 40 77 41 76 42 32 44 64 45 44 46
REMARK SMILES IDX 63 47 45 48 48 49 62 50 81 51 46 52 47 53 61 55 82 56 49 57
REMARK SMILES IDX 33 58 34 59 42 60 35 61 36 62 40 63 43 64 37 65 38 66 41 67
REMARK SMILES IDX 39 68 65 69 66 70 74 71 67 72 68 73 72 74 75 75 69 76 70 77
REMARK SMILES IDX 73 78 71 79 50 80 51 81 59 82 52 83 53 84 57 85 60 86 54 87
REMARK SMILES IDX 55 88 58 89 56 90
REMARK H PARENT 17 5 21 24 80 43 48 54
REMARK Flexibility Score: inf
ROOT
ATOM      1  C   UNL A   1      35.437  19.967  24.859  1.00  0.00     0.117 C 
ENDROOT
BRANCH   1   2
ATOM      2  N   UNL A   1      34.217  19.405  25.421  1.00  0.00    -0.356 N 
ATOM      3  C   UNL A   1      32.956  19.339  24.904  1.00  0.00     0.223 C 
ATOM      4  O   UNL A   1      32.133  18.616  25.470  1.00  0.00    -0.275 OA
ATOM      5  H   UNL A   1      34.317  19.010  26.317  1.00  0.00     0.163 HD
BRANCH   3   6
ATOM      6  C   UNL A   1      32.575  20.123  23.673  1.00  0.00     0.141 C 
BRANCH   6   7
ATOM      7  C   UNL A   1      32.006  21.503  23.983  1.00  0.00     0.240 C 
BRANCH   7   8
ATOM      8  O   UNL A   1      32.671  22.147  25.053  1.00  0.00    -0.486 OA
BRANCH   8   9
ATOM      9  C   UNL A   1      33.087  23.440  25.121  1.00  0.00     0.200 A 
ATOM     10  C   UNL A   1      34.718  23.727  23.070  1.00  0.00     0.049 C 
ATOM     11  C   UNL A   1      33.901  24.182  24.249  1.00  0.00    -0.001 A 
ATOM     12  C   UNL A   1      34.030  25.582  24.467  1.00  0.00     0.023 A 
ATOM     13  C   UNL A   1      33.436  26.233  25.541  1.00  0.00     0.025 A 
ATOM     14  C   UNL A   1      32.540  24.133  26.237  1.00  0.00     0.312 A 
ATOM     15  Br  UNL A   1      33.660  28.096  25.732  1.00  0.00    -0.051 Br
ATOM     16  C   UNL A   1      32.700  25.509  26.456  1.00  0.00     0.105 A 
BRANCH  14  17
ATOM     17  N   UNL A   1      31.707  23.428  27.208  1.00  0.00     0.066 N 
ATOM     18  O   UNL A   1      30.480  23.575  27.100  1.00  0.00    -0.258 OA
ATOM     19  O   UNL A   1      32.273  22.776  28.095  1.00  0.00    -0.258 OA
ENDBRANCH  14  17
ENDBRANCH   8   9
ENDBRANCH   7   8
ENDBRANCH   6   7
ENDBRANCH   3   6
ENDBRANCH   1   2
BRANCH   1  20
ATOM     20  C   UNL A   1      35.939  21.218  25.581  1.00  0.00     0.042 C 
BRANCH  20  21
ATOM     21  C   UNL A   1      37.368  21.654  25.219  1.00  0.00     0.118 C 
BRANCH  21  22
ATOM     22  N   UNL A   1      38.364  20.721  25.725  1.00  0.00    -0.352 N 
ATOM     23  C   UNL A   1      39.594  20.903  26.306  1.00  0.00     0.251 C 
ATOM     24  H   UNL A   1      38.106  19.776  25.631  1.00  0.00     0.163 HD
ATOM     25  O   UNL A   1      40.318  19.903  26.410  1.00  0.00    -0.269 OA
BRANCH  23  26
ATOM     26  C   UNL A   1      40.113  22.197  26.838  1.00  0.00     0.039 A 
ATOM     27  C   UNL A   1      39.675  23.374  26.211  1.00  0.00     0.014 A 
ATOM     28  C   UNL A   1      41.133  22.302  27.784  1.00  0.00     0.014 A 
ATOM     29  C   UNL A   1      40.240  24.623  26.521  1.00  0.00     0.010 A 
ATOM     30  C   UNL A   1      41.664  23.566  28.131  1.00  0.00     0.010 A 
ATOM     31  C   UNL A   1      41.242  24.747  27.497  1.00  0.00    -0.014 A 
BRANCH  31  32
ATOM     32  C   UNL A   1      41.830  26.095  27.819  1.00  0.00     0.031 A 
ATOM     33  C   UNL A   1      43.201  26.513  27.328  1.00  0.00     0.074 A 
ATOM     34  C   UNL A   1      41.136  26.985  28.561  1.00  0.00     0.049 A 
ATOM     35  N   UNL A   1      43.826  27.660  27.481  1.00  0.00    -0.248 NA
ATOM     36  C   UNL A   1      43.982  25.512  26.589  1.00  0.00     0.031 C 
ATOM     37  C   UNL A   1      39.826  26.743  29.165  1.00  0.00     0.029 A 
ATOM     38  N   UNL A   1      41.433  28.281  28.928  1.00  0.00    -0.354 N 
ATOM     39  C   UNL A   1      45.068  27.514  26.874  1.00  0.00     0.074 A 
ATOM     40  C   UNL A   1      45.129  26.148  26.391  1.00  0.00     0.031 C 
ATOM     41  C   UNL A   1      39.417  27.858  29.790  1.00  0.00     0.029 A 
ATOM     42  C   UNL A   1      40.443  28.891  29.662  1.00  0.00     0.049 A 
ATOM     43  H   UNL A   1      42.276  28.728  28.687  1.00  0.00     0.167 HD
ATOM     44  C   UNL A   1      46.061  28.425  26.707  1.00  0.00     0.037 A 
ATOM     45  C   UNL A   1      40.354  30.136  30.174  1.00  0.00     0.037 A 
ATOM     46  C   UNL A   1      46.018  29.801  27.139  1.00  0.00     0.049 A 
ATOM     47  C   UNL A   1      41.458  31.137  29.955  1.00  0.00     0.074 A 
ATOM     48  C   UNL A   1      46.957  30.801  26.931  1.00  0.00     0.029 A 
ATOM     49  N   UNL A   1      44.988  30.376  27.864  1.00  0.00    -0.354 N 
ATOM     50  N   UNL A   1      42.585  31.001  29.304  1.00  0.00    -0.248 NA
ATOM     51  C   UNL A   1      41.266  32.476  30.538  1.00  0.00     0.031 C 
ATOM     52  C   UNL A   1      46.517  31.966  27.567  1.00  0.00     0.029 A 
ATOM     53  C   UNL A   1      45.278  31.708  28.127  1.00  0.00     0.049 A 
ATOM     54  H   UNL A   1      44.169  29.910  28.150  1.00  0.00     0.167 HD
ATOM     55  C   UNL A   1      43.217  32.238  29.370  1.00  0.00     0.074 A 
ATOM     56  C   UNL A   1      42.344  33.119  30.113  1.00  0.00     0.031 C 
ATOM     57  C   UNL A   1      44.416  32.603  28.854  1.00  0.00     0.037 A 
BRANCH  44  58
ATOM     58  C   UNL A   1      47.310  27.973  25.999  1.00  0.00     0.064 A 
ATOM     59  C   UNL A   1      48.456  27.582  26.710  1.00  0.00     0.173 A 
ATOM     60  C   UNL A   1      47.335  27.855  24.600  1.00  0.00     0.173 A 
ATOM     61  F   UNL A   1      48.484  27.674  28.048  1.00  0.00    -0.203 F 
ATOM     62  C   UNL A   1      49.588  27.120  26.044  1.00  0.00     0.198 A 
ATOM     63  C   UNL A   1      48.458  27.363  23.942  1.00  0.00     0.198 A 
ATOM     64  F   UNL A   1      46.260  28.195  23.873  1.00  0.00    -0.203 F 
ATOM     65  F   UNL A   1      50.685  26.792  26.742  1.00  0.00    -0.200 F 
ATOM     66  C   UNL A   1      49.586  27.004  24.663  1.00  0.00     0.200 A 
ATOM     67  F   UNL A   1      48.448  27.230  22.607  1.00  0.00    -0.200 F 
ATOM     68  F   UNL A   1      50.674  26.547  24.027  1.00  0.00    -0.200 F 
ENDBRANCH  44  58
BRANCH  45  69
ATOM     69  C   UNL A   1      39.139  30.535  30.933  1.00  0.00     0.064 A 
ATOM     70  C   UNL A   1      38.061  31.160  30.288  1.00  0.00     0.173 A 
ATOM     71  C   UNL A   1      39.045  30.329  32.315  1.00  0.00     0.173 A 
ATOM     72  F   UNL A   1      38.120  31.408  28.972  1.00  0.00    -0.203 F 
ATOM     73  C   UNL A   1      36.943  31.583  31.004  1.00  0.00     0.198 A 
ATOM     74  C   UNL A   1      37.915  30.727  33.025  1.00  0.00     0.198 A 
ATOM     75  F   UNL A   1      40.053  29.741  32.976  1.00  0.00    -0.203 F 
ATOM     76  F   UNL A   1      35.951  32.226  30.374  1.00  0.00    -0.200 F 
ATOM     77  C   UNL A   1      36.868  31.360  32.371  1.00  0.00     0.200 A 
ATOM     78  F   UNL A   1      37.842  30.504  34.344  1.00  0.00    -0.200 F 
ATOM     79  F   UNL A   1      35.794  31.768  33.059  1.00  0.00    -0.200 F 
ENDBRANCH  45  69
BRANCH  57  80
ATOM     80  C   UNL A   1      44.847  34.032  29.029  1.00  0.00     0.064 A 
ATOM     81  C   UNL A   1      44.505  35.029  28.104  1.00  0.00     0.173 A 
ATOM     82  C   UNL A   1      45.599  34.416  30.152  1.00  0.00     0.173 A 
ATOM     83  F   UNL A   1      43.800  34.718  27.006  1.00  0.00    -0.203 F 
ATOM     84  C   UNL A   1      44.922  36.348  28.280  1.00  0.00     0.198 A 
ATOM     85  C   UNL A   1      45.991  35.739  30.339  1.00  0.00     0.198 A 
ATOM     86  F   UNL A   1      45.950  33.505  31.073  1.00  0.00    -0.203 F 
ATOM     87  F   UNL A   1      44.625  37.272  27.356  1.00  0.00    -0.200 F 
ATOM     88  C   UNL A   1      45.660  36.702  29.399  1.00  0.00     0.200 A 
ATOM     89  F   UNL A   1      46.694  36.081  31.427  1.00  0.00    -0.200 F 
ATOM     90  F   UNL A   1      46.060  37.970  29.567  1.00  0.00    -0.200 F 
ENDBRANCH  57  80
ENDBRANCH  31  32
ENDBRANCH  23  26
ENDBRANCH  21  22
ENDBRANCH  20  21
ENDBRANCH   1  20
TORSDOF 14
ENDMDL
MODEL 2
REMARK VINA RESULT:     -11.6      4.943     10.396
REMARK SMILES Cc1cc(Br)cc([N+](=O)[O-])c1OCCC(=O)NCCCNC(=O)c1ccc(-c2c3nc(c(-c4c(F)c(F)c(F)c(F)c4F)c4ccc([nH]4)c(-c4c(F)c(F)c(F)c(F)c4F)c4nc(c(-c5c(F)c(F)c(F)c(F)c5F)c5ccc2[nH]5)C=C4)C=C3)cc1
REMARK SMILES IDX 18 1 17 2 15 3 16 4 14 6 13 7 12 8 11 9 1 10 2 11 3 12 4 13
REMARK SMILES IDX 7 14 5 15 6 16 8 17 9 18 10 19 19 20 20 21 21 22 22 23 23 25
REMARK SMILES IDX 24 26 25 27 86 28 26 29 85 30 27 31 28 32 29 33 79 34 30 35
REMARK SMILES IDX 84 36 78 37 80 38 31 39 83 40 77 41 76 42 32 44 64 45 44 46
REMARK SMILES IDX 63 47 45 48 48 49 62 50 81 51 46 52 47 53 61 55 82 56 49 57
REMARK SMILES IDX 33 58 34 59 42 60 35 61 36 62 40 63 43 64 37 65 38 66 41 67
REMARK SMILES IDX 39 68 65 69 66 70 74 71 67 72 68 73 72 74 75 75 69 76 70 77
REMARK SMILES IDX 73 78 71 79 50 80 51 81 59 82 52 83 53 84 57 85 60 86 54 87
REMARK SMILES IDX 55 88 58 89 56 90
REMARK H PARENT 17 5 21 24 80 43 48 54
REMARK Flexibility Score: inf
ROOT
ATOM      1  C   UNL A   1      30.935  30.212  25.028  1.00  0.00     0.117 C 
ENDROOT
BRANCH   1   2
ATOM      2  N   UNL A   1      30.529  30.254  23.630  1.00  0.00    -0.356 N 
ATOM      3  C   UNL A   1      29.734  29.405  22.916  1.00  0.00     0.223 C 
ATOM      4  O   UNL A   1      29.349  29.768  21.802  1.00  0.00    -0.275 OA
ATOM      5  H   UNL A   1      30.884  31.016  23.117  1.00  0.00     0.163 HD
BRANCH   3   6
ATOM      6  C   UNL A   1      29.329  28.062  23.471  1.00  0.00     0.141 C 
BRANCH   6   7
ATOM      7  C   UNL A   1      30.272  26.932  23.074  1.00  0.00     0.240 C 
BRANCH   7   8
ATOM      8  O   UNL A   1      31.629  27.221  23.353  1.00  0.00    -0.486 OA
BRANCH   8   9
ATOM      9  C   UNL A   1      32.501  26.498  24.105  1.00  0.00     0.200 A 
ATOM     10  C   UNL A   1      31.620  26.747  26.577  1.00  0.00     0.049 C 
ATOM     11  C   UNL A   1      32.491  26.201  25.479  1.00  0.00    -0.001 A 
ATOM     12  C   UNL A   1      33.435  25.262  25.977  1.00  0.00     0.023 A 
ATOM     13  C   UNL A   1      34.404  24.672  25.175  1.00  0.00     0.025 A 
ATOM     14  C   UNL A   1      33.541  25.915  23.329  1.00  0.00     0.312 A 
ATOM     15  Br  UNL A   1      35.602  23.428  25.933  1.00  0.00    -0.051 Br
ATOM     16  C   UNL A   1      34.484  25.011  23.840  1.00  0.00     0.105 A 
BRANCH  14  17
ATOM     17  N   UNL A   1      33.640  26.196  21.898  1.00  0.00     0.066 N 
ATOM     18  O   UNL A   1      34.015  27.334  21.579  1.00  0.00    -0.258 OA
ATOM     19  O   UNL A   1      33.300  25.306  21.106  1.00  0.00    -0.258 OA
ENDBRANCH  14  17
ENDBRANCH   8   9
ENDBRANCH   7   8
ENDBRANCH   6   7
ENDBRANCH   3   6
ENDBRANCH   1   2
BRANCH   1  20
ATOM     20  C   UNL A   1      30.952  31.579  25.714  1.00  0.00     0.042 C 
BRANCH  20  21
ATOM     21  C   UNL A   1      32.047  31.765  26.776  1.00  0.00     0.118 C 
BRANCH  21  22
ATOM     22  N   UNL A   1      32.206  33.162  27.152  1.00  0.00    -0.352 N 
ATOM     23  C   UNL A   1      33.120  33.811  27.943  1.00  0.00     0.251 C 
ATOM     24  H   UNL A   1      31.525  33.757  26.763  1.00  0.00     0.163 HD
ATOM     25  O   UNL A   1      32.852  34.975  28.271  1.00  0.00    -0.269 OA
BRANCH  23  26
ATOM     26  C   UNL A   1      34.412  33.234  28.417  1.00  0.00     0.039 A 
ATOM     27  C   UNL A   1      34.376  31.955  28.993  1.00  0.00     0.014 A 
ATOM     28  C   UNL A   1      35.608  33.950  28.492  1.00  0.00     0.014 A 
ATOM     29  C   UNL A   1      35.502  31.404  29.626  1.00  0.00     0.010 A 
ATOM     30  C   UNL A   1      36.756  33.372  29.086  1.00  0.00     0.010 A 
ATOM     31  C   UNL A   1      36.722  32.098  29.677  1.00  0.00    -0.014 A 
BRANCH  31  32
ATOM     32  C   UNL A   1      37.920  31.487  30.355  1.00  0.00     0.031 A 
ATOM     33  C   UNL A   1      38.303  31.836  31.779  1.00  0.00     0.074 A 
ATOM     34  C   UNL A   1      38.693  30.593  29.703  1.00  0.00     0.049 A 
ATOM     35  N   UNL A   1      39.280  31.356  32.518  1.00  0.00    -0.248 NA
ATOM     36  C   UNL A   1      37.505  32.867  32.455  1.00  0.00     0.031 C 
ATOM     37  C   UNL A   1      38.513  30.175  28.313  1.00  0.00     0.029 A 
ATOM     38  N   UNL A   1      39.785  29.864  30.126  1.00  0.00    -0.354 N 
ATOM     39  C   UNL A   1      39.220  32.034  33.732  1.00  0.00     0.074 A 
ATOM     40  C   UNL A   1      38.141  32.994  33.612  1.00  0.00     0.031 C 
ATOM     41  C   UNL A   1      39.430  29.242  28.012  1.00  0.00     0.029 A 
ATOM     42  C   UNL A   1      40.288  29.011  29.173  1.00  0.00     0.049 A 
ATOM     43  H   UNL A   1      40.169  29.948  31.029  1.00  0.00     0.167 HD
ATOM     44  C   UNL A   1      39.969  31.867  34.852  1.00  0.00     0.037 A 
ATOM     45  C   UNL A   1      41.312  28.135  29.214  1.00  0.00     0.037 A 
ATOM     46  C   UNL A   1      41.023  30.896  35.019  1.00  0.00     0.049 A 
ATOM     47  C   UNL A   1      42.115  27.950  30.476  1.00  0.00     0.074 A 
ATOM     48  C   UNL A   1      41.770  30.619  36.156  1.00  0.00     0.029 A 
ATOM     49  N   UNL A   1      41.485  30.043  34.030  1.00  0.00    -0.354 N 
ATOM     50  N   UNL A   1      41.984  28.540  31.637  1.00  0.00    -0.248 NA
ATOM     51  C   UNL A   1      43.204  26.960  30.431  1.00  0.00     0.031 C 
ATOM     52  C   UNL A   1      42.710  29.632  35.842  1.00  0.00     0.029 A 
ATOM     53  C   UNL A   1      42.517  29.256  34.525  1.00  0.00     0.049 A 
ATOM     54  H   UNL A   1      41.132  30.000  33.111  1.00  0.00     0.167 HD
ATOM     55  C   UNL A   1      42.946  27.973  32.464  1.00  0.00     0.074 A 
ATOM     56  C   UNL A   1      43.647  26.981  31.680  1.00  0.00     0.031 C 
ATOM     57  C   UNL A   1      43.216  28.256  33.762  1.00  0.00     0.037 A 
BRANCH  44  58
ATOM     58  C   UNL A   1      39.671  32.756  36.029  1.00  0.00     0.064 A 
ATOM     59  C   UNL A   1      40.322  33.988  36.200  1.00  0.00     0.173 A 
ATOM     60  C   UNL A   1      38.670  32.410  36.950  1.00  0.00     0.173 A 
ATOM     61  F   UNL A   1      41.285  34.368  35.347  1.00  0.00    -0.203 F 
ATOM     62  C   UNL A   1      40.002  34.825  37.267  1.00  0.00     0.198 A 
ATOM     63  C   UNL A   1      38.332  33.263  37.997  1.00  0.00     0.198 A 
ATOM     64  F   UNL A   1      38.003  31.254  36.821  1.00  0.00    -0.203 F 
ATOM     65  F   UNL A   1      40.666  35.977  37.434  1.00  0.00    -0.200 F 
ATOM     66  C   UNL A   1      39.004  34.466  38.160  1.00  0.00     0.200 A 
ATOM     67  F   UNL A   1      37.352  32.926  38.847  1.00  0.00    -0.200 F 
ATOM     68  F   UNL A   1      38.690  35.278  39.178  1.00  0.00    -0.200 F 
ENDBRANCH  44  58
BRANCH  45  69
ATOM     69  C   UNL A   1      41.633  27.318  28.013  1.00  0.00     0.064 A 
ATOM     70  C   UNL A   1      41.085  26.038  27.847  1.00  0.00     0.173 A 
ATOM     71  C   UNL A   1      42.512  27.788  27.028  1.00  0.00     0.173 A 
ATOM     72  F   UNL A   1      40.265  25.533  28.779  1.00  0.00    -0.203 F 
ATOM     73  C   UNL A   1      41.424  25.249  26.749  1.00  0.00     0.198 A 
ATOM     74  C   UNL A   1      42.828  27.010  25.917  1.00  0.00     0.198 A 
ATOM     75  F   UNL A   1      43.065  29.005  27.148  1.00  0.00    -0.203 F 
ATOM     76  F   UNL A   1      40.930  24.008  26.641  1.00  0.00    -0.200 F 
ATOM     77  C   UNL A   1      42.290  25.738  25.782  1.00  0.00     0.200 A 
ATOM     78  F   UNL A   1      43.659  27.488  24.982  1.00  0.00    -0.200 F 
ATOM     79  F   UNL A   1      42.616  24.979  24.728  1.00  0.00    -0.200 F 
ENDBRANCH  45  69
BRANCH  57  80
ATOM     80  C   UNL A   1      44.289  27.453  34.444  1.00  0.00     0.064 A 
ATOM     81  C   UNL A   1      45.626  27.875  34.474  1.00  0.00     0.173 A 
ATOM     82  C   UNL A   1      43.971  26.250  35.096  1.00  0.00     0.173 A 
ATOM     83  F   UNL A   1      45.990  29.008  33.855  1.00  0.00    -0.203 F 
ATOM     84  C   UNL A   1      46.608  27.111  35.104  1.00  0.00     0.198 A 
ATOM     85  C   UNL A   1      44.949  25.503  35.748  1.00  0.00     0.198 A 
ATOM     86  F   UNL A   1      42.707  25.800  35.105  1.00  0.00    -0.203 F 
ATOM     87  F   UNL A   1      47.887  27.511  35.074  1.00  0.00    -0.200 F 
ATOM     88  C   UNL A   1      46.268  25.929  35.745  1.00  0.00     0.200 A 
ATOM     89  F   UNL A   1      44.616  24.368  36.377  1.00  0.00    -0.200 F 
ATOM     90  F   UNL A   1      47.213  25.198  36.351  1.00  0.00    -0.200 F 
ENDBRANCH  57  80
ENDBRANCH  31  32
ENDBRANCH  23  26
ENDBRANCH  21  22
ENDBRANCH  20  21
ENDBRANCH   1  20
TORSDOF 14
ENDMDL
MODEL 3
REMARK VINA RESULT:     -11.4      4.770     10.247
REMARK SMILES Cc1cc(Br)cc([N+](=O)[O-])c1OCCC(=O)NCCCNC(=O)c1ccc(-c2c3nc(c(-c4c(F)c(F)c(F)c(F)c4F)c4ccc([nH]4)c(-c4c(F)c(F)c(F)c(F)c4F)c4nc(c(-c5c(F)c(F)c(F)c(F)c5F)c5ccc2[nH]5)C=C4)C=C3)cc1
REMARK SMILES IDX 18 1 17 2 15 3 16 4 14 6 13 7 12 8 11 9 1 10 2 11 3 12 4 13
REMARK SMILES IDX 7 14 5 15 6 16 8 17 9 18 10 19 19 20 20 21 21 22 22 23 23 25
REMARK SMILES IDX 24 26 25 27 86 28 26 29 85 30 27 31 28 32 29 33 79 34 30 35
REMARK SMILES IDX 84 36 78 37 80 38 31 39 83 40 77 41 76 42 32 44 64 45 44 46
REMARK SMILES IDX 63 47 45 48 48 49 62 50 81 51 46 52 47 53 61 55 82 56 49 57
REMARK SMILES IDX 33 58 34 59 42 60 35 61 36 62 40 63 43 64 37 65 38 66 41 67
REMARK SMILES IDX 39 68 65 69 66 70 74 71 67 72 68 73 72 74 75 75 69 76 70 77
REMARK SMILES IDX 73 78 71 79 50 80 51 81 59 82 52 83 53 84 57 85 60 86 54 87
REMARK SMILES IDX 55 88 58 89 56 90
REMARK H PARENT 17 5 21 24 80 43 48 54
REMARK Flexibility Score: inf
ROOT
ATOM      1  C   UNL A   1      31.495  29.743  25.026  1.00  0.00     0.117 C 
ENDROOT
BRANCH   1   2
ATOM      2  N   UNL A   1      30.950  29.645  23.680  1.00  0.00    -0.356 N 
ATOM      3  C   UNL A   1      30.408  28.579  23.022  1.00  0.00     0.223 C 
ATOM      4  O   UNL A   1      29.808  28.791  21.967  1.00  0.00    -0.275 OA
ATOM      5  H   UNL A   1      30.975  30.480  23.160  1.00  0.00     0.163 HD
BRANCH   3   6
ATOM      6  C   UNL A   1      30.533  27.178  23.569  1.00  0.00     0.141 C 
BRANCH   6   7
ATOM      7  C   UNL A   1      31.425  26.274  22.725  1.00  0.00     0.240 C 
BRANCH   7   8
ATOM      8  O   UNL A   1      31.873  25.129  23.426  1.00  0.00    -0.486 OA
BRANCH   8   9
ATOM      9  C   UNL A   1      33.106  24.900  23.950  1.00  0.00     0.200 A 
ATOM     10  C   UNL A   1      33.306  26.597  25.957  1.00  0.00     0.049 C 
ATOM     11  C   UNL A   1      33.731  25.449  25.083  1.00  0.00    -0.001 A 
ATOM     12  C   UNL A   1      34.967  24.892  25.513  1.00  0.00     0.023 A 
ATOM     13  C   UNL A   1      35.611  23.870  24.826  1.00  0.00     0.025 A 
ATOM     14  C   UNL A   1      33.822  23.893  23.246  1.00  0.00     0.312 A 
ATOM     15  Br  UNL A   1      37.242  23.194  25.489  1.00  0.00    -0.051 Br
ATOM     16  C   UNL A   1      35.055  23.373  23.666  1.00  0.00     0.105 A 
BRANCH  14  17
ATOM     17  N   UNL A   1      33.256  23.290  22.041  1.00  0.00     0.066 N 
ATOM     18  O   UNL A   1      32.665  22.209  22.184  1.00  0.00    -0.258 OA
ATOM     19  O   UNL A   1      33.442  23.866  20.960  1.00  0.00    -0.258 OA
ENDBRANCH  14  17
ENDBRANCH   8   9
ENDBRANCH   7   8
ENDBRANCH   6   7
ENDBRANCH   3   6
ENDBRANCH   1   2
BRANCH   1  20
ATOM     20  C   UNL A   1      31.241  31.089  25.706  1.00  0.00     0.042 C 
BRANCH  20  21
ATOM     21  C   UNL A   1      32.083  31.357  26.964  1.00  0.00     0.118 C 
BRANCH  21  22
ATOM     22  N   UNL A   1      32.333  32.778  27.156  1.00  0.00    -0.352 N 
ATOM     23  C   UNL A   1      33.316  33.465  27.823  1.00  0.00     0.251 C 
ATOM     24  H   UNL A   1      31.665  33.360  26.725  1.00  0.00     0.163 HD
ATOM     25  O   UNL A   1      33.124  34.674  28.015  1.00  0.00    -0.269 OA
BRANCH  23  26
ATOM     26  C   UNL A   1      34.598  32.877  28.310  1.00  0.00     0.039 A 
ATOM     27  C   UNL A   1      34.527  31.664  29.012  1.00  0.00     0.014 A 
ATOM     28  C   UNL A   1      35.826  33.539  28.274  1.00  0.00     0.014 A 
ATOM     29  C   UNL A   1      35.650  31.125  29.661  1.00  0.00     0.010 A 
ATOM     30  C   UNL A   1      36.968  32.969  28.884  1.00  0.00     0.010 A 
ATOM     31  C   UNL A   1      36.900  31.762  29.602  1.00  0.00    -0.014 A 
BRANCH  31  32
ATOM     32  C   UNL A   1      38.094  31.165  30.299  1.00  0.00     0.031 A 
ATOM     33  C   UNL A   1      38.438  31.499  31.736  1.00  0.00     0.074 A 
ATOM     34  C   UNL A   1      38.900  30.296  29.651  1.00  0.00     0.049 A 
ATOM     35  N   UNL A   1      39.406  31.028  32.491  1.00  0.00    -0.248 NA
ATOM     36  C   UNL A   1      37.603  32.504  32.408  1.00  0.00     0.031 C 
ATOM     37  C   UNL A   1      38.761  29.896  28.252  1.00  0.00     0.029 A 
ATOM     38  N   UNL A   1      39.997  29.583  30.089  1.00  0.00    -0.354 N 
ATOM     39  C   UNL A   1      39.305  31.685  33.712  1.00  0.00     0.074 A 
ATOM     40  C   UNL A   1      38.209  32.625  33.582  1.00  0.00     0.031 C 
ATOM     41  C   UNL A   1      39.704  28.986  27.958  1.00  0.00     0.029 A 
ATOM     42  C   UNL A   1      40.538  28.755  29.135  1.00  0.00     0.049 A 
ATOM     43  H   UNL A   1      40.358  29.661  31.001  1.00  0.00     0.167 HD
ATOM     44  C   UNL A   1      40.031  31.517  34.847  1.00  0.00     0.037 A 
ATOM     45  C   UNL A   1      41.579  27.899  29.187  1.00  0.00     0.037 A 
ATOM     46  C   UNL A   1      41.100  30.564  35.024  1.00  0.00     0.049 A 
ATOM     47  C   UNL A   1      42.356  27.710  30.465  1.00  0.00     0.074 A 
ATOM     48  C   UNL A   1      41.826  30.284  36.174  1.00  0.00     0.029 A 
ATOM     49  N   UNL A   1      41.602  29.736  34.034  1.00  0.00    -0.354 N 
ATOM     50  N   UNL A   1      42.186  28.280  31.631  1.00  0.00    -0.248 NA
ATOM     51  C   UNL A   1      43.466  26.743  30.430  1.00  0.00     0.031 C 
ATOM     52  C   UNL A   1      42.793  29.322  35.867  1.00  0.00     0.029 A 
ATOM     53  C   UNL A   1      42.638  28.962  34.541  1.00  0.00     0.049 A 
ATOM     54  H   UNL A   1      41.272  29.700  33.107  1.00  0.00     0.167 HD
ATOM     55  C   UNL A   1      43.141  27.720  32.472  1.00  0.00     0.074 A 
ATOM     56  C   UNL A   1      43.879  26.754  31.690  1.00  0.00     0.031 C 
ATOM     57  C   UNL A   1      43.375  27.987  33.780  1.00  0.00     0.037 A 
BRANCH  44  58
ATOM     58  C   UNL A   1      39.688  32.381  36.030  1.00  0.00     0.064 A 
ATOM     59  C   UNL A   1      40.341  33.603  36.258  1.00  0.00     0.173 A 
ATOM     60  C   UNL A   1      38.644  32.024  36.897  1.00  0.00     0.173 A 
ATOM     61  F   UNL A   1      41.344  33.993  35.458  1.00  0.00    -0.203 F 
ATOM     62  C   UNL A   1      39.980  34.418  37.329  1.00  0.00     0.198 A 
ATOM     63  C   UNL A   1      38.267  32.856  37.948  1.00  0.00     0.198 A 
ATOM     64  F   UNL A   1      37.974  30.876  36.713  1.00  0.00    -0.203 F 
ATOM     65  F   UNL A   1      40.646  35.560  37.552  1.00  0.00    -0.200 F 
ATOM     66  C   UNL A   1      38.940  34.048  38.168  1.00  0.00     0.200 A 
ATOM     67  F   UNL A   1      37.247  32.508  38.745  1.00  0.00    -0.200 F 
ATOM     68  F   UNL A   1      38.588  34.840  39.190  1.00  0.00    -0.200 F 
ENDBRANCH  44  58
BRANCH  45  69
ATOM     69  C   UNL A   1      41.944  27.107  27.982  1.00  0.00     0.064 A 
ATOM     70  C   UNL A   1      42.857  27.608  27.042  1.00  0.00     0.173 A 
ATOM     71  C   UNL A   1      41.366  25.856  27.732  1.00  0.00     0.173 A 
ATOM     72  F   UNL A   1      43.410  28.816  27.223  1.00  0.00    -0.203 F 
ATOM     73  C   UNL A   1      43.162  26.893  25.886  1.00  0.00     0.198 A 
ATOM     74  C   UNL A   1      41.694  25.129  26.589  1.00  0.00     0.198 A 
ATOM     75  F   UNL A   1      40.483  25.339  28.599  1.00  0.00    -0.203 F 
ATOM     76  F   UNL A   1      43.995  27.418  24.977  1.00  0.00    -0.200 F 
ATOM     77  C   UNL A   1      42.584  25.652  25.663  1.00  0.00     0.200 A 
ATOM     78  F   UNL A   1      41.140  23.928  26.380  1.00  0.00    -0.200 F 
ATOM     79  F   UNL A   1      42.876  24.966  24.550  1.00  0.00    -0.200 F 
ENDBRANCH  45  69
BRANCH  57  80
ATOM     80  C   UNL A   1      44.448  27.196  34.475  1.00  0.00     0.064 A 
ATOM     81  C   UNL A   1      44.183  25.956  35.076  1.00  0.00     0.173 A 
ATOM     82  C   UNL A   1      45.767  27.674  34.523  1.00  0.00     0.173 A 
ATOM     83  F   UNL A   1      42.938  25.457  35.073  1.00  0.00    -0.203 F 
ATOM     84  C   UNL A   1      45.189  25.241  35.724  1.00  0.00     0.198 A 
ATOM     85  C   UNL A   1      46.776  26.945  35.147  1.00  0.00     0.198 A 
ATOM     86  F   UNL A   1      46.080  28.851  33.960  1.00  0.00    -0.203 F 
ATOM     87  F   UNL A   1      44.900  24.084  36.335  1.00  0.00    -0.200 F 
ATOM     88  C   UNL A   1      46.485  25.734  35.754  1.00  0.00     0.200 A 
ATOM     89  F   UNL A   1      48.030  27.417  35.165  1.00  0.00    -0.200 F 
ATOM     90  F   UNL A   1      47.451  25.044  36.377  1.00  0.00    -0.200 F 
ENDBRANCH  57  80
ENDBRANCH  31  32
ENDBRANCH  23  26
ENDBRANCH  21  22
ENDBRANCH  20  21
ENDBRANCH   1  20
TORSDOF 14
ENDMDL
