MODEL 1
REMARK VINA RESULT:     -11.5      0.000      0.000
REMARK SMILES CCCCCCNC(=O)Nc1cccc(-c2ccc([C@@H](C)C(=O)NCCCNC(=O)c3ccc(-c4c5nc(c(-c6c(F)c(F)c(F)c(F)c6F)c6ccc([nH]6)c(-c6c(F)c(F)c(F)c(F)c6F)c6nc(c(-c7c(F)c(F)c(F)c(F)c7F)c7ccc4[nH]7)C=C6)C=C5)cc3)cc2F)c1
REMARK SMILES IDX 20 1 21 2 19 3 16 4 17 5 95 6 18 7 94 8 96 9 15 10 11 11
REMARK SMILES IDX 12 12 97 13 13 14 14 15 10 16 7 17 8 18 9 20 6 22 5 23 4 24
REMARK SMILES IDX 3 25 2 26 1 27 22 28 23 29 24 30 25 32 26 33 27 34 28 35
REMARK SMILES IDX 29 36 30 38 31 39 32 40 93 41 33 42 92 43 34 44 35 45 36 46
REMARK SMILES IDX 86 47 37 48 91 49 85 50 87 51 38 52 90 53 84 54 83 55 39 57
REMARK SMILES IDX 71 58 51 59 70 60 52 61 55 62 69 63 88 64 53 65 54 66 68 68
REMARK SMILES IDX 89 69 56 70 40 71 41 72 49 73 42 74 43 75 47 76 50 77 44 78
REMARK SMILES IDX 45 79 48 80 46 81 72 82 73 83 81 84 74 85 75 86 79 87 82 88
REMARK SMILES IDX 76 89 77 90 80 91 78 92 57 93 58 94 66 95 59 96 60 97 64 98
REMARK SMILES IDX 67 99 61 100 62 101 65 102 63 103
REMARK H PARENT 7 19 10 21 24 31 28 37 87 56 55 67
REMARK Flexibility Score: inf
ROOT
ATOM      1  C   UNL A   1      40.952  21.734  26.220  1.00  0.00     0.105 C 
ATOM      2  C   UNL A   1      42.036  22.565  25.536  1.00  0.00     0.023 C 
ENDROOT
BRANCH   1   3
ATOM      3  C   UNL A   1      39.541  22.279  26.065  1.00  0.00    -0.033 A 
ATOM      4  C   UNL A   1      36.838  23.213  25.837  1.00  0.00     0.018 A 
ATOM      5  C   UNL A   1      37.849  23.997  26.417  1.00  0.00     0.012 A 
ATOM      6  C   UNL A   1      37.231  21.957  25.350  1.00  0.00     0.131 A 
ATOM      7  C   UNL A   1      39.175  23.556  26.493  1.00  0.00     0.005 A 
ATOM      8  C   UNL A   1      38.544  21.487  25.476  1.00  0.00     0.044 A 
ATOM      9  F   UNL A   1      36.344  21.155  24.741  1.00  0.00    -0.206 F 
BRANCH   4  10
ATOM     10  C   UNL A   1      35.438  23.698  25.806  1.00  0.00    -0.013 A 
ATOM     11  C   UNL A   1      33.592  24.756  24.596  1.00  0.00     0.043 A 
ATOM     12  C   UNL A   1      32.706  24.431  25.619  1.00  0.00     0.026 A 
ATOM     13  C   UNL A   1      34.955  24.458  24.729  1.00  0.00     0.035 A 
ATOM     14  C   UNL A   1      33.162  23.703  26.713  1.00  0.00     0.003 A 
ATOM     15  C   UNL A   1      34.508  23.331  26.798  1.00  0.00     0.009 A 
BRANCH  11  16
ATOM     16  N   UNL A   1      33.063  25.314  23.424  1.00  0.00    -0.308 N 
ATOM     17  N   UNL A   1      32.493  23.430  22.109  1.00  0.00    -0.338 N 
ATOM     18  C   UNL A   1      32.800  24.744  22.222  1.00  0.00     0.319 C 
ATOM     19  H   UNL A   1      32.505  23.083  21.188  1.00  0.00     0.165 HD
ATOM     20  O   UNL A   1      32.736  25.450  21.214  1.00  0.00    -0.249 OA
ATOM     21  H   UNL A   1      32.848  26.273  23.482  1.00  0.00     0.171 HD
BRANCH  17  22
ATOM     22  C   UNL A   1      32.148  22.446  23.124  1.00  0.00     0.117 C 
BRANCH  22  23
ATOM     23  C   UNL A   1      33.233  21.405  23.366  1.00  0.00     0.021 C 
BRANCH  23  24
ATOM     24  C   UNL A   1      33.080  20.582  24.644  1.00  0.00     0.002 C 
BRANCH  24  25
ATOM     25  C   UNL A   1      33.705  19.184  24.615  1.00  0.00    -0.000 C 
BRANCH  25  26
ATOM     26  C   UNL A   1      32.881  18.104  23.913  1.00  0.00    -0.003 C 
ATOM     27  C   UNL A   1      33.735  16.981  23.362  1.00  0.00     0.004 C 
ENDBRANCH  25  26
ENDBRANCH  24  25
ENDBRANCH  23  24
ENDBRANCH  22  23
ENDBRANCH  17  22
ENDBRANCH  11  16
ENDBRANCH   4  10
ENDBRANCH   1   3
BRANCH   1  28
ATOM     28  C   UNL A   1      41.290  21.266  27.645  1.00  0.00     0.227 C 
ATOM     29  O   UNL A   1      41.354  22.095  28.562  1.00  0.00    -0.274 OA
ATOM     30  N   UNL A   1      41.530  19.975  28.000  1.00  0.00    -0.356 N 
ATOM     31  H   UNL A   1      41.670  19.849  28.967  1.00  0.00     0.163 HD
BRANCH  30  32
ATOM     32  C   UNL A   1      41.621  18.748  27.233  1.00  0.00     0.117 C 
BRANCH  32  33
ATOM     33  C   UNL A   1      43.004  18.554  26.617  1.00  0.00     0.042 C 
BRANCH  33  34
ATOM     34  C   UNL A   1      43.127  19.042  25.181  1.00  0.00     0.118 C 
BRANCH  34  35
ATOM     35  N   UNL A   1      44.427  18.756  24.593  1.00  0.00    -0.352 N 
ATOM     36  C   UNL A   1      45.466  19.608  24.295  1.00  0.00     0.251 C 
ATOM     37  H   UNL A   1      44.588  17.810  24.375  1.00  0.00     0.163 HD
ATOM     38  O   UNL A   1      46.412  19.205  23.628  1.00  0.00    -0.269 OA
BRANCH  36  39
ATOM     39  C   UNL A   1      45.440  21.015  24.757  1.00  0.00     0.039 A 
ATOM     40  C   UNL A   1      45.587  21.290  26.119  1.00  0.00     0.014 A 
ATOM     41  C   UNL A   1      45.250  22.064  23.858  1.00  0.00     0.014 A 
ATOM     42  C   UNL A   1      45.618  22.616  26.564  1.00  0.00     0.010 A 
ATOM     43  C   UNL A   1      45.372  23.384  24.291  1.00  0.00     0.010 A 
ATOM     44  C   UNL A   1      45.556  23.680  25.649  1.00  0.00    -0.014 A 
BRANCH  44  45
ATOM     45  C   UNL A   1      45.679  25.099  26.089  1.00  0.00     0.031 A 
ATOM     46  C   UNL A   1      47.007  25.811  26.014  1.00  0.00     0.074 A 
ATOM     47  C   UNL A   1      44.614  25.735  26.617  1.00  0.00     0.049 A 
ATOM     48  N   UNL A   1      47.320  27.024  26.398  1.00  0.00    -0.248 NA
ATOM     49  C   UNL A   1      48.139  25.050  25.465  1.00  0.00     0.031 C 
ATOM     50  C   UNL A   1      43.287  25.147  26.809  1.00  0.00     0.029 A 
ATOM     51  N   UNL A   1      44.477  27.016  27.097  1.00  0.00    -0.354 N 
ATOM     52  C   UNL A   1      48.681  27.159  26.154  1.00  0.00     0.074 A 
ATOM     53  C   UNL A   1      49.148  25.885  25.655  1.00  0.00     0.031 C 
ATOM     54  C   UNL A   1      42.464  26.072  27.328  1.00  0.00     0.029 A 
ATOM     55  C   UNL A   1      43.213  27.306  27.550  1.00  0.00     0.049 A 
ATOM     56  H   UNL A   1      45.218  27.665  27.115  1.00  0.00     0.167 HD
ATOM     57  C   UNL A   1      49.466  28.254  26.302  1.00  0.00     0.037 A 
ATOM     58  C   UNL A   1      42.711  28.435  28.089  1.00  0.00     0.037 A 
ATOM     59  C   UNL A   1      48.997  29.530  26.771  1.00  0.00     0.049 A 
ATOM     60  C   UNL A   1      43.605  29.637  28.247  1.00  0.00     0.074 A 
ATOM     61  C   UNL A   1      49.701  30.717  26.892  1.00  0.00     0.029 A 
ATOM     62  N   UNL A   1      47.703  29.788  27.201  1.00  0.00    -0.354 N 
ATOM     63  N   UNL A   1      44.871  29.775  27.932  1.00  0.00    -0.248 NA
ATOM     64  C   UNL A   1      42.998  30.844  28.828  1.00  0.00     0.031 C 
ATOM     65  C   UNL A   1      48.849  31.676  27.449  1.00  0.00     0.029 A 
ATOM     66  C   UNL A   1      47.596  31.106  27.612  1.00  0.00     0.049 A 
ATOM     67  H   UNL A   1      46.971  29.130  27.213  1.00  0.00     0.167 HD
ATOM     68  C   UNL A   1      45.200  31.088  28.241  1.00  0.00     0.074 A 
ATOM     69  C   UNL A   1      44.000  31.710  28.758  1.00  0.00     0.031 C 
ATOM     70  C   UNL A   1      46.391  31.722  28.106  1.00  0.00     0.037 A 
BRANCH  57  71
ATOM     71  C   UNL A   1      50.921  28.122  25.944  1.00  0.00     0.064 A 
ATOM     72  C   UNL A   1      51.900  27.869  26.917  1.00  0.00     0.173 A 
ATOM     73  C   UNL A   1      51.337  28.209  24.606  1.00  0.00     0.173 A 
ATOM     74  F   UNL A   1      51.560  27.785  28.212  1.00  0.00    -0.203 F 
ATOM     75  C   UNL A   1      53.243  27.744  26.570  1.00  0.00     0.198 A 
ATOM     76  C   UNL A   1      52.676  28.048  24.258  1.00  0.00     0.198 A 
ATOM     77  F   UNL A   1      50.443  28.440  23.633  1.00  0.00    -0.203 F 
ATOM     78  F   UNL A   1      54.166  27.561  27.524  1.00  0.00    -0.200 F 
ATOM     79  C   UNL A   1      53.629  27.826  25.241  1.00  0.00     0.200 A 
ATOM     80  F   UNL A   1      53.045  28.109  22.971  1.00  0.00    -0.200 F 
ATOM     81  F   UNL A   1      54.920  27.697  24.907  1.00  0.00    -0.200 F 
ENDBRANCH  57  71
BRANCH  58  82
ATOM     82  C   UNL A   1      41.281  28.496  28.496  1.00  0.00     0.064 A 
ATOM     83  C   UNL A   1      40.297  28.950  27.606  1.00  0.00     0.173 A 
ATOM     84  C   UNL A   1      40.868  28.113  29.781  1.00  0.00     0.173 A 
ATOM     85  F   UNL A   1      40.642  29.344  26.371  1.00  0.00    -0.203 F 
ATOM     86  C   UNL A   1      38.961  29.044  27.993  1.00  0.00     0.198 A 
ATOM     87  C   UNL A   1      39.527  28.175  30.156  1.00  0.00     0.198 A 
ATOM     88  F   UNL A   1      41.766  27.662  30.669  1.00  0.00    -0.203 F 
ATOM     89  F   UNL A   1      38.051  29.531  27.138  1.00  0.00    -0.200 F 
ATOM     90  C   UNL A   1      38.576  28.651  29.265  1.00  0.00     0.200 A 
ATOM     91  F   UNL A   1      39.157  27.775  31.380  1.00  0.00    -0.200 F 
ATOM     92  F   UNL A   1      37.292  28.736  29.637  1.00  0.00    -0.200 F 
ENDBRANCH  58  82
BRANCH  70  93
ATOM     93  C   UNL A   1      46.452  33.178  28.467  1.00  0.00     0.064 A 
ATOM     94  C   UNL A   1      46.793  33.609  29.758  1.00  0.00     0.173 A 
ATOM     95  C   UNL A   1      46.222  34.158  27.487  1.00  0.00     0.173 A 
ATOM     96  F   UNL A   1      47.008  32.715  30.734  1.00  0.00    -0.203 F 
ATOM     97  C   UNL A   1      46.879  34.967  30.058  1.00  0.00     0.198 A 
ATOM     98  C   UNL A   1      46.343  35.513  27.784  1.00  0.00     0.198 A 
ATOM     99  F   UNL A   1      45.900  33.799  26.236  1.00  0.00    -0.203 F 
ATOM    100  F   UNL A   1      47.161  35.356  31.310  1.00  0.00    -0.200 F 
ATOM    101  C   UNL A   1      46.665  35.916  29.070  1.00  0.00     0.200 A 
ATOM    102  F   UNL A   1      46.153  36.427  26.823  1.00  0.00    -0.200 F 
ATOM    103  F   UNL A   1      46.763  37.221  29.360  1.00  0.00    -0.200 F 
ENDBRANCH  70  93
ENDBRANCH  44  45
ENDBRANCH  36  39
ENDBRANCH  34  35
ENDBRANCH  33  34
ENDBRANCH  32  33
ENDBRANCH  30  32
ENDBRANCH   1  28
TORSDOF 18
ENDMDL
MODEL 2
REMARK VINA RESULT:     -11.3      5.264     11.111
REMARK SMILES CCCCCCNC(=O)Nc1cccc(-c2ccc([C@@H](C)C(=O)NCCCNC(=O)c3ccc(-c4c5nc(c(-c6c(F)c(F)c(F)c(F)c6F)c6ccc([nH]6)c(-c6c(F)c(F)c(F)c(F)c6F)c6nc(c(-c7c(F)c(F)c(F)c(F)c7F)c7ccc4[nH]7)C=C6)C=C5)cc3)cc2F)c1
REMARK SMILES IDX 20 1 21 2 19 3 16 4 17 5 95 6 18 7 94 8 96 9 15 10 11 11
REMARK SMILES IDX 12 12 97 13 13 14 14 15 10 16 7 17 8 18 9 20 6 22 5 23 4 24
REMARK SMILES IDX 3 25 2 26 1 27 22 28 23 29 24 30 25 32 26 33 27 34 28 35
REMARK SMILES IDX 29 36 30 38 31 39 32 40 93 41 33 42 92 43 34 44 35 45 36 46
REMARK SMILES IDX 86 47 37 48 91 49 85 50 87 51 38 52 90 53 84 54 83 55 39 57
REMARK SMILES IDX 71 58 51 59 70 60 52 61 55 62 69 63 88 64 53 65 54 66 68 68
REMARK SMILES IDX 89 69 56 70 40 71 41 72 49 73 42 74 43 75 47 76 50 77 44 78
REMARK SMILES IDX 45 79 48 80 46 81 72 82 73 83 81 84 74 85 75 86 79 87 82 88
REMARK SMILES IDX 76 89 77 90 80 91 78 92 57 93 58 94 66 95 59 96 60 97 64 98
REMARK SMILES IDX 67 99 61 100 62 101 65 102 63 103
REMARK H PARENT 7 19 10 21 24 31 28 37 87 56 55 67
REMARK Flexibility Score: inf
ROOT
ATOM      1  C   UNL A   1      28.987  28.008  22.871  1.00  0.00     0.105 C 
ATOM      2  C   UNL A   1      27.600  28.147  23.497  1.00  0.00     0.023 C 
ENDROOT
BRANCH   1   3
ATOM      3  C   UNL A   1      29.900  27.011  23.567  1.00  0.00    -0.033 A 
ATOM      4  C   UNL A   1      31.713  25.213  24.873  1.00  0.00     0.018 A 
ATOM      5  C   UNL A   1      30.513  25.626  25.476  1.00  0.00     0.012 A 
ATOM      6  C   UNL A   1      31.962  25.708  23.584  1.00  0.00     0.131 A 
ATOM      7  C   UNL A   1      29.610  26.472  24.821  1.00  0.00     0.005 A 
ATOM      8  C   UNL A   1      31.091  26.601  22.949  1.00  0.00     0.044 A 
ATOM      9  F   UNL A   1      33.062  25.335  22.912  1.00  0.00    -0.206 F 
BRANCH   4  10
ATOM     10  C   UNL A   1      32.660  24.344  25.610  1.00  0.00    -0.013 A 
ATOM     11  C   UNL A   1      34.958  23.747  26.206  1.00  0.00     0.043 A 
ATOM     12  C   UNL A   1      34.500  22.859  27.176  1.00  0.00     0.026 A 
ATOM     13  C   UNL A   1      34.045  24.420  25.384  1.00  0.00     0.035 A 
ATOM     14  C   UNL A   1      33.133  22.741  27.402  1.00  0.00     0.003 A 
ATOM     15  C   UNL A   1      32.227  23.484  26.638  1.00  0.00     0.009 A 
BRANCH  11  16
ATOM     16  N   UNL A   1      36.338  23.987  26.138  1.00  0.00    -0.308 N 
ATOM     17  N   UNL A   1      37.216  21.982  25.237  1.00  0.00    -0.338 N 
ATOM     18  C   UNL A   1      37.369  23.129  25.940  1.00  0.00     0.319 C 
ATOM     19  H   UNL A   1      37.967  21.350  25.313  1.00  0.00     0.165 HD
ATOM     20  O   UNL A   1      38.500  23.439  26.318  1.00  0.00    -0.249 OA
ATOM     21  H   UNL A   1      36.601  24.929  26.251  1.00  0.00     0.171 HD
BRANCH  17  22
ATOM     22  C   UNL A   1      36.125  21.529  24.388  1.00  0.00     0.117 C 
BRANCH  22  23
ATOM     23  C   UNL A   1      35.446  20.258  24.883  1.00  0.00     0.021 C 
BRANCH  23  24
ATOM     24  C   UNL A   1      33.930  20.213  24.708  1.00  0.00     0.002 C 
BRANCH  24  25
ATOM     25  C   UNL A   1      33.370  18.938  24.070  1.00  0.00    -0.000 C 
BRANCH  25  26
ATOM     26  C   UNL A   1      34.049  17.634  24.490  1.00  0.00    -0.003 C 
ATOM     27  C   UNL A   1      34.033  16.587  23.395  1.00  0.00     0.004 C 
ENDBRANCH  25  26
ENDBRANCH  24  25
ENDBRANCH  23  24
ENDBRANCH  22  23
ENDBRANCH  17  22
ENDBRANCH  11  16
ENDBRANCH   4  10
ENDBRANCH   1   3
BRANCH   1  28
ATOM     28  C   UNL A   1      29.672  29.334  22.500  1.00  0.00     0.227 C 
ATOM     29  O   UNL A   1      29.581  29.768  21.345  1.00  0.00    -0.274 OA
ATOM     30  N   UNL A   1      30.394  30.099  23.363  1.00  0.00    -0.356 N 
ATOM     31  H   UNL A   1      30.710  30.946  22.972  1.00  0.00     0.163 HD
BRANCH  30  32
ATOM     32  C   UNL A   1      30.789  29.913  24.745  1.00  0.00     0.117 C 
BRANCH  32  33
ATOM     33  C   UNL A   1      32.233  29.434  24.873  1.00  0.00     0.042 C 
BRANCH  33  34
ATOM     34  C   UNL A   1      32.908  29.814  26.183  1.00  0.00     0.118 C 
BRANCH  34  35
ATOM     35  N   UNL A   1      32.764  31.226  26.507  1.00  0.00    -0.352 N 
ATOM     36  C   UNL A   1      33.501  32.012  27.363  1.00  0.00     0.251 C 
ATOM     37  H   UNL A   1      32.029  31.687  26.044  1.00  0.00     0.163 HD
ATOM     38  O   UNL A   1      33.107  33.137  27.646  1.00  0.00    -0.269 OA
BRANCH  36  39
ATOM     39  C   UNL A   1      34.754  31.500  27.963  1.00  0.00     0.039 A 
ATOM     40  C   UNL A   1      35.845  32.361  28.104  1.00  0.00     0.014 A 
ATOM     41  C   UNL A   1      34.868  30.170  28.367  1.00  0.00     0.014 A 
ATOM     42  C   UNL A   1      37.018  31.907  28.717  1.00  0.00     0.010 A 
ATOM     43  C   UNL A   1      36.002  29.746  29.058  1.00  0.00     0.010 A 
ATOM     44  C   UNL A   1      37.094  30.606  29.242  1.00  0.00    -0.014 A 
BRANCH  44  45
ATOM     45  C   UNL A   1      38.298  30.129  29.980  1.00  0.00     0.031 A 
ATOM     46  C   UNL A   1      38.576  30.609  31.383  1.00  0.00     0.074 A 
ATOM     47  C   UNL A   1      39.182  29.313  29.371  1.00  0.00     0.049 A 
ATOM     48  N   UNL A   1      39.596  30.347  32.162  1.00  0.00    -0.248 NA
ATOM     49  C   UNL A   1      37.595  31.530  31.976  1.00  0.00     0.031 C 
ATOM     50  C   UNL A   1      39.072  28.822  27.996  1.00  0.00     0.029 A 
ATOM     51  N   UNL A   1      40.352  28.754  29.826  1.00  0.00    -0.354 N 
ATOM     52  C   UNL A   1      39.386  31.083  33.322  1.00  0.00     0.074 A 
ATOM     53  C   UNL A   1      38.180  31.854  33.119  1.00  0.00     0.031 C 
ATOM     54  C   UNL A   1      40.106  28.009  27.732  1.00  0.00     0.029 A 
ATOM     55  C   UNL A   1      40.980  27.954  28.901  1.00  0.00     0.049 A 
ATOM     56  H   UNL A   1      40.708  28.913  30.730  1.00  0.00     0.167 HD
ATOM     57  C   UNL A   1      40.113  31.092  34.466  1.00  0.00     0.037 A 
ATOM     58  C   UNL A   1      42.131  27.258  28.981  1.00  0.00     0.037 A 
ATOM     59  C   UNL A   1      41.297  30.304  34.680  1.00  0.00     0.049 A 
ATOM     60  C   UNL A   1      42.924  27.287  30.262  1.00  0.00     0.074 A 
ATOM     61  C   UNL A   1      42.065  30.194  35.827  1.00  0.00     0.029 A 
ATOM     62  N   UNL A   1      41.888  29.490  33.724  1.00  0.00    -0.354 N 
ATOM     63  N   UNL A   1      42.667  27.922  31.380  1.00  0.00    -0.248 NA
ATOM     64  C   UNL A   1      44.163  26.497  30.294  1.00  0.00     0.031 C 
ATOM     65  C   UNL A   1      43.152  29.361  35.548  1.00  0.00     0.029 A 
ATOM     66  C   UNL A   1      43.026  28.897  34.248  1.00  0.00     0.049 A 
ATOM     67  H   UNL A   1      41.550  29.356  32.810  1.00  0.00     0.167 HD
ATOM     68  C   UNL A   1      43.687  27.579  32.257  1.00  0.00     0.074 A 
ATOM     69  C   UNL A   1      44.563  26.672  31.546  1.00  0.00     0.031 C 
ATOM     70  C   UNL A   1      43.880  27.979  33.538  1.00  0.00     0.037 A 
BRANCH  57  71
ATOM     71  C   UNL A   1      39.643  31.982  35.583  1.00  0.00     0.064 A 
ATOM     72  C   UNL A   1      38.725  31.534  36.546  1.00  0.00     0.173 A 
ATOM     73  C   UNL A   1      40.146  33.285  35.718  1.00  0.00     0.173 A 
ATOM     74  F   UNL A   1      38.205  30.300  36.462  1.00  0.00    -0.203 F 
ATOM     75  C   UNL A   1      38.302  32.367  37.579  1.00  0.00     0.198 A 
ATOM     76  C   UNL A   1      39.749  34.103  36.772  1.00  0.00     0.198 A 
ATOM     77  F   UNL A   1      41.034  33.763  34.833  1.00  0.00    -0.203 F 
ATOM     78  F   UNL A   1      37.381  31.936  38.451  1.00  0.00    -0.200 F 
ATOM     79  C   UNL A   1      38.820  33.648  37.695  1.00  0.00     0.200 A 
ATOM     80  F   UNL A   1      40.264  35.335  36.895  1.00  0.00    -0.200 F 
ATOM     81  F   UNL A   1      38.419  34.446  38.695  1.00  0.00    -0.200 F 
ENDBRANCH  57  71
BRANCH  58  82
ATOM     82  C   UNL A   1      42.595  26.447  27.822  1.00  0.00     0.064 A 
ATOM     83  C   UNL A   1      42.136  25.135  27.630  1.00  0.00     0.173 A 
ATOM     84  C   UNL A   1      43.510  26.959  26.890  1.00  0.00     0.173 A 
ATOM     85  F   UNL A   1      41.274  24.593  28.503  1.00  0.00    -0.203 F 
ATOM     86  C   UNL A   1      42.595  24.358  26.568  1.00  0.00     0.198 A 
ATOM     87  C   UNL A   1      43.942  26.193  25.809  1.00  0.00     0.198 A 
ATOM     88  F   UNL A   1      43.973  28.210  27.020  1.00  0.00    -0.203 F 
ATOM     89  F   UNL A   1      42.180  23.091  26.439  1.00  0.00    -0.200 F 
ATOM     90  C   UNL A   1      43.493  24.889  25.655  1.00  0.00     0.200 A 
ATOM     91  F   UNL A   1      44.793  26.717  24.917  1.00  0.00    -0.200 F 
ATOM     92  F   UNL A   1      43.930  24.145  24.629  1.00  0.00    -0.200 F 
ENDBRANCH  58  82
BRANCH  70  93
ATOM     93  C   UNL A   1      45.050  27.401  34.282  1.00  0.00     0.064 A 
ATOM     94  C   UNL A   1      46.321  27.992  34.240  1.00  0.00     0.173 A 
ATOM     95  C   UNL A   1      44.878  26.271  35.097  1.00  0.00     0.173 A 
ATOM     96  F   UNL A   1      46.543  29.064  33.465  1.00  0.00    -0.203 F 
ATOM     97  C   UNL A   1      47.382  27.458  34.969  1.00  0.00     0.198 A 
ATOM     98  C   UNL A   1      45.932  25.761  35.850  1.00  0.00     0.198 A 
ATOM     99  F   UNL A   1      43.680  25.672  35.179  1.00  0.00    -0.203 F 
ATOM    100  F   UNL A   1      48.600  28.011  34.877  1.00  0.00    -0.200 F 
ATOM    101  C   UNL A   1      47.184  26.351  35.780  1.00  0.00     0.200 A 
ATOM    102  F   UNL A   1      45.733  24.702  36.647  1.00  0.00    -0.200 F 
ATOM    103  F   UNL A   1      48.203  25.849  36.491  1.00  0.00    -0.200 F 
ENDBRANCH  70  93
ENDBRANCH  44  45
ENDBRANCH  36  39
ENDBRANCH  34  35
ENDBRANCH  33  34
ENDBRANCH  32  33
ENDBRANCH  30  32
ENDBRANCH   1  28
TORSDOF 18
ENDMDL
MODEL 3
REMARK VINA RESULT:     -11.3      5.347     11.488
REMARK SMILES CCCCCCNC(=O)Nc1cccc(-c2ccc([C@@H](C)C(=O)NCCCNC(=O)c3ccc(-c4c5nc(c(-c6c(F)c(F)c(F)c(F)c6F)c6ccc([nH]6)c(-c6c(F)c(F)c(F)c(F)c6F)c6nc(c(-c7c(F)c(F)c(F)c(F)c7F)c7ccc4[nH]7)C=C6)C=C5)cc3)cc2F)c1
REMARK SMILES IDX 20 1 21 2 19 3 16 4 17 5 95 6 18 7 94 8 96 9 15 10 11 11
REMARK SMILES IDX 12 12 97 13 13 14 14 15 10 16 7 17 8 18 9 20 6 22 5 23 4 24
REMARK SMILES IDX 3 25 2 26 1 27 22 28 23 29 24 30 25 32 26 33 27 34 28 35
REMARK SMILES IDX 29 36 30 38 31 39 32 40 93 41 33 42 92 43 34 44 35 45 36 46
REMARK SMILES IDX 86 47 37 48 91 49 85 50 87 51 38 52 90 53 84 54 83 55 39 57
REMARK SMILES IDX 71 58 51 59 70 60 52 61 55 62 69 63 88 64 53 65 54 66 68 68
REMARK SMILES IDX 89 69 56 70 40 71 41 72 49 73 42 74 43 75 47 76 50 77 44 78
REMARK SMILES IDX 45 79 48 80 46 81 72 82 73 83 81 84 74 85 75 86 79 87 82 88
REMARK SMILES IDX 76 89 77 90 80 91 78 92 57 93 58 94 66 95 59 96 60 97 64 98
REMARK SMILES IDX 67 99 61 100 62 101 65 102 63 103
REMARK H PARENT 7 19 10 21 24 31 28 37 87 56 55 67
REMARK Flexibility Score: inf
ROOT
ATOM      1  C   UNL A   1      37.160  32.603  33.423  1.00  0.00     0.105 C 
ATOM      2  C   UNL A   1      36.722  33.278  34.721  1.00  0.00     0.023 C 
ENDROOT
BRANCH   1   3
ATOM      3  C   UNL A   1      38.328  31.640  33.571  1.00  0.00    -0.033 A 
ATOM      4  C   UNL A   1      40.534  29.813  33.729  1.00  0.00     0.018 A 
ATOM      5  C   UNL A   1      40.606  31.113  34.258  1.00  0.00     0.012 A 
ATOM      6  C   UNL A   1      39.311  29.449  33.144  1.00  0.00     0.131 A 
ATOM      7  C   UNL A   1      39.516  31.990  34.215  1.00  0.00     0.005 A 
ATOM      8  C   UNL A   1      38.238  30.343  33.046  1.00  0.00     0.044 A 
ATOM      9  F   UNL A   1      39.133  28.214  32.650  1.00  0.00    -0.206 F 
BRANCH   4  10
ATOM     10  C   UNL A   1      41.718  28.924  33.762  1.00  0.00    -0.013 A 
ATOM     11  C   UNL A   1      43.403  27.689  35.039  1.00  0.00     0.043 A 
ATOM     12  C   UNL A   1      43.839  27.045  33.884  1.00  0.00     0.026 A 
ATOM     13  C   UNL A   1      42.407  28.672  34.960  1.00  0.00     0.035 A 
ATOM     14  C   UNL A   1      43.194  27.296  32.677  1.00  0.00     0.003 A 
ATOM     15  C   UNL A   1      42.140  28.214  32.621  1.00  0.00     0.009 A 
BRANCH  11  16
ATOM     16  N   UNL A   1      43.939  27.270  36.265  1.00  0.00    -0.308 N 
ATOM     17  N   UNL A   1      42.175  26.047  37.263  1.00  0.00    -0.338 N 
ATOM     18  C   UNL A   1      43.327  26.752  37.358  1.00  0.00     0.319 C 
ATOM     19  H   UNL A   1      41.723  25.881  38.121  1.00  0.00     0.165 HD
ATOM     20  O   UNL A   1      43.877  26.832  38.458  1.00  0.00    -0.249 OA
ATOM     21  H   UNL A   1      44.915  27.366  36.345  1.00  0.00     0.171 HD
BRANCH  17  22
ATOM     22  C   UNL A   1      41.495  25.494  36.102  1.00  0.00     0.117 C 
BRANCH  22  23
ATOM     23  C   UNL A   1      41.776  24.015  35.871  1.00  0.00     0.021 C 
BRANCH  23  24
ATOM     24  C   UNL A   1      43.160  23.688  35.313  1.00  0.00     0.002 C 
BRANCH  24  25
ATOM     25  C   UNL A   1      43.210  23.325  33.825  1.00  0.00    -0.000 C 
BRANCH  25  26
ATOM     26  C   UNL A   1      44.543  23.585  33.124  1.00  0.00    -0.003 C 
ATOM     27  C   UNL A   1      44.397  23.732  31.623  1.00  0.00     0.004 C 
ENDBRANCH  25  26
ENDBRANCH  24  25
ENDBRANCH  23  24
ENDBRANCH  22  23
ENDBRANCH  17  22
ENDBRANCH  11  16
ENDBRANCH   4  10
ENDBRANCH   1   3
BRANCH   1  28
ATOM     28  C   UNL A   1      37.268  33.536  32.206  1.00  0.00     0.227 C 
ATOM     29  O   UNL A   1      38.236  34.300  32.103  1.00  0.00    -0.274 OA
ATOM     30  N   UNL A   1      36.361  33.596  31.193  1.00  0.00    -0.356 N 
ATOM     31  H   UNL A   1      36.620  34.205  30.464  1.00  0.00     0.163 HD
BRANCH  30  32
ATOM     32  C   UNL A   1      35.088  32.937  30.977  1.00  0.00     0.117 C 
BRANCH  32  33
ATOM     33  C   UNL A   1      34.324  33.532  29.798  1.00  0.00     0.042 C 
BRANCH  33  34
ATOM     34  C   UNL A   1      34.675  32.921  28.448  1.00  0.00     0.118 C 
BRANCH  34  35
ATOM     35  N   UNL A   1      33.883  31.740  28.136  1.00  0.00    -0.352 N 
ATOM     36  C   UNL A   1      34.287  30.445  27.910  1.00  0.00     0.251 C 
ATOM     37  H   UNL A   1      32.913  31.892  28.078  1.00  0.00     0.163 HD
ATOM     38  O   UNL A   1      33.486  29.625  27.475  1.00  0.00    -0.269 OA
BRANCH  36  39
ATOM     39  C   UNL A   1      35.687  30.037  28.167  1.00  0.00     0.039 A 
ATOM     40  C   UNL A   1      36.625  30.124  27.136  1.00  0.00     0.014 A 
ATOM     41  C   UNL A   1      36.076  29.550  29.415  1.00  0.00     0.014 A 
ATOM     42  C   UNL A   1      37.962  29.793  27.379  1.00  0.00     0.010 A 
ATOM     43  C   UNL A   1      37.424  29.308  29.679  1.00  0.00     0.010 A 
ATOM     44  C   UNL A   1      38.386  29.425  28.666  1.00  0.00    -0.014 A 
BRANCH  44  45
ATOM     45  C   UNL A   1      39.821  29.156  28.971  1.00  0.00     0.031 A 
ATOM     46  C   UNL A   1      40.652  30.180  29.703  1.00  0.00     0.074 A 
ATOM     47  C   UNL A   1      40.401  28.020  28.536  1.00  0.00     0.049 A 
ATOM     48  N   UNL A   1      41.925  30.149  30.011  1.00  0.00    -0.248 NA
ATOM     49  C   UNL A   1      39.971  31.417  30.115  1.00  0.00     0.031 C 
ATOM     50  C   UNL A   1      39.733  26.972  27.761  1.00  0.00     0.029 A 
ATOM     51  N   UNL A   1      41.686  27.554  28.677  1.00  0.00    -0.354 N 
ATOM     52  C   UNL A   1      42.195  31.362  30.632  1.00  0.00     0.074 A 
ATOM     53  C   UNL A   1      40.974  32.134  30.597  1.00  0.00     0.031 C 
ATOM     54  C   UNL A   1      40.599  25.973  27.529  1.00  0.00     0.029 A 
ATOM     55  C   UNL A   1      41.898  26.326  28.097  1.00  0.00     0.049 A 
ATOM     56  H   UNL A   1      42.390  28.054  29.150  1.00  0.00     0.167 HD
ATOM     57  C   UNL A   1      43.347  31.783  31.209  1.00  0.00     0.037 A 
ATOM     58  C   UNL A   1      43.011  25.570  28.023  1.00  0.00     0.037 A 
ATOM     59  C   UNL A   1      44.554  31.004  31.271  1.00  0.00     0.049 A 
ATOM     60  C   UNL A   1      44.280  26.062  28.669  1.00  0.00     0.074 A 
ATOM     61  C   UNL A   1      45.752  31.316  31.892  1.00  0.00     0.029 A 
ATOM     62  N   UNL A   1      44.720  29.756  30.688  1.00  0.00    -0.354 N 
ATOM     63  N   UNL A   1      44.497  27.176  29.327  1.00  0.00    -0.248 NA
ATOM     64  C   UNL A   1      45.458  25.188  28.569  1.00  0.00     0.031 C 
ATOM     65  C   UNL A   1      46.660  30.285  31.635  1.00  0.00     0.029 A 
ATOM     66  C   UNL A   1      46.009  29.298  30.913  1.00  0.00     0.049 A 
ATOM     67  H   UNL A   1      44.026  29.269  30.189  1.00  0.00     0.167 HD
ATOM     68  C   UNL A   1      45.818  27.119  29.749  1.00  0.00     0.074 A 
ATOM     69  C   UNL A   1      46.353  25.857  29.283  1.00  0.00     0.031 C 
ATOM     70  C   UNL A   1      46.525  28.031  30.461  1.00  0.00     0.037 A 
BRANCH  57  71
ATOM     71  C   UNL A   1      43.355  33.153  31.830  1.00  0.00     0.064 A 
ATOM     72  C   UNL A   1      43.395  34.317  31.047  1.00  0.00     0.173 A 
ATOM     73  C   UNL A   1      43.282  33.305  33.223  1.00  0.00     0.173 A 
ATOM     74  F   UNL A   1      43.474  34.231  29.711  1.00  0.00    -0.203 F 
ATOM     75  C   UNL A   1      43.397  35.579  31.636  1.00  0.00     0.198 A 
ATOM     76  C   UNL A   1      43.248  34.569  33.807  1.00  0.00     0.198 A 
ATOM     77  F   UNL A   1      43.232  32.227  34.020  1.00  0.00    -0.203 F 
ATOM     78  F   UNL A   1      43.494  36.675  30.869  1.00  0.00    -0.200 F 
ATOM     79  C   UNL A   1      43.316  35.704  33.014  1.00  0.00     0.200 A 
ATOM     80  F   UNL A   1      43.151  34.688  35.139  1.00  0.00    -0.200 F 
ATOM     81  F   UNL A   1      43.308  36.920  33.579  1.00  0.00    -0.200 F 
ENDBRANCH  57  71
BRANCH  58  82
ATOM     82  C   UNL A   1      42.973  24.251  27.335  1.00  0.00     0.064 A 
ATOM     83  C   UNL A   1      42.562  23.095  28.014  1.00  0.00     0.173 A 
ATOM     84  C   UNL A   1      43.355  24.115  25.992  1.00  0.00     0.173 A 
ATOM     85  F   UNL A   1      42.204  23.168  29.305  1.00  0.00    -0.203 F 
ATOM     86  C   UNL A   1      42.560  21.851  27.386  1.00  0.00     0.198 A 
ATOM     87  C   UNL A   1      43.320  22.876  25.355  1.00  0.00     0.198 A 
ATOM     88  F   UNL A   1      43.747  25.190  25.292  1.00  0.00    -0.203 F 
ATOM     89  F   UNL A   1      42.213  20.755  28.075  1.00  0.00    -0.200 F 
ATOM     90  C   UNL A   1      42.933  21.743  26.055  1.00  0.00     0.200 A 
ATOM     91  F   UNL A   1      43.661  22.780  24.063  1.00  0.00    -0.200 F 
ATOM     92  F   UNL A   1      42.926  20.548  25.448  1.00  0.00    -0.200 F 
ENDBRANCH  58  82
BRANCH  70  93
ATOM     93  C   UNL A   1      47.938  27.683  30.834  1.00  0.00     0.064 A 
ATOM     94  C   UNL A   1      48.243  26.977  32.008  1.00  0.00     0.173 A 
ATOM     95  C   UNL A   1      48.996  28.011  29.972  1.00  0.00     0.173 A 
ATOM     96  F   UNL A   1      47.271  26.652  32.873  1.00  0.00    -0.203 F 
ATOM     97  C   UNL A   1      49.557  26.633  32.313  1.00  0.00     0.198 A 
ATOM     98  C   UNL A   1      50.304  27.636  30.265  1.00  0.00     0.198 A 
ATOM     99  F   UNL A   1      48.758  28.679  28.834  1.00  0.00    -0.203 F 
ATOM    100  F   UNL A   1      49.832  26.000  33.463  1.00  0.00    -0.200 F 
ATOM    101  C   UNL A   1      50.585  26.954  31.438  1.00  0.00     0.200 A 
ATOM    102  F   UNL A   1      51.292  27.931  29.408  1.00  0.00    -0.200 F 
ATOM    103  F   UNL A   1      51.847  26.608  31.729  1.00  0.00    -0.200 F 
ENDBRANCH  70  93
ENDBRANCH  44  45
ENDBRANCH  36  39
ENDBRANCH  34  35
ENDBRANCH  33  34
ENDBRANCH  32  33
ENDBRANCH  30  32
ENDBRANCH   1  28
TORSDOF 18
ENDMDL
