MODEL 1
REMARK VINA RESULT:     -11.1      0.000      0.000
REMARK SMILES O=C(NCCCNC(=O)[C@H]1C[C@H]2CCCC[C@@H]2[N@@H+]1CCn1ccnc1)c1ccc(-c2c3nc(c(-c4c(F)c(F)c(F)c(F)c4F)c4ccc([nH]4)c(-c4c(F)c(F)c(F)c(F)c4F)c4nc(c(-c5c(F)c(F)c(F)c(F)c5F)c5ccc2[nH]5)C=C4)C=C3)cc1
REMARK SMILES IDX 5 1 4 2 3 3 1 4 2 5 26 7 27 8 88 9 28 10 87 11 29 12 30 13
REMARK SMILES IDX 31 14 81 15 32 16 86 17 80 18 82 19 33 20 85 21 79 22 78 23
REMARK SMILES IDX 34 25 66 26 46 27 65 28 47 29 50 30 64 31 83 32 48 33 49 34
REMARK SMILES IDX 63 36 84 37 51 38 35 39 36 40 44 41 37 42 38 43 42 44 45 45
REMARK SMILES IDX 39 46 40 47 43 48 41 49 67 50 68 51 76 52 69 53 70 54 74 55
REMARK SMILES IDX 77 56 71 57 72 58 75 59 73 60 52 61 53 62 61 63 54 64 55 65
REMARK SMILES IDX 59 66 62 67 56 68 57 69 60 70 58 71 6 72 7 73 8 74 9 76
REMARK SMILES IDX 10 77 11 78 18 79 12 80 17 81 13 83 16 84 14 85 15 86 19 87
REMARK SMILES IDX 20 88 21 89 22 90 25 91 23 92 24 93
REMARK H PARENT 3 6 82 24 50 35 7 75 18 82
REMARK Flexibility Score: inf
ROOT
ATOM      1  C   UNL A   1      41.996  19.364  26.343  1.00  0.00     0.042 C 
ENDROOT
BRANCH   1   2
ATOM      2  C   UNL A   1      41.142  20.324  27.174  1.00  0.00     0.118 C 
BRANCH   2   3
ATOM      3  N   UNL A   1      39.969  20.836  26.491  1.00  0.00    -0.352 N 
ATOM      4  O   UNL A   1      38.405  22.113  25.603  1.00  0.00    -0.269 OA
ATOM      5  C   UNL A   1      39.393  22.069  26.326  1.00  0.00     0.251 C 
ATOM      6  H   UNL A   1      39.464  20.125  26.034  1.00  0.00     0.163 HD
BRANCH   5   7
ATOM      7  C   UNL A   1      39.850  23.323  26.992  1.00  0.00     0.039 A 
ATOM      8  C   UNL A   1      41.033  23.482  27.712  1.00  0.00     0.014 A 
ATOM      9  C   UNL A   1      38.995  24.434  26.855  1.00  0.00     0.014 A 
ATOM     10  C   UNL A   1      41.329  24.695  28.333  1.00  0.00     0.010 A 
ATOM     11  C   UNL A   1      39.295  25.655  27.453  1.00  0.00     0.010 A 
ATOM     12  C   UNL A   1      40.455  25.778  28.214  1.00  0.00    -0.014 A 
BRANCH  12  13
ATOM     13  C   UNL A   1      40.861  27.061  28.788  1.00  0.00     0.031 A 
ATOM     14  C   UNL A   1      42.062  27.705  28.177  1.00  0.00     0.074 A 
ATOM     15  C   UNL A   1      40.119  27.739  29.687  1.00  0.00     0.049 A 
ATOM     16  N   UNL A   1      43.124  28.157  28.765  1.00  0.00    -0.248 NA
ATOM     17  C   UNL A   1      42.090  27.836  26.712  1.00  0.00     0.031 C 
ATOM     18  C   UNL A   1      38.768  27.415  30.147  1.00  0.00     0.029 A 
ATOM     19  N   UNL A   1      40.379  28.939  30.288  1.00  0.00    -0.354 N 
ATOM     20  C   UNL A   1      43.888  28.769  27.770  1.00  0.00     0.074 A 
ATOM     21  C   UNL A   1      43.257  28.451  26.517  1.00  0.00     0.031 C 
ATOM     22  C   UNL A   1      38.248  28.491  30.778  1.00  0.00     0.029 A 
ATOM     23  C   UNL A   1      39.263  29.528  30.865  1.00  0.00     0.049 A 
ATOM     24  H   UNL A   1      41.274  29.348  30.309  1.00  0.00     0.167 HD
ATOM     25  C   UNL A   1      44.872  29.664  28.067  1.00  0.00     0.037 A 
ATOM     26  C   UNL A   1      39.152  30.801  31.314  1.00  0.00     0.037 A 
ATOM     27  C   UNL A   1      45.346  29.505  29.416  1.00  0.00     0.049 A 
ATOM     28  C   UNL A   1      40.514  31.339  31.533  1.00  0.00     0.074 A 
ATOM     29  C   UNL A   1      45.921  28.480  30.141  1.00  0.00     0.029 A 
ATOM     30  N   UNL A   1      45.016  30.460  30.343  1.00  0.00    -0.354 N 
ATOM     31  N   UNL A   1      41.315  30.966  32.490  1.00  0.00    -0.248 NA
ATOM     32  C   UNL A   1      41.137  32.097  30.458  1.00  0.00     0.031 C 
ATOM     33  C   UNL A   1      45.472  28.668  31.482  1.00  0.00     0.029 A 
ATOM     34  C   UNL A   1      44.666  29.806  31.490  1.00  0.00     0.049 A 
ATOM     35  H   UNL A   1      45.030  31.435  30.206  1.00  0.00     0.167 HD
ATOM     36  C   UNL A   1      42.583  31.064  31.942  1.00  0.00     0.074 A 
ATOM     37  C   UNL A   1      42.422  31.893  30.755  1.00  0.00     0.031 C 
ATOM     38  C   UNL A   1      43.583  30.227  32.343  1.00  0.00     0.037 A 
BRANCH  25  39
ATOM     39  C   UNL A   1      45.143  30.927  27.271  1.00  0.00     0.064 A 
ATOM     40  C   UNL A   1      46.465  31.198  26.852  1.00  0.00     0.173 A 
ATOM     41  C   UNL A   1      44.255  32.023  27.207  1.00  0.00     0.173 A 
ATOM     42  F   UNL A   1      47.397  30.233  26.859  1.00  0.00    -0.203 F 
ATOM     43  C   UNL A   1      46.891  32.490  26.531  1.00  0.00     0.198 A 
ATOM     44  C   UNL A   1      44.673  33.300  26.833  1.00  0.00     0.198 A 
ATOM     45  F   UNL A   1      42.983  31.936  27.608  1.00  0.00    -0.203 F 
ATOM     46  F   UNL A   1      48.190  32.723  26.300  1.00  0.00    -0.200 F 
ATOM     47  C   UNL A   1      45.998  33.544  26.539  1.00  0.00     0.200 A 
ATOM     48  F   UNL A   1      43.793  34.311  26.850  1.00  0.00    -0.200 F 
ATOM     49  F   UNL A   1      46.418  34.794  26.314  1.00  0.00    -0.200 F 
ENDBRANCH  25  39
BRANCH  26  50
ATOM     50  C   UNL A   1      37.950  31.665  31.349  1.00  0.00     0.064 A 
ATOM     51  C   UNL A   1      37.367  32.149  30.166  1.00  0.00     0.173 A 
ATOM     52  C   UNL A   1      37.195  31.825  32.528  1.00  0.00     0.173 A 
ATOM     53  F   UNL A   1      37.994  31.994  28.992  1.00  0.00    -0.203 F 
ATOM     54  C   UNL A   1      36.100  32.741  30.162  1.00  0.00     0.198 A 
ATOM     55  C   UNL A   1      35.939  32.430  32.525  1.00  0.00     0.198 A 
ATOM     56  F   UNL A   1      37.620  31.315  33.693  1.00  0.00    -0.203 F 
ATOM     57  F   UNL A   1      35.550  33.133  29.004  1.00  0.00    -0.200 F 
ATOM     58  C   UNL A   1      35.385  32.875  31.340  1.00  0.00     0.200 A 
ATOM     59  F   UNL A   1      35.244  32.523  33.668  1.00  0.00    -0.200 F 
ATOM     60  F   UNL A   1      34.149  33.393  31.330  1.00  0.00    -0.200 F 
ENDBRANCH  26  50
BRANCH  38  61
ATOM     61  C   UNL A   1      43.397  29.481  33.627  1.00  0.00     0.064 A 
ATOM     62  C   UNL A   1      43.800  29.968  34.882  1.00  0.00     0.173 A 
ATOM     63  C   UNL A   1      42.671  28.283  33.598  1.00  0.00     0.173 A 
ATOM     64  F   UNL A   1      44.401  31.159  35.001  1.00  0.00    -0.203 F 
ATOM     65  C   UNL A   1      43.538  29.251  36.047  1.00  0.00     0.198 A 
ATOM     66  C   UNL A   1      42.376  27.589  34.767  1.00  0.00     0.198 A 
ATOM     67  F   UNL A   1      42.209  27.805  32.431  1.00  0.00    -0.203 F 
ATOM     68  F   UNL A   1      43.949  29.724  37.233  1.00  0.00    -0.200 F 
ATOM     69  C   UNL A   1      42.822  28.066  35.989  1.00  0.00     0.200 A 
ATOM     70  F   UNL A   1      41.639  26.471  34.712  1.00  0.00    -0.200 F 
ATOM     71  F   UNL A   1      42.536  27.398  37.115  1.00  0.00    -0.200 F 
ENDBRANCH  38  61
ENDBRANCH  12  13
ENDBRANCH   5   7
ENDBRANCH   2   3
ENDBRANCH   1   2
BRANCH   1  72
ATOM     72  C   UNL A   1      43.249  20.004  25.747  1.00  0.00     0.118 C 
BRANCH  72  73
ATOM     73  N   UNL A   1      42.982  21.309  25.181  1.00  0.00    -0.351 N 
ATOM     74  C   UNL A   1      43.631  22.497  25.362  1.00  0.00     0.278 C 
ATOM     75  H   UNL A   1      42.212  21.347  24.570  1.00  0.00     0.163 HD
ATOM     76  O   UNL A   1      43.146  23.480  24.797  1.00  0.00    -0.268 OA
BRANCH  74  77
ATOM     77  C   UNL A   1      44.933  22.560  26.206  1.00  0.00     0.274 C 
ATOM     78  C   UNL A   1      46.157  22.870  25.306  1.00  0.00     0.085 C 
ATOM     79  N   UNL A   1      44.842  23.687  27.187  1.00  0.00    -0.321 N 
ATOM     80  C   UNL A   1      46.760  24.120  25.916  1.00  0.00     0.054 C 
ATOM     81  C   UNL A   1      45.560  24.802  26.546  1.00  0.00     0.188 C 
ATOM     82  H   UNL A   1      43.875  23.959  27.366  1.00  0.00     0.349 HD
ATOM     83  C   UNL A   1      47.537  25.065  25.014  1.00  0.00     0.010 C 
ATOM     84  C   UNL A   1      45.943  26.042  27.351  1.00  0.00     0.065 C 
ATOM     85  C   UNL A   1      48.005  26.264  25.848  1.00  0.00     0.001 C 
ATOM     86  C   UNL A   1      46.839  26.983  26.536  1.00  0.00     0.006 C 
BRANCH  79  87
ATOM     87  C   UNL A   1      45.201  23.351  28.579  1.00  0.00     0.285 C 
BRANCH  87  88
ATOM     88  C   UNL A   1      44.158  23.043  29.685  1.00  0.00     0.184 C 
BRANCH  88  89
ATOM     89  N   UNL A   1      44.254  23.779  30.927  1.00  0.00    -0.332 N 
ATOM     90  C   UNL A   1      44.188  23.239  32.186  1.00  0.00     0.107 A 
ATOM     91  C   UNL A   1      44.351  25.133  31.074  1.00  0.00     0.199 A 
ATOM     92  C   UNL A   1      44.386  24.299  33.039  1.00  0.00     0.130 A 
ATOM     93  N   UNL A   1      44.480  25.471  32.338  1.00  0.00    -0.245 NA
ENDBRANCH  88  89
ENDBRANCH  87  88
ENDBRANCH  79  87
ENDBRANCH  74  77
ENDBRANCH  72  73
ENDBRANCH   1  72
TORSDOF 13
ENDMDL
MODEL 2
REMARK VINA RESULT:     -11.0      5.292     11.096
REMARK SMILES O=C(NCCCNC(=O)[C@H]1C[C@H]2CCCC[C@@H]2[N@@H+]1CCn1ccnc1)c1ccc(-c2c3nc(c(-c4c(F)c(F)c(F)c(F)c4F)c4ccc([nH]4)c(-c4c(F)c(F)c(F)c(F)c4F)c4nc(c(-c5c(F)c(F)c(F)c(F)c5F)c5ccc2[nH]5)C=C4)C=C3)cc1
REMARK SMILES IDX 5 1 4 2 3 3 1 4 2 5 26 7 27 8 88 9 28 10 87 11 29 12 30 13
REMARK SMILES IDX 31 14 81 15 32 16 86 17 80 18 82 19 33 20 85 21 79 22 78 23
REMARK SMILES IDX 34 25 66 26 46 27 65 28 47 29 50 30 64 31 83 32 48 33 49 34
REMARK SMILES IDX 63 36 84 37 51 38 35 39 36 40 44 41 37 42 38 43 42 44 45 45
REMARK SMILES IDX 39 46 40 47 43 48 41 49 67 50 68 51 76 52 69 53 70 54 74 55
REMARK SMILES IDX 77 56 71 57 72 58 75 59 73 60 52 61 53 62 61 63 54 64 55 65
REMARK SMILES IDX 59 66 62 67 56 68 57 69 60 70 58 71 6 72 7 73 8 74 9 76
REMARK SMILES IDX 10 77 11 78 18 79 12 80 17 81 13 83 16 84 14 85 15 86 19 87
REMARK SMILES IDX 20 88 21 89 22 90 25 91 23 92 24 93
REMARK H PARENT 3 6 82 24 50 35 7 75 18 82
REMARK Flexibility Score: inf
ROOT
ATOM      1  C   UNL A   1      33.784  30.259  27.269  1.00  0.00     0.042 C 
ENDROOT
BRANCH   1   2
ATOM      2  C   UNL A   1      34.184  31.693  27.622  1.00  0.00     0.118 C 
BRANCH   2   3
ATOM      3  N   UNL A   1      34.102  32.013  29.034  1.00  0.00    -0.352 N 
ATOM      4  O   UNL A   1      34.530  32.385  31.166  1.00  0.00    -0.269 OA
ATOM      5  C   UNL A   1      34.958  31.951  30.103  1.00  0.00     0.251 C 
ATOM      6  H   UNL A   1      33.216  32.361  29.287  1.00  0.00     0.163 HD
BRANCH   5   7
ATOM      7  C   UNL A   1      36.326  31.359  30.070  1.00  0.00     0.039 A 
ATOM      8  C   UNL A   1      37.523  32.071  30.004  1.00  0.00     0.014 A 
ATOM      9  C   UNL A   1      36.386  29.952  30.124  1.00  0.00     0.014 A 
ATOM     10  C   UNL A   1      38.744  31.401  29.929  1.00  0.00     0.010 A 
ATOM     11  C   UNL A   1      37.603  29.278  30.072  1.00  0.00     0.010 A 
ATOM     12  C   UNL A   1      38.784  30.006  29.952  1.00  0.00    -0.014 A 
BRANCH  12  13
ATOM     13  C   UNL A   1      40.092  29.351  29.984  1.00  0.00     0.031 A 
ATOM     14  C   UNL A   1      40.717  29.194  31.331  1.00  0.00     0.074 A 
ATOM     15  C   UNL A   1      40.647  28.750  28.912  1.00  0.00     0.049 A 
ATOM     16  N   UNL A   1      41.908  29.532  31.715  1.00  0.00    -0.248 NA
ATOM     17  C   UNL A   1      39.891  28.607  32.397  1.00  0.00     0.031 C 
ATOM     18  C   UNL A   1      40.032  28.525  27.604  1.00  0.00     0.029 A 
ATOM     19  N   UNL A   1      41.848  28.102  28.813  1.00  0.00    -0.354 N 
ATOM     20  C   UNL A   1      42.041  29.062  33.023  1.00  0.00     0.074 A 
ATOM     21  C   UNL A   1      40.741  28.597  33.425  1.00  0.00     0.031 C 
ATOM     22  C   UNL A   1      40.765  27.616  26.923  1.00  0.00     0.029 A 
ATOM     23  C   UNL A   1      41.952  27.287  27.695  1.00  0.00     0.049 A 
ATOM     24  H   UNL A   1      42.570  28.204  29.474  1.00  0.00     0.167 HD
ATOM     25  C   UNL A   1      43.261  28.905  33.609  1.00  0.00     0.037 A 
ATOM     26  C   UNL A   1      42.901  26.353  27.452  1.00  0.00     0.037 A 
ATOM     27  C   UNL A   1      44.266  29.715  32.972  1.00  0.00     0.049 A 
ATOM     28  C   UNL A   1      44.069  26.638  28.316  1.00  0.00     0.074 A 
ATOM     29  C   UNL A   1      44.438  31.066  32.744  1.00  0.00     0.029 A 
ATOM     30  N   UNL A   1      45.215  29.095  32.202  1.00  0.00    -0.354 N 
ATOM     31  N   UNL A   1      44.880  27.646  28.159  1.00  0.00    -0.248 NA
ATOM     32  C   UNL A   1      44.162  25.957  29.598  1.00  0.00     0.031 C 
ATOM     33  C   UNL A   1      45.146  31.152  31.508  1.00  0.00     0.029 A 
ATOM     34  C   UNL A   1      45.373  29.847  31.073  1.00  0.00     0.049 A 
ATOM     35  H   UNL A   1      45.695  28.264  32.424  1.00  0.00     0.167 HD
ATOM     36  C   UNL A   1      45.267  27.985  29.445  1.00  0.00     0.074 A 
ATOM     37  C   UNL A   1      44.913  26.835  30.265  1.00  0.00     0.031 C 
ATOM     38  C   UNL A   1      45.572  29.277  29.763  1.00  0.00     0.037 A 
BRANCH  25  39
ATOM     39  C   UNL A   1      43.630  27.740  34.509  1.00  0.00     0.064 A 
ATOM     40  C   UNL A   1      43.471  26.425  34.022  1.00  0.00     0.173 A 
ATOM     41  C   UNL A   1      43.793  27.848  35.907  1.00  0.00     0.173 A 
ATOM     42  F   UNL A   1      43.317  26.195  32.708  1.00  0.00    -0.203 F 
ATOM     43  C   UNL A   1      43.345  25.326  34.877  1.00  0.00     0.198 A 
ATOM     44  C   UNL A   1      43.722  26.742  36.754  1.00  0.00     0.198 A 
ATOM     45  F   UNL A   1      43.913  29.028  36.524  1.00  0.00    -0.203 F 
ATOM     46  F   UNL A   1      43.031  24.125  34.375  1.00  0.00    -0.200 F 
ATOM     47  C   UNL A   1      43.454  25.489  36.244  1.00  0.00     0.200 A 
ATOM     48  F   UNL A   1      43.826  26.919  38.078  1.00  0.00    -0.200 F 
ATOM     49  F   UNL A   1      43.252  24.456  37.071  1.00  0.00    -0.200 F 
ENDBRANCH  25  39
BRANCH  26  50
ATOM     50  C   UNL A   1      42.778  25.090  26.688  1.00  0.00     0.064 A 
ATOM     51  C   UNL A   1      43.574  24.844  25.556  1.00  0.00     0.173 A 
ATOM     52  C   UNL A   1      42.061  23.990  27.198  1.00  0.00     0.173 A 
ATOM     53  F   UNL A   1      44.328  25.822  25.035  1.00  0.00    -0.203 F 
ATOM     54  C   UNL A   1      43.660  23.571  24.983  1.00  0.00     0.198 A 
ATOM     55  C   UNL A   1      42.135  22.725  26.615  1.00  0.00     0.198 A 
ATOM     56  F   UNL A   1      41.347  24.097  28.328  1.00  0.00    -0.203 F 
ATOM     57  F   UNL A   1      44.479  23.361  23.943  1.00  0.00    -0.200 F 
ATOM     58  C   UNL A   1      42.945  22.512  25.517  1.00  0.00     0.200 A 
ATOM     59  F   UNL A   1      41.463  21.702  27.163  1.00  0.00    -0.200 F 
ATOM     60  F   UNL A   1      43.067  21.282  25.001  1.00  0.00    -0.200 F 
ENDBRANCH  26  50
BRANCH  38  61
ATOM     61  C   UNL A   1      45.849  30.227  28.641  1.00  0.00     0.064 A 
ATOM     62  C   UNL A   1      44.850  30.896  27.915  1.00  0.00     0.173 A 
ATOM     63  C   UNL A   1      47.182  30.566  28.374  1.00  0.00     0.173 A 
ATOM     64  F   UNL A   1      43.551  30.705  28.189  1.00  0.00    -0.203 F 
ATOM     65  C   UNL A   1      45.178  31.818  26.924  1.00  0.00     0.198 A 
ATOM     66  C   UNL A   1      47.507  31.517  27.412  1.00  0.00     0.198 A 
ATOM     67  F   UNL A   1      48.174  30.002  29.083  1.00  0.00    -0.203 F 
ATOM     68  F   UNL A   1      44.208  32.430  26.229  1.00  0.00    -0.200 F 
ATOM     69  C   UNL A   1      46.505  32.131  26.677  1.00  0.00     0.200 A 
ATOM     70  F   UNL A   1      48.788  31.855  27.213  1.00  0.00    -0.200 F 
ATOM     71  F   UNL A   1      46.818  33.049  25.752  1.00  0.00    -0.200 F 
ENDBRANCH  38  61
ENDBRANCH  12  13
ENDBRANCH   5   7
ENDBRANCH   2   3
ENDBRANCH   1   2
BRANCH   1  72
ATOM     72  C   UNL A   1      32.316  30.103  26.875  1.00  0.00     0.118 C 
BRANCH  72  73
ATOM     73  N   UNL A   1      31.785  28.807  27.238  1.00  0.00    -0.351 N 
ATOM     74  C   UNL A   1      31.503  27.721  26.459  1.00  0.00     0.278 C 
ATOM     75  H   UNL A   1      31.597  28.689  28.196  1.00  0.00     0.163 HD
ATOM     76  O   UNL A   1      30.991  26.754  27.029  1.00  0.00    -0.268 OA
BRANCH  74  77
ATOM     77  C   UNL A   1      31.860  27.724  24.948  1.00  0.00     0.274 C 
ATOM     78  C   UNL A   1      33.288  27.162  24.720  1.00  0.00     0.085 C 
ATOM     79  N   UNL A   1      30.931  26.811  24.211  1.00  0.00    -0.321 N 
ATOM     80  C   UNL A   1      33.084  26.009  23.757  1.00  0.00     0.054 C 
ATOM     81  C   UNL A   1      31.675  25.547  24.077  1.00  0.00     0.188 C 
ATOM     82  H   UNL A   1      30.066  26.648  24.727  1.00  0.00     0.349 HD
ATOM     83  C   UNL A   1      34.075  24.858  23.785  1.00  0.00     0.010 C 
ATOM     84  C   UNL A   1      31.184  24.456  23.127  1.00  0.00     0.065 C 
ATOM     85  C   UNL A   1      33.634  23.807  22.759  1.00  0.00     0.001 C 
ATOM     86  C   UNL A   1      32.203  23.316  23.010  1.00  0.00     0.006 C 
BRANCH  79  87
ATOM     87  C   UNL A   1      30.316  27.375  22.993  1.00  0.00     0.285 C 
BRANCH  87  88
ATOM     88  C   UNL A   1      30.283  28.892  22.671  1.00  0.00     0.184 C 
BRANCH  88  89
ATOM     89  N   UNL A   1      29.068  29.619  22.970  1.00  0.00    -0.332 N 
ATOM     90  C   UNL A   1      28.997  30.915  23.414  1.00  0.00     0.107 A 
ATOM     91  C   UNL A   1      27.792  29.134  22.941  1.00  0.00     0.199 A 
ATOM     92  C   UNL A   1      27.654  31.189  23.501  1.00  0.00     0.130 A 
ATOM     93  N   UNL A   1      26.914  30.074  23.211  1.00  0.00    -0.245 NA
ENDBRANCH  88  89
ENDBRANCH  87  88
ENDBRANCH  79  87
ENDBRANCH  74  77
ENDBRANCH  72  73
ENDBRANCH   1  72
TORSDOF 13
ENDMDL
MODEL 3
REMARK VINA RESULT:     -11.0      3.789      6.838
REMARK SMILES O=C(NCCCNC(=O)[C@H]1C[C@H]2CCCC[C@@H]2[N@@H+]1CCn1ccnc1)c1ccc(-c2c3nc(c(-c4c(F)c(F)c(F)c(F)c4F)c4ccc([nH]4)c(-c4c(F)c(F)c(F)c(F)c4F)c4nc(c(-c5c(F)c(F)c(F)c(F)c5F)c5ccc2[nH]5)C=C4)C=C3)cc1
REMARK SMILES IDX 5 1 4 2 3 3 1 4 2 5 26 7 27 8 88 9 28 10 87 11 29 12 30 13
REMARK SMILES IDX 31 14 81 15 32 16 86 17 80 18 82 19 33 20 85 21 79 22 78 23
REMARK SMILES IDX 34 25 66 26 46 27 65 28 47 29 50 30 64 31 83 32 48 33 49 34
REMARK SMILES IDX 63 36 84 37 51 38 35 39 36 40 44 41 37 42 38 43 42 44 45 45
REMARK SMILES IDX 39 46 40 47 43 48 41 49 67 50 68 51 76 52 69 53 70 54 74 55
REMARK SMILES IDX 77 56 71 57 72 58 75 59 73 60 52 61 53 62 61 63 54 64 55 65
REMARK SMILES IDX 59 66 62 67 56 68 57 69 60 70 58 71 6 72 7 73 8 74 9 76
REMARK SMILES IDX 10 77 11 78 18 79 12 80 17 81 13 83 16 84 14 85 15 86 19 87
REMARK SMILES IDX 20 88 21 89 22 90 25 91 23 92 24 93
REMARK H PARENT 3 6 82 24 50 35 7 75 18 82
REMARK Flexibility Score: inf
ROOT
ATOM      1  C   UNL A   1      36.311  22.326  24.241  1.00  0.00     0.042 C 
ENDROOT
BRANCH   1   2
ATOM      2  C   UNL A   1      36.815  22.078  25.664  1.00  0.00     0.118 C 
BRANCH   2   3
ATOM      3  N   UNL A   1      38.119  21.447  25.742  1.00  0.00    -0.352 N 
ATOM      4  O   UNL A   1      40.224  20.945  26.170  1.00  0.00    -0.269 OA
ATOM      5  C   UNL A   1      39.349  21.801  26.232  1.00  0.00     0.251 C 
ATOM      6  H   UNL A   1      38.121  20.545  25.348  1.00  0.00     0.163 HD
BRANCH   5   7
ATOM      7  C   UNL A   1      39.698  23.143  26.779  1.00  0.00     0.039 A 
ATOM      8  C   UNL A   1      39.021  24.334  26.518  1.00  0.00     0.014 A 
ATOM      9  C   UNL A   1      40.810  23.181  27.644  1.00  0.00     0.014 A 
ATOM     10  C   UNL A   1      39.475  25.540  27.052  1.00  0.00     0.010 A 
ATOM     11  C   UNL A   1      41.254  24.378  28.198  1.00  0.00     0.010 A 
ATOM     12  C   UNL A   1      40.597  25.564  27.882  1.00  0.00    -0.014 A 
BRANCH  12  13
ATOM     13  C   UNL A   1      40.969  26.834  28.507  1.00  0.00     0.031 A 
ATOM     14  C   UNL A   1      42.217  27.478  27.998  1.00  0.00     0.074 A 
ATOM     15  C   UNL A   1      40.167  27.504  29.359  1.00  0.00     0.049 A 
ATOM     16  N   UNL A   1      43.236  27.911  28.671  1.00  0.00    -0.248 NA
ATOM     17  C   UNL A   1      42.355  27.633  26.541  1.00  0.00     0.031 C 
ATOM     18  C   UNL A   1      38.783  27.184  29.712  1.00  0.00     0.029 A 
ATOM     19  N   UNL A   1      40.390  28.692  29.998  1.00  0.00    -0.354 N 
ATOM     20  C   UNL A   1      44.076  28.533  27.745  1.00  0.00     0.074 A 
ATOM     21  C   UNL A   1      43.537  28.241  26.444  1.00  0.00     0.031 C 
ATOM     22  C   UNL A   1      38.225  28.254  30.321  1.00  0.00     0.029 A 
ATOM     23  C   UNL A   1      39.239  29.281  30.501  1.00  0.00     0.049 A 
ATOM     24  H   UNL A   1      41.285  29.092  30.093  1.00  0.00     0.167 HD
ATOM     25  C   UNL A   1      45.041  29.415  28.130  1.00  0.00     0.037 A 
ATOM     26  C   UNL A   1      39.104  30.547  30.962  1.00  0.00     0.037 A 
ATOM     27  C   UNL A   1      45.412  29.229  29.508  1.00  0.00     0.049 A 
ATOM     28  C   UNL A   1      40.450  31.070  31.291  1.00  0.00     0.074 A 
ATOM     29  C   UNL A   1      45.924  28.187  30.256  1.00  0.00     0.029 A 
ATOM     30  N   UNL A   1      45.021  30.172  30.424  1.00  0.00    -0.354 N 
ATOM     31  N   UNL A   1      41.175  30.674  32.298  1.00  0.00    -0.248 NA
ATOM     32  C   UNL A   1      41.157  31.840  30.278  1.00  0.00     0.031 C 
ATOM     33  C   UNL A   1      45.378  28.357  31.563  1.00  0.00     0.029 A 
ATOM     34  C   UNL A   1      44.583  29.502  31.530  1.00  0.00     0.049 A 
ATOM     35  H   UNL A   1      45.052  31.149  30.305  1.00  0.00     0.167 HD
ATOM     36  C   UNL A   1      42.480  30.770  31.847  1.00  0.00     0.074 A 
ATOM     37  C   UNL A   1      42.414  31.619  30.666  1.00  0.00     0.031 C 
ATOM     38  C   UNL A   1      43.442  29.918  32.308  1.00  0.00     0.037 A 
BRANCH  25  39
ATOM     39  C   UNL A   1      45.381  30.688  27.378  1.00  0.00     0.064 A 
ATOM     40  C   UNL A   1      46.737  30.987  27.122  1.00  0.00     0.173 A 
ATOM     41  C   UNL A   1      44.485  31.767  27.214  1.00  0.00     0.173 A 
ATOM     42  F   UNL A   1      47.681  30.040  27.235  1.00  0.00    -0.203 F 
ATOM     43  C   UNL A   1      47.173  32.289  26.860  1.00  0.00     0.198 A 
ATOM     44  C   UNL A   1      44.918  33.055  26.899  1.00  0.00     0.198 A 
ATOM     45  F   UNL A   1      43.176  31.652  27.460  1.00  0.00    -0.203 F 
ATOM     46  F   UNL A   1      48.485  32.549  26.787  1.00  0.00    -0.200 F 
ATOM     47  C   UNL A   1      46.264  33.326  26.766  1.00  0.00     0.200 A 
ATOM     48  F   UNL A   1      44.023  34.048  26.815  1.00  0.00    -0.200 F 
ATOM     49  F   UNL A   1      46.683  34.586  26.599  1.00  0.00    -0.200 F 
ENDBRANCH  25  39
BRANCH  26  50
ATOM     50  C   UNL A   1      37.909  31.421  30.922  1.00  0.00     0.064 A 
ATOM     51  C   UNL A   1      37.359  31.846  29.702  1.00  0.00     0.173 A 
ATOM     52  C   UNL A   1      37.128  31.648  32.072  1.00  0.00     0.173 A 
ATOM     53  F   UNL A   1      38.013  31.625  28.553  1.00  0.00    -0.203 F 
ATOM     54  C   UNL A   1      36.098  32.446  29.635  1.00  0.00     0.198 A 
ATOM     55  C   UNL A   1      35.877  32.261  32.007  1.00  0.00     0.198 A 
ATOM     56  F   UNL A   1      37.520  31.196  33.272  1.00  0.00    -0.203 F 
ATOM     57  F   UNL A   1      35.579  32.781  28.446  1.00  0.00    -0.200 F 
ATOM     58  C   UNL A   1      35.356  32.647  30.787  1.00  0.00     0.200 A 
ATOM     59  F   UNL A   1      35.155  32.419  33.126  1.00  0.00    -0.200 F 
ATOM     60  F   UNL A   1      34.125  33.174  30.719  1.00  0.00    -0.200 F 
ENDBRANCH  26  50
BRANCH  38  61
ATOM     61  C   UNL A   1      43.155  29.153  33.562  1.00  0.00     0.064 A 
ATOM     62  C   UNL A   1      42.398  27.971  33.603  1.00  0.00     0.173 A 
ATOM     63  C   UNL A   1      43.776  29.568  34.748  1.00  0.00     0.173 A 
ATOM     64  F   UNL A   1      41.864  27.452  32.488  1.00  0.00    -0.203 F 
ATOM     65  C   UNL A   1      42.223  27.271  34.794  1.00  0.00     0.198 A 
ATOM     66  C   UNL A   1      43.633  28.846  35.928  1.00  0.00     0.198 A 
ATOM     67  F   UNL A   1      44.562  30.657  34.750  1.00  0.00    -0.203 F 
ATOM     68  F   UNL A   1      41.479  26.155  34.815  1.00  0.00    -0.200 F 
ATOM     69  C   UNL A   1      42.845  27.706  35.954  1.00  0.00     0.200 A 
ATOM     70  F   UNL A   1      44.279  29.240  37.034  1.00  0.00    -0.200 F 
ATOM     71  F   UNL A   1      42.709  27.010  37.091  1.00  0.00    -0.200 F 
ENDBRANCH  38  61
ENDBRANCH  12  13
ENDBRANCH   5   7
ENDBRANCH   2   3
ENDBRANCH   1   2
BRANCH   1  72
ATOM     72  C   UNL A   1      34.935  22.987  24.176  1.00  0.00     0.118 C 
BRANCH  72  73
ATOM     73  N   UNL A   1      34.220  22.890  25.430  1.00  0.00    -0.351 N 
ATOM     74  C   UNL A   1      33.277  23.716  25.972  1.00  0.00     0.278 C 
ATOM     75  H   UNL A   1      34.448  22.106  25.979  1.00  0.00     0.163 HD
ATOM     76  O   UNL A   1      32.873  23.424  27.100  1.00  0.00    -0.268 OA
BRANCH  74  77
ATOM     77  C   UNL A   1      32.734  24.926  25.164  1.00  0.00     0.274 C 
ATOM     78  C   UNL A   1      31.541  25.588  25.901  1.00  0.00     0.085 C 
ATOM     79  N   UNL A   1      33.795  25.977  25.060  1.00  0.00    -0.321 N 
ATOM     80  C   UNL A   1      31.966  27.034  26.072  1.00  0.00     0.054 C 
ATOM     81  C   UNL A   1      33.479  26.936  26.132  1.00  0.00     0.188 C 
ATOM     82  H   UNL A   1      34.729  25.593  25.206  1.00  0.00     0.349 HD
ATOM     83  C   UNL A   1      31.404  27.820  27.244  1.00  0.00     0.010 C 
ATOM     84  C   UNL A   1      34.156  28.305  26.171  1.00  0.00     0.065 C 
ATOM     85  C   UNL A   1      32.012  29.229  27.224  1.00  0.00     0.001 C 
ATOM     86  C   UNL A   1      33.544  29.200  27.256  1.00  0.00     0.006 C 
BRANCH  79  87
ATOM     87  C   UNL A   1      34.027  26.517  23.705  1.00  0.00     0.285 C 
BRANCH  87  88
ATOM     88  C   UNL A   1      32.987  26.435  22.558  1.00  0.00     0.184 C 
BRANCH  88  89
ATOM     89  N   UNL A   1      31.924  27.416  22.540  1.00  0.00    -0.332 N 
ATOM     90  C   UNL A   1      32.070  28.761  22.766  1.00  0.00     0.107 A 
ATOM     91  C   UNL A   1      30.590  27.180  22.372  1.00  0.00     0.199 A 
ATOM     92  C   UNL A   1      30.815  29.291  22.588  1.00  0.00     0.130 A 
ATOM     93  N   UNL A   1      29.902  28.300  22.349  1.00  0.00    -0.245 NA
ENDBRANCH  88  89
ENDBRANCH  87  88
ENDBRANCH  79  87
ENDBRANCH  74  77
ENDBRANCH  72  73
ENDBRANCH   1  72
TORSDOF 13
ENDMDL
