MODEL 1
REMARK VINA RESULT:     -10.6      0.000      0.000
REMARK SMILES [NH3+][C@@H](C(=O)NCCCNC(=O)c1ccc(-c2c3nc(c(-c4c(F)c(F)c(F)c(F)c4F)c4ccc([nH]4)c(-c4c(F)c(F)c(F)c(F)c4F)c4nc(c(-c5c(F)c(F)c(F)c(F)c5F)c5ccc2[nH]5)C=C4)C=C3)cc1)[C@@H](O)c1cccs1
REMARK SMILES IDX 7 1 6 2 5 3 3 4 4 5 2 7 1 8 75 12 76 13 77 15 78 16 81 17
REMARK SMILES IDX 79 18 80 19 8 20 9 21 10 22 11 24 12 25 13 26 74 27 14 28
REMARK SMILES IDX 73 29 15 30 16 31 17 32 67 33 18 34 72 35 66 36 68 37 19 38
REMARK SMILES IDX 71 39 65 40 64 41 20 43 52 44 32 45 51 46 33 47 36 48 50 49
REMARK SMILES IDX 69 50 34 51 35 52 49 54 70 55 37 56 21 57 22 58 30 59 23 60
REMARK SMILES IDX 24 61 28 62 31 63 25 64 26 65 29 66 27 67 53 68 54 69 62 70
REMARK SMILES IDX 55 71 56 72 60 73 63 74 57 75 58 76 61 77 59 78 38 79 39 80
REMARK SMILES IDX 47 81 40 82 41 83 45 84 48 85 42 86 43 87 46 88 44 89
REMARK H PARENT 5 6 1 9 1 10 1 11 76 14 9 23 68 42 36 53
REMARK Flexibility Score: inf
ROOT
ATOM      1  C   UNL A   1      34.312  35.123  28.391  1.00  0.00     0.042 C 
ENDROOT
BRANCH   1   2
ATOM      2  C   UNL A   1      32.921  35.600  28.803  1.00  0.00     0.118 C 
BRANCH   2   3
ATOM      3  N   UNL A   1      33.002  36.760  29.671  1.00  0.00    -0.351 N 
ATOM      4  C   UNL A   1      33.047  36.829  31.036  1.00  0.00     0.281 C 
ATOM      5  O   UNL A   1      32.903  37.932  31.561  1.00  0.00    -0.268 OA
ATOM      6  H   UNL A   1      33.031  37.628  29.208  1.00  0.00     0.163 HD
BRANCH   4   7
ATOM      7  C   UNL A   1      33.228  35.538  31.845  1.00  0.00     0.305 C 
BRANCH   7   8
ATOM      8  N   UNL A   1      32.012  35.328  32.699  1.00  0.00    -0.345 N 
ATOM      9  H   UNL A   1      31.776  34.336  32.718  1.00  0.00     0.345 HD
ATOM     10  H   UNL A   1      31.229  35.856  32.311  1.00  0.00     0.345 HD
ATOM     11  H   UNL A   1      32.203  35.650  33.647  1.00  0.00     0.345 HD
ENDBRANCH   7   8
BRANCH   7  12
ATOM     12  C   UNL A   1      34.486  35.602  32.748  1.00  0.00     0.222 C 
BRANCH  12  13
ATOM     13  O   UNL A   1      34.063  36.162  34.007  1.00  0.00    -0.381 OA
ATOM     14  H   UNL A   1      34.713  36.820  34.303  1.00  0.00     0.211 HD
ENDBRANCH  12  13
BRANCH  12  15
ATOM     15  C   UNL A   1      35.144  34.266  33.035  1.00  0.00     0.040 A 
ATOM     16  C   UNL A   1      35.081  33.072  32.331  1.00  0.00     0.018 A 
ATOM     17  S   UNL A   1      36.246  34.118  34.355  1.00  0.00    -0.146 S 
ATOM     18  C   UNL A   1      35.912  32.052  32.879  1.00  0.00     0.012 A 
ATOM     19  C   UNL A   1      36.589  32.486  33.993  1.00  0.00     0.065 A 
ENDBRANCH  12  15
ENDBRANCH   7  12
ENDBRANCH   4   7
ENDBRANCH   2   3
ENDBRANCH   1   2
BRANCH   1  20
ATOM     20  C   UNL A   1      34.647  33.709  28.858  1.00  0.00     0.118 C 
BRANCH  20  21
ATOM     21  N   UNL A   1      33.982  32.686  28.069  1.00  0.00    -0.352 N 
ATOM     22  C   UNL A   1      34.431  31.451  27.682  1.00  0.00     0.251 C 
ATOM     23  H   UNL A   1      33.072  32.914  27.769  1.00  0.00     0.163 HD
ATOM     24  O   UNL A   1      33.769  30.795  26.878  1.00  0.00    -0.269 OA
BRANCH  22  25
ATOM     25  C   UNL A   1      35.702  30.902  28.202  1.00  0.00     0.039 A 
ATOM     26  C   UNL A   1      35.649  29.803  29.065  1.00  0.00     0.014 A 
ATOM     27  C   UNL A   1      36.934  31.492  27.900  1.00  0.00     0.014 A 
ATOM     28  C   UNL A   1      36.828  29.282  29.604  1.00  0.00     0.010 A 
ATOM     29  C   UNL A   1      38.115  30.927  28.381  1.00  0.00     0.010 A 
ATOM     30  C   UNL A   1      38.071  29.834  29.258  1.00  0.00    -0.014 A 
BRANCH  30  31
ATOM     31  C   UNL A   1      39.325  29.308  29.853  1.00  0.00     0.031 A 
ATOM     32  C   UNL A   1      39.878  29.923  31.110  1.00  0.00     0.074 A 
ATOM     33  C   UNL A   1      39.985  28.302  29.248  1.00  0.00     0.049 A 
ATOM     34  N   UNL A   1      40.969  29.625  31.770  1.00  0.00    -0.248 NA
ATOM     35  C   UNL A   1      39.114  31.040  31.689  1.00  0.00     0.031 C 
ATOM     36  C   UNL A   1      39.582  27.658  28.000  1.00  0.00     0.029 A 
ATOM     37  N   UNL A   1      41.139  27.651  29.604  1.00  0.00    -0.354 N 
ATOM     38  C   UNL A   1      41.028  30.522  32.828  1.00  0.00     0.074 A 
ATOM     39  C   UNL A   1      39.896  31.413  32.690  1.00  0.00     0.031 C 
ATOM     40  C   UNL A   1      40.464  26.690  27.700  1.00  0.00     0.029 A 
ATOM     41  C   UNL A   1      41.505  26.661  28.725  1.00  0.00     0.049 A 
ATOM     42  H   UNL A   1      41.656  27.871  30.412  1.00  0.00     0.167 HD
ATOM     43  C   UNL A   1      41.926  30.582  33.841  1.00  0.00     0.037 A 
ATOM     44  C   UNL A   1      42.558  25.823  28.746  1.00  0.00     0.037 A 
ATOM     45  C   UNL A   1      43.037  29.680  33.991  1.00  0.00     0.049 A 
ATOM     46  C   UNL A   1      43.523  25.884  29.899  1.00  0.00     0.074 A 
ATOM     47  C   UNL A   1      43.985  29.634  34.998  1.00  0.00     0.029 A 
ATOM     48  N   UNL A   1      43.345  28.657  33.105  1.00  0.00    -0.354 N 
ATOM     49  N   UNL A   1      43.536  26.700  30.924  1.00  0.00    -0.248 NA
ATOM     50  C   UNL A   1      44.608  24.893  29.906  1.00  0.00     0.031 C 
ATOM     51  C   UNL A   1      44.884  28.602  34.707  1.00  0.00     0.029 A 
ATOM     52  C   UNL A   1      44.470  27.977  33.541  1.00  0.00     0.049 A 
ATOM     53  H   UNL A   1      42.839  28.446  32.288  1.00  0.00     0.167 HD
ATOM     54  C   UNL A   1      44.608  26.305  31.713  1.00  0.00     0.074 A 
ATOM     55  C   UNL A   1      45.214  25.167  31.052  1.00  0.00     0.031 C 
ATOM     56  C   UNL A   1      45.052  26.837  32.878  1.00  0.00     0.037 A 
BRANCH  43  57
ATOM     57  C   UNL A   1      41.733  31.660  34.868  1.00  0.00     0.064 A 
ATOM     58  C   UNL A   1      42.458  32.861  34.815  1.00  0.00     0.173 A 
ATOM     59  C   UNL A   1      40.807  31.499  35.908  1.00  0.00     0.173 A 
ATOM     60  F   UNL A   1      43.367  33.058  33.848  1.00  0.00    -0.203 F 
ATOM     61  C   UNL A   1      42.291  33.843  35.787  1.00  0.00     0.198 A 
ATOM     62  C   UNL A   1      40.619  32.498  36.862  1.00  0.00     0.198 A 
ATOM     63  F   UNL A   1      40.083  30.374  36.004  1.00  0.00    -0.203 F 
ATOM     64  F   UNL A   1      43.038  34.956  35.748  1.00  0.00    -0.200 F 
ATOM     65  C   UNL A   1      41.367  33.664  36.806  1.00  0.00     0.200 A 
ATOM     66  F   UNL A   1      39.719  32.329  37.839  1.00  0.00    -0.200 F 
ATOM     67  F   UNL A   1      41.207  34.612  37.740  1.00  0.00    -0.200 F 
ENDBRANCH  43  57
BRANCH  44  68
ATOM     68  C   UNL A   1      42.726  24.825  27.660  1.00  0.00     0.064 A 
ATOM     69  C   UNL A   1      43.443  25.138  26.497  1.00  0.00     0.173 A 
ATOM     70  C   UNL A   1      42.185  23.536  27.767  1.00  0.00     0.173 A 
ATOM     71  F   UNL A   1      43.964  26.365  26.343  1.00  0.00    -0.203 F 
ATOM     72  C   UNL A   1      43.598  24.206  25.474  1.00  0.00     0.198 A 
ATOM     73  C   UNL A   1      42.362  22.596  26.753  1.00  0.00     0.198 A 
ATOM     74  F   UNL A   1      41.498  23.184  28.863  1.00  0.00    -0.203 F 
ATOM     75  F   UNL A   1      44.254  24.545  24.356  1.00  0.00    -0.200 F 
ATOM     76  C   UNL A   1      43.062  22.934  25.606  1.00  0.00     0.200 A 
ATOM     77  F   UNL A   1      41.856  21.362  26.890  1.00  0.00    -0.200 F 
ATOM     78  F   UNL A   1      43.216  22.036  24.623  1.00  0.00    -0.200 F 
ENDBRANCH  44  68
BRANCH  56  79
ATOM     79  C   UNL A   1      46.224  26.170  33.535  1.00  0.00     0.064 A 
ATOM     80  C   UNL A   1      47.542  26.577  33.281  1.00  0.00     0.173 A 
ATOM     81  C   UNL A   1      46.021  25.129  34.453  1.00  0.00     0.173 A 
ATOM     82  F   UNL A   1      47.788  27.558  32.400  1.00  0.00    -0.203 F 
ATOM     83  C   UNL A   1      48.617  25.945  33.902  1.00  0.00     0.198 A 
ATOM     84  C   UNL A   1      47.096  24.519  35.093  1.00  0.00     0.198 A 
ATOM     85  F   UNL A   1      44.779  24.707  34.734  1.00  0.00    -0.203 F 
ATOM     86  F   UNL A   1      49.870  26.317  33.608  1.00  0.00    -0.200 F 
ATOM     87  C   UNL A   1      48.393  24.921  34.811  1.00  0.00     0.200 A 
ATOM     88  F   UNL A   1      46.878  23.536  35.978  1.00  0.00    -0.200 F 
ATOM     89  F   UNL A   1      49.429  24.316  35.409  1.00  0.00    -0.200 F 
ENDBRANCH  56  79
ENDBRANCH  30  31
ENDBRANCH  22  25
ENDBRANCH  20  21
ENDBRANCH   1  20
TORSDOF 14
ENDMDL
MODEL 2
REMARK VINA RESULT:     -10.6      0.478      1.732
REMARK SMILES [NH3+][C@@H](C(=O)NCCCNC(=O)c1ccc(-c2c3nc(c(-c4c(F)c(F)c(F)c(F)c4F)c4ccc([nH]4)c(-c4c(F)c(F)c(F)c(F)c4F)c4nc(c(-c5c(F)c(F)c(F)c(F)c5F)c5ccc2[nH]5)C=C4)C=C3)cc1)[C@@H](O)c1cccs1
REMARK SMILES IDX 7 1 6 2 5 3 3 4 4 5 2 7 1 8 75 12 76 13 77 15 78 16 81 17
REMARK SMILES IDX 79 18 80 19 8 20 9 21 10 22 11 24 12 25 13 26 74 27 14 28
REMARK SMILES IDX 73 29 15 30 16 31 17 32 67 33 18 34 72 35 66 36 68 37 19 38
REMARK SMILES IDX 71 39 65 40 64 41 20 43 52 44 32 45 51 46 33 47 36 48 50 49
REMARK SMILES IDX 69 50 34 51 35 52 49 54 70 55 37 56 21 57 22 58 30 59 23 60
REMARK SMILES IDX 24 61 28 62 31 63 25 64 26 65 29 66 27 67 53 68 54 69 62 70
REMARK SMILES IDX 55 71 56 72 60 73 63 74 57 75 58 76 61 77 59 78 38 79 39 80
REMARK SMILES IDX 47 81 40 82 41 83 45 84 48 85 42 86 43 87 46 88 44 89
REMARK H PARENT 5 6 1 9 1 10 1 11 76 14 9 23 68 42 36 53
REMARK Flexibility Score: inf
ROOT
ATOM      1  C   UNL A   1      34.263  34.657  28.201  1.00  0.00     0.042 C 
ENDROOT
BRANCH   1   2
ATOM      2  C   UNL A   1      32.906  35.002  28.811  1.00  0.00     0.118 C 
BRANCH   2   3
ATOM      3  N   UNL A   1      32.964  36.256  29.539  1.00  0.00    -0.351 N 
ATOM      4  C   UNL A   1      33.007  36.481  30.887  1.00  0.00     0.281 C 
ATOM      5  O   UNL A   1      32.841  37.635  31.283  1.00  0.00    -0.268 OA
ATOM      6  H   UNL A   1      32.975  37.065  28.980  1.00  0.00     0.163 HD
BRANCH   4   7
ATOM      7  C   UNL A   1      33.214  35.295  31.838  1.00  0.00     0.305 C 
BRANCH   7   8
ATOM      8  N   UNL A   1      32.031  35.200  32.756  1.00  0.00    -0.345 N 
ATOM      9  H   UNL A   1      32.334  34.859  33.668  1.00  0.00     0.345 HD
ATOM     10  H   UNL A   1      31.347  34.553  32.362  1.00  0.00     0.345 HD
ATOM     11  H   UNL A   1      31.606  36.121  32.861  1.00  0.00     0.345 HD
ENDBRANCH   7   8
BRANCH   7  12
ATOM     12  C   UNL A   1      34.506  35.458  32.679  1.00  0.00     0.222 C 
BRANCH  12  13
ATOM     13  O   UNL A   1      34.115  36.074  33.922  1.00  0.00    -0.381 OA
ATOM     14  H   UNL A   1      34.247  37.034  33.863  1.00  0.00     0.211 HD
ENDBRANCH  12  13
BRANCH  12  15
ATOM     15  C   UNL A   1      35.227  34.165  33.012  1.00  0.00     0.040 A 
ATOM     16  C   UNL A   1      35.201  32.939  32.364  1.00  0.00     0.018 A 
ATOM     17  S   UNL A   1      36.362  34.125  34.312  1.00  0.00    -0.146 S 
ATOM     18  C   UNL A   1      36.087  31.982  32.939  1.00  0.00     0.012 A 
ATOM     19  C   UNL A   1      36.767  32.495  34.016  1.00  0.00     0.065 A 
ENDBRANCH  12  15
ENDBRANCH   7  12
ENDBRANCH   4   7
ENDBRANCH   2   3
ENDBRANCH   1   2
BRANCH   1  20
ATOM     20  C   UNL A   1      34.805  33.294  28.621  1.00  0.00     0.118 C 
BRANCH  20  21
ATOM     21  N   UNL A   1      34.097  32.191  27.992  1.00  0.00    -0.352 N 
ATOM     22  C   UNL A   1      34.521  30.914  27.737  1.00  0.00     0.251 C 
ATOM     23  H   UNL A   1      33.177  32.392  27.708  1.00  0.00     0.163 HD
ATOM     24  O   UNL A   1      33.819  30.174  27.047  1.00  0.00    -0.269 OA
BRANCH  22  25
ATOM     25  C   UNL A   1      35.811  30.416  28.260  1.00  0.00     0.039 A 
ATOM     26  C   UNL A   1      35.818  29.753  29.492  1.00  0.00     0.014 A 
ATOM     27  C   UNL A   1      37.015  30.648  27.588  1.00  0.00     0.014 A 
ATOM     28  C   UNL A   1      37.024  29.302  30.034  1.00  0.00     0.010 A 
ATOM     29  C   UNL A   1      38.208  30.136  28.096  1.00  0.00     0.010 A 
ATOM     30  C   UNL A   1      38.227  29.482  29.335  1.00  0.00    -0.014 A 
BRANCH  30  31
ATOM     31  C   UNL A   1      39.517  29.036  29.921  1.00  0.00     0.031 A 
ATOM     32  C   UNL A   1      40.086  29.749  31.118  1.00  0.00     0.074 A 
ATOM     33  C   UNL A   1      40.193  28.017  29.359  1.00  0.00     0.049 A 
ATOM     34  N   UNL A   1      41.207  29.530  31.759  1.00  0.00    -0.248 NA
ATOM     35  C   UNL A   1      39.302  30.874  31.649  1.00  0.00     0.031 C 
ATOM     36  C   UNL A   1      39.774  27.281  28.168  1.00  0.00     0.029 A 
ATOM     37  N   UNL A   1      41.379  27.428  29.717  1.00  0.00    -0.354 N 
ATOM     38  C   UNL A   1      41.267  30.495  32.756  1.00  0.00     0.074 A 
ATOM     39  C   UNL A   1      40.101  31.337  32.599  1.00  0.00     0.031 C 
ATOM     40  C   UNL A   1      40.680  26.326  27.901  1.00  0.00     0.029 A 
ATOM     41  C   UNL A   1      41.752  26.396  28.890  1.00  0.00     0.049 A 
ATOM     42  H   UNL A   1      41.913  27.716  30.492  1.00  0.00     0.167 HD
ATOM     43  C   UNL A   1      42.193  30.649  33.732  1.00  0.00     0.037 A 
ATOM     44  C   UNL A   1      42.834  25.597  28.930  1.00  0.00     0.037 A 
ATOM     45  C   UNL A   1      43.339  29.795  33.903  1.00  0.00     0.049 A 
ATOM     46  C   UNL A   1      43.831  25.763  30.044  1.00  0.00     0.074 A 
ATOM     47  C   UNL A   1      44.319  29.845  34.879  1.00  0.00     0.029 A 
ATOM     48  N   UNL A   1      43.655  28.729  33.074  1.00  0.00    -0.354 N 
ATOM     49  N   UNL A   1      43.847  26.643  31.015  1.00  0.00    -0.248 NA
ATOM     50  C   UNL A   1      44.950  24.811  30.079  1.00  0.00     0.031 C 
ATOM     51  C   UNL A   1      45.243  28.827  34.624  1.00  0.00     0.029 A 
ATOM     52  C   UNL A   1      44.816  28.115  33.515  1.00  0.00     0.049 A 
ATOM     53  H   UNL A   1      43.132  28.449  32.289  1.00  0.00     0.167 HD
ATOM     54  C   UNL A   1      44.957  26.335  31.791  1.00  0.00     0.074 A 
ATOM     55  C   UNL A   1      45.581  25.178  31.185  1.00  0.00     0.031 C 
ATOM     56  C   UNL A   1      45.417  26.955  32.905  1.00  0.00     0.037 A 
BRANCH  43  57
ATOM     57  C   UNL A   1      41.994  31.783  34.696  1.00  0.00     0.064 A 
ATOM     58  C   UNL A   1      41.171  31.650  35.826  1.00  0.00     0.173 A 
ATOM     59  C   UNL A   1      42.639  33.012  34.498  1.00  0.00     0.173 A 
ATOM     60  F   UNL A   1      40.519  30.499  36.052  1.00  0.00    -0.203 F 
ATOM     61  C   UNL A   1      40.972  32.715  36.698  1.00  0.00     0.198 A 
ATOM     62  C   UNL A   1      42.462  34.067  35.391  1.00  0.00     0.198 A 
ATOM     63  F   UNL A   1      43.441  33.194  33.437  1.00  0.00    -0.203 F 
ATOM     64  F   UNL A   1      40.135  32.581  37.737  1.00  0.00    -0.200 F 
ATOM     65  C   UNL A   1      41.622  33.921  36.484  1.00  0.00     0.200 A 
ATOM     66  F   UNL A   1      43.100  35.228  35.189  1.00  0.00    -0.200 F 
ATOM     67  F   UNL A   1      41.431  34.946  37.326  1.00  0.00    -0.200 F 
ENDBRANCH  43  57
BRANCH  44  68
ATOM     68  C   UNL A   1      43.003  24.536  27.904  1.00  0.00     0.064 A 
ATOM     69  C   UNL A   1      43.578  24.824  26.659  1.00  0.00     0.173 A 
ATOM     70  C   UNL A   1      42.607  23.215  28.152  1.00  0.00     0.173 A 
ATOM     71  F   UNL A   1      43.957  26.079  26.370  1.00  0.00    -0.203 F 
ATOM     72  C   UNL A   1      43.733  23.834  25.692  1.00  0.00     0.198 A 
ATOM     73  C   UNL A   1      42.786  22.219  27.193  1.00  0.00     0.198 A 
ATOM     74  F   UNL A   1      42.060  22.887  29.331  1.00  0.00    -0.203 F 
ATOM     75  F   UNL A   1      44.249  24.145  24.495  1.00  0.00    -0.200 F 
ATOM     76  C   UNL A   1      43.342  22.531  25.962  1.00  0.00     0.200 A 
ATOM     77  F   UNL A   1      42.421  20.959  27.463  1.00  0.00    -0.200 F 
ATOM     78  F   UNL A   1      43.497  21.577  25.033  1.00  0.00    -0.200 F 
ENDBRANCH  44  68
BRANCH  56  79
ATOM     79  C   UNL A   1      46.631  26.370  33.564  1.00  0.00     0.064 A 
ATOM     80  C   UNL A   1      46.530  25.373  34.546  1.00  0.00     0.173 A 
ATOM     81  C   UNL A   1      47.914  26.794  33.185  1.00  0.00     0.173 A 
ATOM     82  F   UNL A   1      45.325  24.946  34.951  1.00  0.00    -0.203 F 
ATOM     83  C   UNL A   1      47.669  24.842  35.145  1.00  0.00     0.198 A 
ATOM     84  C   UNL A   1      49.051  26.240  33.766  1.00  0.00     0.198 A 
ATOM     85  F   UNL A   1      48.064  27.740  32.247  1.00  0.00    -0.203 F 
ATOM     86  F   UNL A   1      47.548  23.926  36.115  1.00  0.00    -0.200 F 
ATOM     87  C   UNL A   1      48.928  25.272  34.751  1.00  0.00     0.200 A 
ATOM     88  F   UNL A   1      50.267  26.649  33.378  1.00  0.00    -0.200 F 
ATOM     89  F   UNL A   1      50.023  24.757  35.327  1.00  0.00    -0.200 F 
ENDBRANCH  56  79
ENDBRANCH  30  31
ENDBRANCH  22  25
ENDBRANCH  20  21
ENDBRANCH   1  20
TORSDOF 14
ENDMDL
MODEL 3
REMARK VINA RESULT:     -10.4      3.801      5.846
REMARK SMILES [NH3+][C@@H](C(=O)NCCCNC(=O)c1ccc(-c2c3nc(c(-c4c(F)c(F)c(F)c(F)c4F)c4ccc([nH]4)c(-c4c(F)c(F)c(F)c(F)c4F)c4nc(c(-c5c(F)c(F)c(F)c(F)c5F)c5ccc2[nH]5)C=C4)C=C3)cc1)[C@@H](O)c1cccs1
REMARK SMILES IDX 7 1 6 2 5 3 3 4 4 5 2 7 1 8 75 12 76 13 77 15 78 16 81 17
REMARK SMILES IDX 79 18 80 19 8 20 9 21 10 22 11 24 12 25 13 26 74 27 14 28
REMARK SMILES IDX 73 29 15 30 16 31 17 32 67 33 18 34 72 35 66 36 68 37 19 38
REMARK SMILES IDX 71 39 65 40 64 41 20 43 52 44 32 45 51 46 33 47 36 48 50 49
REMARK SMILES IDX 69 50 34 51 35 52 49 54 70 55 37 56 21 57 22 58 30 59 23 60
REMARK SMILES IDX 24 61 28 62 31 63 25 64 26 65 29 66 27 67 53 68 54 69 62 70
REMARK SMILES IDX 55 71 56 72 60 73 63 74 57 75 58 76 61 77 59 78 38 79 39 80
REMARK SMILES IDX 47 81 40 82 41 83 45 84 48 85 42 86 43 87 46 88 44 89
REMARK H PARENT 5 6 1 9 1 10 1 11 76 14 9 23 68 42 36 53
REMARK Flexibility Score: inf
ROOT
ATOM      1  C   UNL A   1      32.565  29.733  25.375  1.00  0.00     0.042 C 
ENDROOT
BRANCH   1   2
ATOM      2  C   UNL A   1      31.344  28.873  25.053  1.00  0.00     0.118 C 
BRANCH   2   3
ATOM      3  N   UNL A   1      31.300  28.534  23.642  1.00  0.00    -0.351 N 
ATOM      4  C   UNL A   1      30.257  28.079  22.886  1.00  0.00     0.281 C 
ATOM      5  O   UNL A   1      30.506  27.659  21.756  1.00  0.00    -0.268 OA
ATOM      6  H   UNL A   1      32.149  28.651  23.157  1.00  0.00     0.163 HD
BRANCH   4   7
ATOM      7  C   UNL A   1      28.845  28.069  23.486  1.00  0.00     0.305 C 
BRANCH   7   8
ATOM      8  N   UNL A   1      28.392  26.647  23.636  1.00  0.00    -0.345 N 
ATOM      9  H   UNL A   1      27.744  26.415  22.884  1.00  0.00     0.345 HD
ATOM     10  H   UNL A   1      27.924  26.532  24.536  1.00  0.00     0.345 HD
ATOM     11  H   UNL A   1      29.201  26.026  23.592  1.00  0.00     0.345 HD
ENDBRANCH   7   8
BRANCH   7  12
ATOM     12  C   UNL A   1      27.839  28.838  22.590  1.00  0.00     0.222 C 
BRANCH  12  13
ATOM     13  O   UNL A   1      26.527  28.578  23.126  1.00  0.00    -0.381 OA
ATOM     14  H   UNL A   1      26.610  28.182  24.008  1.00  0.00     0.211 HD
ENDBRANCH  12  13
BRANCH  12  15
ATOM     15  C   UNL A   1      28.031  30.342  22.548  1.00  0.00     0.040 A 
ATOM     16  C   UNL A   1      28.250  31.242  23.581  1.00  0.00     0.018 A 
ATOM     17  S   UNL A   1      28.114  31.154  21.026  1.00  0.00    -0.146 S 
ATOM     18  C   UNL A   1      28.465  32.576  23.127  1.00  0.00     0.012 A 
ATOM     19  C   UNL A   1      28.402  32.668  21.758  1.00  0.00     0.065 A 
ENDBRANCH  12  15
ENDBRANCH   7  12
ENDBRANCH   4   7
ENDBRANCH   2   3
ENDBRANCH   1   2
BRANCH   1  20
ATOM     20  C   UNL A   1      32.603  30.243  26.812  1.00  0.00     0.118 C 
BRANCH  20  21
ATOM     21  N   UNL A   1      32.631  31.694  26.891  1.00  0.00    -0.352 N 
ATOM     22  C   UNL A   1      33.507  32.515  27.551  1.00  0.00     0.251 C 
ATOM     23  H   UNL A   1      31.916  32.155  26.397  1.00  0.00     0.163 HD
ATOM     24  O   UNL A   1      33.263  33.721  27.623  1.00  0.00    -0.269 OA
BRANCH  22  25
ATOM     25  C   UNL A   1      34.728  31.979  28.188  1.00  0.00     0.039 A 
ATOM     26  C   UNL A   1      34.696  30.678  28.699  1.00  0.00     0.014 A 
ATOM     27  C   UNL A   1      35.879  32.759  28.343  1.00  0.00     0.014 A 
ATOM     28  C   UNL A   1      35.820  30.152  29.341  1.00  0.00     0.010 A 
ATOM     29  C   UNL A   1      37.022  32.209  28.921  1.00  0.00     0.010 A 
ATOM     30  C   UNL A   1      36.995  30.910  29.448  1.00  0.00    -0.014 A 
BRANCH  30  31
ATOM     31  C   UNL A   1      38.183  30.372  30.158  1.00  0.00     0.031 A 
ATOM     32  C   UNL A   1      38.462  30.786  31.577  1.00  0.00     0.074 A 
ATOM     33  C   UNL A   1      39.026  29.539  29.521  1.00  0.00     0.049 A 
ATOM     34  N   UNL A   1      39.457  30.449  32.360  1.00  0.00    -0.248 NA
ATOM     35  C   UNL A   1      37.510  31.726  32.190  1.00  0.00     0.031 C 
ATOM     36  C   UNL A   1      38.894  29.104  28.131  1.00  0.00     0.029 A 
ATOM     37  N   UNL A   1      40.166  28.914  29.961  1.00  0.00    -0.354 N 
ATOM     38  C   UNL A   1      39.256  31.143  33.546  1.00  0.00     0.074 A 
ATOM     39  C   UNL A   1      38.080  31.966  33.361  1.00  0.00     0.031 C 
ATOM     40  C   UNL A   1      39.903  28.268  27.836  1.00  0.00     0.029 A 
ATOM     41  C   UNL A   1      40.763  28.126  29.007  1.00  0.00     0.049 A 
ATOM     42  H   UNL A   1      40.522  29.019  30.872  1.00  0.00     0.167 HD
ATOM     43  C   UNL A   1      39.969  31.080  34.696  1.00  0.00     0.037 A 
ATOM     44  C   UNL A   1      41.875  27.371  29.075  1.00  0.00     0.037 A 
ATOM     45  C   UNL A   1      41.123  30.243  34.888  1.00  0.00     0.049 A 
ATOM     46  C   UNL A   1      42.631  27.288  30.373  1.00  0.00     0.074 A 
ATOM     47  C   UNL A   1      41.897  30.081  36.024  1.00  0.00     0.029 A 
ATOM     48  N   UNL A   1      41.669  29.420  33.913  1.00  0.00    -0.354 N 
ATOM     49  N   UNL A   1      42.399  27.905  31.506  1.00  0.00    -0.248 NA
ATOM     50  C   UNL A   1      43.792  26.388  30.407  1.00  0.00     0.031 C 
ATOM     51  C   UNL A   1      42.927  29.181  35.728  1.00  0.00     0.029 A 
ATOM     52  C   UNL A   1      42.770  28.750  34.421  1.00  0.00     0.049 A 
ATOM     53  H   UNL A   1      41.324  29.326  32.996  1.00  0.00     0.167 HD
ATOM     54  C   UNL A   1      43.363  27.449  32.394  1.00  0.00     0.074 A 
ATOM     55  C   UNL A   1      44.176  26.492  31.671  1.00  0.00     0.031 C 
ATOM     56  C   UNL A   1      43.559  27.791  33.690  1.00  0.00     0.037 A 
BRANCH  43  57
ATOM     57  C   UNL A   1      39.508  31.940  35.838  1.00  0.00     0.064 A 
ATOM     58  C   UNL A   1      38.485  31.521  36.704  1.00  0.00     0.173 A 
ATOM     59  C   UNL A   1      40.101  33.188  36.079  1.00  0.00     0.173 A 
ATOM     60  F   UNL A   1      37.876  30.342  36.508  1.00  0.00    -0.203 F 
ATOM     61  C   UNL A   1      38.048  32.336  37.744  1.00  0.00     0.198 A 
ATOM     62  C   UNL A   1      39.681  33.987  37.140  1.00  0.00     0.198 A 
ATOM     63  F   UNL A   1      41.086  33.634  35.286  1.00  0.00    -0.203 F 
ATOM     64  F   UNL A   1      37.029  31.940  38.520  1.00  0.00    -0.200 F 
ATOM     65  C   UNL A   1      38.650  33.566  37.965  1.00  0.00     0.200 A 
ATOM     66  F   UNL A   1      40.272  35.170  37.361  1.00  0.00    -0.200 F 
ATOM     67  F   UNL A   1      38.228  34.349  38.968  1.00  0.00    -0.200 F 
ENDBRANCH  43  57
BRANCH  44  68
ATOM     68  C   UNL A   1      42.313  26.598  27.885  1.00  0.00     0.064 A 
ATOM     69  C   UNL A   1      43.250  27.127  26.986  1.00  0.00     0.173 A 
ATOM     70  C   UNL A   1      41.814  25.313  27.628  1.00  0.00     0.173 A 
ATOM     71  F   UNL A   1      43.742  28.360  27.181  1.00  0.00    -0.203 F 
ATOM     72  C   UNL A   1      43.658  26.407  25.866  1.00  0.00     0.198 A 
ATOM     73  C   UNL A   1      42.242  24.584  26.520  1.00  0.00     0.198 A 
ATOM     74  F   UNL A   1      40.922  24.759  28.462  1.00  0.00    -0.203 F 
ATOM     75  F   UNL A   1      44.525  26.953  25.002  1.00  0.00    -0.200 F 
ATOM     76  C   UNL A   1      43.158  25.134  25.637  1.00  0.00     0.200 A 
ATOM     77  F   UNL A   1      41.769  23.348  26.310  1.00  0.00    -0.200 F 
ATOM     78  F   UNL A   1      43.556  24.440  24.562  1.00  0.00    -0.200 F 
ENDBRANCH  44  68
BRANCH  56  79
ATOM     79  C   UNL A   1      44.669  27.097  34.424  1.00  0.00     0.064 A 
ATOM     80  C   UNL A   1      44.465  25.879  35.089  1.00  0.00     0.173 A 
ATOM     81  C   UNL A   1      45.960  27.645  34.434  1.00  0.00     0.173 A 
ATOM     82  F   UNL A   1      43.246  25.322  35.119  1.00  0.00    -0.203 F 
ATOM     83  C   UNL A   1      45.509  25.250  35.762  1.00  0.00     0.198 A 
ATOM     84  C   UNL A   1      47.007  26.999  35.085  1.00  0.00     0.198 A 
ATOM     85  F   UNL A   1      46.207  28.805  33.807  1.00  0.00    -0.203 F 
ATOM     86  F   UNL A   1      45.281  24.112  36.433  1.00  0.00    -0.200 F 
ATOM     87  C   UNL A   1      46.780  25.807  35.755  1.00  0.00     0.200 A 
ATOM     88  F   UNL A   1      48.237  27.533  35.068  1.00  0.00    -0.200 F 
ATOM     89  F   UNL A   1      47.783  25.198  36.403  1.00  0.00    -0.200 F 
ENDBRANCH  56  79
ENDBRANCH  30  31
ENDBRANCH  22  25
ENDBRANCH  20  21
ENDBRANCH   1  20
TORSDOF 14
ENDMDL
