MODEL 1
REMARK VINA RESULT:     -12.9      0.000      0.000
REMARK SMILES C[C@H]1[C@@H](C)CCC[C@H]1NC(=O)N[C@@](C)(C(=O)NCCCNC(=O)c1ccc(-c2c3nc(c(-c4c(F)c(F)c(F)c(F)c4F)c4ccc([nH]4)c(-c4c(F)c(F)c(F)c(F)c4F)c4nc(c(-c5c(F)c(F)c(F)c(F)c5F)c5ccc2[nH]5)C=C4)C=C3)cc1)C(F)(F)F
REMARK SMILES IDX 19 1 18 2 17 3 15 4 16 5 13 7 14 8 12 9 9 10 10 11 11 13
REMARK SMILES IDX 8 15 1 16 2 17 3 18 5 19 4 20 7 21 6 22 87 23 88 24 89 25
REMARK SMILES IDX 90 26 20 27 21 28 22 29 23 31 24 32 25 33 86 34 26 35 85 36
REMARK SMILES IDX 27 37 28 38 29 39 79 40 30 41 84 42 78 43 80 44 31 45 83 46
REMARK SMILES IDX 77 47 76 48 32 50 64 51 44 52 63 53 45 54 48 55 62 56 81 57
REMARK SMILES IDX 46 58 47 59 61 61 82 62 49 63 33 64 34 65 42 66 35 67 36 68
REMARK SMILES IDX 40 69 43 70 37 71 38 72 41 73 39 74 65 75 66 76 74 77 67 78
REMARK SMILES IDX 68 79 72 80 75 81 69 82 70 83 73 84 71 85 50 86 51 87 59 88
REMARK SMILES IDX 52 89 53 90 57 91 60 92 54 93 55 94 58 95 56 96
REMARK H PARENT 17 6 9 12 12 14 21 30 80 49 48 60
REMARK Flexibility Score: inf
ROOT
ATOM      1  C   UNL A   1      31.489  32.149  26.597  1.00  0.00     0.042 C 
ENDROOT
BRANCH   1   2
ATOM      2  C   UNL A   1      31.772  30.722  26.157  1.00  0.00     0.117 C 
BRANCH   2   3
ATOM      3  N   UNL A   1      31.587  29.786  27.248  1.00  0.00    -0.354 N 
ATOM      4  C   UNL A   1      31.686  28.441  27.371  1.00  0.00     0.255 C 
ATOM      5  O   UNL A   1      31.176  28.005  28.409  1.00  0.00    -0.272 OA
ATOM      6  H   UNL A   1      31.333  30.228  28.090  1.00  0.00     0.163 HD
BRANCH   4   7
ATOM      7  C   UNL A   1      32.227  27.515  26.263  1.00  0.00     0.213 C 
ATOM      8  C   UNL A   1      31.721  27.850  24.847  1.00  0.00     0.056 C 
BRANCH   7   9
ATOM      9  N   UNL A   1      31.674  26.172  26.682  1.00  0.00    -0.316 N 
ATOM     10  N   UNL A   1      32.428  24.174  25.636  1.00  0.00    -0.335 N 
ATOM     11  C   UNL A   1      31.651  24.868  26.455  1.00  0.00     0.316 C 
ATOM     12  H   UNL A   1      32.229  23.209  25.634  1.00  0.00     0.165 HD
ATOM     13  O   UNL A   1      30.808  24.235  27.101  1.00  0.00    -0.249 OA
ATOM     14  H   UNL A   1      31.080  26.337  27.449  1.00  0.00     0.166 HD
BRANCH  10  15
ATOM     15  C   UNL A   1      33.504  24.535  24.748  1.00  0.00     0.087 C 
ATOM     16  C   UNL A   1      35.281  23.330  26.198  1.00  0.00     0.010 C 
ATOM     17  C   UNL A   1      34.756  23.623  24.786  1.00  0.00     0.011 C 
ATOM     18  C   UNL A   1      34.637  22.361  23.906  1.00  0.00    -0.009 C 
ATOM     19  C   UNL A   1      34.177  22.755  22.494  1.00  0.00     0.004 C 
ATOM     20  C   UNL A   1      33.784  21.242  24.510  1.00  0.00     0.008 C 
ATOM     21  C   UNL A   1      32.973  24.796  23.339  1.00  0.00     0.025 C 
ATOM     22  C   UNL A   1      32.868  23.535  22.494  1.00  0.00     0.002 C 
ENDBRANCH  10  15
ENDBRANCH   7   9
BRANCH   7  23
ATOM     23  C   UNL A   1      33.729  27.898  26.247  1.00  0.00     0.420 C 
ATOM     24  F   UNL A   1      34.098  28.716  25.243  1.00  0.00    -0.168 F 
ATOM     25  F   UNL A   1      34.095  28.486  27.420  1.00  0.00    -0.168 F 
ATOM     26  F   UNL A   1      34.514  26.788  26.168  1.00  0.00    -0.168 F 
ENDBRANCH   7  23
ENDBRANCH   4   7
ENDBRANCH   2   3
ENDBRANCH   1   2
BRANCH   1  27
ATOM     27  C   UNL A   1      32.625  32.806  27.368  1.00  0.00     0.118 C 
BRANCH  27  28
ATOM     28  N   UNL A   1      32.376  34.214  27.648  1.00  0.00    -0.352 N 
ATOM     29  C   UNL A   1      32.949  35.030  28.589  1.00  0.00     0.251 C 
ATOM     30  H   UNL A   1      31.696  34.643  27.079  1.00  0.00     0.163 HD
ATOM     31  O   UNL A   1      32.471  36.138  28.823  1.00  0.00    -0.269 OA
BRANCH  29  32
ATOM     32  C   UNL A   1      34.126  34.556  29.340  1.00  0.00     0.039 A 
ATOM     33  C   UNL A   1      33.944  33.981  30.598  1.00  0.00     0.014 A 
ATOM     34  C   UNL A   1      35.403  34.649  28.782  1.00  0.00     0.014 A 
ATOM     35  C   UNL A   1      35.038  33.427  31.263  1.00  0.00     0.010 A 
ATOM     36  C   UNL A   1      36.470  34.005  29.395  1.00  0.00     0.010 A 
ATOM     37  C   UNL A   1      36.300  33.394  30.646  1.00  0.00    -0.014 A 
BRANCH  37  38
ATOM     38  C   UNL A   1      37.459  32.729  31.294  1.00  0.00     0.031 A 
ATOM     39  C   UNL A   1      38.124  31.560  30.619  1.00  0.00     0.074 A 
ATOM     40  C   UNL A   1      37.857  33.128  32.517  1.00  0.00     0.049 A 
ATOM     41  N   UNL A   1      39.095  30.798  31.055  1.00  0.00    -0.248 NA
ATOM     42  C   UNL A   1      37.611  31.173  29.294  1.00  0.00     0.031 C 
ATOM     43  C   UNL A   1      37.245  34.206  33.298  1.00  0.00     0.029 A 
ATOM     44  N   UNL A   1      38.861  32.662  33.330  1.00  0.00    -0.354 N 
ATOM     45  C   UNL A   1      39.287  29.834  30.074  1.00  0.00     0.074 A 
ATOM     46  C   UNL A   1      38.304  30.073  29.042  1.00  0.00     0.031 C 
ATOM     47  C   UNL A   1      37.897  34.330  34.465  1.00  0.00     0.029 A 
ATOM     48  C   UNL A   1      38.942  33.314  34.536  1.00  0.00     0.049 A 
ATOM     49  H   UNL A   1      39.465  31.928  33.072  1.00  0.00     0.167 HD
ATOM     50  C   UNL A   1      40.217  28.852  30.031  1.00  0.00     0.037 A 
ATOM     51  C   UNL A   1      39.759  33.104  35.587  1.00  0.00     0.037 A 
ATOM     52  C   UNL A   1      41.220  28.648  31.041  1.00  0.00     0.049 A 
ATOM     53  C   UNL A   1      40.793  32.013  35.500  1.00  0.00     0.074 A 
ATOM     54  C   UNL A   1      42.268  27.745  31.043  1.00  0.00     0.029 A 
ATOM     55  N   UNL A   1      41.296  29.354  32.232  1.00  0.00    -0.354 N 
ATOM     56  N   UNL A   1      41.032  31.175  34.521  1.00  0.00    -0.248 NA
ATOM     57  C   UNL A   1      41.679  31.846  36.660  1.00  0.00     0.031 C 
ATOM     58  C   UNL A   1      42.939  27.858  32.263  1.00  0.00     0.029 A 
ATOM     59  C   UNL A   1      42.353  28.880  32.993  1.00  0.00     0.049 A 
ATOM     60  H   UNL A   1      40.690  30.083  32.497  1.00  0.00     0.167 HD
ATOM     61  C   UNL A   1      42.110  30.403  34.933  1.00  0.00     0.074 A 
ATOM     62  C   UNL A   1      42.493  30.888  36.242  1.00  0.00     0.031 C 
ATOM     63  C   UNL A   1      42.726  29.382  34.289  1.00  0.00     0.037 A 
BRANCH  50  64
ATOM     64  C   UNL A   1      40.204  27.917  28.857  1.00  0.00     0.064 A 
ATOM     65  C   UNL A   1      40.910  28.197  27.678  1.00  0.00     0.173 A 
ATOM     66  C   UNL A   1      39.536  26.685  28.944  1.00  0.00     0.173 A 
ATOM     67  F   UNL A   1      41.555  29.364  27.538  1.00  0.00    -0.203 F 
ATOM     68  C   UNL A   1      40.937  27.285  26.626  1.00  0.00     0.198 A 
ATOM     69  C   UNL A   1      39.592  25.763  27.903  1.00  0.00     0.198 A 
ATOM     70  F   UNL A   1      38.848  26.366  30.051  1.00  0.00    -0.203 F 
ATOM     71  F   UNL A   1      41.590  27.590  25.495  1.00  0.00    -0.200 F 
ATOM     72  C   UNL A   1      40.289  26.065  26.743  1.00  0.00     0.200 A 
ATOM     73  F   UNL A   1      38.977  24.578  28.025  1.00  0.00    -0.200 F 
ATOM     74  F   UNL A   1      40.334  25.181  25.738  1.00  0.00    -0.200 F 
ENDBRANCH  50  64
BRANCH  51  75
ATOM     75  C   UNL A   1      39.633  33.937  36.815  1.00  0.00     0.064 A 
ATOM     76  C   UNL A   1      38.845  33.519  37.898  1.00  0.00     0.173 A 
ATOM     77  C   UNL A   1      40.264  35.185  36.915  1.00  0.00     0.173 A 
ATOM     78  F   UNL A   1      38.206  32.341  37.844  1.00  0.00    -0.203 F 
ATOM     79  C   UNL A   1      38.663  34.333  39.014  1.00  0.00     0.198 A 
ATOM     80  C   UNL A   1      40.111  35.983  38.048  1.00  0.00     0.198 A 
ATOM     81  F   UNL A   1      41.035  35.632  35.913  1.00  0.00    -0.203 F 
ATOM     82  F   UNL A   1      37.851  33.936  40.003  1.00  0.00    -0.200 F 
ATOM     83  C   UNL A   1      39.299  35.562  39.089  1.00  0.00     0.200 A 
ATOM     84  F   UNL A   1      40.741  37.162  38.124  1.00  0.00    -0.200 F 
ATOM     85  F   UNL A   1      39.119  36.348  40.160  1.00  0.00    -0.200 F 
ENDBRANCH  51  75
BRANCH  63  86
ATOM     86  C   UNL A   1      43.905  28.748  34.968  1.00  0.00     0.064 A 
ATOM     87  C   UNL A   1      43.763  27.633  35.808  1.00  0.00     0.173 A 
ATOM     88  C   UNL A   1      45.201  29.237  34.740  1.00  0.00     0.173 A 
ATOM     89  F   UNL A   1      42.545  27.136  36.069  1.00  0.00    -0.203 F 
ATOM     90  C   UNL A   1      44.872  27.051  36.417  1.00  0.00     0.198 A 
ATOM     91  C   UNL A   1      46.310  28.630  35.321  1.00  0.00     0.198 A 
ATOM     92  F   UNL A   1      45.394  30.295  33.938  1.00  0.00    -0.203 F 
ATOM     93  F   UNL A   1      44.706  26.022  37.258  1.00  0.00    -0.200 F 
ATOM     94  C   UNL A   1      46.144  27.543  36.166  1.00  0.00     0.200 A 
ATOM     95  F   UNL A   1      47.540  29.095  35.063  1.00  0.00    -0.200 F 
ATOM     96  F   UNL A   1      47.210  26.974  36.745  1.00  0.00    -0.200 F 
ENDBRANCH  63  86
ENDBRANCH  37  38
ENDBRANCH  29  32
ENDBRANCH  27  28
ENDBRANCH   1  27
TORSDOF 13
ENDMDL
MODEL 2
REMARK VINA RESULT:     -12.8      0.558      1.288
REMARK SMILES C[C@H]1[C@@H](C)CCC[C@H]1NC(=O)N[C@@](C)(C(=O)NCCCNC(=O)c1ccc(-c2c3nc(c(-c4c(F)c(F)c(F)c(F)c4F)c4ccc([nH]4)c(-c4c(F)c(F)c(F)c(F)c4F)c4nc(c(-c5c(F)c(F)c(F)c(F)c5F)c5ccc2[nH]5)C=C4)C=C3)cc1)C(F)(F)F
REMARK SMILES IDX 19 1 18 2 17 3 15 4 16 5 13 7 14 8 12 9 9 10 10 11 11 13
REMARK SMILES IDX 8 15 1 16 2 17 3 18 5 19 4 20 7 21 6 22 87 23 88 24 89 25
REMARK SMILES IDX 90 26 20 27 21 28 22 29 23 31 24 32 25 33 86 34 26 35 85 36
REMARK SMILES IDX 27 37 28 38 29 39 79 40 30 41 84 42 78 43 80 44 31 45 83 46
REMARK SMILES IDX 77 47 76 48 32 50 64 51 44 52 63 53 45 54 48 55 62 56 81 57
REMARK SMILES IDX 46 58 47 59 61 61 82 62 49 63 33 64 34 65 42 66 35 67 36 68
REMARK SMILES IDX 40 69 43 70 37 71 38 72 41 73 39 74 65 75 66 76 74 77 67 78
REMARK SMILES IDX 68 79 72 80 75 81 69 82 70 83 73 84 71 85 50 86 51 87 59 88
REMARK SMILES IDX 52 89 53 90 57 91 60 92 54 93 55 94 58 95 56 96
REMARK H PARENT 17 6 9 12 12 14 21 30 80 49 48 60
REMARK Flexibility Score: inf
ROOT
ATOM      1  C   UNL A   1      31.488  32.005  26.515  1.00  0.00     0.042 C 
ENDROOT
BRANCH   1   2
ATOM      2  C   UNL A   1      31.809  30.597  26.038  1.00  0.00     0.117 C 
BRANCH   2   3
ATOM      3  N   UNL A   1      31.802  29.653  27.139  1.00  0.00    -0.354 N 
ATOM      4  C   UNL A   1      31.744  28.303  27.230  1.00  0.00     0.255 C 
ATOM      5  O   UNL A   1      31.482  27.900  28.369  1.00  0.00    -0.272 OA
ATOM      6  H   UNL A   1      31.852  30.092  28.018  1.00  0.00     0.163 HD
BRANCH   4   7
ATOM      7  C   UNL A   1      31.828  27.356  26.015  1.00  0.00     0.213 C 
ATOM      8  C   UNL A   1      31.296  27.956  24.700  1.00  0.00     0.056 C 
BRANCH   7   9
ATOM      9  N   UNL A   1      30.926  26.221  26.443  1.00  0.00    -0.316 N 
ATOM     10  N   UNL A   1      31.209  24.042  25.533  1.00  0.00    -0.335 N 
ATOM     11  C   UNL A   1      30.585  24.954  26.264  1.00  0.00     0.316 C 
ATOM     12  H   UNL A   1      30.771  23.160  25.553  1.00  0.00     0.165 HD
ATOM     13  O   UNL A   1      29.570  24.591  26.870  1.00  0.00    -0.249 OA
ATOM     14  H   UNL A   1      30.347  26.573  27.156  1.00  0.00     0.166 HD
BRANCH  10  15
ATOM     15  C   UNL A   1      32.395  24.070  24.715  1.00  0.00     0.087 C 
ATOM     16  C   UNL A   1      33.839  22.931  26.538  1.00  0.00     0.010 C 
ATOM     17  C   UNL A   1      33.480  23.017  25.048  1.00  0.00     0.011 C 
ATOM     18  C   UNL A   1      33.233  21.638  24.401  1.00  0.00    -0.009 C 
ATOM     19  C   UNL A   1      32.954  21.813  22.901  1.00  0.00     0.004 C 
ATOM     20  C   UNL A   1      32.169  20.788  25.101  1.00  0.00     0.008 C 
ATOM     21  C   UNL A   1      32.025  24.127  23.233  1.00  0.00     0.025 C 
ATOM     22  C   UNL A   1      31.788  22.754  22.621  1.00  0.00     0.002 C 
ENDBRANCH  10  15
ENDBRANCH   7   9
BRANCH   7  23
ATOM     23  C   UNL A   1      33.360  27.251  25.811  1.00  0.00     0.420 C 
ATOM     24  F   UNL A   1      34.072  28.293  26.280  1.00  0.00    -0.168 F 
ATOM     25  F   UNL A   1      33.853  26.118  26.385  1.00  0.00    -0.168 F 
ATOM     26  F   UNL A   1      33.669  27.119  24.490  1.00  0.00    -0.168 F 
ENDBRANCH   7  23
ENDBRANCH   4   7
ENDBRANCH   2   3
ENDBRANCH   1   2
BRANCH   1  27
ATOM     27  C   UNL A   1      32.607  32.672  27.302  1.00  0.00     0.118 C 
BRANCH  27  28
ATOM     28  N   UNL A   1      32.342  34.078  27.576  1.00  0.00    -0.352 N 
ATOM     29  C   UNL A   1      32.905  34.904  28.515  1.00  0.00     0.251 C 
ATOM     30  H   UNL A   1      31.657  34.497  27.005  1.00  0.00     0.163 HD
ATOM     31  O   UNL A   1      32.413  36.007  28.744  1.00  0.00    -0.269 OA
BRANCH  29  32
ATOM     32  C   UNL A   1      34.086  34.446  29.268  1.00  0.00     0.039 A 
ATOM     33  C   UNL A   1      33.905  33.827  30.506  1.00  0.00     0.014 A 
ATOM     34  C   UNL A   1      35.367  34.598  28.733  1.00  0.00     0.014 A 
ATOM     35  C   UNL A   1      35.007  33.290  31.170  1.00  0.00     0.010 A 
ATOM     36  C   UNL A   1      36.445  33.971  29.343  1.00  0.00     0.010 A 
ATOM     37  C   UNL A   1      36.279  33.317  30.572  1.00  0.00    -0.014 A 
BRANCH  37  38
ATOM     38  C   UNL A   1      37.449  32.671  31.217  1.00  0.00     0.031 A 
ATOM     39  C   UNL A   1      38.131  31.511  30.542  1.00  0.00     0.074 A 
ATOM     40  C   UNL A   1      37.844  33.077  32.439  1.00  0.00     0.049 A 
ATOM     41  N   UNL A   1      39.115  30.766  30.975  1.00  0.00    -0.248 NA
ATOM     42  C   UNL A   1      37.620  31.116  29.219  1.00  0.00     0.031 C 
ATOM     43  C   UNL A   1      37.218  34.146  33.220  1.00  0.00     0.029 A 
ATOM     44  N   UNL A   1      38.858  32.627  33.249  1.00  0.00    -0.354 N 
ATOM     45  C   UNL A   1      39.319  29.804  29.995  1.00  0.00     0.074 A 
ATOM     46  C   UNL A   1      38.330  30.027  28.966  1.00  0.00     0.031 C 
ATOM     47  C   UNL A   1      37.872  34.282  34.386  1.00  0.00     0.029 A 
ATOM     48  C   UNL A   1      38.933  33.282  34.455  1.00  0.00     0.049 A 
ATOM     49  H   UNL A   1      39.473  31.903  32.991  1.00  0.00     0.167 HD
ATOM     50  C   UNL A   1      40.265  28.836  29.950  1.00  0.00     0.037 A 
ATOM     51  C   UNL A   1      39.755  33.087  35.504  1.00  0.00     0.037 A 
ATOM     52  C   UNL A   1      41.274  28.650  30.958  1.00  0.00     0.049 A 
ATOM     53  C   UNL A   1      40.806  32.012  35.414  1.00  0.00     0.074 A 
ATOM     54  C   UNL A   1      42.336  27.763  30.957  1.00  0.00     0.029 A 
ATOM     55  N   UNL A   1      41.342  29.358  32.148  1.00  0.00    -0.354 N 
ATOM     56  N   UNL A   1      41.055  31.176  34.436  1.00  0.00    -0.248 NA
ATOM     57  C   UNL A   1      41.698  31.859  36.573  1.00  0.00     0.031 C 
ATOM     58  C   UNL A   1      43.008  27.888  32.175  1.00  0.00     0.029 A 
ATOM     59  C   UNL A   1      42.409  28.901  32.906  1.00  0.00     0.049 A 
ATOM     60  H   UNL A   1      40.726  30.077  32.414  1.00  0.00     0.167 HD
ATOM     61  C   UNL A   1      42.147  30.422  34.845  1.00  0.00     0.074 A 
ATOM     62  C   UNL A   1      42.526  30.914  36.153  1.00  0.00     0.031 C 
ATOM     63  C   UNL A   1      42.778  29.410  34.200  1.00  0.00     0.037 A 
BRANCH  50  64
ATOM     64  C   UNL A   1      40.263  27.900  28.777  1.00  0.00     0.064 A 
ATOM     65  C   UNL A   1      40.969  28.186  27.600  1.00  0.00     0.173 A 
ATOM     66  C   UNL A   1      39.606  26.662  28.864  1.00  0.00     0.173 A 
ATOM     67  F   UNL A   1      41.603  29.359  27.459  1.00  0.00    -0.203 F 
ATOM     68  C   UNL A   1      41.007  27.274  26.548  1.00  0.00     0.198 A 
ATOM     69  C   UNL A   1      39.673  25.740  27.824  1.00  0.00     0.198 A 
ATOM     70  F   UNL A   1      38.919  26.338  29.970  1.00  0.00    -0.203 F 
ATOM     71  F   UNL A   1      41.659  27.583  25.418  1.00  0.00    -0.200 F 
ATOM     72  C   UNL A   1      40.370  26.048  26.665  1.00  0.00     0.200 A 
ATOM     73  F   UNL A   1      39.069  24.549  27.945  1.00  0.00    -0.200 F 
ATOM     74  F   UNL A   1      40.426  25.163  25.661  1.00  0.00    -0.200 F 
ENDBRANCH  50  64
BRANCH  51  75
ATOM     75  C   UNL A   1      39.620  33.918  36.731  1.00  0.00     0.064 A 
ATOM     76  C   UNL A   1      38.831  33.495  37.811  1.00  0.00     0.173 A 
ATOM     77  C   UNL A   1      40.243  35.170  36.834  1.00  0.00     0.173 A 
ATOM     78  F   UNL A   1      38.199  32.313  37.755  1.00  0.00    -0.203 F 
ATOM     79  C   UNL A   1      38.639  34.308  38.926  1.00  0.00     0.198 A 
ATOM     80  C   UNL A   1      40.081  35.967  37.966  1.00  0.00     0.198 A 
ATOM     81  F   UNL A   1      41.016  35.622  35.835  1.00  0.00    -0.203 F 
ATOM     82  F   UNL A   1      37.826  33.906  39.913  1.00  0.00    -0.200 F 
ATOM     83  C   UNL A   1      39.267  35.541  39.004  1.00  0.00     0.200 A 
ATOM     84  F   UNL A   1      40.704  37.150  38.045  1.00  0.00    -0.200 F 
ATOM     85  F   UNL A   1      39.078  36.325  40.075  1.00  0.00    -0.200 F 
ENDBRANCH  51  75
BRANCH  63  86
ATOM     86  C   UNL A   1      43.968  28.796  34.877  1.00  0.00     0.064 A 
ATOM     87  C   UNL A   1      45.261  29.315  34.714  1.00  0.00     0.173 A 
ATOM     88  C   UNL A   1      43.805  27.698  35.737  1.00  0.00     0.173 A 
ATOM     89  F   UNL A   1      45.472  30.354  33.893  1.00  0.00    -0.203 F 
ATOM     90  C   UNL A   1      46.350  28.738  35.362  1.00  0.00     0.198 A 
ATOM     91  C   UNL A   1      44.890  27.148  36.412  1.00  0.00     0.198 A 
ATOM     92  F   UNL A   1      42.589  27.168  35.936  1.00  0.00    -0.203 F 
ATOM     93  F   UNL A   1      47.583  29.216  35.149  1.00  0.00    -0.200 F 
ATOM     94  C   UNL A   1      46.163  27.662  36.217  1.00  0.00     0.200 A 
ATOM     95  F   UNL A   1      44.705  26.120  37.251  1.00  0.00    -0.200 F 
ATOM     96  F   UNL A   1      47.211  27.116  36.848  1.00  0.00    -0.200 F 
ENDBRANCH  63  86
ENDBRANCH  37  38
ENDBRANCH  29  32
ENDBRANCH  27  28
ENDBRANCH   1  27
TORSDOF 13
ENDMDL
MODEL 3
REMARK VINA RESULT:     -12.7      5.739     10.968
REMARK SMILES C[C@H]1[C@@H](C)CCC[C@H]1NC(=O)N[C@@](C)(C(=O)NCCCNC(=O)c1ccc(-c2c3nc(c(-c4c(F)c(F)c(F)c(F)c4F)c4ccc([nH]4)c(-c4c(F)c(F)c(F)c(F)c4F)c4nc(c(-c5c(F)c(F)c(F)c(F)c5F)c5ccc2[nH]5)C=C4)C=C3)cc1)C(F)(F)F
REMARK SMILES IDX 19 1 18 2 17 3 15 4 16 5 13 7 14 8 12 9 9 10 10 11 11 13
REMARK SMILES IDX 8 15 1 16 2 17 3 18 5 19 4 20 7 21 6 22 87 23 88 24 89 25
REMARK SMILES IDX 90 26 20 27 21 28 22 29 23 31 24 32 25 33 86 34 26 35 85 36
REMARK SMILES IDX 27 37 28 38 29 39 79 40 30 41 84 42 78 43 80 44 31 45 83 46
REMARK SMILES IDX 77 47 76 48 32 50 64 51 44 52 63 53 45 54 48 55 62 56 81 57
REMARK SMILES IDX 46 58 47 59 61 61 82 62 49 63 33 64 34 65 42 66 35 67 36 68
REMARK SMILES IDX 40 69 43 70 37 71 38 72 41 73 39 74 65 75 66 76 74 77 67 78
REMARK SMILES IDX 68 79 72 80 75 81 69 82 70 83 73 84 71 85 50 86 51 87 59 88
REMARK SMILES IDX 52 89 53 90 57 91 60 92 54 93 55 94 58 95 56 96
REMARK H PARENT 17 6 9 12 12 14 21 30 80 49 48 60
REMARK Flexibility Score: inf
ROOT
ATOM      1  C   UNL A   1      37.780  20.102  24.859  1.00  0.00     0.042 C 
ENDROOT
BRANCH   1   2
ATOM      2  C   UNL A   1      36.532  20.933  25.110  1.00  0.00     0.117 C 
BRANCH   2   3
ATOM      3  N   UNL A   1      35.336  20.114  25.067  1.00  0.00    -0.354 N 
ATOM      4  C   UNL A   1      34.012  20.361  25.214  1.00  0.00     0.255 C 
ATOM      5  O   UNL A   1      33.339  19.338  25.380  1.00  0.00    -0.272 OA
ATOM      6  H   UNL A   1      35.530  19.166  24.891  1.00  0.00     0.163 HD
BRANCH   4   7
ATOM      7  C   UNL A   1      33.411  21.776  25.331  1.00  0.00     0.213 C 
ATOM      8  C   UNL A   1      31.871  21.816  25.367  1.00  0.00     0.056 C 
BRANCH   7   9
ATOM      9  N   UNL A   1      33.894  22.426  24.054  1.00  0.00    -0.316 N 
ATOM     10  N   UNL A   1      32.975  24.496  23.327  1.00  0.00    -0.335 N 
ATOM     11  C   UNL A   1      33.739  23.421  23.195  1.00  0.00     0.316 C 
ATOM     12  H   UNL A   1      33.023  25.106  22.555  1.00  0.00     0.165 HD
ATOM     13  O   UNL A   1      34.404  23.328  22.156  1.00  0.00    -0.249 OA
ATOM     14  H   UNL A   1      34.638  21.876  23.721  1.00  0.00     0.166 HD
BRANCH  10  15
ATOM     15  C   UNL A   1      32.089  24.959  24.365  1.00  0.00     0.087 C 
ATOM     16  C   UNL A   1      34.028  25.971  25.751  1.00  0.00     0.010 C 
ATOM     17  C   UNL A   1      32.599  26.146  25.219  1.00  0.00     0.011 C 
ATOM     18  C   UNL A   1      32.352  27.529  24.581  1.00  0.00    -0.009 C 
ATOM     19  C   UNL A   1      30.883  27.642  24.144  1.00  0.00     0.004 C 
ATOM     20  C   UNL A   1      33.327  27.895  23.459  1.00  0.00     0.008 C 
ATOM     21  C   UNL A   1      30.676  25.157  23.816  1.00  0.00     0.025 C 
ATOM     22  C   UNL A   1      30.460  26.528  23.194  1.00  0.00     0.002 C 
ENDBRANCH  10  15
ENDBRANCH   7   9
BRANCH   7  23
ATOM     23  C   UNL A   1      33.850  22.181  26.761  1.00  0.00     0.420 C 
ATOM     24  F   UNL A   1      34.058  21.154  27.606  1.00  0.00    -0.168 F 
ATOM     25  F   UNL A   1      34.987  22.931  26.728  1.00  0.00    -0.168 F 
ATOM     26  F   UNL A   1      32.928  22.997  27.342  1.00  0.00    -0.168 F 
ENDBRANCH   7  23
ENDBRANCH   4   7
ENDBRANCH   2   3
ENDBRANCH   1   2
BRANCH   1  27
ATOM     27  C   UNL A   1      38.961  20.457  25.751  1.00  0.00     0.118 C 
BRANCH  27  28
ATOM     28  N   UNL A   1      39.889  19.347  25.925  1.00  0.00    -0.352 N 
ATOM     29  C   UNL A   1      41.246  19.369  26.126  1.00  0.00     0.251 C 
ATOM     30  H   UNL A   1      39.484  18.450  25.893  1.00  0.00     0.163 HD
ATOM     31  O   UNL A   1      41.900  18.332  26.045  1.00  0.00    -0.269 OA
BRANCH  29  32
ATOM     32  C   UNL A   1      41.915  20.651  26.410  1.00  0.00     0.039 A 
ATOM     33  C   UNL A   1      42.280  21.478  25.347  1.00  0.00     0.014 A 
ATOM     34  C   UNL A   1      42.150  21.047  27.729  1.00  0.00     0.014 A 
ATOM     35  C   UNL A   1      42.810  22.740  25.612  1.00  0.00     0.010 A 
ATOM     36  C   UNL A   1      42.578  22.342  27.991  1.00  0.00     0.010 A 
ATOM     37  C   UNL A   1      42.920  23.200  26.936  1.00  0.00    -0.014 A 
BRANCH  37  38
ATOM     38  C   UNL A   1      43.394  24.574  27.239  1.00  0.00     0.031 A 
ATOM     39  C   UNL A   1      42.425  25.604  27.754  1.00  0.00     0.074 A 
ATOM     40  C   UNL A   1      44.672  24.910  26.977  1.00  0.00     0.049 A 
ATOM     41  N   UNL A   1      42.624  26.873  28.003  1.00  0.00    -0.248 NA
ATOM     42  C   UNL A   1      41.041  25.159  27.988  1.00  0.00     0.031 C 
ATOM     43  C   UNL A   1      45.685  24.014  26.415  1.00  0.00     0.029 A 
ATOM     44  N   UNL A   1      45.335  26.102  27.133  1.00  0.00    -0.354 N 
ATOM     45  C   UNL A   1      41.391  27.378  28.396  1.00  0.00     0.074 A 
ATOM     46  C   UNL A   1      40.439  26.295  28.308  1.00  0.00     0.031 C 
ATOM     47  C   UNL A   1      46.844  24.682  26.291  1.00  0.00     0.029 A 
ATOM     48  C   UNL A   1      46.645  26.062  26.722  1.00  0.00     0.049 A 
ATOM     49  H   UNL A   1      44.912  26.910  27.505  1.00  0.00     0.167 HD
ATOM     50  C   UNL A   1      41.090  28.629  28.815  1.00  0.00     0.037 A 
ATOM     51  C   UNL A   1      47.577  27.035  26.682  1.00  0.00     0.037 A 
ATOM     52  C   UNL A   1      42.054  29.689  28.942  1.00  0.00     0.049 A 
ATOM     53  C   UNL A   1      47.213  28.412  27.171  1.00  0.00     0.074 A 
ATOM     54  C   UNL A   1      41.869  30.962  29.451  1.00  0.00     0.029 A 
ATOM     55  N   UNL A   1      43.381  29.601  28.552  1.00  0.00    -0.354 N 
ATOM     56  N   UNL A   1      46.069  28.850  27.638  1.00  0.00    -0.248 NA
ATOM     57  C   UNL A   1      48.273  29.429  27.135  1.00  0.00     0.031 C 
ATOM     58  C   UNL A   1      43.066  31.666  29.308  1.00  0.00     0.029 A 
ATOM     59  C   UNL A   1      44.018  30.811  28.775  1.00  0.00     0.049 A 
ATOM     60  H   UNL A   1      43.807  28.798  28.174  1.00  0.00     0.167 HD
ATOM     61  C   UNL A   1      46.279  30.179  27.980  1.00  0.00     0.074 A 
ATOM     62  C   UNL A   1      47.666  30.471  27.686  1.00  0.00     0.031 C 
ATOM     63  C   UNL A   1      45.402  31.080  28.487  1.00  0.00     0.037 A 
BRANCH  50  64
ATOM     64  C   UNL A   1      39.663  28.931  29.170  1.00  0.00     0.064 A 
ATOM     65  C   UNL A   1      38.744  29.393  28.217  1.00  0.00     0.173 A 
ATOM     66  C   UNL A   1      39.191  28.678  30.469  1.00  0.00     0.173 A 
ATOM     67  F   UNL A   1      39.145  29.662  26.966  1.00  0.00    -0.203 F 
ATOM     68  C   UNL A   1      37.410  29.605  28.554  1.00  0.00     0.198 A 
ATOM     69  C   UNL A   1      37.851  28.861  30.792  1.00  0.00     0.198 A 
ATOM     70  F   UNL A   1      40.029  28.232  31.417  1.00  0.00    -0.203 F 
ATOM     71  F   UNL A   1      36.557  30.081  27.635  1.00  0.00    -0.200 F 
ATOM     72  C   UNL A   1      36.961  29.328  29.836  1.00  0.00     0.200 A 
ATOM     73  F   UNL A   1      37.416  28.578  32.028  1.00  0.00    -0.200 F 
ATOM     74  F   UNL A   1      35.672  29.512  30.152  1.00  0.00    -0.200 F 
ENDBRANCH  50  64
BRANCH  51  75
ATOM     75  C   UNL A   1      48.941  26.750  26.158  1.00  0.00     0.064 A 
ATOM     76  C   UNL A   1      49.284  27.043  24.830  1.00  0.00     0.173 A 
ATOM     77  C   UNL A   1      49.916  26.141  26.961  1.00  0.00     0.173 A 
ATOM     78  F   UNL A   1      48.381  27.609  24.015  1.00  0.00    -0.203 F 
ATOM     79  C   UNL A   1      50.534  26.703  24.316  1.00  0.00     0.198 A 
ATOM     80  C   UNL A   1      51.179  25.836  26.457  1.00  0.00     0.198 A 
ATOM     81  F   UNL A   1      49.646  25.845  28.241  1.00  0.00    -0.203 F 
ATOM     82  F   UNL A   1      50.810  26.934  23.025  1.00  0.00    -0.200 F 
ATOM     83  C   UNL A   1      51.481  26.103  25.131  1.00  0.00     0.200 A 
ATOM     84  F   UNL A   1      52.097  25.272  27.253  1.00  0.00    -0.200 F 
ATOM     85  F   UNL A   1      52.681  25.772  24.635  1.00  0.00    -0.200 F 
ENDBRANCH  51  75
BRANCH  63  86
ATOM     86  C   UNL A   1      45.925  32.452  28.798  1.00  0.00     0.064 A 
ATOM     87  C   UNL A   1      45.863  33.496  27.863  1.00  0.00     0.173 A 
ATOM     88  C   UNL A   1      46.454  32.737  30.066  1.00  0.00     0.173 A 
ATOM     89  F   UNL A   1      45.378  33.272  26.632  1.00  0.00    -0.203 F 
ATOM     90  C   UNL A   1      46.340  34.766  28.176  1.00  0.00     0.198 A 
ATOM     91  C   UNL A   1      46.896  34.017  30.389  1.00  0.00     0.198 A 
ATOM     92  F   UNL A   1      46.528  31.778  31.001  1.00  0.00    -0.203 F 
ATOM     93  F   UNL A   1      46.321  35.733  27.250  1.00  0.00    -0.200 F 
ATOM     94  C   UNL A   1      46.847  35.028  29.440  1.00  0.00     0.200 A 
ATOM     95  F   UNL A   1      47.368  34.273  31.616  1.00  0.00    -0.200 F 
ATOM     96  F   UNL A   1      47.296  36.253  29.743  1.00  0.00    -0.200 F 
ENDBRANCH  63  86
ENDBRANCH  37  38
ENDBRANCH  29  32
ENDBRANCH  27  28
ENDBRANCH   1  27
TORSDOF 13
ENDMDL
