MODEL 1
REMARK VINA RESULT:     -14.3      0.000      0.000
REMARK SMILES Cc1ccc([C@H](C)NC(=O)[C@H]2[C@@H]3CC[C@@H](C3)[C@@H]2C(=O)NCCCNC(=O)c2ccc(-c3c4nc(c(-c5c(F)c(F)c(F)c(F)c5F)c5ccc([nH]5)c(-c5c(F)c(F)c(F)c(F)c5F)c5nc(c(-c6c(F)c(F)c(F)c(F)c6F)c6ccc3[nH]6)C=C5)C=C4)cc2)cc1
REMARK SMILES IDX 21 1 20 2 18 3 19 4 17 6 11 7 12 8 13 9 16 10 15 11 14 12
REMARK SMILES IDX 9 13 8 14 10 16 6 17 7 18 5 19 1 20 2 21 3 22 91 23 4 24
REMARK SMILES IDX 90 25 22 26 23 27 24 28 25 29 26 31 27 32 28 33 89 34 29 35
REMARK SMILES IDX 88 36 30 37 31 38 32 39 82 40 33 41 87 42 81 43 83 44 34 45
REMARK SMILES IDX 86 46 80 47 79 48 35 50 67 51 47 52 66 53 48 54 51 55 65 56
REMARK SMILES IDX 84 57 49 58 50 59 64 61 85 62 52 63 36 64 37 65 45 66 38 67
REMARK SMILES IDX 39 68 43 69 46 70 40 71 41 72 44 73 42 74 68 75 69 76 77 77
REMARK SMILES IDX 70 78 71 79 75 80 78 81 72 82 73 83 76 84 74 85 53 86 54 87
REMARK SMILES IDX 62 88 55 89 56 90 60 91 63 92 57 93 58 94 61 95 59 96
REMARK H PARENT 20 5 8 15 24 30 83 49 51 60
REMARK Flexibility Score: inf
ROOT
ATOM      1  C   UNL A   1      33.712  28.582  26.746  1.00  0.00     0.117 C 
ENDROOT
BRANCH   1   2
ATOM      2  N   UNL A   1      34.065  29.003  25.399  1.00  0.00    -0.356 N 
ATOM      3  C   UNL A   1      33.712  28.520  24.177  1.00  0.00     0.224 C 
ATOM      4  O   UNL A   1      34.068  29.190  23.203  1.00  0.00    -0.275 OA
ATOM      5  H   UNL A   1      34.671  29.780  25.367  1.00  0.00     0.163 HD
BRANCH   3   6
ATOM      6  C   UNL A   1      32.803  27.298  24.011  1.00  0.00     0.094 C 
ATOM      7  C   UNL A   1      32.495  26.822  22.589  1.00  0.00     0.094 C 
ATOM      8  C   UNL A   1      30.949  26.745  22.531  1.00  0.00     0.002 C 
ATOM      9  C   UNL A   1      30.411  28.189  22.444  1.00  0.00     0.005 C 
ATOM     10  C   UNL A   1      30.562  26.383  23.958  1.00  0.00     0.009 C 
ATOM     11  C   UNL A   1      31.362  27.539  24.568  1.00  0.00     0.002 C 
ATOM     12  C   UNL A   1      30.675  28.729  23.857  1.00  0.00     0.005 C 
BRANCH   7  13
ATOM     13  C   UNL A   1      33.174  25.569  22.038  1.00  0.00     0.224 C 
ATOM     14  N   UNL A   1      33.745  24.572  22.748  1.00  0.00    -0.349 N 
ATOM     15  H   UNL A   1      34.217  23.929  22.172  1.00  0.00     0.164 HD
ATOM     16  O   UNL A   1      33.218  25.428  20.807  1.00  0.00    -0.275 OA
BRANCH  14  17
ATOM     17  C   UNL A   1      33.831  24.216  24.160  1.00  0.00     0.109 C 
ATOM     18  C   UNL A   1      32.721  23.218  24.502  1.00  0.00     0.036 C 
BRANCH  17  19
ATOM     19  C   UNL A   1      35.197  23.662  24.532  1.00  0.00    -0.026 A 
ATOM     20  C   UNL A   1      38.915  21.918  25.908  1.00  0.00     0.044 C 
ATOM     21  C   UNL A   1      37.647  22.538  25.400  1.00  0.00    -0.051 A 
ATOM     22  C   UNL A   1      37.090  23.630  26.070  1.00  0.00     0.004 A 
ATOM     23  C   UNL A   1      36.990  22.033  24.272  1.00  0.00     0.004 A 
ATOM     24  C   UNL A   1      35.878  24.178  25.647  1.00  0.00     0.006 A 
ATOM     25  C   UNL A   1      35.782  22.592  23.839  1.00  0.00     0.006 A 
ENDBRANCH  17  19
ENDBRANCH  14  17
ENDBRANCH   7  13
ENDBRANCH   3   6
ENDBRANCH   1   2
BRANCH   1  26
ATOM     26  C   UNL A   1      33.316  29.751  27.649  1.00  0.00     0.042 C 
BRANCH  26  27
ATOM     27  C   UNL A   1      34.192  30.984  27.477  1.00  0.00     0.118 C 
BRANCH  27  28
ATOM     28  N   UNL A   1      34.563  31.627  28.735  1.00  0.00    -0.352 N 
ATOM     29  C   UNL A   1      35.567  31.267  29.620  1.00  0.00     0.251 C 
ATOM     30  H   UNL A   1      34.033  32.417  28.986  1.00  0.00     0.163 HD
ATOM     31  O   UNL A   1      35.798  31.922  30.621  1.00  0.00    -0.269 OA
BRANCH  29  32
ATOM     32  C   UNL A   1      36.435  30.125  29.251  1.00  0.00     0.039 A 
ATOM     33  C   UNL A   1      36.779  29.211  30.250  1.00  0.00     0.014 A 
ATOM     34  C   UNL A   1      37.094  30.127  28.024  1.00  0.00     0.014 A 
ATOM     35  C   UNL A   1      37.948  28.469  30.107  1.00  0.00     0.010 A 
ATOM     36  C   UNL A   1      38.306  29.473  27.928  1.00  0.00     0.010 A 
ATOM     37  C   UNL A   1      38.766  28.697  28.999  1.00  0.00    -0.014 A 
BRANCH  37  38
ATOM     38  C   UNL A   1      40.161  28.276  28.950  1.00  0.00     0.031 A 
ATOM     39  C   UNL A   1      40.535  26.939  28.449  1.00  0.00     0.074 A 
ATOM     40  C   UNL A   1      41.139  29.128  29.336  1.00  0.00     0.049 A 
ATOM     41  N   UNL A   1      41.573  26.289  28.859  1.00  0.00    -0.248 NA
ATOM     42  C   UNL A   1      39.748  26.210  27.462  1.00  0.00     0.031 C 
ATOM     43  C   UNL A   1      42.578  28.965  29.136  1.00  0.00     0.029 A 
ATOM     44  N   UNL A   1      41.031  30.248  30.177  1.00  0.00    -0.354 N 
ATOM     45  C   UNL A   1      41.744  25.213  28.023  1.00  0.00     0.074 A 
ATOM     46  C   UNL A   1      40.548  25.168  27.211  1.00  0.00     0.031 C 
ATOM     47  C   UNL A   1      43.229  29.717  30.035  1.00  0.00     0.029 A 
ATOM     48  C   UNL A   1      42.232  30.286  30.922  1.00  0.00     0.049 A 
ATOM     49  H   UNL A   1      40.275  30.877  30.236  1.00  0.00     0.167 HD
ATOM     50  C   UNL A   1      42.935  24.551  28.003  1.00  0.00     0.037 A 
ATOM     51  C   UNL A   1      42.250  30.199  32.282  1.00  0.00     0.037 A 
ATOM     52  C   UNL A   1      43.897  25.130  28.930  1.00  0.00     0.049 A 
ATOM     53  C   UNL A   1      43.099  29.074  32.817  1.00  0.00     0.074 A 
ATOM     54  C   UNL A   1      44.935  26.030  28.753  1.00  0.00     0.029 A 
ATOM     55  N   UNL A   1      43.679  25.047  30.300  1.00  0.00    -0.354 N 
ATOM     56  N   UNL A   1      43.443  28.031  32.117  1.00  0.00    -0.248 NA
ATOM     57  C   UNL A   1      43.585  29.010  34.191  1.00  0.00     0.031 C 
ATOM     58  C   UNL A   1      45.348  26.489  30.025  1.00  0.00     0.029 A 
ATOM     59  C   UNL A   1      44.560  25.867  30.978  1.00  0.00     0.049 A 
ATOM     60  H   UNL A   1      42.994  24.482  30.728  1.00  0.00     0.167 HD
ATOM     61  C   UNL A   1      44.139  27.155  32.912  1.00  0.00     0.074 A 
ATOM     62  C   UNL A   1      44.224  27.827  34.194  1.00  0.00     0.031 C 
ATOM     63  C   UNL A   1      44.562  25.947  32.429  1.00  0.00     0.037 A 
BRANCH  50  64
ATOM     64  C   UNL A   1      43.297  23.575  26.912  1.00  0.00     0.064 A 
ATOM     65  C   UNL A   1      42.894  22.225  26.968  1.00  0.00     0.173 A 
ATOM     66  C   UNL A   1      44.089  23.919  25.802  1.00  0.00     0.173 A 
ATOM     67  F   UNL A   1      42.061  21.778  27.915  1.00  0.00    -0.203 F 
ATOM     68  C   UNL A   1      43.349  21.272  26.055  1.00  0.00     0.198 A 
ATOM     69  C   UNL A   1      44.587  22.956  24.919  1.00  0.00     0.198 A 
ATOM     70  F   UNL A   1      44.384  25.201  25.538  1.00  0.00    -0.203 F 
ATOM     71  F   UNL A   1      42.946  19.998  26.168  1.00  0.00    -0.200 F 
ATOM     72  C   UNL A   1      44.228  21.630  25.054  1.00  0.00     0.200 A 
ATOM     73  F   UNL A   1      45.430  23.322  23.941  1.00  0.00    -0.200 F 
ATOM     74  F   UNL A   1      44.711  20.704  24.215  1.00  0.00    -0.200 F 
ENDBRANCH  50  64
BRANCH  51  75
ATOM     75  C   UNL A   1      41.002  30.688  32.922  1.00  0.00     0.064 A 
ATOM     76  C   UNL A   1      40.778  32.077  32.979  1.00  0.00     0.173 A 
ATOM     77  C   UNL A   1      39.905  29.843  33.118  1.00  0.00     0.173 A 
ATOM     78  F   UNL A   1      41.798  32.930  32.794  1.00  0.00    -0.203 F 
ATOM     79  C   UNL A   1      39.492  32.596  33.104  1.00  0.00     0.198 A 
ATOM     80  C   UNL A   1      38.619  30.368  33.259  1.00  0.00     0.198 A 
ATOM     81  F   UNL A   1      40.054  28.513  33.058  1.00  0.00    -0.203 F 
ATOM     82  F   UNL A   1      39.296  33.921  33.036  1.00  0.00    -0.200 F 
ATOM     83  C   UNL A   1      38.410  31.740  33.217  1.00  0.00     0.200 A 
ATOM     84  F   UNL A   1      37.567  29.540  33.337  1.00  0.00    -0.200 F 
ATOM     85  F   UNL A   1      37.164  32.232  33.239  1.00  0.00    -0.200 F 
ENDBRANCH  51  75
BRANCH  63  86
ATOM     86  C   UNL A   1      45.112  24.776  33.221  1.00  0.00     0.064 A 
ATOM     87  C   UNL A   1      44.407  23.591  33.487  1.00  0.00     0.173 A 
ATOM     88  C   UNL A   1      46.471  24.769  33.634  1.00  0.00     0.173 A 
ATOM     89  F   UNL A   1      43.159  23.403  33.048  1.00  0.00    -0.203 F 
ATOM     90  C   UNL A   1      44.991  22.514  34.167  1.00  0.00     0.198 A 
ATOM     91  C   UNL A   1      47.066  23.672  34.257  1.00  0.00     0.198 A 
ATOM     92  F   UNL A   1      47.281  25.816  33.420  1.00  0.00    -0.203 F 
ATOM     93  F   UNL A   1      44.257  21.424  34.432  1.00  0.00    -0.200 F 
ATOM     94  C   UNL A   1      46.320  22.549  34.540  1.00  0.00     0.200 A 
ATOM     95  F   UNL A   1      48.372  23.704  34.559  1.00  0.00    -0.200 F 
ATOM     96  F   UNL A   1      46.885  21.497  35.146  1.00  0.00    -0.200 F 
ENDBRANCH  63  86
ENDBRANCH  37  38
ENDBRANCH  29  32
ENDBRANCH  27  28
ENDBRANCH  26  27
ENDBRANCH   1  26
TORSDOF 13
ENDMDL
MODEL 2
REMARK VINA RESULT:     -14.2      3.812      9.865
REMARK SMILES Cc1ccc([C@H](C)NC(=O)[C@H]2[C@@H]3CC[C@@H](C3)[C@@H]2C(=O)NCCCNC(=O)c2ccc(-c3c4nc(c(-c5c(F)c(F)c(F)c(F)c5F)c5ccc([nH]5)c(-c5c(F)c(F)c(F)c(F)c5F)c5nc(c(-c6c(F)c(F)c(F)c(F)c6F)c6ccc3[nH]6)C=C5)C=C4)cc2)cc1
REMARK SMILES IDX 21 1 20 2 18 3 19 4 17 6 11 7 12 8 13 9 16 10 15 11 14 12
REMARK SMILES IDX 9 13 8 14 10 16 6 17 7 18 5 19 1 20 2 21 3 22 91 23 4 24
REMARK SMILES IDX 90 25 22 26 23 27 24 28 25 29 26 31 27 32 28 33 89 34 29 35
REMARK SMILES IDX 88 36 30 37 31 38 32 39 82 40 33 41 87 42 81 43 83 44 34 45
REMARK SMILES IDX 86 46 80 47 79 48 35 50 67 51 47 52 66 53 48 54 51 55 65 56
REMARK SMILES IDX 84 57 49 58 50 59 64 61 85 62 52 63 36 64 37 65 45 66 38 67
REMARK SMILES IDX 39 68 43 69 46 70 40 71 41 72 44 73 42 74 68 75 69 76 77 77
REMARK SMILES IDX 70 78 71 79 75 80 78 81 72 82 73 83 76 84 74 85 53 86 54 87
REMARK SMILES IDX 62 88 55 89 56 90 60 91 63 92 57 93 58 94 61 95 59 96
REMARK H PARENT 20 5 8 15 24 30 83 49 51 60
REMARK Flexibility Score: inf
ROOT
ATOM      1  C   UNL A   1      36.368  23.893  25.624  1.00  0.00     0.117 C 
ENDROOT
BRANCH   1   2
ATOM      2  N   UNL A   1      35.756  23.095  26.675  1.00  0.00    -0.356 N 
ATOM      3  C   UNL A   1      34.473  22.683  26.868  1.00  0.00     0.224 C 
ATOM      4  O   UNL A   1      34.291  21.886  27.794  1.00  0.00    -0.275 OA
ATOM      5  H   UNL A   1      36.384  22.800  27.374  1.00  0.00     0.163 HD
BRANCH   3   6
ATOM      6  C   UNL A   1      33.338  23.062  25.912  1.00  0.00     0.094 C 
ATOM      7  C   UNL A   1      31.941  22.504  26.200  1.00  0.00     0.094 C 
ATOM      8  C   UNL A   1      31.509  21.836  24.871  1.00  0.00     0.002 C 
ATOM      9  C   UNL A   1      32.293  20.515  24.733  1.00  0.00     0.005 C 
ATOM     10  C   UNL A   1      32.195  22.686  23.811  1.00  0.00     0.009 C 
ATOM     11  C   UNL A   1      33.577  22.542  24.457  1.00  0.00     0.002 C 
ATOM     12  C   UNL A   1      33.717  21.002  24.425  1.00  0.00     0.005 C 
BRANCH   7  13
ATOM     13  C   UNL A   1      30.863  23.411  26.789  1.00  0.00     0.224 C 
ATOM     14  N   UNL A   1      30.619  24.701  26.473  1.00  0.00    -0.349 N 
ATOM     15  H   UNL A   1      29.948  25.109  27.065  1.00  0.00     0.164 HD
ATOM     16  O   UNL A   1      30.114  22.934  27.654  1.00  0.00    -0.275 OA
BRANCH  14  17
ATOM     17  C   UNL A   1      31.108  25.637  25.466  1.00  0.00     0.109 C 
ATOM     18  C   UNL A   1      29.920  26.229  24.702  1.00  0.00     0.036 C 
BRANCH  17  19
ATOM     19  C   UNL A   1      31.971  26.733  26.068  1.00  0.00    -0.026 A 
ATOM     20  C   UNL A   1      34.433  30.027  27.427  1.00  0.00     0.044 C 
ATOM     21  C   UNL A   1      33.581  28.870  26.994  1.00  0.00    -0.051 A 
ATOM     22  C   UNL A   1      34.121  27.883  26.167  1.00  0.00     0.004 A 
ATOM     23  C   UNL A   1      32.241  28.766  27.384  1.00  0.00     0.004 A 
ATOM     24  C   UNL A   1      33.325  26.834  25.705  1.00  0.00     0.006 A 
ATOM     25  C   UNL A   1      31.447  27.706  26.931  1.00  0.00     0.006 A 
ENDBRANCH  17  19
ENDBRANCH  14  17
ENDBRANCH   7  13
ENDBRANCH   3   6
ENDBRANCH   1   2
BRANCH   1  26
ATOM     26  C   UNL A   1      37.772  23.411  25.255  1.00  0.00     0.042 C 
BRANCH  26  27
ATOM     27  C   UNL A   1      38.530  22.783  26.415  1.00  0.00     0.118 C 
BRANCH  27  28
ATOM     28  N   UNL A   1      39.983  22.858  26.283  1.00  0.00    -0.352 N 
ATOM     29  C   UNL A   1      40.809  23.953  26.483  1.00  0.00     0.251 C 
ATOM     30  H   UNL A   1      40.434  22.023  26.018  1.00  0.00     0.163 HD
ATOM     31  O   UNL A   1      42.019  23.865  26.378  1.00  0.00    -0.269 OA
BRANCH  29  32
ATOM     32  C   UNL A   1      40.182  25.212  26.949  1.00  0.00     0.039 A 
ATOM     33  C   UNL A   1      40.533  26.399  26.300  1.00  0.00     0.014 A 
ATOM     34  C   UNL A   1      39.488  25.234  28.156  1.00  0.00     0.014 A 
ATOM     35  C   UNL A   1      40.405  27.602  26.988  1.00  0.00     0.010 A 
ATOM     36  C   UNL A   1      39.461  26.410  28.877  1.00  0.00     0.010 A 
ATOM     37  C   UNL A   1      39.982  27.583  28.318  1.00  0.00    -0.014 A 
BRANCH  37  38
ATOM     38  C   UNL A   1      40.185  28.706  29.225  1.00  0.00     0.031 A 
ATOM     39  C   UNL A   1      39.145  29.739  29.400  1.00  0.00     0.074 A 
ATOM     40  C   UNL A   1      41.326  28.796  29.948  1.00  0.00     0.049 A 
ATOM     41  N   UNL A   1      39.406  30.970  29.694  1.00  0.00    -0.248 NA
ATOM     42  C   UNL A   1      37.722  29.474  29.227  1.00  0.00     0.031 C 
ATOM     43  C   UNL A   1      41.594  29.707  31.060  1.00  0.00     0.029 A 
ATOM     44  N   UNL A   1      42.567  28.192  29.686  1.00  0.00    -0.354 N 
ATOM     45  C   UNL A   1      38.217  31.580  30.011  1.00  0.00     0.074 A 
ATOM     46  C   UNL A   1      37.191  30.629  29.643  1.00  0.00     0.031 C 
ATOM     47  C   UNL A   1      42.921  29.844  31.197  1.00  0.00     0.029 A 
ATOM     48  C   UNL A   1      43.543  29.129  30.099  1.00  0.00     0.049 A 
ATOM     49  H   UNL A   1      42.725  27.301  29.297  1.00  0.00     0.167 HD
ATOM     50  C   UNL A   1      38.220  32.767  30.680  1.00  0.00     0.037 A 
ATOM     51  C   UNL A   1      44.458  29.655  29.237  1.00  0.00     0.037 A 
ATOM     52  C   UNL A   1      39.571  33.226  30.971  1.00  0.00     0.049 A 
ATOM     53  C   UNL A   1      44.450  31.162  29.174  1.00  0.00     0.074 A 
ATOM     54  C   UNL A   1      40.364  33.129  32.103  1.00  0.00     0.029 A 
ATOM     55  N   UNL A   1      40.412  33.613  29.935  1.00  0.00    -0.354 N 
ATOM     56  N   UNL A   1      43.438  31.896  29.540  1.00  0.00    -0.248 NA
ATOM     57  C   UNL A   1      45.555  31.955  28.646  1.00  0.00     0.031 C 
ATOM     58  C   UNL A   1      41.690  33.463  31.747  1.00  0.00     0.029 A 
ATOM     59  C   UNL A   1      41.705  33.764  30.396  1.00  0.00     0.049 A 
ATOM     60  H   UNL A   1      40.127  33.758  29.003  1.00  0.00     0.167 HD
ATOM     61  C   UNL A   1      43.712  33.215  29.279  1.00  0.00     0.074 A 
ATOM     62  C   UNL A   1      45.060  33.202  28.745  1.00  0.00     0.031 C 
ATOM     63  C   UNL A   1      42.782  34.190  29.517  1.00  0.00     0.037 A 
BRANCH  50  64
ATOM     64  C   UNL A   1      36.980  33.333  31.325  1.00  0.00     0.064 A 
ATOM     65  C   UNL A   1      36.734  33.184  32.705  1.00  0.00     0.173 A 
ATOM     66  C   UNL A   1      35.971  33.996  30.605  1.00  0.00     0.173 A 
ATOM     67  F   UNL A   1      37.647  32.658  33.530  1.00  0.00    -0.203 F 
ATOM     68  C   UNL A   1      35.524  33.558  33.293  1.00  0.00     0.198 A 
ATOM     69  C   UNL A   1      34.739  34.323  31.181  1.00  0.00     0.198 A 
ATOM     70  F   UNL A   1      36.162  34.359  29.327  1.00  0.00    -0.203 F 
ATOM     71  F   UNL A   1      35.340  33.377  34.608  1.00  0.00    -0.200 F 
ATOM     72  C   UNL A   1      34.511  34.091  32.523  1.00  0.00     0.200 A 
ATOM     73  F   UNL A   1      33.769  34.853  30.422  1.00  0.00    -0.200 F 
ATOM     74  F   UNL A   1      33.329  34.395  33.075  1.00  0.00    -0.200 F 
ENDBRANCH  50  64
BRANCH  51  75
ATOM     75  C   UNL A   1      44.768  28.766  28.088  1.00  0.00     0.064 A 
ATOM     76  C   UNL A   1      45.563  27.627  28.317  1.00  0.00     0.173 A 
ATOM     77  C   UNL A   1      44.012  28.807  26.912  1.00  0.00     0.173 A 
ATOM     78  F   UNL A   1      46.304  27.540  29.433  1.00  0.00    -0.203 F 
ATOM     79  C   UNL A   1      45.509  26.526  27.467  1.00  0.00     0.198 A 
ATOM     80  C   UNL A   1      43.973  27.707  26.054  1.00  0.00     0.198 A 
ATOM     81  F   UNL A   1      43.223  29.858  26.648  1.00  0.00    -0.203 F 
ATOM     82  F   UNL A   1      46.185  25.410  27.774  1.00  0.00    -0.200 F 
ATOM     83  C   UNL A   1      44.691  26.557  26.350  1.00  0.00     0.200 A 
ATOM     84  F   UNL A   1      43.158  27.723  24.989  1.00  0.00    -0.200 F 
ATOM     85  F   UNL A   1      44.561  25.465  25.584  1.00  0.00    -0.200 F 
ENDBRANCH  51  75
BRANCH  63  86
ATOM     86  C   UNL A   1      42.821  35.636  29.064  1.00  0.00     0.064 A 
ATOM     87  C   UNL A   1      42.127  36.144  27.953  1.00  0.00     0.173 A 
ATOM     88  C   UNL A   1      43.483  36.614  29.852  1.00  0.00     0.173 A 
ATOM     89  F   UNL A   1      41.356  35.362  27.190  1.00  0.00    -0.203 F 
ATOM     90  C   UNL A   1      42.147  37.504  27.620  1.00  0.00     0.198 A 
ATOM     91  C   UNL A   1      43.451  37.976  29.552  1.00  0.00     0.198 A 
ATOM     92  F   UNL A   1      44.161  36.287  30.962  1.00  0.00    -0.203 F 
ATOM     93  F   UNL A   1      41.501  37.926  26.524  1.00  0.00    -0.200 F 
ATOM     94  C   UNL A   1      42.796  38.421  28.425  1.00  0.00     0.200 A 
ATOM     95  F   UNL A   1      44.039  38.854  30.377  1.00  0.00    -0.200 F 
ATOM     96  F   UNL A   1      42.770  39.726  28.128  1.00  0.00    -0.200 F 
ENDBRANCH  63  86
ENDBRANCH  37  38
ENDBRANCH  29  32
ENDBRANCH  27  28
ENDBRANCH  26  27
ENDBRANCH   1  26
TORSDOF 13
ENDMDL
MODEL 3
REMARK VINA RESULT:     -13.9      1.452      1.944
REMARK SMILES Cc1ccc([C@H](C)NC(=O)[C@H]2[C@@H]3CC[C@@H](C3)[C@@H]2C(=O)NCCCNC(=O)c2ccc(-c3c4nc(c(-c5c(F)c(F)c(F)c(F)c5F)c5ccc([nH]5)c(-c5c(F)c(F)c(F)c(F)c5F)c5nc(c(-c6c(F)c(F)c(F)c(F)c6F)c6ccc3[nH]6)C=C5)C=C4)cc2)cc1
REMARK SMILES IDX 21 1 20 2 18 3 19 4 17 6 11 7 12 8 13 9 16 10 15 11 14 12
REMARK SMILES IDX 9 13 8 14 10 16 6 17 7 18 5 19 1 20 2 21 3 22 91 23 4 24
REMARK SMILES IDX 90 25 22 26 23 27 24 28 25 29 26 31 27 32 28 33 89 34 29 35
REMARK SMILES IDX 88 36 30 37 31 38 32 39 82 40 33 41 87 42 81 43 83 44 34 45
REMARK SMILES IDX 86 46 80 47 79 48 35 50 67 51 47 52 66 53 48 54 51 55 65 56
REMARK SMILES IDX 84 57 49 58 50 59 64 61 85 62 52 63 36 64 37 65 45 66 38 67
REMARK SMILES IDX 39 68 43 69 46 70 40 71 41 72 44 73 42 74 68 75 69 76 77 77
REMARK SMILES IDX 70 78 71 79 75 80 78 81 72 82 73 83 76 84 74 85 53 86 54 87
REMARK SMILES IDX 62 88 55 89 56 90 60 91 63 92 57 93 58 94 61 95 59 96
REMARK H PARENT 20 5 8 15 24 30 83 49 51 60
REMARK Flexibility Score: inf
ROOT
ATOM      1  C   UNL A   1      32.142  30.425  26.106  1.00  0.00     0.117 C 
ENDROOT
BRANCH   1   2
ATOM      2  N   UNL A   1      33.127  29.643  25.375  1.00  0.00    -0.356 N 
ATOM      3  C   UNL A   1      33.088  28.378  24.873  1.00  0.00     0.224 C 
ATOM      4  O   UNL A   1      34.044  28.042  24.168  1.00  0.00    -0.275 OA
ATOM      5  H   UNL A   1      33.976  30.115  25.214  1.00  0.00     0.163 HD
BRANCH   3   6
ATOM      6  C   UNL A   1      31.869  27.466  25.046  1.00  0.00     0.094 C 
ATOM      7  C   UNL A   1      32.059  25.965  24.812  1.00  0.00     0.094 C 
ATOM      8  C   UNL A   1      30.959  25.588  23.789  1.00  0.00     0.002 C 
ATOM      9  C   UNL A   1      31.398  26.123  22.410  1.00  0.00     0.005 C 
ATOM     10  C   UNL A   1      29.827  26.552  24.120  1.00  0.00     0.009 C 
ATOM     11  C   UNL A   1      30.728  27.788  24.027  1.00  0.00     0.002 C 
ATOM     12  C   UNL A   1      31.217  27.640  22.567  1.00  0.00     0.005 C 
BRANCH   7  13
ATOM     13  C   UNL A   1      32.118  25.008  26.002  1.00  0.00     0.224 C 
ATOM     14  N   UNL A   1      32.908  23.921  26.136  1.00  0.00    -0.349 N 
ATOM     15  H   UNL A   1      32.687  23.398  26.940  1.00  0.00     0.164 HD
ATOM     16  O   UNL A   1      31.370  25.234  26.964  1.00  0.00    -0.275 OA
BRANCH  14  17
ATOM     17  C   UNL A   1      34.009  23.334  25.380  1.00  0.00     0.109 C 
ATOM     18  C   UNL A   1      35.230  23.186  26.291  1.00  0.00     0.036 C 
BRANCH  17  19
ATOM     19  C   UNL A   1      33.631  22.002  24.752  1.00  0.00    -0.026 A 
ATOM     20  C   UNL A   1      32.330  18.142  23.281  1.00  0.00     0.044 C 
ATOM     21  C   UNL A   1      32.804  19.484  23.757  1.00  0.00    -0.051 A 
ATOM     22  C   UNL A   1      33.710  19.564  24.816  1.00  0.00     0.004 A 
ATOM     23  C   UNL A   1      32.339  20.668  23.174  1.00  0.00     0.004 A 
ATOM     24  C   UNL A   1      34.111  20.806  25.312  1.00  0.00     0.006 A 
ATOM     25  C   UNL A   1      32.753  21.914  23.662  1.00  0.00     0.006 A 
ENDBRANCH  17  19
ENDBRANCH  14  17
ENDBRANCH   7  13
ENDBRANCH   3   6
ENDBRANCH   1   2
BRANCH   1  26
ATOM     26  C   UNL A   1      32.757  31.232  27.251  1.00  0.00     0.042 C 
BRANCH  26  27
ATOM     27  C   UNL A   1      34.124  30.729  27.692  1.00  0.00     0.118 C 
BRANCH  27  28
ATOM     28  N   UNL A   1      34.783  31.590  28.671  1.00  0.00    -0.352 N 
ATOM     29  C   UNL A   1      35.957  31.354  29.369  1.00  0.00     0.251 C 
ATOM     30  H   UNL A   1      34.337  32.447  28.858  1.00  0.00     0.163 HD
ATOM     31  O   UNL A   1      36.421  32.182  30.131  1.00  0.00    -0.269 OA
BRANCH  29  32
ATOM     32  C   UNL A   1      36.699  30.107  29.069  1.00  0.00     0.039 A 
ATOM     33  C   UNL A   1      37.020  29.262  30.134  1.00  0.00     0.014 A 
ATOM     34  C   UNL A   1      37.282  29.935  27.816  1.00  0.00     0.014 A 
ATOM     35  C   UNL A   1      38.109  28.404  30.005  1.00  0.00     0.010 A 
ATOM     36  C   UNL A   1      38.424  29.165  27.723  1.00  0.00     0.010 A 
ATOM     37  C   UNL A   1      38.877  28.452  28.840  1.00  0.00    -0.014 A 
BRANCH  37  38
ATOM     38  C   UNL A   1      40.225  27.901  28.762  1.00  0.00     0.031 A 
ATOM     39  C   UNL A   1      40.447  26.483  28.418  1.00  0.00     0.074 A 
ATOM     40  C   UNL A   1      41.296  28.700  28.974  1.00  0.00     0.049 A 
ATOM     41  N   UNL A   1      41.454  25.795  28.845  1.00  0.00    -0.248 NA
ATOM     42  C   UNL A   1      39.533  25.713  27.583  1.00  0.00     0.031 C 
ATOM     43  C   UNL A   1      42.698  28.380  28.709  1.00  0.00     0.029 A 
ATOM     44  N   UNL A   1      41.343  29.921  29.667  1.00  0.00    -0.354 N 
ATOM     45  C   UNL A   1      41.473  24.613  28.148  1.00  0.00     0.074 A 
ATOM     46  C   UNL A   1      40.222  24.578  27.422  1.00  0.00     0.031 C 
ATOM     47  C   UNL A   1      43.473  29.175  29.461  1.00  0.00     0.029 A 
ATOM     48  C   UNL A   1      42.594  29.940  30.326  1.00  0.00     0.049 A 
ATOM     49  H   UNL A   1      40.648  30.620  29.688  1.00  0.00     0.167 HD
ATOM     50  C   UNL A   1      42.600  23.846  28.142  1.00  0.00     0.037 A 
ATOM     51  C   UNL A   1      42.702  30.022  31.682  1.00  0.00     0.037 A 
ATOM     52  C   UNL A   1      43.671  24.444  28.926  1.00  0.00     0.049 A 
ATOM     53  C   UNL A   1      43.490  28.898  32.306  1.00  0.00     0.074 A 
ATOM     54  C   UNL A   1      44.766  25.216  28.570  1.00  0.00     0.029 A 
ATOM     55  N   UNL A   1      43.546  24.553  30.305  1.00  0.00    -0.354 N 
ATOM     56  N   UNL A   1      43.694  27.749  31.728  1.00  0.00    -0.248 NA
ATOM     57  C   UNL A   1      44.066  28.961  33.646  1.00  0.00     0.031 C 
ATOM     58  C   UNL A   1      45.306  25.788  29.744  1.00  0.00     0.029 A 
ATOM     59  C   UNL A   1      44.539  25.366  30.816  1.00  0.00     0.049 A 
ATOM     60  H   UNL A   1      42.848  24.112  30.843  1.00  0.00     0.167 HD
ATOM     61  C   UNL A   1      44.368  26.917  32.587  1.00  0.00     0.074 A 
ATOM     62  C   UNL A   1      44.602  27.733  33.764  1.00  0.00     0.031 C 
ATOM     63  C   UNL A   1      44.652  25.625  32.242  1.00  0.00     0.037 A 
BRANCH  50  64
ATOM     64  C   UNL A   1      42.799  22.713  27.167  1.00  0.00     0.064 A 
ATOM     65  C   UNL A   1      42.115  21.489  27.312  1.00  0.00     0.173 A 
ATOM     66  C   UNL A   1      43.700  22.772  26.089  1.00  0.00     0.173 A 
ATOM     67  F   UNL A   1      41.160  21.321  28.234  1.00  0.00    -0.203 F 
ATOM     68  C   UNL A   1      42.401  20.375  26.519  1.00  0.00     0.198 A 
ATOM     69  C   UNL A   1      44.024  21.644  25.329  1.00  0.00     0.198 A 
ATOM     70  F   UNL A   1      44.274  23.932  25.736  1.00  0.00    -0.203 F 
ATOM     71  F   UNL A   1      41.731  19.231  26.714  1.00  0.00    -0.200 F 
ATOM     72  C   UNL A   1      43.384  20.442  25.554  1.00  0.00     0.200 A 
ATOM     73  F   UNL A   1      44.973  21.729  24.385  1.00  0.00    -0.200 F 
ATOM     74  F   UNL A   1      43.700  19.357  24.834  1.00  0.00    -0.200 F 
ENDBRANCH  50  64
BRANCH  51  75
ATOM     75  C   UNL A   1      41.549  30.700  32.327  1.00  0.00     0.064 A 
ATOM     76  C   UNL A   1      41.455  32.102  32.231  1.00  0.00     0.173 A 
ATOM     77  C   UNL A   1      40.395  29.994  32.683  1.00  0.00     0.173 A 
ATOM     78  F   UNL A   1      42.535  32.824  31.888  1.00  0.00    -0.203 F 
ATOM     79  C   UNL A   1      40.234  32.755  32.364  1.00  0.00     0.198 A 
ATOM     80  C   UNL A   1      39.174  30.655  32.832  1.00  0.00     0.198 A 
ATOM     81  F   UNL A   1      40.418  28.657  32.774  1.00  0.00    -0.203 F 
ATOM     82  F   UNL A   1      40.154  34.076  32.149  1.00  0.00    -0.200 F 
ATOM     83  C   UNL A   1      39.089  32.026  32.638  1.00  0.00     0.200 A 
ATOM     84  F   UNL A   1      38.059  29.948  33.066  1.00  0.00    -0.200 F 
ATOM     85  F   UNL A   1      37.896  32.638  32.670  1.00  0.00    -0.200 F 
ENDBRANCH  51  75
BRANCH  63  86
ATOM     86  C   UNL A   1      45.157  24.516  33.144  1.00  0.00     0.064 A 
ATOM     87  C   UNL A   1      44.426  23.365  33.480  1.00  0.00     0.173 A 
ATOM     88  C   UNL A   1      46.501  24.525  33.604  1.00  0.00     0.173 A 
ATOM     89  F   UNL A   1      43.190  23.157  33.014  1.00  0.00    -0.203 F 
ATOM     90  C   UNL A   1      44.970  22.340  34.266  1.00  0.00     0.198 A 
ATOM     91  C   UNL A   1      47.058  23.476  34.334  1.00  0.00     0.198 A 
ATOM     92  F   UNL A   1      47.334  25.542  33.334  1.00  0.00    -0.203 F 
ATOM     93  F   UNL A   1      44.211  21.285  34.592  1.00  0.00    -0.200 F 
ATOM     94  C   UNL A   1      46.286  22.388  34.680  1.00  0.00     0.200 A 
ATOM     95  F   UNL A   1      48.353  23.516  34.678  1.00  0.00    -0.200 F 
ATOM     96  F   UNL A   1      46.814  21.382  35.389  1.00  0.00    -0.200 F 
ENDBRANCH  63  86
ENDBRANCH  37  38
ENDBRANCH  29  32
ENDBRANCH  27  28
ENDBRANCH  26  27
ENDBRANCH   1  26
TORSDOF 13
ENDMDL
