MODEL 1
REMARK VINA RESULT:     -12.5      0.000      0.000
REMARK SMILES CCc1ccc(C(=O)NCc2ccc(C(=O)NCCCNC(=O)c3ccc(-c4c5nc(c(-c6c(F)c(F)c(F)c(F)c6F)c6ccc([nH]6)c(-c6c(F)c(F)c(F)c(F)c6F)c6nc(c(-c7c(F)c(F)c(F)c(F)c7F)c7ccc4[nH]7)C=C6)C=C5)cc3)cc2)cc1
REMARK SMILES IDX 18 1 17 2 15 3 16 4 14 6 11 7 12 8 88 9 13 10 87 11 10 12
REMARK SMILES IDX 9 13 7 14 8 15 6 17 3 18 4 19 90 20 5 21 89 22 2 23 1 24
REMARK SMILES IDX 19 25 20 26 21 27 22 28 23 30 24 31 25 32 86 33 26 34 85 35
REMARK SMILES IDX 27 36 28 37 29 38 79 39 30 40 84 41 78 42 80 43 31 44 83 45
REMARK SMILES IDX 77 46 76 47 32 49 64 50 44 51 63 52 45 53 48 54 62 55 81 56
REMARK SMILES IDX 46 57 47 58 61 60 82 61 49 62 33 63 34 64 42 65 35 66 36 67
REMARK SMILES IDX 40 68 43 69 37 70 38 71 41 72 39 73 65 74 66 75 74 76 67 77
REMARK SMILES IDX 68 78 72 79 75 80 69 81 70 82 73 83 71 84 50 85 51 86 59 87
REMARK SMILES IDX 52 88 53 89 57 90 60 91 54 92 55 93 58 94 56 95
REMARK H PARENT 17 5 9 16 21 29 80 48 48 59
REMARK Flexibility Score: inf
ROOT
ATOM      1  C   UNL A   1      31.117  30.758  25.390  1.00  0.00     0.118 C 
ENDROOT
BRANCH   1   2
ATOM      2  N   UNL A   1      30.274  30.923  24.218  1.00  0.00    -0.352 N 
ATOM      3  C   UNL A   1      29.713  30.013  23.359  1.00  0.00     0.251 C 
ATOM      4  O   UNL A   1      28.928  30.432  22.508  1.00  0.00    -0.269 OA
ATOM      5  H   UNL A   1      30.068  31.861  24.001  1.00  0.00     0.163 HD
BRANCH   3   6
ATOM      6  C   UNL A   1      29.983  28.554  23.435  1.00  0.00     0.039 A 
ATOM      7  C   UNL A   1      30.324  25.745  23.544  1.00  0.00    -0.029 A 
ATOM      8  C   UNL A   1      29.114  26.335  23.936  1.00  0.00     0.006 A 
ATOM      9  C   UNL A   1      31.351  26.584  23.087  1.00  0.00     0.006 A 
ATOM     10  C   UNL A   1      28.944  27.723  23.875  1.00  0.00     0.014 A 
ATOM     11  C   UNL A   1      31.177  27.969  23.015  1.00  0.00     0.014 A 
BRANCH   7  12
ATOM     12  C   UNL A   1      30.499  24.245  23.608  1.00  0.00     0.152 C 
BRANCH  12  13
ATOM     13  N   UNL A   1      30.508  23.774  24.977  1.00  0.00    -0.348 N 
ATOM     14  C   UNL A   1      31.034  24.231  26.152  1.00  0.00     0.251 C 
ATOM     15  O   UNL A   1      30.808  23.543  27.151  1.00  0.00    -0.269 OA
ATOM     16  H   UNL A   1      30.023  22.925  25.086  1.00  0.00     0.164 HD
BRANCH  14  17
ATOM     17  C   UNL A   1      31.846  25.476  26.316  1.00  0.00     0.039 A 
ATOM     18  C   UNL A   1      33.557  27.743  26.425  1.00  0.00    -0.048 A 
ATOM     19  C   UNL A   1      34.003  26.542  25.867  1.00  0.00     0.004 A 
ATOM     20  C   UNL A   1      32.245  27.806  26.904  1.00  0.00     0.004 A 
ATOM     21  C   UNL A   1      33.160  25.427  25.817  1.00  0.00     0.014 A 
ATOM     22  C   UNL A   1      31.397  26.689  26.843  1.00  0.00     0.014 A 
BRANCH  18  23
ATOM     23  C   UNL A   1      34.462  28.950  26.453  1.00  0.00     0.032 C 
ATOM     24  C   UNL A   1      34.628  29.546  27.844  1.00  0.00     0.009 C 
ENDBRANCH  18  23
ENDBRANCH  14  17
ENDBRANCH  12  13
ENDBRANCH   7  12
ENDBRANCH   3   6
ENDBRANCH   1   2
BRANCH   1  25
ATOM     25  C   UNL A   1      31.020  31.959  26.330  1.00  0.00     0.042 C 
BRANCH  25  26
ATOM     26  C   UNL A   1      32.365  32.425  26.886  1.00  0.00     0.118 C 
BRANCH  26  27
ATOM     27  N   UNL A   1      32.321  33.801  27.357  1.00  0.00    -0.352 N 
ATOM     28  C   UNL A   1      33.068  34.432  28.319  1.00  0.00     0.251 C 
ATOM     29  H   UNL A   1      31.649  34.368  26.915  1.00  0.00     0.163 HD
ATOM     30  O   UNL A   1      32.739  35.553  28.694  1.00  0.00    -0.269 OA
BRANCH  28  31
ATOM     31  C   UNL A   1      34.257  33.783  28.919  1.00  0.00     0.039 A 
ATOM     32  C   UNL A   1      34.054  32.762  29.855  1.00  0.00     0.014 A 
ATOM     33  C   UNL A   1      35.556  34.212  28.632  1.00  0.00     0.014 A 
ATOM     34  C   UNL A   1      35.148  32.148  30.471  1.00  0.00     0.010 A 
ATOM     35  C   UNL A   1      36.650  33.560  29.202  1.00  0.00     0.010 A 
ATOM     36  C   UNL A   1      36.457  32.529  30.134  1.00  0.00    -0.014 A 
BRANCH  36  37
ATOM     37  C   UNL A   1      37.629  31.871  30.766  1.00  0.00     0.031 A 
ATOM     38  C   UNL A   1      38.074  32.275  32.144  1.00  0.00     0.074 A 
ATOM     39  C   UNL A   1      38.322  30.944  30.079  1.00  0.00     0.049 A 
ATOM     40  N   UNL A   1      39.104  31.858  32.838  1.00  0.00    -0.248 NA
ATOM     41  C   UNL A   1      37.268  33.299  32.824  1.00  0.00     0.031 C 
ATOM     42  C   UNL A   1      38.016  30.495  28.720  1.00  0.00     0.029 A 
ATOM     43  N   UNL A   1      39.435  30.219  30.426  1.00  0.00    -0.354 N 
ATOM     44  C   UNL A   1      39.080  32.580  34.024  1.00  0.00     0.074 A 
ATOM     45  C   UNL A   1      37.957  33.492  33.940  1.00  0.00     0.031 C 
ATOM     46  C   UNL A   1      38.908  29.560  28.355  1.00  0.00     0.029 A 
ATOM     47  C   UNL A   1      39.865  29.366  29.440  1.00  0.00     0.049 A 
ATOM     48  H   UNL A   1      39.883  30.303  31.299  1.00  0.00     0.167 HD
ATOM     49  C   UNL A   1      39.906  32.480  35.093  1.00  0.00     0.037 A 
ATOM     50  C   UNL A   1      40.916  28.525  29.413  1.00  0.00     0.037 A 
ATOM     51  C   UNL A   1      41.002  31.552  35.188  1.00  0.00     0.049 A 
ATOM     52  C   UNL A   1      41.808  28.420  30.619  1.00  0.00     0.074 A 
ATOM     53  C   UNL A   1      41.863  31.337  36.250  1.00  0.00     0.029 A 
ATOM     54  N   UNL A   1      41.389  30.683  34.179  1.00  0.00    -0.354 N 
ATOM     55  N   UNL A   1      41.739  29.067  31.757  1.00  0.00    -0.248 NA
ATOM     56  C   UNL A   1      42.918  27.460  30.540  1.00  0.00     0.031 C 
ATOM     57  C   UNL A   1      42.791  30.361  35.873  1.00  0.00     0.029 A 
ATOM     58  C   UNL A   1      42.483  29.939  34.590  1.00  0.00     0.049 A 
ATOM     59  H   UNL A   1      40.951  30.606  33.301  1.00  0.00     0.167 HD
ATOM     60  C   UNL A   1      42.777  28.576  32.537  1.00  0.00     0.074 A 
ATOM     61  C   UNL A   1      43.453  27.567  31.749  1.00  0.00     0.031 C 
ATOM     62  C   UNL A   1      43.138  28.931  33.796  1.00  0.00     0.037 A 
BRANCH  49  63
ATOM     63  C   UNL A   1      39.651  33.397  36.253  1.00  0.00     0.064 A 
ATOM     64  C   UNL A   1      40.230  34.673  36.322  1.00  0.00     0.173 A 
ATOM     65  C   UNL A   1      38.789  33.012  37.291  1.00  0.00     0.173 A 
ATOM     66  F   UNL A   1      41.070  35.085  35.359  1.00  0.00    -0.203 F 
ATOM     67  C   UNL A   1      39.980  35.518  37.400  1.00  0.00     0.198 A 
ATOM     68  C   UNL A   1      38.518  33.869  38.354  1.00  0.00     0.198 A 
ATOM     69  F   UNL A   1      38.203  31.805  37.271  1.00  0.00    -0.203 F 
ATOM     70  F   UNL A   1      40.580  36.714  37.467  1.00  0.00    -0.200 F 
ATOM     71  C   UNL A   1      39.119  35.119  38.412  1.00  0.00     0.200 A 
ATOM     72  F   UNL A   1      37.678  33.487  39.326  1.00  0.00    -0.200 F 
ATOM     73  F   UNL A   1      38.874  35.934  39.446  1.00  0.00    -0.200 F 
ENDBRANCH  49  63
BRANCH  50  74
ATOM     74  C   UNL A   1      41.162  27.688  28.211  1.00  0.00     0.064 A 
ATOM     75  C   UNL A   1      41.952  28.163  27.155  1.00  0.00     0.173 A 
ATOM     76  C   UNL A   1      40.619  26.401  28.093  1.00  0.00     0.173 A 
ATOM     77  F   UNL A   1      42.476  29.397  27.215  1.00  0.00    -0.203 F 
ATOM     78  C   UNL A   1      42.176  27.390  26.019  1.00  0.00     0.198 A 
ATOM     79  C   UNL A   1      40.864  25.618  26.967  1.00  0.00     0.198 A 
ATOM     80  F   UNL A   1      39.861  25.900  29.079  1.00  0.00    -0.203 F 
ATOM     81  F   UNL A   1      42.901  27.883  25.007  1.00  0.00    -0.200 F 
ATOM     82  C   UNL A   1      41.636  26.115  25.929  1.00  0.00     0.200 A 
ATOM     83  F   UNL A   1      40.350  24.383  26.888  1.00  0.00    -0.200 F 
ATOM     84  F   UNL A   1      41.854  25.370  24.837  1.00  0.00    -0.200 F 
ENDBRANCH  50  74
BRANCH  62  85
ATOM     85  C   UNL A   1      44.293  28.198  34.408  1.00  0.00     0.064 A 
ATOM     86  C   UNL A   1      45.605  28.683  34.313  1.00  0.00     0.173 A 
ATOM     87  C   UNL A   1      44.080  27.011  35.126  1.00  0.00     0.173 A 
ATOM     88  F   UNL A   1      45.861  29.805  33.624  1.00  0.00    -0.203 F 
ATOM     89  C   UNL A   1      46.666  27.994  34.894  1.00  0.00     0.198 A 
ATOM     90  C   UNL A   1      45.139  26.338  35.727  1.00  0.00     0.198 A 
ATOM     91  F   UNL A   1      42.842  26.509  35.250  1.00  0.00    -0.203 F 
ATOM     92  F   UNL A   1      47.918  28.450  34.753  1.00  0.00    -0.200 F 
ATOM     93  C   UNL A   1      46.432  26.825  35.605  1.00  0.00     0.200 A 
ATOM     94  F   UNL A   1      44.911  25.215  36.423  1.00  0.00    -0.200 F 
ATOM     95  F   UNL A   1      47.454  26.165  36.166  1.00  0.00    -0.200 F 
ENDBRANCH  62  85
ENDBRANCH  36  37
ENDBRANCH  28  31
ENDBRANCH  26  27
ENDBRANCH  25  26
ENDBRANCH   1  25
TORSDOF 14
ENDMDL
MODEL 2
REMARK VINA RESULT:     -12.5      0.149      1.590
REMARK SMILES CCc1ccc(C(=O)NCc2ccc(C(=O)NCCCNC(=O)c3ccc(-c4c5nc(c(-c6c(F)c(F)c(F)c(F)c6F)c6ccc([nH]6)c(-c6c(F)c(F)c(F)c(F)c6F)c6nc(c(-c7c(F)c(F)c(F)c(F)c7F)c7ccc4[nH]7)C=C6)C=C5)cc3)cc2)cc1
REMARK SMILES IDX 18 1 17 2 15 3 16 4 14 6 11 7 12 8 88 9 13 10 87 11 10 12
REMARK SMILES IDX 9 13 7 14 8 15 6 17 3 18 4 19 90 20 5 21 89 22 2 23 1 24
REMARK SMILES IDX 19 25 20 26 21 27 22 28 23 30 24 31 25 32 86 33 26 34 85 35
REMARK SMILES IDX 27 36 28 37 29 38 79 39 30 40 84 41 78 42 80 43 31 44 83 45
REMARK SMILES IDX 77 46 76 47 32 49 64 50 44 51 63 52 45 53 48 54 62 55 81 56
REMARK SMILES IDX 46 57 47 58 61 60 82 61 49 62 33 63 34 64 42 65 35 66 36 67
REMARK SMILES IDX 40 68 43 69 37 70 38 71 41 72 39 73 65 74 66 75 74 76 67 77
REMARK SMILES IDX 68 78 72 79 75 80 69 81 70 82 73 83 71 84 50 85 51 86 59 87
REMARK SMILES IDX 52 88 53 89 57 90 60 91 54 92 55 93 58 94 56 95
REMARK H PARENT 17 5 9 16 21 29 80 48 48 59
REMARK Flexibility Score: inf
ROOT
ATOM      1  C   UNL A   1      31.114  30.743  25.390  1.00  0.00     0.118 C 
ENDROOT
BRANCH   1   2
ATOM      2  N   UNL A   1      30.279  30.906  24.213  1.00  0.00    -0.352 N 
ATOM      3  C   UNL A   1      29.738  29.996  23.341  1.00  0.00     0.251 C 
ATOM      4  O   UNL A   1      28.954  30.410  22.488  1.00  0.00    -0.269 OA
ATOM      5  H   UNL A   1      30.061  31.843  24.002  1.00  0.00     0.163 HD
BRANCH   3   6
ATOM      6  C   UNL A   1      30.027  28.540  23.408  1.00  0.00     0.039 A 
ATOM      7  C   UNL A   1      30.405  25.735  23.501  1.00  0.00    -0.029 A 
ATOM      8  C   UNL A   1      29.196  26.308  23.918  1.00  0.00     0.006 A 
ATOM      9  C   UNL A   1      31.413  26.588  23.028  1.00  0.00     0.006 A 
ATOM     10  C   UNL A   1      29.007  27.694  23.864  1.00  0.00     0.014 A 
ATOM     11  C   UNL A   1      31.220  27.971  22.964  1.00  0.00     0.014 A 
BRANCH   7  12
ATOM     12  C   UNL A   1      30.600  24.237  23.558  1.00  0.00     0.152 C 
BRANCH  12  13
ATOM     13  N   UNL A   1      30.627  23.761  24.924  1.00  0.00    -0.348 N 
ATOM     14  C   UNL A   1      31.139  24.229  26.100  1.00  0.00     0.251 C 
ATOM     15  O   UNL A   1      30.936  23.528  27.096  1.00  0.00    -0.269 OA
ATOM     16  H   UNL A   1      30.169  22.896  25.030  1.00  0.00     0.164 HD
BRANCH  14  17
ATOM     17  C   UNL A   1      31.911  25.497  26.269  1.00  0.00     0.039 A 
ATOM     18  C   UNL A   1      33.548  27.819  26.385  1.00  0.00    -0.048 A 
ATOM     19  C   UNL A   1      34.027  26.639  25.809  1.00  0.00     0.004 A 
ATOM     20  C   UNL A   1      32.239  27.833  26.878  1.00  0.00     0.004 A 
ATOM     21  C   UNL A   1      33.221  25.498  25.756  1.00  0.00     0.014 A 
ATOM     22  C   UNL A   1      31.428  26.689  26.814  1.00  0.00     0.014 A 
BRANCH  18  23
ATOM     23  C   UNL A   1      34.412  29.055  26.417  1.00  0.00     0.032 C 
ATOM     24  C   UNL A   1      34.651  29.588  27.823  1.00  0.00     0.009 C 
ENDBRANCH  18  23
ENDBRANCH  14  17
ENDBRANCH  12  13
ENDBRANCH   7  12
ENDBRANCH   3   6
ENDBRANCH   1   2
BRANCH   1  25
ATOM     25  C   UNL A   1      31.024  31.953  26.320  1.00  0.00     0.042 C 
BRANCH  25  26
ATOM     26  C   UNL A   1      32.371  32.411  26.877  1.00  0.00     0.118 C 
BRANCH  26  27
ATOM     27  N   UNL A   1      32.333  33.786  27.353  1.00  0.00    -0.352 N 
ATOM     28  C   UNL A   1      33.074  34.407  28.325  1.00  0.00     0.251 C 
ATOM     29  H   UNL A   1      31.671  34.361  26.904  1.00  0.00     0.163 HD
ATOM     30  O   UNL A   1      32.749  35.530  28.701  1.00  0.00    -0.269 OA
BRANCH  28  31
ATOM     31  C   UNL A   1      34.250  33.746  28.937  1.00  0.00     0.039 A 
ATOM     32  C   UNL A   1      34.028  32.715  29.857  1.00  0.00     0.014 A 
ATOM     33  C   UNL A   1      35.555  34.174  28.676  1.00  0.00     0.014 A 
ATOM     34  C   UNL A   1      35.110  32.090  30.483  1.00  0.00     0.010 A 
ATOM     35  C   UNL A   1      36.637  33.511  29.256  1.00  0.00     0.010 A 
ATOM     36  C   UNL A   1      36.425  32.470  30.173  1.00  0.00    -0.014 A 
BRANCH  36  37
ATOM     37  C   UNL A   1      37.584  31.800  30.816  1.00  0.00     0.031 A 
ATOM     38  C   UNL A   1      38.009  32.186  32.205  1.00  0.00     0.074 A 
ATOM     39  C   UNL A   1      38.284  30.876  30.129  1.00  0.00     0.049 A 
ATOM     40  N   UNL A   1      39.026  31.757  32.910  1.00  0.00    -0.248 NA
ATOM     41  C   UNL A   1      37.197  33.207  32.883  1.00  0.00     0.031 C 
ATOM     42  C   UNL A   1      37.997  30.444  28.761  1.00  0.00     0.029 A 
ATOM     43  N   UNL A   1      39.388  30.143  30.486  1.00  0.00    -0.354 N 
ATOM     44  C   UNL A   1      38.986  32.467  34.103  1.00  0.00     0.074 A 
ATOM     45  C   UNL A   1      37.870  33.384  34.011  1.00  0.00     0.031 C 
ATOM     46  C   UNL A   1      38.890  29.509  28.400  1.00  0.00     0.029 A 
ATOM     47  C   UNL A   1      39.830  29.298  29.498  1.00  0.00     0.049 A 
ATOM     48  H   UNL A   1      39.822  30.216  31.367  1.00  0.00     0.167 HD
ATOM     49  C   UNL A   1      39.795  32.352  35.184  1.00  0.00     0.037 A 
ATOM     50  C   UNL A   1      40.877  28.453  29.479  1.00  0.00     0.037 A 
ATOM     51  C   UNL A   1      40.886  31.418  35.286  1.00  0.00     0.049 A 
ATOM     52  C   UNL A   1      41.750  28.331  30.697  1.00  0.00     0.074 A 
ATOM     53  C   UNL A   1      41.729  31.187  36.359  1.00  0.00     0.029 A 
ATOM     54  N   UNL A   1      41.285  30.558  34.274  1.00  0.00    -0.354 N 
ATOM     55  N   UNL A   1      41.665  28.966  31.841  1.00  0.00    -0.248 NA
ATOM     56  C   UNL A   1      42.856  27.366  30.625  1.00  0.00     0.031 C 
ATOM     57  C   UNL A   1      42.659  30.211  35.986  1.00  0.00     0.029 A 
ATOM     58  C   UNL A   1      42.369  29.804  34.694  1.00  0.00     0.049 A 
ATOM     59  H   UNL A   1      40.860  30.492  33.389  1.00  0.00     0.167 HD
ATOM     60  C   UNL A   1      42.689  28.462  32.632  1.00  0.00     0.074 A 
ATOM     61  C   UNL A   1      43.373  27.458  31.843  1.00  0.00     0.031 C 
ATOM     62  C   UNL A   1      43.031  28.802  33.899  1.00  0.00     0.037 A 
BRANCH  49  63
ATOM     63  C   UNL A   1      39.526  33.258  36.349  1.00  0.00     0.064 A 
ATOM     64  C   UNL A   1      40.117  34.526  36.446  1.00  0.00     0.173 A 
ATOM     65  C   UNL A   1      38.640  32.869  37.365  1.00  0.00     0.173 A 
ATOM     66  F   UNL A   1      40.980  34.941  35.506  1.00  0.00    -0.203 F 
ATOM     67  C   UNL A   1      39.853  35.361  37.529  1.00  0.00     0.198 A 
ATOM     68  C   UNL A   1      38.356  33.716  38.433  1.00  0.00     0.198 A 
ATOM     69  F   UNL A   1      38.042  31.668  37.319  1.00  0.00    -0.203 F 
ATOM     70  F   UNL A   1      40.464  36.550  37.622  1.00  0.00    -0.200 F 
ATOM     71  C   UNL A   1      38.968  34.958  38.518  1.00  0.00     0.200 A 
ATOM     72  F   UNL A   1      37.493  33.331  39.383  1.00  0.00    -0.200 F 
ATOM     73  F   UNL A   1      38.711  35.764  39.557  1.00  0.00    -0.200 F 
ENDBRANCH  49  63
BRANCH  50  74
ATOM     74  C   UNL A   1      41.138  27.627  28.271  1.00  0.00     0.064 A 
ATOM     75  C   UNL A   1      40.547  26.366  28.123  1.00  0.00     0.173 A 
ATOM     76  C   UNL A   1      41.977  28.081  27.244  1.00  0.00     0.173 A 
ATOM     77  F   UNL A   1      39.753  25.882  29.090  1.00  0.00    -0.203 F 
ATOM     78  C   UNL A   1      40.797  25.581  27.000  1.00  0.00     0.198 A 
ATOM     79  C   UNL A   1      42.207  27.306  26.110  1.00  0.00     0.198 A 
ATOM     80  F   UNL A   1      42.562  29.284  27.337  1.00  0.00    -0.203 F 
ATOM     81  F   UNL A   1      40.251  24.362  26.902  1.00  0.00    -0.200 F 
ATOM     82  C   UNL A   1      41.624  26.054  25.992  1.00  0.00     0.200 A 
ATOM     83  F   UNL A   1      42.997  27.772  25.132  1.00  0.00    -0.200 F 
ATOM     84  F   UNL A   1      41.862  25.301  24.910  1.00  0.00    -0.200 F 
ENDBRANCH  50  74
BRANCH  62  85
ATOM     85  C   UNL A   1      44.174  28.056  34.522  1.00  0.00     0.064 A 
ATOM     86  C   UNL A   1      43.978  26.848  35.205  1.00  0.00     0.173 A 
ATOM     87  C   UNL A   1      45.485  28.543  34.405  1.00  0.00     0.173 A 
ATOM     88  F   UNL A   1      42.741  26.351  35.357  1.00  0.00    -0.203 F 
ATOM     89  C   UNL A   1      45.051  26.165  35.771  1.00  0.00     0.198 A 
ATOM     90  C   UNL A   1      46.558  27.844  34.949  1.00  0.00     0.198 A 
ATOM     91  F   UNL A   1      45.725  29.692  33.755  1.00  0.00    -0.203 F 
ATOM     92  F   UNL A   1      44.837  25.035  36.460  1.00  0.00    -0.200 F 
ATOM     93  C   UNL A   1      46.340  26.660  35.638  1.00  0.00     0.200 A 
ATOM     94  F   UNL A   1      47.805  28.318  34.811  1.00  0.00    -0.200 F 
ATOM     95  F   UNL A   1      47.373  25.999  36.180  1.00  0.00    -0.200 F 
ENDBRANCH  62  85
ENDBRANCH  36  37
ENDBRANCH  28  31
ENDBRANCH  26  27
ENDBRANCH  25  26
ENDBRANCH   1  25
TORSDOF 14
ENDMDL
MODEL 3
REMARK VINA RESULT:     -12.4      0.367      7.184
REMARK SMILES CCc1ccc(C(=O)NCc2ccc(C(=O)NCCCNC(=O)c3ccc(-c4c5nc(c(-c6c(F)c(F)c(F)c(F)c6F)c6ccc([nH]6)c(-c6c(F)c(F)c(F)c(F)c6F)c6nc(c(-c7c(F)c(F)c(F)c(F)c7F)c7ccc4[nH]7)C=C6)C=C5)cc3)cc2)cc1
REMARK SMILES IDX 18 1 17 2 15 3 16 4 14 6 11 7 12 8 88 9 13 10 87 11 10 12
REMARK SMILES IDX 9 13 7 14 8 15 6 17 3 18 4 19 90 20 5 21 89 22 2 23 1 24
REMARK SMILES IDX 19 25 20 26 21 27 22 28 23 30 24 31 25 32 86 33 26 34 85 35
REMARK SMILES IDX 27 36 28 37 29 38 79 39 30 40 84 41 78 42 80 43 31 44 83 45
REMARK SMILES IDX 77 46 76 47 32 49 64 50 44 51 63 52 45 53 48 54 62 55 81 56
REMARK SMILES IDX 46 57 47 58 61 60 82 61 49 62 33 63 34 64 42 65 35 66 36 67
REMARK SMILES IDX 40 68 43 69 37 70 38 71 41 72 39 73 65 74 66 75 74 76 67 77
REMARK SMILES IDX 68 78 72 79 75 80 69 81 70 82 73 83 71 84 50 85 51 86 59 87
REMARK SMILES IDX 52 88 53 89 57 90 60 91 54 92 55 93 58 94 56 95
REMARK H PARENT 17 5 9 16 21 29 80 48 48 59
REMARK Flexibility Score: inf
ROOT
ATOM      1  C   UNL A   1      31.151  30.742  25.381  1.00  0.00     0.118 C 
ENDROOT
BRANCH   1   2
ATOM      2  N   UNL A   1      30.283  30.905  24.228  1.00  0.00    -0.352 N 
ATOM      3  C   UNL A   1      29.707  29.993  23.379  1.00  0.00     0.251 C 
ATOM      4  O   UNL A   1      28.902  30.409  22.547  1.00  0.00    -0.269 OA
ATOM      5  H   UNL A   1      30.068  31.842  24.017  1.00  0.00     0.163 HD
BRANCH   3   6
ATOM      6  C   UNL A   1      29.985  28.536  23.448  1.00  0.00     0.039 A 
ATOM      7  C   UNL A   1      30.340  25.728  23.546  1.00  0.00    -0.029 A 
ATOM      8  C   UNL A   1      29.135  26.311  23.961  1.00  0.00     0.006 A 
ATOM      9  C   UNL A   1      31.356  26.572  23.073  1.00  0.00     0.006 A 
ATOM     10  C   UNL A   1      28.958  27.699  23.905  1.00  0.00     0.014 A 
ATOM     11  C   UNL A   1      31.174  27.956  23.007  1.00  0.00     0.014 A 
BRANCH   7  12
ATOM     12  C   UNL A   1      30.523  24.228  23.605  1.00  0.00     0.152 C 
BRANCH  12  13
ATOM     13  N   UNL A   1      30.540  23.753  24.972  1.00  0.00    -0.348 N 
ATOM     14  C   UNL A   1      31.063  24.212  26.148  1.00  0.00     0.251 C 
ATOM     15  O   UNL A   1      30.845  23.517  27.144  1.00  0.00    -0.269 OA
ATOM     16  H   UNL A   1      30.064  22.898  25.079  1.00  0.00     0.164 HD
BRANCH  14  17
ATOM     17  C   UNL A   1      31.861  25.464  26.315  1.00  0.00     0.039 A 
ATOM     18  C   UNL A   1      33.548  27.749  26.430  1.00  0.00    -0.048 A 
ATOM     19  C   UNL A   1      34.008  26.553  25.873  1.00  0.00     0.004 A 
ATOM     20  C   UNL A   1      32.234  27.798  26.905  1.00  0.00     0.004 A 
ATOM     21  C   UNL A   1      33.177  25.430  25.821  1.00  0.00     0.014 A 
ATOM     22  C   UNL A   1      31.397  26.672  26.841  1.00  0.00     0.014 A 
BRANCH  18  23
ATOM     23  C   UNL A   1      34.440  28.965  26.462  1.00  0.00     0.032 C 
ATOM     24  C   UNL A   1      34.623  29.543  27.859  1.00  0.00     0.009 C 
ENDBRANCH  18  23
ENDBRANCH  14  17
ENDBRANCH  12  13
ENDBRANCH   7  12
ENDBRANCH   3   6
ENDBRANCH   1   2
BRANCH   1  25
ATOM     25  C   UNL A   1      31.019  31.911  26.358  1.00  0.00     0.042 C 
BRANCH  25  26
ATOM     26  C   UNL A   1      32.353  32.430  26.891  1.00  0.00     0.118 C 
BRANCH  26  27
ATOM     27  N   UNL A   1      32.273  33.816  27.324  1.00  0.00    -0.352 N 
ATOM     28  C   UNL A   1      32.988  34.488  28.283  1.00  0.00     0.251 C 
ATOM     29  H   UNL A   1      31.600  34.359  26.852  1.00  0.00     0.163 HD
ATOM     30  O   UNL A   1      32.629  35.612  28.622  1.00  0.00    -0.269 OA
BRANCH  28  31
ATOM     31  C   UNL A   1      34.175  33.879  28.926  1.00  0.00     0.039 A 
ATOM     32  C   UNL A   1      33.976  32.840  29.842  1.00  0.00     0.014 A 
ATOM     33  C   UNL A   1      35.467  34.361  28.695  1.00  0.00     0.014 A 
ATOM     34  C   UNL A   1      35.067  32.263  30.497  1.00  0.00     0.010 A 
ATOM     35  C   UNL A   1      36.562  33.745  29.303  1.00  0.00     0.010 A 
ATOM     36  C   UNL A   1      36.373  32.698  30.217  1.00  0.00    -0.014 A 
BRANCH  36  37
ATOM     37  C   UNL A   1      37.543  32.079  30.890  1.00  0.00     0.031 A 
ATOM     38  C   UNL A   1      38.355  31.029  30.184  1.00  0.00     0.074 A 
ATOM     39  C   UNL A   1      37.845  32.427  32.155  1.00  0.00     0.049 A 
ATOM     40  N   UNL A   1      39.374  30.334  30.625  1.00  0.00    -0.248 NA
ATOM     41  C   UNL A   1      37.956  30.700  28.808  1.00  0.00     0.031 C 
ATOM     42  C   UNL A   1      37.110  33.403  32.961  1.00  0.00     0.029 A 
ATOM     43  N   UNL A   1      38.844  31.991  32.988  1.00  0.00    -0.354 N 
ATOM     44  C   UNL A   1      39.724  29.476  29.591  1.00  0.00     0.074 A 
ATOM     45  C   UNL A   1      38.784  29.708  28.514  1.00  0.00     0.031 C 
ATOM     46  C   UNL A   1      37.693  33.504  34.166  1.00  0.00     0.029 A 
ATOM     47  C   UNL A   1      38.822  32.580  34.229  1.00  0.00     0.049 A 
ATOM     48  H   UNL A   1      39.514  31.320  32.723  1.00  0.00     0.167 HD
ATOM     49  C   UNL A   1      40.747  28.590  29.536  1.00  0.00     0.037 A 
ATOM     50  C   UNL A   1      39.620  32.393  35.297  1.00  0.00     0.037 A 
ATOM     51  C   UNL A   1      41.700  28.382  30.595  1.00  0.00     0.049 A 
ATOM     52  C   UNL A   1      40.759  31.415  35.204  1.00  0.00     0.074 A 
ATOM     53  C   UNL A   1      42.803  27.546  30.614  1.00  0.00     0.029 A 
ATOM     54  N   UNL A   1      41.661  29.020  31.826  1.00  0.00    -0.354 N 
ATOM     55  N   UNL A   1      41.114  30.653  34.199  1.00  0.00    -0.248 NA
ATOM     56  C   UNL A   1      41.614  31.280  36.392  1.00  0.00     0.031 C 
ATOM     57  C   UNL A   1      43.414  27.653  31.868  1.00  0.00     0.029 A 
ATOM     58  C   UNL A   1      42.714  28.586  32.615  1.00  0.00     0.049 A 
ATOM     59  H   UNL A   1      40.986  29.681  32.098  1.00  0.00     0.167 HD
ATOM     60  C   UNL A   1      42.245  29.968  34.622  1.00  0.00     0.074 A 
ATOM     61  C   UNL A   1      42.526  30.415  35.970  1.00  0.00     0.031 C 
ATOM     62  C   UNL A   1      42.985  29.050  33.952  1.00  0.00     0.037 A 
BRANCH  49  63
ATOM     63  C   UNL A   1      40.892  27.778  28.282  1.00  0.00     0.064 A 
ATOM     64  C   UNL A   1      41.662  28.228  27.199  1.00  0.00     0.173 A 
ATOM     65  C   UNL A   1      40.284  26.518  28.175  1.00  0.00     0.173 A 
ATOM     66  F   UNL A   1      42.255  29.431  27.248  1.00  0.00    -0.203 F 
ATOM     67  C   UNL A   1      41.795  27.461  26.045  1.00  0.00     0.198 A 
ATOM     68  C   UNL A   1      40.441  25.740  27.030  1.00  0.00     0.198 A 
ATOM     69  F   UNL A   1      39.542  26.036  29.183  1.00  0.00    -0.203 F 
ATOM     70  F   UNL A   1      42.498  27.932  25.006  1.00  0.00    -0.200 F 
ATOM     71  C   UNL A   1      41.190  26.215  25.963  1.00  0.00     0.200 A 
ATOM     72  F   UNL A   1      39.865  24.533  26.956  1.00  0.00    -0.200 F 
ATOM     73  F   UNL A   1      41.323  25.476  24.854  1.00  0.00    -0.200 F 
ENDBRANCH  49  63
BRANCH  50  74
ATOM     74  C   UNL A   1      39.389  33.176  36.538  1.00  0.00     0.064 A 
ATOM     75  C   UNL A   1      40.005  34.420  36.726  1.00  0.00     0.173 A 
ATOM     76  C   UNL A   1      38.550  32.700  37.555  1.00  0.00     0.173 A 
ATOM     77  F   UNL A   1      40.832  34.906  35.788  1.00  0.00    -0.203 F 
ATOM     78  C   UNL A   1      39.804  35.154  37.893  1.00  0.00     0.198 A 
ATOM     79  C   UNL A   1      38.330  33.446  38.711  1.00  0.00     0.198 A 
ATOM     80  F   UNL A   1      37.934  31.517  37.420  1.00  0.00    -0.203 F 
ATOM     81  F   UNL A   1      40.436  36.322  38.065  1.00  0.00    -0.200 F 
ATOM     82  C   UNL A   1      38.962  34.668  38.882  1.00  0.00     0.200 A 
ATOM     83  F   UNL A   1      37.506  32.979  39.660  1.00  0.00    -0.200 F 
ATOM     84  F   UNL A   1      38.765  35.375  40.004  1.00  0.00    -0.200 F 
ENDBRANCH  50  74
BRANCH  62  85
ATOM     85  C   UNL A   1      44.188  28.496  34.656  1.00  0.00     0.064 A 
ATOM     86  C   UNL A   1      45.434  29.135  34.595  1.00  0.00     0.173 A 
ATOM     87  C   UNL A   1      44.083  27.327  35.426  1.00  0.00     0.173 A 
ATOM     88  F   UNL A   1      45.587  30.246  33.858  1.00  0.00    -0.203 F 
ATOM     89  C   UNL A   1      46.539  28.611  35.260  1.00  0.00     0.198 A 
ATOM     90  C   UNL A   1      45.183  26.821  36.111  1.00  0.00     0.198 A 
ATOM     91  F   UNL A   1      42.910  26.682  35.520  1.00  0.00    -0.203 F 
ATOM     92  F   UNL A   1      47.732  29.212  35.152  1.00  0.00    -0.200 F 
ATOM     93  C   UNL A   1      46.411  27.458  36.021  1.00  0.00     0.200 A 
ATOM     94  F   UNL A   1      45.057  25.713  36.855  1.00  0.00    -0.200 F 
ATOM     95  F   UNL A   1      47.476  26.957  36.664  1.00  0.00    -0.200 F 
ENDBRANCH  62  85
ENDBRANCH  36  37
ENDBRANCH  28  31
ENDBRANCH  26  27
ENDBRANCH  25  26
ENDBRANCH   1  25
TORSDOF 14
ENDMDL
