MODEL 1
REMARK VINA RESULT:     -11.6      0.000      0.000
REMARK SMILES COc1ccc([C@H]2C[NH2+]C[C@@H]2C(=O)NCCCNC(=O)c2ccc(-c3c4nc(c(-c5c(F)c(F)c(F)c(F)c5F)c5ccc([nH]5)c(-c5c(F)c(F)c(F)c(F)c5F)c5nc(c(-c6c(F)c(F)c(F)c(F)c6F)c6ccc3[nH]6)C=C5)C=C4)cc2)cc1OC
REMARK SMILES IDX 16 1 15 2 14 3 12 4 13 5 11 7 7 8 8 9 9 10 10 11 6 14 3 15
REMARK SMILES IDX 4 16 85 17 5 18 84 19 2 20 1 21 86 22 87 23 17 24 18 25
REMARK SMILES IDX 19 26 20 28 21 29 22 30 83 31 23 32 82 33 24 34 25 35 26 36
REMARK SMILES IDX 76 37 27 38 81 39 75 40 77 41 28 42 80 43 74 44 73 45 29 47
REMARK SMILES IDX 61 48 41 49 60 50 42 51 45 52 59 53 78 54 43 55 44 56 58 58
REMARK SMILES IDX 79 59 46 60 30 61 31 62 39 63 32 64 33 65 37 66 40 67 34 68
REMARK SMILES IDX 35 69 38 70 36 71 62 72 63 73 71 74 64 75 65 76 69 77 72 78
REMARK SMILES IDX 66 79 67 80 70 81 68 82 47 83 48 84 56 85 49 86 50 87 54 88
REMARK SMILES IDX 57 89 51 90 52 91 55 92 53 93
REMARK H PARENT 14 6 9 12 9 13 18 27 77 46 45 57
REMARK Flexibility Score: inf
ROOT
ATOM      1  C   UNL A   1      34.174  28.465  25.882  1.00  0.00     0.042 C 
ENDROOT
BRANCH   1   2
ATOM      2  C   UNL A   1      33.350  29.260  24.879  1.00  0.00     0.117 C 
BRANCH   2   3
ATOM      3  N   UNL A   1      33.817  29.078  23.512  1.00  0.00    -0.356 N 
ATOM      4  C   UNL A   1      33.576  28.032  22.656  1.00  0.00     0.229 C 
ATOM      5  O   UNL A   1      34.107  28.035  21.548  1.00  0.00    -0.275 OA
ATOM      6  H   UNL A   1      34.381  29.800  23.154  1.00  0.00     0.163 HD
BRANCH   4   7
ATOM      7  C   UNL A   1      32.673  26.917  23.156  1.00  0.00     0.146 C 
ATOM      8  C   UNL A   1      33.402  25.619  23.542  1.00  0.00     0.092 C 
ATOM      9  C   UNL A   1      33.413  24.902  22.183  1.00  0.00     0.269 C 
ATOM     10  N   UNL A   1      32.069  25.129  21.628  1.00  0.00    -0.345 N 
ATOM     11  C   UNL A   1      31.708  26.493  22.044  1.00  0.00     0.274 C 
ATOM     12  H   UNL A   1      31.406  24.452  22.006  1.00  0.00     0.346 HD
ATOM     13  H   UNL A   1      32.051  25.021  20.614  1.00  0.00     0.346 HD
BRANCH   8  14
ATOM     14  C   UNL A   1      32.718  24.797  24.648  1.00  0.00    -0.034 A 
ATOM     15  C   UNL A   1      31.367  23.301  26.653  1.00  0.00     0.160 A 
ATOM     16  C   UNL A   1      31.419  24.699  26.712  1.00  0.00     0.051 A 
ATOM     17  C   UNL A   1      31.963  22.636  25.584  1.00  0.00     0.161 A 
ATOM     18  C   UNL A   1      32.080  25.439  25.720  1.00  0.00     0.008 A 
ATOM     19  C   UNL A   1      32.632  23.394  24.612  1.00  0.00     0.054 A 
BRANCH  15  20
ATOM     20  O   UNL A   1      30.613  22.650  27.588  1.00  0.00    -0.493 OA
ATOM     21  C   UNL A   1      29.223  22.689  27.267  1.00  0.00     0.278 C 
ENDBRANCH  15  20
BRANCH  17  22
ATOM     22  O   UNL A   1      31.981  21.303  25.282  1.00  0.00    -0.493 OA
ATOM     23  C   UNL A   1      32.371  20.888  23.987  1.00  0.00     0.278 C 
ENDBRANCH  17  22
ENDBRANCH   8  14
ENDBRANCH   4   7
ENDBRANCH   2   3
ENDBRANCH   1   2
BRANCH   1  24
ATOM     24  C   UNL A   1      33.737  28.664  27.327  1.00  0.00     0.118 C 
BRANCH  24  25
ATOM     25  N   UNL A   1      33.726  30.068  27.721  1.00  0.00    -0.352 N 
ATOM     26  C   UNL A   1      34.669  30.812  28.380  1.00  0.00     0.251 C 
ATOM     27  H   UNL A   1      32.909  30.559  27.475  1.00  0.00     0.163 HD
ATOM     28  O   UNL A   1      34.384  31.942  28.776  1.00  0.00    -0.269 OA
BRANCH  26  29
ATOM     29  C   UNL A   1      36.017  30.264  28.638  1.00  0.00     0.039 A 
ATOM     30  C   UNL A   1      36.991  30.380  27.642  1.00  0.00     0.014 A 
ATOM     31  C   UNL A   1      36.320  29.619  29.840  1.00  0.00     0.014 A 
ATOM     32  C   UNL A   1      38.285  29.912  27.881  1.00  0.00     0.010 A 
ATOM     33  C   UNL A   1      37.630  29.232  30.108  1.00  0.00     0.010 A 
ATOM     34  C   UNL A   1      38.626  29.371  29.131  1.00  0.00    -0.014 A 
BRANCH  34  35
ATOM     35  C   UNL A   1      40.017  28.945  29.433  1.00  0.00     0.031 A 
ATOM     36  C   UNL A   1      40.919  29.830  30.250  1.00  0.00     0.074 A 
ATOM     37  C   UNL A   1      40.483  27.786  28.929  1.00  0.00     0.049 A 
ATOM     38  N   UNL A   1      42.181  29.668  30.557  1.00  0.00    -0.248 NA
ATOM     39  C   UNL A   1      40.330  31.073  30.775  1.00  0.00     0.031 C 
ATOM     40  C   UNL A   1      39.718  26.857  28.095  1.00  0.00     0.029 A 
ATOM     41  N   UNL A   1      41.717  27.193  29.038  1.00  0.00    -0.354 N 
ATOM     42  C   UNL A   1      42.534  30.782  31.308  1.00  0.00     0.074 A 
ATOM     43  C   UNL A   1      41.375  31.645  31.355  1.00  0.00     0.031 C 
ATOM     44  C   UNL A   1      40.489  25.800  27.792  1.00  0.00     0.029 A 
ATOM     45  C   UNL A   1      41.816  25.997  28.368  1.00  0.00     0.049 A 
ATOM     46  H   UNL A   1      42.460  27.587  29.549  1.00  0.00     0.167 HD
ATOM     47  C   UNL A   1      43.708  31.046  31.929  1.00  0.00     0.037 A 
ATOM     48  C   UNL A   1      42.863  25.162  28.224  1.00  0.00     0.037 A 
ATOM     49  C   UNL A   1      44.859  30.181  31.890  1.00  0.00     0.049 A 
ATOM     50  C   UNL A   1      44.173  25.512  28.882  1.00  0.00     0.074 A 
ATOM     51  C   UNL A   1      46.088  30.353  32.500  1.00  0.00     0.029 A 
ATOM     52  N   UNL A   1      44.919  28.980  31.200  1.00  0.00    -0.354 N 
ATOM     53  N   UNL A   1      44.476  26.541  29.635  1.00  0.00    -0.248 NA
ATOM     54  C   UNL A   1      45.285  24.575  28.675  1.00  0.00     0.031 C 
ATOM     55  C   UNL A   1      46.909  29.278  32.144  1.00  0.00     0.029 A 
ATOM     56  C   UNL A   1      46.171  28.407  31.359  1.00  0.00     0.049 A 
ATOM     57  H   UNL A   1      44.183  28.591  30.675  1.00  0.00     0.167 HD
ATOM     58  C   UNL A   1      45.796  26.354  30.023  1.00  0.00     0.074 A 
ATOM     59  C   UNL A   1      46.230  25.105  29.438  1.00  0.00     0.031 C 
ATOM     60  C   UNL A   1      46.580  27.147  30.793  1.00  0.00     0.037 A 
BRANCH  47  61
ATOM     61  C   UNL A   1      43.805  32.316  32.726  1.00  0.00     0.064 A 
ATOM     62  C   UNL A   1      44.236  33.515  32.139  1.00  0.00     0.173 A 
ATOM     63  C   UNL A   1      43.406  32.350  34.070  1.00  0.00     0.173 A 
ATOM     64  F   UNL A   1      44.640  33.533  30.859  1.00  0.00    -0.203 F 
ATOM     65  C   UNL A   1      44.286  34.697  32.874  1.00  0.00     0.198 A 
ATOM     66  C   UNL A   1      43.426  33.541  34.794  1.00  0.00     0.198 A 
ATOM     67  F   UNL A   1      42.978  31.234  34.679  1.00  0.00    -0.203 F 
ATOM     68  F   UNL A   1      44.742  35.820  32.303  1.00  0.00    -0.200 F 
ATOM     69  C   UNL A   1      43.871  34.710  34.197  1.00  0.00     0.200 A 
ATOM     70  F   UNL A   1      43.009  33.557  36.067  1.00  0.00    -0.200 F 
ATOM     71  F   UNL A   1      43.904  35.853  34.898  1.00  0.00    -0.200 F 
ENDBRANCH  47  61
BRANCH  48  72
ATOM     72  C   UNL A   1      42.728  23.907  27.436  1.00  0.00     0.064 A 
ATOM     73  C   UNL A   1      42.340  22.709  28.053  1.00  0.00     0.173 A 
ATOM     74  C   UNL A   1      43.037  23.863  26.069  1.00  0.00     0.173 A 
ATOM     75  F   UNL A   1      42.051  22.693  29.363  1.00  0.00    -0.203 F 
ATOM     76  C   UNL A   1      42.308  21.509  27.345  1.00  0.00     0.198 A 
ATOM     77  C   UNL A   1      42.970  22.669  25.353  1.00  0.00     0.198 A 
ATOM     78  F   UNL A   1      43.410  24.980  25.427  1.00  0.00    -0.203 F 
ATOM     79  F   UNL A   1      42.005  20.367  27.978  1.00  0.00    -0.200 F 
ATOM     80  C   UNL A   1      42.622  21.491  25.994  1.00  0.00     0.200 A 
ATOM     81  F   UNL A   1      43.258  22.659  24.045  1.00  0.00    -0.200 F 
ATOM     82  F   UNL A   1      42.601  20.335  25.316  1.00  0.00    -0.200 F 
ENDBRANCH  48  72
BRANCH  60  83
ATOM     83  C   UNL A   1      47.966  26.658  31.101  1.00  0.00     0.064 A 
ATOM     84  C   UNL A   1      48.233  25.828  32.201  1.00  0.00     0.173 A 
ATOM     85  C   UNL A   1      49.039  27.003  30.263  1.00  0.00     0.173 A 
ATOM     86  F   UNL A   1      47.246  25.482  33.041  1.00  0.00    -0.203 F 
ATOM     87  C   UNL A   1      49.527  25.389  32.468  1.00  0.00     0.198 A 
ATOM     88  C   UNL A   1      50.325  26.531  30.513  1.00  0.00     0.198 A 
ATOM     89  F   UNL A   1      48.838  27.788  29.194  1.00  0.00    -0.203 F 
ATOM     90  F   UNL A   1      49.767  24.645  33.556  1.00  0.00    -0.200 F 
ATOM     91  C   UNL A   1      50.569  25.733  31.621  1.00  0.00     0.200 A 
ATOM     92  F   UNL A   1      51.327  26.852  29.684  1.00  0.00    -0.200 F 
ATOM     93  F   UNL A   1      51.813  25.303  31.875  1.00  0.00    -0.200 F 
ENDBRANCH  60  83
ENDBRANCH  34  35
ENDBRANCH  26  29
ENDBRANCH  24  25
ENDBRANCH   1  24
TORSDOF 13
ENDMDL
MODEL 2
REMARK VINA RESULT:     -11.5      3.493      6.419
REMARK SMILES COc1ccc([C@H]2C[NH2+]C[C@@H]2C(=O)NCCCNC(=O)c2ccc(-c3c4nc(c(-c5c(F)c(F)c(F)c(F)c5F)c5ccc([nH]5)c(-c5c(F)c(F)c(F)c(F)c5F)c5nc(c(-c6c(F)c(F)c(F)c(F)c6F)c6ccc3[nH]6)C=C5)C=C4)cc2)cc1OC
REMARK SMILES IDX 16 1 15 2 14 3 12 4 13 5 11 7 7 8 8 9 9 10 10 11 6 14 3 15
REMARK SMILES IDX 4 16 85 17 5 18 84 19 2 20 1 21 86 22 87 23 17 24 18 25
REMARK SMILES IDX 19 26 20 28 21 29 22 30 83 31 23 32 82 33 24 34 25 35 26 36
REMARK SMILES IDX 76 37 27 38 81 39 75 40 77 41 28 42 80 43 74 44 73 45 29 47
REMARK SMILES IDX 61 48 41 49 60 50 42 51 45 52 59 53 78 54 43 55 44 56 58 58
REMARK SMILES IDX 79 59 46 60 30 61 31 62 39 63 32 64 33 65 37 66 40 67 34 68
REMARK SMILES IDX 35 69 38 70 36 71 62 72 63 73 71 74 64 75 65 76 69 77 72 78
REMARK SMILES IDX 66 79 67 80 70 81 68 82 47 83 48 84 56 85 49 86 50 87 54 88
REMARK SMILES IDX 57 89 51 90 52 91 55 92 53 93
REMARK H PARENT 14 6 9 12 9 13 18 27 77 46 45 57
REMARK Flexibility Score: inf
ROOT
ATOM      1  C   UNL A   1      34.407  33.670  27.912  1.00  0.00     0.042 C 
ENDROOT
BRANCH   1   2
ATOM      2  C   UNL A   1      34.696  35.030  28.531  1.00  0.00     0.117 C 
BRANCH   2   3
ATOM      3  N   UNL A   1      33.506  35.641  29.106  1.00  0.00    -0.356 N 
ATOM      4  C   UNL A   1      33.249  35.949  30.419  1.00  0.00     0.229 C 
ATOM      5  O   UNL A   1      32.154  36.416  30.718  1.00  0.00    -0.275 OA
ATOM      6  H   UNL A   1      32.789  35.861  28.469  1.00  0.00     0.163 HD
BRANCH   4   7
ATOM      7  C   UNL A   1      34.348  35.664  31.428  1.00  0.00     0.146 C 
ATOM      8  C   UNL A   1      34.274  34.278  32.091  1.00  0.00     0.092 C 
ATOM      9  C   UNL A   1      33.362  34.599  33.285  1.00  0.00     0.269 C 
ATOM     10  N   UNL A   1      33.850  35.891  33.794  1.00  0.00    -0.345 N 
ATOM     11  C   UNL A   1      34.248  36.649  32.597  1.00  0.00     0.274 C 
ATOM     12  H   UNL A   1      34.650  35.753  34.412  1.00  0.00     0.346 HD
ATOM     13  H   UNL A   1      33.140  36.381  34.338  1.00  0.00     0.346 HD
BRANCH   8  14
ATOM     14  C   UNL A   1      35.632  33.690  32.516  1.00  0.00    -0.034 A 
ATOM     15  C   UNL A   1      38.173  32.694  33.309  1.00  0.00     0.160 A 
ATOM     16  C   UNL A   1      37.965  33.181  32.012  1.00  0.00     0.051 A 
ATOM     17  C   UNL A   1      37.128  32.721  34.229  1.00  0.00     0.161 A 
ATOM     18  C   UNL A   1      36.712  33.679  31.622  1.00  0.00     0.008 A 
ATOM     19  C   UNL A   1      35.881  33.208  33.813  1.00  0.00     0.054 A 
BRANCH  15  20
ATOM     20  O   UNL A   1      39.444  32.330  33.657  1.00  0.00    -0.493 OA
ATOM     21  C   UNL A   1      40.179  33.427  34.199  1.00  0.00     0.278 C 
ENDBRANCH  15  20
BRANCH  17  22
ATOM     22  O   UNL A   1      37.116  32.371  35.550  1.00  0.00    -0.493 OA
ATOM     23  C   UNL A   1      37.274  33.371  36.537  1.00  0.00     0.278 C 
ENDBRANCH  17  22
ENDBRANCH   8  14
ENDBRANCH   4   7
ENDBRANCH   2   3
ENDBRANCH   1   2
BRANCH   1  24
ATOM     24  C   UNL A   1      34.656  32.502  28.857  1.00  0.00     0.118 C 
BRANCH  24  25
ATOM     25  N   UNL A   1      34.063  31.258  28.381  1.00  0.00    -0.352 N 
ATOM     26  C   UNL A   1      34.650  30.064  28.053  1.00  0.00     0.251 C 
ATOM     27  H   UNL A   1      33.084  31.280  28.279  1.00  0.00     0.163 HD
ATOM     28  O   UNL A   1      33.983  29.192  27.498  1.00  0.00    -0.269 OA
BRANCH  26  29
ATOM     29  C   UNL A   1      36.079  29.822  28.341  1.00  0.00     0.039 A 
ATOM     30  C   UNL A   1      36.441  29.359  29.609  1.00  0.00     0.014 A 
ATOM     31  C   UNL A   1      37.064  30.069  27.380  1.00  0.00     0.014 A 
ATOM     32  C   UNL A   1      37.780  29.078  29.889  1.00  0.00     0.010 A 
ATOM     33  C   UNL A   1      38.384  29.707  27.632  1.00  0.00     0.010 A 
ATOM     34  C   UNL A   1      38.757  29.210  28.889  1.00  0.00    -0.014 A 
BRANCH  34  35
ATOM     35  C   UNL A   1      40.172  28.837  29.143  1.00  0.00     0.031 A 
ATOM     36  C   UNL A   1      41.086  29.783  29.873  1.00  0.00     0.074 A 
ATOM     37  C   UNL A   1      40.648  27.667  28.671  1.00  0.00     0.049 A 
ATOM     38  N   UNL A   1      42.366  29.670  30.126  1.00  0.00    -0.248 NA
ATOM     39  C   UNL A   1      40.487  31.033  30.368  1.00  0.00     0.031 C 
ATOM     40  C   UNL A   1      39.872  26.680  27.919  1.00  0.00     0.029 A 
ATOM     41  N   UNL A   1      41.902  27.113  28.748  1.00  0.00    -0.354 N 
ATOM     42  C   UNL A   1      42.722  30.827  30.806  1.00  0.00     0.074 A 
ATOM     43  C   UNL A   1      41.541  31.660  30.869  1.00  0.00     0.031 C 
ATOM     44  C   UNL A   1      40.658  25.630  27.628  1.00  0.00     0.029 A 
ATOM     45  C   UNL A   1      42.004  25.890  28.130  1.00  0.00     0.049 A 
ATOM     46  H   UNL A   1      42.657  27.551  29.203  1.00  0.00     0.167 HD
ATOM     47  C   UNL A   1      43.916  31.152  31.357  1.00  0.00     0.037 A 
ATOM     48  C   UNL A   1      43.067  25.078  27.974  1.00  0.00     0.037 A 
ATOM     49  C   UNL A   1      45.087  30.317  31.302  1.00  0.00     0.049 A 
ATOM     50  C   UNL A   1      44.396  25.493  28.551  1.00  0.00     0.074 A 
ATOM     51  C   UNL A   1      46.339  30.551  31.844  1.00  0.00     0.029 A 
ATOM     52  N   UNL A   1      45.150  29.086  30.667  1.00  0.00    -0.354 N 
ATOM     53  N   UNL A   1      44.704  26.565  29.239  1.00  0.00    -0.248 NA
ATOM     54  C   UNL A   1      45.524  24.577  28.333  1.00  0.00     0.031 C 
ATOM     55  C   UNL A   1      47.172  29.483  31.498  1.00  0.00     0.029 A 
ATOM     56  C   UNL A   1      46.424  28.555  30.791  1.00  0.00     0.049 A 
ATOM     57  H   UNL A   1      44.401  28.654  30.197  1.00  0.00     0.167 HD
ATOM     58  C   UNL A   1      46.046  26.432  29.571  1.00  0.00     0.074 A 
ATOM     59  C   UNL A   1      46.488  25.168  29.024  1.00  0.00     0.031 C 
ATOM     60  C   UNL A   1      46.842  27.282  30.265  1.00  0.00     0.037 A 
BRANCH  47  61
ATOM     61  C   UNL A   1      44.013  32.460  32.088  1.00  0.00     0.064 A 
ATOM     62  C   UNL A   1      44.303  33.655  31.412  1.00  0.00     0.173 A 
ATOM     63  C   UNL A   1      43.754  32.532  33.465  1.00  0.00     0.173 A 
ATOM     64  F   UNL A   1      44.570  33.638  30.097  1.00  0.00    -0.203 F 
ATOM     65  C   UNL A   1      44.353  34.870  32.091  1.00  0.00     0.198 A 
ATOM     66  C   UNL A   1      43.772  33.755  34.135  1.00  0.00     0.198 A 
ATOM     67  F   UNL A   1      43.464  31.422  34.160  1.00  0.00    -0.203 F 
ATOM     68  F   UNL A   1      44.675  35.991  31.431  1.00  0.00    -0.200 F 
ATOM     69  C   UNL A   1      44.078  34.919  33.448  1.00  0.00     0.200 A 
ATOM     70  F   UNL A   1      43.490  33.803  35.444  1.00  0.00    -0.200 F 
ATOM     71  F   UNL A   1      44.110  36.093  34.097  1.00  0.00    -0.200 F 
ENDBRANCH  47  61
BRANCH  48  72
ATOM     72  C   UNL A   1      42.931  23.783  27.252  1.00  0.00     0.064 A 
ATOM     73  C   UNL A   1      42.477  22.634  27.916  1.00  0.00     0.173 A 
ATOM     74  C   UNL A   1      43.304  23.651  25.907  1.00  0.00     0.173 A 
ATOM     75  F   UNL A   1      42.126  22.702  29.209  1.00  0.00    -0.203 F 
ATOM     76  C   UNL A   1      42.443  21.397  27.276  1.00  0.00     0.198 A 
ATOM     77  C   UNL A   1      43.235  22.420  25.257  1.00  0.00     0.198 A 
ATOM     78  F   UNL A   1      43.741  24.719  25.222  1.00  0.00    -0.203 F 
ATOM     79  F   UNL A   1      42.075  20.302  27.957  1.00  0.00    -0.200 F 
ATOM     80  C   UNL A   1      42.820  21.292  25.945  1.00  0.00     0.200 A 
ATOM     81  F   UNL A   1      43.584  22.326  23.967  1.00  0.00    -0.200 F 
ATOM     82  F   UNL A   1      42.797  20.100  25.333  1.00  0.00    -0.200 F 
ENDBRANCH  48  72
BRANCH  60  83
ATOM     83  C   UNL A   1      48.255  26.845  30.528  1.00  0.00     0.064 A 
ATOM     84  C   UNL A   1      48.591  26.045  31.630  1.00  0.00     0.173 A 
ATOM     85  C   UNL A   1      49.283  27.210  29.643  1.00  0.00     0.173 A 
ATOM     86  F   UNL A   1      47.649  25.681  32.513  1.00  0.00    -0.203 F 
ATOM     87  C   UNL A   1      49.908  25.654  31.854  1.00  0.00     0.198 A 
ATOM     88  C   UNL A   1      50.592  26.786  29.852  1.00  0.00     0.198 A 
ATOM     89  F   UNL A   1      49.015  27.968  28.569  1.00  0.00    -0.203 F 
ATOM     90  F   UNL A   1      50.215  24.939  32.945  1.00  0.00    -0.200 F 
ATOM     91  C   UNL A   1      50.906  26.017  30.962  1.00  0.00     0.200 A 
ATOM     92  F   UNL A   1      51.551  27.125  28.979  1.00  0.00    -0.200 F 
ATOM     93  F   UNL A   1      52.172  25.634  31.176  1.00  0.00    -0.200 F 
ENDBRANCH  60  83
ENDBRANCH  34  35
ENDBRANCH  26  29
ENDBRANCH  24  25
ENDBRANCH   1  24
TORSDOF 13
ENDMDL
MODEL 3
REMARK VINA RESULT:     -11.4      4.660     10.586
REMARK SMILES COc1ccc([C@H]2C[NH2+]C[C@@H]2C(=O)NCCCNC(=O)c2ccc(-c3c4nc(c(-c5c(F)c(F)c(F)c(F)c5F)c5ccc([nH]5)c(-c5c(F)c(F)c(F)c(F)c5F)c5nc(c(-c6c(F)c(F)c(F)c(F)c6F)c6ccc3[nH]6)C=C5)C=C4)cc2)cc1OC
REMARK SMILES IDX 16 1 15 2 14 3 12 4 13 5 11 7 7 8 8 9 9 10 10 11 6 14 3 15
REMARK SMILES IDX 4 16 85 17 5 18 84 19 2 20 1 21 86 22 87 23 17 24 18 25
REMARK SMILES IDX 19 26 20 28 21 29 22 30 83 31 23 32 82 33 24 34 25 35 26 36
REMARK SMILES IDX 76 37 27 38 81 39 75 40 77 41 28 42 80 43 74 44 73 45 29 47
REMARK SMILES IDX 61 48 41 49 60 50 42 51 45 52 59 53 78 54 43 55 44 56 58 58
REMARK SMILES IDX 79 59 46 60 30 61 31 62 39 63 32 64 33 65 37 66 40 67 34 68
REMARK SMILES IDX 35 69 38 70 36 71 62 72 63 73 71 74 64 75 65 76 69 77 72 78
REMARK SMILES IDX 66 79 67 80 70 81 68 82 47 83 48 84 56 85 49 86 50 87 54 88
REMARK SMILES IDX 57 89 51 90 52 91 55 92 53 93
REMARK H PARENT 14 6 9 12 9 13 18 27 77 46 45 57
REMARK Flexibility Score: inf
ROOT
ATOM      1  C   UNL A   1      40.933  21.156  27.292  1.00  0.00     0.042 C 
ENDROOT
BRANCH   1   2
ATOM      2  C   UNL A   1      42.306  20.519  27.455  1.00  0.00     0.117 C 
BRANCH   2   3
ATOM      3  N   UNL A   1      42.708  19.762  26.278  1.00  0.00    -0.356 N 
ATOM      4  C   UNL A   1      43.723  20.027  25.394  1.00  0.00     0.229 C 
ATOM      5  O   UNL A   1      43.874  19.291  24.422  1.00  0.00    -0.275 OA
ATOM      6  H   UNL A   1      42.181  18.952  26.092  1.00  0.00     0.163 HD
BRANCH   4   7
ATOM      7  C   UNL A   1      44.588  21.244  25.671  1.00  0.00     0.146 C 
ATOM      8  C   UNL A   1      44.109  22.544  25.002  1.00  0.00     0.092 C 
ATOM      9  C   UNL A   1      44.828  22.432  23.649  1.00  0.00     0.269 C 
ATOM     10  N   UNL A   1      46.181  21.956  23.982  1.00  0.00    -0.345 N 
ATOM     11  C   UNL A   1      45.994  21.023  25.104  1.00  0.00     0.274 C 
ATOM     12  H   UNL A   1      46.777  22.736  24.260  1.00  0.00     0.346 HD
ATOM     13  H   UNL A   1      46.636  21.510  23.186  1.00  0.00     0.346 HD
BRANCH   8  14
ATOM     14  C   UNL A   1      44.463  23.833  25.764  1.00  0.00    -0.034 A 
ATOM     15  C   UNL A   1      45.210  26.183  27.180  1.00  0.00     0.160 A 
ATOM     16  C   UNL A   1      45.009  24.971  27.853  1.00  0.00     0.051 A 
ATOM     17  C   UNL A   1      45.066  26.231  25.795  1.00  0.00     0.161 A 
ATOM     18  C   UNL A   1      44.647  23.809  27.154  1.00  0.00     0.008 A 
ATOM     19  C   UNL A   1      44.688  25.062  25.119  1.00  0.00     0.054 A 
BRANCH  15  20
ATOM     20  O   UNL A   1      45.670  27.247  27.903  1.00  0.00    -0.493 OA
ATOM     21  C   UNL A   1      47.084  27.188  28.089  1.00  0.00     0.278 C 
ENDBRANCH  15  20
BRANCH  17  22
ATOM     22  O   UNL A   1      45.275  27.267  24.929  1.00  0.00    -0.493 OA
ATOM     23  C   UNL A   1      46.572  27.489  24.410  1.00  0.00     0.278 C 
ENDBRANCH  17  22
ENDBRANCH   8  14
ENDBRANCH   4   7
ENDBRANCH   2   3
ENDBRANCH   1   2
BRANCH   1  24
ATOM     24  C   UNL A   1      40.925  22.365  26.367  1.00  0.00     0.118 C 
BRANCH  24  25
ATOM     25  N   UNL A   1      39.587  22.702  25.894  1.00  0.00    -0.352 N 
ATOM     26  C   UNL A   1      38.757  23.735  26.244  1.00  0.00     0.251 C 
ATOM     27  H   UNL A   1      39.223  22.089  25.216  1.00  0.00     0.163 HD
ATOM     28  O   UNL A   1      37.590  23.734  25.854  1.00  0.00    -0.269 OA
BRANCH  26  29
ATOM     29  C   UNL A   1      39.243  24.837  27.099  1.00  0.00     0.039 A 
ATOM     30  C   UNL A   1      40.041  25.831  26.527  1.00  0.00     0.014 A 
ATOM     31  C   UNL A   1      38.938  24.886  28.462  1.00  0.00     0.014 A 
ATOM     32  C   UNL A   1      40.473  26.908  27.304  1.00  0.00     0.010 A 
ATOM     33  C   UNL A   1      39.296  26.001  29.214  1.00  0.00     0.010 A 
ATOM     34  C   UNL A   1      40.069  27.023  28.644  1.00  0.00    -0.014 A 
BRANCH  34  35
ATOM     35  C   UNL A   1      40.448  28.203  29.464  1.00  0.00     0.031 A 
ATOM     36  C   UNL A   1      41.793  28.256  30.137  1.00  0.00     0.074 A 
ATOM     37  C   UNL A   1      39.563  29.203  29.642  1.00  0.00     0.049 A 
ATOM     38  N   UNL A   1      42.278  29.162  30.948  1.00  0.00    -0.248 NA
ATOM     39  C   UNL A   1      42.707  27.131  29.881  1.00  0.00     0.031 C 
ATOM     40  C   UNL A   1      38.216  29.253  29.071  1.00  0.00     0.029 A 
ATOM     41  N   UNL A   1      39.660  30.368  30.363  1.00  0.00    -0.354 N 
ATOM     42  C   UNL A   1      43.547  28.718  31.297  1.00  0.00     0.074 A 
ATOM     43  C   UNL A   1      43.733  27.431  30.663  1.00  0.00     0.031 C 
ATOM     44  C   UNL A   1      37.624  30.401  29.439  1.00  0.00     0.029 A 
ATOM     45  C   UNL A   1      38.528  31.145  30.310  1.00  0.00     0.049 A 
ATOM     46  H   UNL A   1      40.465  30.623  30.869  1.00  0.00     0.167 HD
ATOM     47  C   UNL A   1      44.484  29.342  32.050  1.00  0.00     0.037 A 
ATOM     48  C   UNL A   1      38.247  32.319  30.908  1.00  0.00     0.037 A 
ATOM     49  C   UNL A   1      44.301  30.627  32.671  1.00  0.00     0.049 A 
ATOM     50  C   UNL A   1      39.292  32.960  31.785  1.00  0.00     0.074 A 
ATOM     51  C   UNL A   1      45.197  31.350  33.439  1.00  0.00     0.029 A 
ATOM     52  N   UNL A   1      43.140  31.382  32.594  1.00  0.00    -0.354 N 
ATOM     53  N   UNL A   1      40.508  32.556  32.061  1.00  0.00    -0.248 NA
ATOM     54  C   UNL A   1      38.923  34.229  32.428  1.00  0.00     0.031 C 
ATOM     55  C   UNL A   1      44.564  32.521  33.865  1.00  0.00     0.029 A 
ATOM     56  C   UNL A   1      43.293  32.557  33.314  1.00  0.00     0.049 A 
ATOM     57  H   UNL A   1      42.328  31.123  32.103  1.00  0.00     0.167 HD
ATOM     58  C   UNL A   1      41.062  33.538  32.872  1.00  0.00     0.074 A 
ATOM     59  C   UNL A   1      40.055  34.566  33.029  1.00  0.00     0.031 C 
ATOM     60  C   UNL A   1      42.292  33.585  33.438  1.00  0.00     0.037 A 
BRANCH  47  61
ATOM     61  C   UNL A   1      45.806  28.652  32.228  1.00  0.00     0.064 A 
ATOM     62  C   UNL A   1      45.992  27.674  33.217  1.00  0.00     0.173 A 
ATOM     63  C   UNL A   1      46.879  28.924  31.365  1.00  0.00     0.173 A 
ATOM     64  F   UNL A   1      45.002  27.385  34.075  1.00  0.00    -0.203 F 
ATOM     65  C   UNL A   1      47.210  27.011  33.351  1.00  0.00     0.198 A 
ATOM     66  C   UNL A   1      48.085  28.235  31.482  1.00  0.00     0.198 A 
ATOM     67  F   UNL A   1      46.754  29.845  30.398  1.00  0.00    -0.203 F 
ATOM     68  F   UNL A   1      47.376  26.113  34.331  1.00  0.00    -0.200 F 
ATOM     69  C   UNL A   1      48.250  27.285  32.477  1.00  0.00     0.200 A 
ATOM     70  F   UNL A   1      49.084  28.489  30.626  1.00  0.00    -0.200 F 
ATOM     71  F   UNL A   1      49.416  26.633  32.597  1.00  0.00    -0.200 F 
ENDBRANCH  47  61
BRANCH  48  72
ATOM     72  C   UNL A   1      36.930  32.979  30.701  1.00  0.00     0.064 A 
ATOM     73  C   UNL A   1      35.927  32.905  31.679  1.00  0.00     0.173 A 
ATOM     74  C   UNL A   1      36.623  33.645  29.506  1.00  0.00     0.173 A 
ATOM     75  F   UNL A   1      36.163  32.263  32.833  1.00  0.00    -0.203 F 
ATOM     76  C   UNL A   1      34.658  33.433  31.453  1.00  0.00     0.198 A 
ATOM     77  C   UNL A   1      35.365  34.204  29.295  1.00  0.00     0.198 A 
ATOM     78  F   UNL A   1      37.546  33.749  28.538  1.00  0.00    -0.203 F 
ATOM     79  F   UNL A   1      33.697  33.283  32.376  1.00  0.00    -0.200 F 
ATOM     80  C   UNL A   1      34.378  34.085  30.261  1.00  0.00     0.200 A 
ATOM     81  F   UNL A   1      35.104  34.847  28.149  1.00  0.00    -0.200 F 
ATOM     82  F   UNL A   1      33.154  34.583  30.039  1.00  0.00    -0.200 F 
ENDBRANCH  48  72
BRANCH  60  83
ATOM     83  C   UNL A   1      42.643  34.813  34.228  1.00  0.00     0.064 A 
ATOM     84  C   UNL A   1      42.535  34.853  35.626  1.00  0.00     0.173 A 
ATOM     85  C   UNL A   1      43.126  35.959  33.574  1.00  0.00     0.173 A 
ATOM     86  F   UNL A   1      42.066  33.790  36.297  1.00  0.00    -0.203 F 
ATOM     87  C   UNL A   1      42.865  36.003  36.336  1.00  0.00     0.198 A 
ATOM     88  C   UNL A   1      43.489  37.094  34.292  1.00  0.00     0.198 A 
ATOM     89  F   UNL A   1      43.256  35.972  32.239  1.00  0.00    -0.203 F 
ATOM     90  F   UNL A   1      42.698  36.038  37.665  1.00  0.00    -0.200 F 
ATOM     91  C   UNL A   1      43.349  37.119  35.671  1.00  0.00     0.200 A 
ATOM     92  F   UNL A   1      43.972  38.166  33.647  1.00  0.00    -0.200 F 
ATOM     93  F   UNL A   1      43.673  38.224  36.357  1.00  0.00    -0.200 F 
ENDBRANCH  60  83
ENDBRANCH  34  35
ENDBRANCH  26  29
ENDBRANCH  24  25
ENDBRANCH   1  24
TORSDOF 13
ENDMDL
