MODEL 1
REMARK VINA RESULT:     -10.5      0.000      0.000
REMARK SMILES C[C@H](C[NH3+])S[C@H](C)c1ccc(C(=O)NCCCNC(=O)c2ccc(-c3c4nc(c(-c5c(F)c(F)c(F)c(F)c5F)c5ccc([nH]5)c(-c5c(F)c(F)c(F)c(F)c5F)c5nc(c(-c6c(F)c(F)c(F)c(F)c6F)c6ccc3[nH]6)C=C5)C=C4)cc2)o1
REMARK SMILES IDX 12 1 13 2 14 3 11 5 8 6 9 7 84 8 10 9 6 10 7 11 5 12 2 13
REMARK SMILES IDX 1 14 3 15 4 16 15 20 16 21 17 22 18 23 19 24 20 26 21 27
REMARK SMILES IDX 22 28 83 29 23 30 82 31 24 32 25 33 26 34 76 35 27 36 81 37
REMARK SMILES IDX 75 38 77 39 28 40 80 41 74 42 73 43 29 45 61 46 41 47 60 48
REMARK SMILES IDX 42 49 45 50 59 51 78 52 43 53 44 54 58 56 79 57 46 58 30 59
REMARK SMILES IDX 31 60 39 61 32 62 33 63 37 64 40 65 34 66 35 67 38 68 36 69
REMARK SMILES IDX 62 70 63 71 71 72 64 73 65 74 69 75 72 76 66 77 67 78 70 79
REMARK SMILES IDX 68 80 47 81 48 82 56 83 49 84 50 85 54 86 57 87 51 88 52 89
REMARK SMILES IDX 55 90 53 91
REMARK H PARENT 14 4 4 17 4 18 4 19 18 25 77 44 45 55
REMARK Flexibility Score: inf
ROOT
ATOM      1  C   UNL A   1      31.199  23.924  26.889  1.00  0.00     0.286 C 
ATOM      2  O   UNL A   1      30.025  23.615  27.106  1.00  0.00    -0.266 OA
ATOM      3  N   UNL A   1      31.389  25.228  26.494  1.00  0.00    -0.349 N 
ATOM      4  H   UNL A   1      30.557  25.747  26.414  1.00  0.00     0.163 HD
ENDROOT
BRANCH   1   5
ATOM      5  C   UNL A   1      32.299  22.987  27.042  1.00  0.00     0.191 A 
ATOM      6  C   UNL A   1      33.620  21.383  26.243  1.00  0.00     0.117 A 
ATOM      7  C   UNL A   1      34.015  21.604  27.544  1.00  0.00     0.047 A 
ATOM      8  O   UNL A   1      32.561  22.187  25.952  1.00  0.00    -0.455 OA
ATOM      9  C   UNL A   1      33.222  22.676  28.025  1.00  0.00     0.056 A 
BRANCH   6  10
ATOM     10  C   UNL A   1      34.138  20.494  25.156  1.00  0.00     0.110 C 
ATOM     11  C   UNL A   1      33.397  20.627  23.827  1.00  0.00     0.028 C 
BRANCH  10  12
ATOM     12  S   UNL A   1      35.965  20.689  24.961  1.00  0.00    -0.142 SA
BRANCH  12  13
ATOM     13  C   UNL A   1      36.205  22.524  24.920  1.00  0.00     0.099 C 
ATOM     14  C   UNL A   1      36.338  22.911  23.442  1.00  0.00     0.025 C 
BRANCH  13  15
ATOM     15  C   UNL A   1      37.414  23.046  25.727  1.00  0.00     0.273 C 
BRANCH  15  16
ATOM     16  N   UNL A   1      38.655  22.301  25.500  1.00  0.00    -0.357 N 
ATOM     17  H   UNL A   1      39.275  22.846  24.902  1.00  0.00     0.344 HD
ATOM     18  H   UNL A   1      38.439  21.413  25.046  1.00  0.00     0.344 HD
ATOM     19  H   UNL A   1      39.113  22.123  26.393  1.00  0.00     0.344 HD
ENDBRANCH  15  16
ENDBRANCH  13  15
ENDBRANCH  12  13
ENDBRANCH  10  12
ENDBRANCH   6  10
ENDBRANCH   1   5
BRANCH   3  20
ATOM     20  C   UNL A   1      32.584  25.981  26.174  1.00  0.00     0.118 C 
BRANCH  20  21
ATOM     21  C   UNL A   1      32.446  27.452  26.563  1.00  0.00     0.042 C 
BRANCH  21  22
ATOM     22  C   UNL A   1      33.794  28.174  26.647  1.00  0.00     0.118 C 
BRANCH  22  23
ATOM     23  N   UNL A   1      33.632  29.577  27.006  1.00  0.00    -0.352 N 
ATOM     24  C   UNL A   1      34.413  30.400  27.774  1.00  0.00     0.251 C 
ATOM     25  H   UNL A   1      32.827  30.006  26.634  1.00  0.00     0.163 HD
ATOM     26  O   UNL A   1      33.966  31.484  28.140  1.00  0.00    -0.269 OA
BRANCH  24  27
ATOM     27  C   UNL A   1      35.782  30.005  28.172  1.00  0.00     0.039 A 
ATOM     28  C   UNL A   1      35.991  29.536  29.473  1.00  0.00     0.014 A 
ATOM     29  C   UNL A   1      36.866  30.167  27.306  1.00  0.00     0.014 A 
ATOM     30  C   UNL A   1      37.277  29.186  29.890  1.00  0.00     0.010 A 
ATOM     31  C   UNL A   1      38.140  29.763  27.704  1.00  0.00     0.010 A 
ATOM     32  C   UNL A   1      38.358  29.273  29.000  1.00  0.00    -0.014 A 
BRANCH  32  33
ATOM     33  C   UNL A   1      39.725  28.866  29.410  1.00  0.00     0.031 A 
ATOM     34  C   UNL A   1      40.548  29.759  30.296  1.00  0.00     0.074 A 
ATOM     35  C   UNL A   1      40.245  27.716  28.938  1.00  0.00     0.049 A 
ATOM     36  N   UNL A   1      41.793  29.627  30.679  1.00  0.00    -0.248 NA
ATOM     37  C   UNL A   1      39.890  30.974  30.803  1.00  0.00     0.031 C 
ATOM     38  C   UNL A   1      39.557  26.780  28.047  1.00  0.00     0.029 A 
ATOM     39  N   UNL A   1      41.480  27.147  29.127  1.00  0.00    -0.354 N 
ATOM     40  C   UNL A   1      42.070  30.743  31.459  1.00  0.00     0.074 A 
ATOM     41  C   UNL A   1      40.879  31.565  31.459  1.00  0.00     0.031 C 
ATOM     42  C   UNL A   1      40.374  25.751  27.775  1.00  0.00     0.029 A 
ATOM     43  C   UNL A   1      41.654  25.970  28.442  1.00  0.00     0.049 A 
ATOM     44  H   UNL A   1      42.174  27.544  29.702  1.00  0.00     0.167 HD
ATOM     45  C   UNL A   1      43.208  31.043  32.129  1.00  0.00     0.037 A 
ATOM     46  C   UNL A   1      42.731  25.166  28.351  1.00  0.00     0.037 A 
ATOM     47  C   UNL A   1      44.384  30.213  32.146  1.00  0.00     0.049 A 
ATOM     48  C   UNL A   1      43.983  25.528  29.103  1.00  0.00     0.074 A 
ATOM     49  C   UNL A   1      45.577  30.419  32.816  1.00  0.00     0.029 A 
ATOM     50  N   UNL A   1      44.509  29.011  31.466  1.00  0.00    -0.354 N 
ATOM     51  N   UNL A   1      44.218  26.567  29.867  1.00  0.00    -0.248 NA
ATOM     52  C   UNL A   1      45.118  24.602  28.985  1.00  0.00     0.031 C 
ATOM     53  C   UNL A   1      46.435  29.355  32.520  1.00  0.00     0.029 A 
ATOM     54  C   UNL A   1      45.762  28.467  31.696  1.00  0.00     0.049 A 
ATOM     55  H   UNL A   1      43.811  28.604  30.902  1.00  0.00     0.167 HD
ATOM     56  C   UNL A   1      45.512  26.404  30.343  1.00  0.00     0.074 A 
ATOM     57  C   UNL A   1      46.006  25.160  29.795  1.00  0.00     0.031 C 
ATOM     58  C   UNL A   1      46.228  27.215  31.158  1.00  0.00     0.037 A 
BRANCH  45  59
ATOM     59  C   UNL A   1      43.236  32.318  32.919  1.00  0.00     0.064 A 
ATOM     60  C   UNL A   1      42.872  32.343  34.274  1.00  0.00     0.173 A 
ATOM     61  C   UNL A   1      43.686  33.512  32.336  1.00  0.00     0.173 A 
ATOM     62  F   UNL A   1      42.423  31.231  34.873  1.00  0.00    -0.203 F 
ATOM     63  C   UNL A   1      42.944  33.521  35.012  1.00  0.00     0.198 A 
ATOM     64  C   UNL A   1      43.781  34.683  33.085  1.00  0.00     0.198 A 
ATOM     65  F   UNL A   1      44.051  33.540  31.046  1.00  0.00    -0.203 F 
ATOM     66  F   UNL A   1      42.559  33.530  36.296  1.00  0.00    -0.200 F 
ATOM     67  C   UNL A   1      43.405  34.688  34.420  1.00  0.00     0.200 A 
ATOM     68  F   UNL A   1      44.238  35.805  32.514  1.00  0.00    -0.200 F 
ATOM     69  F   UNL A   1      43.486  35.818  35.136  1.00  0.00    -0.200 F 
ENDBRANCH  45  59
BRANCH  46  70
ATOM     70  C   UNL A   1      42.675  23.932  27.525  1.00  0.00     0.064 A 
ATOM     71  C   UNL A   1      42.271  22.712  28.082  1.00  0.00     0.173 A 
ATOM     72  C   UNL A   1      43.053  23.941  26.174  1.00  0.00     0.173 A 
ATOM     73  F   UNL A   1      41.922  22.650  29.375  1.00  0.00    -0.203 F 
ATOM     74  C   UNL A   1      42.273  21.540  27.328  1.00  0.00     0.198 A 
ATOM     75  C   UNL A   1      43.026  22.774  25.413  1.00  0.00     0.198 A 
ATOM     76  F   UNL A   1      43.443  25.084  25.593  1.00  0.00    -0.203 F 
ATOM     77  F   UNL A   1      41.934  20.377  27.900  1.00  0.00    -0.200 F 
ATOM     78  C   UNL A   1      42.648  21.573  25.993  1.00  0.00     0.200 A 
ATOM     79  F   UNL A   1      43.377  22.813  24.120  1.00  0.00    -0.200 F 
ATOM     80  F   UNL A   1      42.655  20.446  25.269  1.00  0.00    -0.200 F 
ENDBRANCH  46  70
BRANCH  58  81
ATOM     81  C   UNL A   1      47.603  26.760  31.542  1.00  0.00     0.064 A 
ATOM     82  C   UNL A   1      48.730  27.105  30.783  1.00  0.00     0.173 A 
ATOM     83  C   UNL A   1      47.799  25.998  32.704  1.00  0.00     0.173 A 
ATOM     84  F   UNL A   1      48.591  27.818  29.655  1.00  0.00    -0.203 F 
ATOM     85  C   UNL A   1      50.002  26.682  31.160  1.00  0.00     0.198 A 
ATOM     86  C   UNL A   1      49.075  25.600  33.093  1.00  0.00     0.198 A 
ATOM     87  F   UNL A   1      46.753  25.648  33.467  1.00  0.00    -0.203 F 
ATOM     88  F   UNL A   1      51.060  26.986  30.395  1.00  0.00    -0.200 F 
ATOM     89  C   UNL A   1      50.174  25.937  32.316  1.00  0.00     0.200 A 
ATOM     90  F   UNL A   1      49.241  24.890  34.216  1.00  0.00    -0.200 F 
ATOM     91  F   UNL A   1      51.400  25.537  32.680  1.00  0.00    -0.200 F 
ENDBRANCH  58  81
ENDBRANCH  32  33
ENDBRANCH  24  27
ENDBRANCH  22  23
ENDBRANCH  21  22
ENDBRANCH  20  21
ENDBRANCH   3  20
TORSDOF 15
ENDMDL
MODEL 2
REMARK VINA RESULT:     -10.5      4.077      9.821
REMARK SMILES C[C@H](C[NH3+])S[C@H](C)c1ccc(C(=O)NCCCNC(=O)c2ccc(-c3c4nc(c(-c5c(F)c(F)c(F)c(F)c5F)c5ccc([nH]5)c(-c5c(F)c(F)c(F)c(F)c5F)c5nc(c(-c6c(F)c(F)c(F)c(F)c6F)c6ccc3[nH]6)C=C5)C=C4)cc2)o1
REMARK SMILES IDX 12 1 13 2 14 3 11 5 8 6 9 7 84 8 10 9 6 10 7 11 5 12 2 13
REMARK SMILES IDX 1 14 3 15 4 16 15 20 16 21 17 22 18 23 19 24 20 26 21 27
REMARK SMILES IDX 22 28 83 29 23 30 82 31 24 32 25 33 26 34 76 35 27 36 81 37
REMARK SMILES IDX 75 38 77 39 28 40 80 41 74 42 73 43 29 45 61 46 41 47 60 48
REMARK SMILES IDX 42 49 45 50 59 51 78 52 43 53 44 54 58 56 79 57 46 58 30 59
REMARK SMILES IDX 31 60 39 61 32 62 33 63 37 64 40 65 34 66 35 67 38 68 36 69
REMARK SMILES IDX 62 70 63 71 71 72 64 73 65 74 69 75 72 76 66 77 67 78 70 79
REMARK SMILES IDX 68 80 47 81 48 82 56 83 49 84 50 85 54 86 57 87 51 88 52 89
REMARK SMILES IDX 55 90 53 91
REMARK H PARENT 14 4 4 17 4 18 4 19 18 25 77 44 45 55
REMARK Flexibility Score: inf
ROOT
ATOM      1  C   UNL A   1      43.884  19.330  25.346  1.00  0.00     0.286 C 
ATOM      2  O   UNL A   1      44.256  18.339  24.713  1.00  0.00    -0.266 OA
ATOM      3  N   UNL A   1      42.996  19.067  26.364  1.00  0.00    -0.349 N 
ATOM      4  H   UNL A   1      42.754  18.117  26.446  1.00  0.00     0.163 HD
ENDROOT
BRANCH   1   5
ATOM      5  C   UNL A   1      44.348  20.673  25.044  1.00  0.00     0.191 A 
ATOM      6  C   UNL A   1      44.741  22.782  25.642  1.00  0.00     0.117 A 
ATOM      7  C   UNL A   1      45.090  22.680  24.313  1.00  0.00     0.047 A 
ATOM      8  O   UNL A   1      44.256  21.585  26.073  1.00  0.00    -0.455 OA
ATOM      9  C   UNL A   1      44.908  21.321  23.956  1.00  0.00     0.056 A 
BRANCH   6  10
ATOM     10  C   UNL A   1      44.826  23.897  26.637  1.00  0.00     0.110 C 
ATOM     11  C   UNL A   1      44.760  23.446  28.094  1.00  0.00     0.028 C 
BRANCH  10  12
ATOM     12  S   UNL A   1      46.292  24.969  26.301  1.00  0.00    -0.142 SA
BRANCH  12  13
ATOM     13  C   UNL A   1      45.547  26.537  25.659  1.00  0.00     0.099 C 
ATOM     14  C   UNL A   1      46.058  27.663  26.566  1.00  0.00     0.025 C 
BRANCH  13  15
ATOM     15  C   UNL A   1      44.004  26.553  25.595  1.00  0.00     0.273 C 
BRANCH  15  16
ATOM     16  N   UNL A   1      43.453  27.479  24.604  1.00  0.00    -0.357 N 
ATOM     17  H   UNL A   1      42.590  27.094  24.220  1.00  0.00     0.344 HD
ATOM     18  H   UNL A   1      44.129  27.614  23.851  1.00  0.00     0.344 HD
ATOM     19  H   UNL A   1      43.257  28.376  25.048  1.00  0.00     0.344 HD
ENDBRANCH  15  16
ENDBRANCH  13  15
ENDBRANCH  12  13
ENDBRANCH  10  12
ENDBRANCH   6  10
ENDBRANCH   1   5
BRANCH   3  20
ATOM     20  C   UNL A   1      42.353  19.925  27.337  1.00  0.00     0.118 C 
BRANCH  20  21
ATOM     21  C   UNL A   1      40.961  20.354  26.878  1.00  0.00     0.042 C 
BRANCH  21  22
ATOM     22  C   UNL A   1      40.869  21.852  26.575  1.00  0.00     0.118 C 
BRANCH  22  23
ATOM     23  N   UNL A   1      39.619  22.191  25.906  1.00  0.00    -0.352 N 
ATOM     24  C   UNL A   1      38.795  23.277  26.047  1.00  0.00     0.251 C 
ATOM     25  H   UNL A   1      39.318  21.530  25.241  1.00  0.00     0.163 HD
ATOM     26  O   UNL A   1      37.671  23.245  25.552  1.00  0.00    -0.269 OA
BRANCH  24  27
ATOM     27  C   UNL A   1      39.233  24.481  26.784  1.00  0.00     0.039 A 
ATOM     28  C   UNL A   1      40.009  25.431  26.113  1.00  0.00     0.014 A 
ATOM     29  C   UNL A   1      38.956  24.643  28.144  1.00  0.00     0.014 A 
ATOM     30  C   UNL A   1      40.467  26.563  26.789  1.00  0.00     0.010 A 
ATOM     31  C   UNL A   1      39.365  25.801  28.804  1.00  0.00     0.010 A 
ATOM     32  C   UNL A   1      40.128  26.769  28.135  1.00  0.00    -0.014 A 
BRANCH  32  33
ATOM     33  C   UNL A   1      40.568  27.987  28.860  1.00  0.00     0.031 A 
ATOM     34  C   UNL A   1      41.976  28.094  29.375  1.00  0.00     0.074 A 
ATOM     35  C   UNL A   1      39.682  28.972  29.104  1.00  0.00     0.049 A 
ATOM     36  N   UNL A   1      42.519  29.027  30.116  1.00  0.00    -0.248 NA
ATOM     37  C   UNL A   1      42.891  26.994  29.030  1.00  0.00     0.031 C 
ATOM     38  C   UNL A   1      38.279  28.971  28.682  1.00  0.00     0.029 A 
ATOM     39  N   UNL A   1      39.824  30.158  29.779  1.00  0.00    -0.354 N 
ATOM     40  C   UNL A   1      43.830  28.623  30.334  1.00  0.00     0.074 A 
ATOM     41  C   UNL A   1      43.990  27.339  29.685  1.00  0.00     0.031 C 
ATOM     42  C   UNL A   1      37.694  30.104  29.100  1.00  0.00     0.029 A 
ATOM     43  C   UNL A   1      38.667  30.894  29.849  1.00  0.00     0.049 A 
ATOM     44  H   UNL A   1      40.676  30.454  30.175  1.00  0.00     0.167 HD
ATOM     45  C   UNL A   1      44.816  29.274  30.997  1.00  0.00     0.037 A 
ATOM     46  C   UNL A   1      38.417  32.068  30.459  1.00  0.00     0.037 A 
ATOM     47  C   UNL A   1      44.661  30.562  31.621  1.00  0.00     0.049 A 
ATOM     48  C   UNL A   1      39.530  32.766  31.193  1.00  0.00     0.074 A 
ATOM     49  C   UNL A   1      45.606  31.314  32.296  1.00  0.00     0.029 A 
ATOM     50  N   UNL A   1      43.481  31.291  31.641  1.00  0.00    -0.354 N 
ATOM     51  N   UNL A   1      40.775  32.391  31.358  1.00  0.00    -0.248 NA
ATOM     52  C   UNL A   1      39.205  34.055  31.820  1.00  0.00     0.031 C 
ATOM     53  C   UNL A   1      44.992  32.487  32.746  1.00  0.00     0.029 A 
ATOM     54  C   UNL A   1      43.675  32.483  32.319  1.00  0.00     0.049 A 
ATOM     55  H   UNL A   1      42.632  31.004  31.232  1.00  0.00     0.167 HD
ATOM     56  C   UNL A   1      41.386  33.407  32.079  1.00  0.00     0.074 A 
ATOM     57  C   UNL A   1      40.381  34.422  32.307  1.00  0.00     0.031 C 
ATOM     58  C   UNL A   1      42.666  33.491  32.517  1.00  0.00     0.037 A 
BRANCH  45  59
ATOM     59  C   UNL A   1      46.161  28.614  31.069  1.00  0.00     0.064 A 
ATOM     60  C   UNL A   1      47.162  28.899  30.128  1.00  0.00     0.173 A 
ATOM     61  C   UNL A   1      46.474  27.739  32.119  1.00  0.00     0.173 A 
ATOM     62  F   UNL A   1      46.908  29.720  29.098  1.00  0.00    -0.203 F 
ATOM     63  C   UNL A   1      48.423  28.317  30.227  1.00  0.00     0.198 A 
ATOM     64  C   UNL A   1      47.745  27.180  32.230  1.00  0.00     0.198 A 
ATOM     65  F   UNL A   1      45.554  27.439  33.048  1.00  0.00    -0.203 F 
ATOM     66  F   UNL A   1      49.354  28.576  29.298  1.00  0.00    -0.200 F 
ATOM     67  C   UNL A   1      48.716  27.465  31.282  1.00  0.00     0.200 A 
ATOM     68  F   UNL A   1      48.030  26.366  33.255  1.00  0.00    -0.200 F 
ATOM     69  F   UNL A   1      49.935  26.916  31.383  1.00  0.00    -0.200 F 
ENDBRANCH  45  59
BRANCH  46  70
ATOM     70  C   UNL A   1      37.059  32.669  30.398  1.00  0.00     0.064 A 
ATOM     71  C   UNL A   1      36.685  33.492  29.328  1.00  0.00     0.173 A 
ATOM     72  C   UNL A   1      36.121  32.456  31.419  1.00  0.00     0.173 A 
ATOM     73  F   UNL A   1      37.555  33.743  28.340  1.00  0.00    -0.203 F 
ATOM     74  C   UNL A   1      35.434  34.105  29.295  1.00  0.00     0.198 A 
ATOM     75  C   UNL A   1      34.860  33.046  31.370  1.00  0.00     0.198 A 
ATOM     76  F   UNL A   1      36.429  31.672  32.461  1.00  0.00    -0.203 F 
ATOM     77  F   UNL A   1      35.122  34.932  28.287  1.00  0.00    -0.200 F 
ATOM     78  C   UNL A   1      34.521  33.879  30.314  1.00  0.00     0.200 A 
ATOM     79  F   UNL A   1      33.976  32.815  32.350  1.00  0.00    -0.200 F 
ATOM     80  F   UNL A   1      33.320  34.472  30.284  1.00  0.00    -0.200 F 
ENDBRANCH  46  70
BRANCH  58  81
ATOM     81  C   UNL A   1      43.060  34.739  33.246  1.00  0.00     0.064 A 
ATOM     82  C   UNL A   1      43.467  35.893  32.561  1.00  0.00     0.173 A 
ATOM     83  C   UNL A   1      42.996  34.792  34.647  1.00  0.00     0.173 A 
ATOM     84  F   UNL A   1      43.560  35.885  31.223  1.00  0.00    -0.203 F 
ATOM     85  C   UNL A   1      43.820  37.048  33.254  1.00  0.00     0.198 A 
ATOM     86  C   UNL A   1      43.323  35.957  35.335  1.00  0.00     0.198 A 
ATOM     87  F   UNL A   1      42.607  33.716  35.346  1.00  0.00    -0.203 F 
ATOM     88  F   UNL A   1      44.249  38.125  32.582  1.00  0.00    -0.200 F 
ATOM     89  C   UNL A   1      43.741  37.081  34.638  1.00  0.00     0.200 A 
ATOM     90  F   UNL A   1      43.236  35.990  36.671  1.00  0.00    -0.200 F 
ATOM     91  F   UNL A   1      44.075  38.196  35.303  1.00  0.00    -0.200 F 
ENDBRANCH  58  81
ENDBRANCH  32  33
ENDBRANCH  24  27
ENDBRANCH  22  23
ENDBRANCH  21  22
ENDBRANCH  20  21
ENDBRANCH   3  20
TORSDOF 15
ENDMDL
MODEL 3
REMARK VINA RESULT:     -10.5      2.656      3.867
REMARK SMILES C[C@H](C[NH3+])S[C@H](C)c1ccc(C(=O)NCCCNC(=O)c2ccc(-c3c4nc(c(-c5c(F)c(F)c(F)c(F)c5F)c5ccc([nH]5)c(-c5c(F)c(F)c(F)c(F)c5F)c5nc(c(-c6c(F)c(F)c(F)c(F)c6F)c6ccc3[nH]6)C=C5)C=C4)cc2)o1
REMARK SMILES IDX 12 1 13 2 14 3 11 5 8 6 9 7 84 8 10 9 6 10 7 11 5 12 2 13
REMARK SMILES IDX 1 14 3 15 4 16 15 20 16 21 17 22 18 23 19 24 20 26 21 27
REMARK SMILES IDX 22 28 83 29 23 30 82 31 24 32 25 33 26 34 76 35 27 36 81 37
REMARK SMILES IDX 75 38 77 39 28 40 80 41 74 42 73 43 29 45 61 46 41 47 60 48
REMARK SMILES IDX 42 49 45 50 59 51 78 52 43 53 44 54 58 56 79 57 46 58 30 59
REMARK SMILES IDX 31 60 39 61 32 62 33 63 37 64 40 65 34 66 35 67 38 68 36 69
REMARK SMILES IDX 62 70 63 71 71 72 64 73 65 74 69 75 72 76 66 77 67 78 70 79
REMARK SMILES IDX 68 80 47 81 48 82 56 83 49 84 50 85 54 86 57 87 51 88 52 89
REMARK SMILES IDX 55 90 53 91
REMARK H PARENT 14 4 4 17 4 18 4 19 18 25 77 44 45 55
REMARK Flexibility Score: inf
ROOT
ATOM      1  C   UNL A   1      31.777  24.943  26.448  1.00  0.00     0.286 C 
ATOM      2  O   UNL A   1      31.074  24.325  27.251  1.00  0.00    -0.266 OA
ATOM      3  N   UNL A   1      31.322  26.202  26.131  1.00  0.00    -0.349 N 
ATOM      4  H   UNL A   1      30.477  26.444  26.573  1.00  0.00     0.163 HD
ENDROOT
BRANCH   1   5
ATOM      5  C   UNL A   1      32.995  24.388  25.882  1.00  0.00     0.191 A 
ATOM      6  C   UNL A   1      34.130  22.705  24.968  1.00  0.00     0.117 A 
ATOM      7  C   UNL A   1      35.011  23.758  25.079  1.00  0.00     0.047 A 
ATOM      8  O   UNL A   1      32.926  23.070  25.488  1.00  0.00    -0.455 OA
ATOM      9  C   UNL A   1      34.268  24.849  25.592  1.00  0.00     0.056 A 
BRANCH   6  10
ATOM     10  C   UNL A   1      34.249  21.331  24.385  1.00  0.00     0.110 C 
ATOM     11  C   UNL A   1      35.345  20.473  25.012  1.00  0.00     0.028 C 
BRANCH  10  12
ATOM     12  S   UNL A   1      32.611  20.477  24.376  1.00  0.00    -0.142 SA
BRANCH  12  13
ATOM     13  C   UNL A   1      33.043  18.712  24.023  1.00  0.00     0.099 C 
ATOM     14  C   UNL A   1      32.382  18.363  22.684  1.00  0.00     0.025 C 
BRANCH  13  15
ATOM     15  C   UNL A   1      32.619  17.702  25.113  1.00  0.00     0.273 C 
BRANCH  15  16
ATOM     16  N   UNL A   1      32.717  18.218  26.480  1.00  0.00    -0.357 N 
ATOM     17  H   UNL A   1      33.507  17.780  26.953  1.00  0.00     0.344 HD
ATOM     18  H   UNL A   1      31.857  18.004  26.986  1.00  0.00     0.344 HD
ATOM     19  H   UNL A   1      32.853  19.228  26.454  1.00  0.00     0.344 HD
ENDBRANCH  15  16
ENDBRANCH  13  15
ENDBRANCH  12  13
ENDBRANCH  10  12
ENDBRANCH   6  10
ENDBRANCH   1   5
BRANCH   3  20
ATOM     20  C   UNL A   1      31.854  27.237  25.270  1.00  0.00     0.118 C 
BRANCH  20  21
ATOM     21  C   UNL A   1      31.738  28.619  25.911  1.00  0.00     0.042 C 
BRANCH  21  22
ATOM     22  C   UNL A   1      33.085  29.339  26.022  1.00  0.00     0.118 C 
BRANCH  22  23
ATOM     23  N   UNL A   1      32.916  30.758  26.310  1.00  0.00    -0.352 N 
ATOM     24  C   UNL A   1      33.528  31.562  27.235  1.00  0.00     0.251 C 
ATOM     25  H   UNL A   1      32.252  31.215  25.744  1.00  0.00     0.163 HD
ATOM     26  O   UNL A   1      33.063  32.676  27.463  1.00  0.00    -0.269 OA
BRANCH  24  27
ATOM     27  C   UNL A   1      34.733  31.112  27.964  1.00  0.00     0.039 A 
ATOM     28  C   UNL A   1      35.837  31.968  28.024  1.00  0.00     0.014 A 
ATOM     29  C   UNL A   1      34.813  29.831  28.516  1.00  0.00     0.014 A 
ATOM     30  C   UNL A   1      37.003  31.560  28.677  1.00  0.00     0.010 A 
ATOM     31  C   UNL A   1      35.956  29.445  29.217  1.00  0.00     0.010 A 
ATOM     32  C   UNL A   1      37.062  30.304  29.300  1.00  0.00    -0.014 A 
BRANCH  32  33
ATOM     33  C   UNL A   1      38.275  29.868  30.035  1.00  0.00     0.031 A 
ATOM     34  C   UNL A   1      38.568  30.414  31.405  1.00  0.00     0.074 A 
ATOM     35  C   UNL A   1      39.143  29.024  29.444  1.00  0.00     0.049 A 
ATOM     36  N   UNL A   1      39.621  30.235  32.161  1.00  0.00    -0.248 NA
ATOM     37  C   UNL A   1      37.549  31.298  31.995  1.00  0.00     0.031 C 
ATOM     38  C   UNL A   1      38.985  28.450  28.106  1.00  0.00     0.029 A 
ATOM     39  N   UNL A   1      40.338  28.513  29.886  1.00  0.00    -0.354 N 
ATOM     40  C   UNL A   1      39.398  30.989  33.307  1.00  0.00     0.074 A 
ATOM     41  C   UNL A   1      38.130  31.663  33.129  1.00  0.00     0.031 C 
ATOM     42  C   UNL A   1      40.038  27.660  27.840  1.00  0.00     0.029 A 
ATOM     43  C   UNL A   1      40.960  27.699  28.971  1.00  0.00     0.049 A 
ATOM     44  H   UNL A   1      40.713  28.710  30.775  1.00  0.00     0.167 HD
ATOM     45  C   UNL A   1      40.171  31.092  34.414  1.00  0.00     0.037 A 
ATOM     46  C   UNL A   1      42.148  27.067  29.033  1.00  0.00     0.037 A 
ATOM     47  C   UNL A   1      41.421  30.401  34.598  1.00  0.00     0.049 A 
ATOM     48  C   UNL A   1      42.988  27.205  30.274  1.00  0.00     0.074 A 
ATOM     49  C   UNL A   1      42.266  30.422  35.695  1.00  0.00     0.029 A 
ATOM     50  N   UNL A   1      42.002  29.559  33.662  1.00  0.00    -0.354 N 
ATOM     51  N   UNL A   1      42.747  27.890  31.366  1.00  0.00    -0.248 NA
ATOM     52  C   UNL A   1      44.263  26.475  30.296  1.00  0.00     0.031 C 
ATOM     53  C   UNL A   1      43.370  29.612  35.411  1.00  0.00     0.029 A 
ATOM     54  C   UNL A   1      43.195  29.058  34.154  1.00  0.00     0.049 A 
ATOM     55  H   UNL A   1      41.621  29.349  32.778  1.00  0.00     0.167 HD
ATOM     56  C   UNL A   1      43.821  27.650  32.211  1.00  0.00     0.074 A 
ATOM     57  C   UNL A   1      44.708  26.745  31.514  1.00  0.00     0.031 C 
ATOM     58  C   UNL A   1      44.054  28.140  33.453  1.00  0.00     0.037 A 
BRANCH  45  59
ATOM     59  C   UNL A   1      39.682  31.971  35.526  1.00  0.00     0.064 A 
ATOM     60  C   UNL A   1      40.135  33.292  35.662  1.00  0.00     0.173 A 
ATOM     61  C   UNL A   1      38.710  31.512  36.427  1.00  0.00     0.173 A 
ATOM     62  F   UNL A   1      41.073  33.774  34.832  1.00  0.00    -0.203 F 
ATOM     63  C   UNL A   1      39.643  34.117  36.670  1.00  0.00     0.198 A 
ATOM     64  C   UNL A   1      38.202  32.349  37.418  1.00  0.00     0.198 A 
ATOM     65  F   UNL A   1      38.241  30.259  36.336  1.00  0.00    -0.203 F 
ATOM     66  F   UNL A   1      40.114  35.365  36.802  1.00  0.00    -0.200 F 
ATOM     67  C   UNL A   1      38.671  33.648  37.542  1.00  0.00     0.200 A 
ATOM     68  F   UNL A   1      37.255  31.898  38.252  1.00  0.00    -0.200 F 
ATOM     69  F   UNL A   1      38.189  34.448  38.504  1.00  0.00    -0.200 F 
ENDBRANCH  45  59
BRANCH  46  70
ATOM     70  C   UNL A   1      42.615  26.238  27.892  1.00  0.00     0.064 A 
ATOM     71  C   UNL A   1      43.365  26.805  26.852  1.00  0.00     0.173 A 
ATOM     72  C   UNL A   1      42.299  24.875  27.803  1.00  0.00     0.173 A 
ATOM     73  F   UNL A   1      43.673  28.109  26.883  1.00  0.00    -0.203 F 
ATOM     74  C   UNL A   1      43.755  26.046  25.751  1.00  0.00     0.198 A 
ATOM     75  C   UNL A   1      42.715  24.111  26.715  1.00  0.00     0.198 A 
ATOM     76  F   UNL A   1      41.588  24.286  28.775  1.00  0.00    -0.203 F 
ATOM     77  F   UNL A   1      44.424  26.625  24.744  1.00  0.00    -0.200 F 
ATOM     78  C   UNL A   1      43.433  24.699  25.684  1.00  0.00     0.200 A 
ATOM     79  F   UNL A   1      42.412  22.807  26.661  1.00  0.00    -0.200 F 
ATOM     80  F   UNL A   1      43.805  23.970  24.624  1.00  0.00    -0.200 F 
ENDBRANCH  46  70
BRANCH  58  81
ATOM     81  C   UNL A   1      45.294  27.671  34.153  1.00  0.00     0.064 A 
ATOM     82  C   UNL A   1      46.504  28.370  34.051  1.00  0.00     0.173 A 
ATOM     83  C   UNL A   1      45.259  26.526  34.964  1.00  0.00     0.173 A 
ATOM     84  F   UNL A   1      46.590  29.460  33.275  1.00  0.00    -0.203 F 
ATOM     85  C   UNL A   1      47.644  27.926  34.717  1.00  0.00     0.198 A 
ATOM     86  C   UNL A   1      46.393  26.100  35.650  1.00  0.00     0.198 A 
ATOM     87  F   UNL A   1      44.123  25.826  35.097  1.00  0.00    -0.203 F 
ATOM     88  F   UNL A   1      48.802  28.584  34.570  1.00  0.00    -0.200 F 
ATOM     89  C   UNL A   1      47.585  26.797  35.520  1.00  0.00     0.200 A 
ATOM     90  F   UNL A   1      46.332  25.015  36.434  1.00  0.00    -0.200 F 
ATOM     91  F   UNL A   1      48.682  26.375  36.165  1.00  0.00    -0.200 F 
ENDBRANCH  58  81
ENDBRANCH  32  33
ENDBRANCH  24  27
ENDBRANCH  22  23
ENDBRANCH  21  22
ENDBRANCH  20  21
ENDBRANCH   3  20
TORSDOF 15
ENDMDL
