MODEL 1
REMARK VINA RESULT:     -11.6      0.000      0.000
REMARK SMILES Cc1ccc(NC(=O)C[C@@H](C(=O)NCCCNC(=O)c2ccc(-c3c4nc(c(-c5c(F)c(F)c(F)c(F)c5F)c5ccc([nH]5)c(-c5c(F)c(F)c(F)c(F)c5F)c5nc(c(-c6c(F)c(F)c(F)c(F)c6F)c6ccc3[nH]6)C=C5)C=C4)cc2)[NH+](C)C)cc1Cl
REMARK SMILES IDX 14 1 13 2 11 3 12 4 10 6 9 7 7 8 6 9 8 11 5 12 1 13 2 14
REMARK SMILES IDX 3 15 87 16 4 17 86 18 88 19 83 20 84 21 85 22 15 24 16 25
REMARK SMILES IDX 17 26 18 27 19 29 20 30 21 31 82 32 22 33 81 34 23 35 24 36
REMARK SMILES IDX 25 37 75 38 26 39 80 40 74 41 76 42 27 43 79 44 73 45 72 46
REMARK SMILES IDX 28 48 60 49 40 50 59 51 41 52 44 53 58 54 77 55 42 56 43 57
REMARK SMILES IDX 57 59 78 60 45 61 29 62 30 63 38 64 31 65 32 66 36 67 39 68
REMARK SMILES IDX 33 69 34 70 37 71 35 72 61 73 62 74 70 75 63 76 64 77 68 78
REMARK SMILES IDX 71 79 65 80 66 81 69 82 67 83 46 84 47 85 55 86 48 87 49 88
REMARK SMILES IDX 53 89 56 90 50 91 51 92 54 93 52 94
REMARK H PARENT 13 5 6 10 83 23 17 28 76 47 44 58
REMARK Flexibility Score: inf
ROOT
ATOM      1  C   UNL A   1      32.513  26.464  26.047  1.00  0.00     0.118 C 
ENDROOT
BRANCH   1   2
ATOM      2  N   UNL A   1      31.530  25.498  26.517  1.00  0.00    -0.351 N 
ATOM      3  C   UNL A   1      31.535  24.135  26.611  1.00  0.00     0.278 C 
ATOM      4  O   UNL A   1      30.595  23.647  27.245  1.00  0.00    -0.268 OA
ATOM      5  H   UNL A   1      30.692  25.911  26.829  1.00  0.00     0.163 HD
BRANCH   3   6
ATOM      6  C   UNL A   1      32.657  23.271  25.977  1.00  0.00     0.283 C 
BRANCH   6   7
ATOM      7  C   UNL A   1      32.525  23.030  24.459  1.00  0.00     0.175 C 
BRANCH   7   8
ATOM      8  C   UNL A   1      33.349  23.889  23.536  1.00  0.00     0.230 C 
ATOM      9  N   UNL A   1      34.711  23.975  23.591  1.00  0.00    -0.326 N 
ATOM     10  H   UNL A   1      35.091  24.607  22.939  1.00  0.00     0.169 HD
ATOM     11  O   UNL A   1      32.781  24.535  22.646  1.00  0.00    -0.274 OA
BRANCH   9  12
ATOM     12  C   UNL A   1      35.679  23.343  24.389  1.00  0.00     0.042 A 
ATOM     13  C   UNL A   1      39.253  22.017  26.417  1.00  0.00     0.046 C 
ATOM     14  C   UNL A   1      37.946  22.420  25.796  1.00  0.00    -0.032 A 
ATOM     15  C   UNL A   1      37.416  23.689  26.055  1.00  0.00     0.007 A 
ATOM     16  C   UNL A   1      37.250  21.577  24.921  1.00  0.00     0.046 A 
ATOM     17  C   UNL A   1      36.274  24.131  25.381  1.00  0.00     0.026 A 
ATOM     18  C   UNL A   1      36.121  22.034  24.228  1.00  0.00     0.047 A 
ATOM     19  Cl  UNL A   1      37.773  19.954  24.631  1.00  0.00    -0.084 Cl
ENDBRANCH   9  12
ENDBRANCH   7   8
ENDBRANCH   6   7
BRANCH   6  20
ATOM     20  N   UNL A   1      32.900  21.975  26.713  1.00  0.00    -0.329 N 
ATOM     21  C   UNL A   1      32.999  20.813  25.824  1.00  0.00     0.333 C 
ATOM     22  C   UNL A   1      34.046  21.976  27.626  1.00  0.00     0.333 C 
ATOM     23  H   UNL A   1      32.060  21.892  27.287  1.00  0.00     0.348 HD
ENDBRANCH   6  20
ENDBRANCH   3   6
ENDBRANCH   1   2
BRANCH   1  24
ATOM     24  C   UNL A   1      32.110  27.934  26.228  1.00  0.00     0.042 C 
BRANCH  24  25
ATOM     25  C   UNL A   1      33.095  28.992  25.731  1.00  0.00     0.118 C 
BRANCH  25  26
ATOM     26  N   UNL A   1      32.737  30.346  26.114  1.00  0.00    -0.352 N 
ATOM     27  C   UNL A   1      33.327  31.207  27.003  1.00  0.00     0.251 C 
ATOM     28  H   UNL A   1      31.941  30.706  25.658  1.00  0.00     0.163 HD
ATOM     29  O   UNL A   1      32.768  32.282  27.249  1.00  0.00    -0.269 OA
BRANCH  27  30
ATOM     30  C   UNL A   1      34.598  30.890  27.704  1.00  0.00     0.039 A 
ATOM     31  C   UNL A   1      34.690  29.663  28.371  1.00  0.00     0.014 A 
ATOM     32  C   UNL A   1      35.659  31.798  27.799  1.00  0.00     0.014 A 
ATOM     33  C   UNL A   1      35.844  29.329  29.089  1.00  0.00     0.010 A 
ATOM     34  C   UNL A   1      36.836  31.441  28.474  1.00  0.00     0.010 A 
ATOM     35  C   UNL A   1      36.939  30.205  29.134  1.00  0.00    -0.014 A 
BRANCH  35  36
ATOM     36  C   UNL A   1      38.176  29.827  29.874  1.00  0.00     0.031 A 
ATOM     37  C   UNL A   1      38.441  30.351  31.261  1.00  0.00     0.074 A 
ATOM     38  C   UNL A   1      39.078  29.006  29.299  1.00  0.00     0.049 A 
ATOM     39  N   UNL A   1      39.455  30.113  32.058  1.00  0.00    -0.248 NA
ATOM     40  C   UNL A   1      37.444  31.275  31.821  1.00  0.00     0.031 C 
ATOM     41  C   UNL A   1      38.970  28.446  27.952  1.00  0.00     0.029 A 
ATOM     42  N   UNL A   1      40.264  28.500  29.775  1.00  0.00    -0.354 N 
ATOM     43  C   UNL A   1      39.223  30.861  33.206  1.00  0.00     0.074 A 
ATOM     44  C   UNL A   1      37.992  31.593  32.986  1.00  0.00     0.031 C 
ATOM     45  C   UNL A   1      40.030  27.656  27.718  1.00  0.00     0.029 A 
ATOM     46  C   UNL A   1      40.908  27.674  28.886  1.00  0.00     0.049 A 
ATOM     47  H   UNL A   1      40.619  28.710  30.669  1.00  0.00     0.167 HD
ATOM     48  C   UNL A   1      39.953  30.917  34.346  1.00  0.00     0.037 A 
ATOM     49  C   UNL A   1      42.072  27.003  28.996  1.00  0.00     0.037 A 
ATOM     50  C   UNL A   1      41.163  30.173  34.586  1.00  0.00     0.049 A 
ATOM     51  C   UNL A   1      42.867  27.088  30.270  1.00  0.00     0.074 A 
ATOM     52  C   UNL A   1      41.933  30.124  35.736  1.00  0.00     0.029 A 
ATOM     53  N   UNL A   1      41.782  29.350  33.658  1.00  0.00    -0.354 N 
ATOM     54  N   UNL A   1      42.597  27.745  31.371  1.00  0.00    -0.248 NA
ATOM     55  C   UNL A   1      44.126  26.330  30.318  1.00  0.00     0.031 C 
ATOM     56  C   UNL A   1      43.040  29.305  35.492  1.00  0.00     0.029 A 
ATOM     57  C   UNL A   1      42.937  28.807  34.204  1.00  0.00     0.049 A 
ATOM     58  H   UNL A   1      41.451  29.175  32.747  1.00  0.00     0.167 HD
ATOM     59  C   UNL A   1      43.636  27.460  32.249  1.00  0.00     0.074 A 
ATOM     60  C   UNL A   1      44.535  26.560  31.558  1.00  0.00     0.031 C 
ATOM     61  C   UNL A   1      43.824  27.907  33.514  1.00  0.00     0.037 A 
BRANCH  48  62
ATOM     62  C   UNL A   1      39.464  31.822  35.440  1.00  0.00     0.064 A 
ATOM     63  C   UNL A   1      39.857  33.167  35.510  1.00  0.00     0.173 A 
ATOM     64  C   UNL A   1      38.551  31.353  36.396  1.00  0.00     0.173 A 
ATOM     65  F   UNL A   1      40.734  33.660  34.624  1.00  0.00    -0.203 F 
ATOM     66  C   UNL A   1      39.372  34.002  36.513  1.00  0.00     0.198 A 
ATOM     67  C   UNL A   1      38.048  32.199  37.383  1.00  0.00     0.198 A 
ATOM     68  F   UNL A   1      38.136  30.078  36.368  1.00  0.00    -0.203 F 
ATOM     69  F   UNL A   1      39.792  35.273  36.585  1.00  0.00    -0.200 F 
ATOM     70  C   UNL A   1      38.464  33.520  37.444  1.00  0.00     0.200 A 
ATOM     71  F   UNL A   1      37.160  31.735  38.273  1.00  0.00    -0.200 F 
ATOM     72  F   UNL A   1      37.993  34.329  38.404  1.00  0.00    -0.200 F 
ENDBRANCH  48  62
BRANCH  49  73
ATOM     73  C   UNL A   1      42.548  26.162  27.867  1.00  0.00     0.064 A 
ATOM     74  C   UNL A   1      43.331  26.711  26.843  1.00  0.00     0.173 A 
ATOM     75  C   UNL A   1      42.222  24.801  27.784  1.00  0.00     0.173 A 
ATOM     76  F   UNL A   1      43.646  28.015  26.866  1.00  0.00    -0.203 F 
ATOM     77  C   UNL A   1      43.759  25.933  25.769  1.00  0.00     0.198 A 
ATOM     78  C   UNL A   1      42.670  24.019  26.723  1.00  0.00     0.198 A 
ATOM     79  F   UNL A   1      41.473  24.231  28.740  1.00  0.00    -0.203 F 
ATOM     80  F   UNL A   1      44.471  26.491  24.781  1.00  0.00    -0.200 F 
ATOM     81  C   UNL A   1      43.433  24.587  25.713  1.00  0.00     0.200 A 
ATOM     82  F   UNL A   1      42.362  22.716  26.677  1.00  0.00    -0.200 F 
ATOM     83  F   UNL A   1      43.845  23.838  24.681  1.00  0.00    -0.200 F 
ENDBRANCH  49  73
BRANCH  61  84
ATOM     84  C   UNL A   1      45.034  27.408  34.250  1.00  0.00     0.064 A 
ATOM     85  C   UNL A   1      46.237  28.128  34.258  1.00  0.00     0.173 A 
ATOM     86  C   UNL A   1      44.976  26.215  34.985  1.00  0.00     0.173 A 
ATOM     87  F   UNL A   1      46.347  29.267  33.557  1.00  0.00    -0.203 F 
ATOM     88  C   UNL A   1      47.347  27.659  34.957  1.00  0.00     0.198 A 
ATOM     89  C   UNL A   1      46.080  25.762  35.704  1.00  0.00     0.198 A 
ATOM     90  F   UNL A   1      43.848  25.492  35.014  1.00  0.00    -0.203 F 
ATOM     91  F   UNL A   1      48.499  28.341  34.917  1.00  0.00    -0.200 F 
ATOM     92  C   UNL A   1      47.266  26.481  35.685  1.00  0.00     0.200 A 
ATOM     93  F   UNL A   1      45.997  24.629  36.414  1.00  0.00    -0.200 F 
ATOM     94  F   UNL A   1      48.332  26.034  36.361  1.00  0.00    -0.200 F 
ENDBRANCH  61  84
ENDBRANCH  35  36
ENDBRANCH  27  30
ENDBRANCH  25  26
ENDBRANCH  24  25
ENDBRANCH   1  24
TORSDOF 14
ENDMDL
MODEL 2
REMARK VINA RESULT:     -11.4      1.144      2.463
REMARK SMILES Cc1ccc(NC(=O)C[C@@H](C(=O)NCCCNC(=O)c2ccc(-c3c4nc(c(-c5c(F)c(F)c(F)c(F)c5F)c5ccc([nH]5)c(-c5c(F)c(F)c(F)c(F)c5F)c5nc(c(-c6c(F)c(F)c(F)c(F)c6F)c6ccc3[nH]6)C=C5)C=C4)cc2)[NH+](C)C)cc1Cl
REMARK SMILES IDX 14 1 13 2 11 3 12 4 10 6 9 7 7 8 6 9 8 11 5 12 1 13 2 14
REMARK SMILES IDX 3 15 87 16 4 17 86 18 88 19 83 20 84 21 85 22 15 24 16 25
REMARK SMILES IDX 17 26 18 27 19 29 20 30 21 31 82 32 22 33 81 34 23 35 24 36
REMARK SMILES IDX 25 37 75 38 26 39 80 40 74 41 76 42 27 43 79 44 73 45 72 46
REMARK SMILES IDX 28 48 60 49 40 50 59 51 41 52 44 53 58 54 77 55 42 56 43 57
REMARK SMILES IDX 57 59 78 60 45 61 29 62 30 63 38 64 31 65 32 66 36 67 39 68
REMARK SMILES IDX 33 69 34 70 37 71 35 72 61 73 62 74 70 75 63 76 64 77 68 78
REMARK SMILES IDX 71 79 65 80 66 81 69 82 67 83 46 84 47 85 55 86 48 87 49 88
REMARK SMILES IDX 53 89 56 90 50 91 51 92 54 93 52 94
REMARK H PARENT 13 5 6 10 83 23 17 28 76 47 44 58
REMARK Flexibility Score: inf
ROOT
ATOM      1  C   UNL A   1      32.601  28.619  22.985  1.00  0.00     0.118 C 
ENDROOT
BRANCH   1   2
ATOM      2  N   UNL A   1      33.042  27.722  21.926  1.00  0.00    -0.351 N 
ATOM      3  C   UNL A   1      32.977  26.367  21.766  1.00  0.00     0.278 C 
ATOM      4  O   UNL A   1      33.278  25.954  20.642  1.00  0.00    -0.268 OA
ATOM      5  H   UNL A   1      33.476  28.187  21.174  1.00  0.00     0.163 HD
BRANCH   3   6
ATOM      6  C   UNL A   1      32.535  25.423  22.915  1.00  0.00     0.283 C 
BRANCH   6   7
ATOM      7  C   UNL A   1      33.603  25.156  23.995  1.00  0.00     0.175 C 
BRANCH   7   8
ATOM      8  C   UNL A   1      33.133  24.952  25.413  1.00  0.00     0.230 C 
ATOM      9  N   UNL A   1      33.518  23.903  26.198  1.00  0.00    -0.326 N 
ATOM     10  H   UNL A   1      33.093  23.901  27.086  1.00  0.00     0.169 HD
ATOM     11  O   UNL A   1      32.383  25.792  25.925  1.00  0.00    -0.274 OA
BRANCH   9  12
ATOM     12  C   UNL A   1      34.399  22.827  25.995  1.00  0.00     0.042 A 
ATOM     13  C   UNL A   1      37.406  20.048  24.626  1.00  0.00     0.046 C 
ATOM     14  C   UNL A   1      36.359  20.954  25.206  1.00  0.00    -0.032 A 
ATOM     15  C   UNL A   1      36.732  22.187  25.752  1.00  0.00     0.007 A 
ATOM     16  C   UNL A   1      34.998  20.625  25.181  1.00  0.00     0.046 A 
ATOM     17  C   UNL A   1      35.760  23.100  26.173  1.00  0.00     0.026 A 
ATOM     18  C   UNL A   1      34.026  21.553  25.579  1.00  0.00     0.047 A 
ATOM     19  Cl  UNL A   1      34.458  19.079  24.627  1.00  0.00    -0.084 Cl
ENDBRANCH   9  12
ENDBRANCH   7   8
ENDBRANCH   6   7
BRANCH   6  20
ATOM     20  N   UNL A   1      31.924  24.131  22.425  1.00  0.00    -0.329 N 
ATOM     21  C   UNL A   1      32.876  23.017  22.390  1.00  0.00     0.333 C 
ATOM     22  C   UNL A   1      30.713  23.702  23.129  1.00  0.00     0.333 C 
ATOM     23  H   UNL A   1      31.648  24.372  21.473  1.00  0.00     0.348 HD
ENDBRANCH   6  20
ENDBRANCH   3   6
ENDBRANCH   1   2
BRANCH   1  24
ATOM     24  C   UNL A   1      33.685  28.996  24.005  1.00  0.00     0.042 C 
BRANCH  24  25
ATOM     25  C   UNL A   1      33.279  29.013  25.478  1.00  0.00     0.118 C 
BRANCH  25  26
ATOM     26  N   UNL A   1      32.834  30.314  25.945  1.00  0.00    -0.352 N 
ATOM     27  C   UNL A   1      33.352  31.139  26.911  1.00  0.00     0.251 C 
ATOM     28  H   UNL A   1      32.031  30.661  25.493  1.00  0.00     0.163 HD
ATOM     29  O   UNL A   1      32.725  32.160  27.216  1.00  0.00    -0.269 OA
BRANCH  27  30
ATOM     30  C   UNL A   1      34.620  30.842  27.625  1.00  0.00     0.039 A 
ATOM     31  C   UNL A   1      34.705  29.640  28.337  1.00  0.00     0.014 A 
ATOM     32  C   UNL A   1      35.685  31.747  27.688  1.00  0.00     0.014 A 
ATOM     33  C   UNL A   1      35.856  29.328  29.069  1.00  0.00     0.010 A 
ATOM     34  C   UNL A   1      36.859  31.410  28.378  1.00  0.00     0.010 A 
ATOM     35  C   UNL A   1      36.955  30.200  29.083  1.00  0.00    -0.014 A 
BRANCH  35  36
ATOM     36  C   UNL A   1      38.190  29.844  29.840  1.00  0.00     0.031 A 
ATOM     37  C   UNL A   1      38.441  30.395  31.218  1.00  0.00     0.074 A 
ATOM     38  C   UNL A   1      39.101  29.018  29.287  1.00  0.00     0.049 A 
ATOM     39  N   UNL A   1      39.451  30.180  32.027  1.00  0.00    -0.248 NA
ATOM     40  C   UNL A   1      37.435  31.323  31.754  1.00  0.00     0.031 C 
ATOM     41  C   UNL A   1      39.005  28.431  27.950  1.00  0.00     0.029 A 
ATOM     42  N   UNL A   1      40.287  28.528  29.781  1.00  0.00    -0.354 N 
ATOM     43  C   UNL A   1      39.205  30.947  33.158  1.00  0.00     0.074 A 
ATOM     44  C   UNL A   1      37.972  31.667  32.916  1.00  0.00     0.031 C 
ATOM     45  C   UNL A   1      40.072  27.644  27.738  1.00  0.00     0.029 A 
ATOM     46  C   UNL A   1      40.942  27.690  28.912  1.00  0.00     0.049 A 
ATOM     47  H   UNL A   1      40.633  28.757  30.673  1.00  0.00     0.167 HD
ATOM     48  C   UNL A   1      39.928  31.030  34.302  1.00  0.00     0.037 A 
ATOM     49  C   UNL A   1      42.109  27.028  29.043  1.00  0.00     0.037 A 
ATOM     50  C   UNL A   1      41.140  30.298  34.564  1.00  0.00     0.049 A 
ATOM     51  C   UNL A   1      42.895  27.143  30.321  1.00  0.00     0.074 A 
ATOM     52  C   UNL A   1      41.903  30.276  35.721  1.00  0.00     0.029 A 
ATOM     53  N   UNL A   1      41.771  29.461  33.657  1.00  0.00    -0.354 N 
ATOM     54  N   UNL A   1      42.613  27.819  31.407  1.00  0.00    -0.248 NA
ATOM     55  C   UNL A   1      44.158  26.394  30.392  1.00  0.00     0.031 C 
ATOM     56  C   UNL A   1      43.016  29.459  35.500  1.00  0.00     0.029 A 
ATOM     57  C   UNL A   1      42.926  28.936  34.221  1.00  0.00     0.049 A 
ATOM     58  H   UNL A   1      41.448  29.267  32.748  1.00  0.00     0.167 HD
ATOM     59  C   UNL A   1      43.647  27.557  32.297  1.00  0.00     0.074 A 
ATOM     60  C   UNL A   1      44.556  26.650  31.630  1.00  0.00     0.031 C 
ATOM     61  C   UNL A   1      43.823  28.029  33.555  1.00  0.00     0.037 A 
BRANCH  48  62
ATOM     62  C   UNL A   1      39.424  31.952  35.376  1.00  0.00     0.064 A 
ATOM     63  C   UNL A   1      38.571  31.496  36.392  1.00  0.00     0.173 A 
ATOM     64  C   UNL A   1      39.842  33.289  35.419  1.00  0.00     0.173 A 
ATOM     65  F   UNL A   1      38.137  30.227  36.390  1.00  0.00    -0.203 F 
ATOM     66  C   UNL A   1      38.135  32.354  37.398  1.00  0.00     0.198 A 
ATOM     67  C   UNL A   1      39.426  34.139  36.442  1.00  0.00     0.198 A 
ATOM     68  F   UNL A   1      40.666  33.773  34.477  1.00  0.00    -0.203 F 
ATOM     69  F   UNL A   1      37.289  31.908  38.337  1.00  0.00    -0.200 F 
ATOM     70  C   UNL A   1      38.568  33.672  37.427  1.00  0.00     0.200 A 
ATOM     71  F   UNL A   1      39.855  35.408  36.475  1.00  0.00    -0.200 F 
ATOM     72  F   UNL A   1      38.153  34.494  38.400  1.00  0.00    -0.200 F 
ENDBRANCH  48  62
BRANCH  49  73
ATOM     73  C   UNL A   1      42.599  26.170  27.933  1.00  0.00     0.064 A 
ATOM     74  C   UNL A   1      42.199  24.831  27.830  1.00  0.00     0.173 A 
ATOM     75  C   UNL A   1      43.481  26.667  26.963  1.00  0.00     0.173 A 
ATOM     76  F   UNL A   1      41.376  24.305  28.750  1.00  0.00    -0.203 F 
ATOM     77  C   UNL A   1      42.676  24.015  26.805  1.00  0.00     0.198 A 
ATOM     78  C   UNL A   1      43.938  25.857  25.926  1.00  0.00     0.198 A 
ATOM     79  F   UNL A   1      43.894  27.942  27.021  1.00  0.00    -0.203 F 
ATOM     80  F   UNL A   1      42.311  22.727  26.753  1.00  0.00    -0.200 F 
ATOM     81  C   UNL A   1      43.539  24.530  25.852  1.00  0.00     0.200 A 
ATOM     82  F   UNL A   1      44.765  26.361  25.000  1.00  0.00    -0.200 F 
ATOM     83  F   UNL A   1      43.997  23.746  24.866  1.00  0.00    -0.200 F 
ENDBRANCH  49  73
BRANCH  61  84
ATOM     84  C   UNL A   1      45.030  27.552  34.309  1.00  0.00     0.064 A 
ATOM     85  C   UNL A   1      46.230  28.279  34.311  1.00  0.00     0.173 A 
ATOM     86  C   UNL A   1      44.975  26.372  35.066  1.00  0.00     0.173 A 
ATOM     87  F   UNL A   1      46.338  29.405  33.590  1.00  0.00    -0.203 F 
ATOM     88  C   UNL A   1      47.337  27.831  35.027  1.00  0.00     0.198 A 
ATOM     89  C   UNL A   1      46.077  25.941  35.802  1.00  0.00     0.198 A 
ATOM     90  F   UNL A   1      43.851  25.643  35.101  1.00  0.00    -0.203 F 
ATOM     91  F   UNL A   1      48.485  28.519  34.982  1.00  0.00    -0.200 F 
ATOM     92  C   UNL A   1      47.258  26.666  35.777  1.00  0.00     0.200 A 
ATOM     93  F   UNL A   1      45.996  24.820  36.532  1.00  0.00    -0.200 F 
ATOM     94  F   UNL A   1      48.322  26.240  36.468  1.00  0.00    -0.200 F 
ENDBRANCH  61  84
ENDBRANCH  35  36
ENDBRANCH  27  30
ENDBRANCH  25  26
ENDBRANCH  24  25
ENDBRANCH   1  24
TORSDOF 14
ENDMDL
MODEL 3
REMARK VINA RESULT:     -11.3      2.147      3.880
REMARK SMILES Cc1ccc(NC(=O)C[C@@H](C(=O)NCCCNC(=O)c2ccc(-c3c4nc(c(-c5c(F)c(F)c(F)c(F)c5F)c5ccc([nH]5)c(-c5c(F)c(F)c(F)c(F)c5F)c5nc(c(-c6c(F)c(F)c(F)c(F)c6F)c6ccc3[nH]6)C=C5)C=C4)cc2)[NH+](C)C)cc1Cl
REMARK SMILES IDX 14 1 13 2 11 3 12 4 10 6 9 7 7 8 6 9 8 11 5 12 1 13 2 14
REMARK SMILES IDX 3 15 87 16 4 17 86 18 88 19 83 20 84 21 85 22 15 24 16 25
REMARK SMILES IDX 17 26 18 27 19 29 20 30 21 31 82 32 22 33 81 34 23 35 24 36
REMARK SMILES IDX 25 37 75 38 26 39 80 40 74 41 76 42 27 43 79 44 73 45 72 46
REMARK SMILES IDX 28 48 60 49 40 50 59 51 41 52 44 53 58 54 77 55 42 56 43 57
REMARK SMILES IDX 57 59 78 60 45 61 29 62 30 63 38 64 31 65 32 66 36 67 39 68
REMARK SMILES IDX 33 69 34 70 37 71 35 72 61 73 62 74 70 75 63 76 64 77 68 78
REMARK SMILES IDX 71 79 65 80 66 81 69 82 67 83 46 84 47 85 55 86 48 87 49 88
REMARK SMILES IDX 53 89 56 90 50 91 51 92 54 93 52 94
REMARK H PARENT 13 5 6 10 83 23 17 28 76 47 44 58
REMARK Flexibility Score: inf
ROOT
ATOM      1  C   UNL A   1      31.415  30.234  26.738  1.00  0.00     0.118 C 
ENDROOT
BRANCH   1   2
ATOM      2  N   UNL A   1      32.201  29.581  25.701  1.00  0.00    -0.351 N 
ATOM      3  C   UNL A   1      31.897  29.125  24.450  1.00  0.00     0.278 C 
ATOM      4  O   UNL A   1      32.865  28.796  23.759  1.00  0.00    -0.268 OA
ATOM      5  H   UNL A   1      33.142  29.438  25.953  1.00  0.00     0.163 HD
BRANCH   3   6
ATOM      6  C   UNL A   1      30.435  29.049  23.935  1.00  0.00     0.283 C 
BRANCH   6   7
ATOM      7  C   UNL A   1      30.068  27.754  23.183  1.00  0.00     0.175 C 
BRANCH   7   8
ATOM      8  C   UNL A   1      29.151  26.776  23.872  1.00  0.00     0.230 C 
ATOM      9  N   UNL A   1      29.586  25.668  24.542  1.00  0.00    -0.326 N 
ATOM     10  H   UNL A   1      28.855  25.117  24.906  1.00  0.00     0.169 HD
ATOM     11  O   UNL A   1      27.932  26.992  23.874  1.00  0.00    -0.274 OA
BRANCH   9  12
ATOM     12  C   UNL A   1      30.864  25.155  24.816  1.00  0.00     0.042 A 
ATOM     13  C   UNL A   1      35.087  24.451  25.379  1.00  0.00     0.046 C 
ATOM     14  C   UNL A   1      33.598  24.599  25.251  1.00  0.00    -0.032 A 
ATOM     15  C   UNL A   1      32.916  25.501  26.074  1.00  0.00     0.007 A 
ATOM     16  C   UNL A   1      32.862  23.887  24.295  1.00  0.00     0.046 A 
ATOM     17  C   UNL A   1      31.554  25.750  25.878  1.00  0.00     0.026 A 
ATOM     18  C   UNL A   1      31.504  24.160  24.085  1.00  0.00     0.047 A 
ATOM     19  Cl  UNL A   1      33.604  22.673  23.313  1.00  0.00    -0.084 Cl
ENDBRANCH   9  12
ENDBRANCH   7   8
ENDBRANCH   6   7
BRANCH   6  20
ATOM     20  N   UNL A   1      30.013  30.270  23.151  1.00  0.00    -0.329 N 
ATOM     21  C   UNL A   1      29.651  29.970  21.763  1.00  0.00     0.333 C 
ATOM     22  C   UNL A   1      28.948  31.070  23.760  1.00  0.00     0.333 C 
ATOM     23  H   UNL A   1      30.861  30.837  23.165  1.00  0.00     0.348 HD
ENDBRANCH   6  20
ENDBRANCH   3   6
ENDBRANCH   1   2
BRANCH   1  24
ATOM     24  C   UNL A   1      31.320  31.761  26.609  1.00  0.00     0.042 C 
BRANCH  24  25
ATOM     25  C   UNL A   1      32.628  32.548  26.675  1.00  0.00     0.118 C 
BRANCH  25  26
ATOM     26  N   UNL A   1      32.493  33.851  27.302  1.00  0.00    -0.352 N 
ATOM     27  C   UNL A   1      33.158  34.400  28.369  1.00  0.00     0.251 C 
ATOM     28  H   UNL A   1      31.815  34.436  26.893  1.00  0.00     0.163 HD
ATOM     29  O   UNL A   1      32.785  35.498  28.798  1.00  0.00    -0.269 OA
BRANCH  27  30
ATOM     30  C   UNL A   1      34.290  33.718  29.046  1.00  0.00     0.039 A 
ATOM     31  C   UNL A   1      35.582  34.203  28.813  1.00  0.00     0.014 A 
ATOM     32  C   UNL A   1      34.125  32.567  29.826  1.00  0.00     0.014 A 
ATOM     33  C   UNL A   1      36.692  33.572  29.385  1.00  0.00     0.010 A 
ATOM     34  C   UNL A   1      35.234  31.967  30.442  1.00  0.00     0.010 A 
ATOM     35  C   UNL A   1      36.531  32.458  30.222  1.00  0.00    -0.014 A 
BRANCH  35  36
ATOM     36  C   UNL A   1      37.717  31.812  30.853  1.00  0.00     0.031 A 
ATOM     37  C   UNL A   1      38.152  32.182  32.247  1.00  0.00     0.074 A 
ATOM     38  C   UNL A   1      38.419  30.884  30.171  1.00  0.00     0.049 A 
ATOM     39  N   UNL A   1      39.149  31.711  32.958  1.00  0.00    -0.248 NA
ATOM     40  C   UNL A   1      37.376  33.229  32.927  1.00  0.00     0.031 C 
ATOM     41  C   UNL A   1      38.132  30.447  28.805  1.00  0.00     0.029 A 
ATOM     42  N   UNL A   1      39.516  30.141  30.535  1.00  0.00    -0.354 N 
ATOM     43  C   UNL A   1      39.123  32.406  34.159  1.00  0.00     0.074 A 
ATOM     44  C   UNL A   1      38.039  33.362  34.068  1.00  0.00     0.031 C 
ATOM     45  C   UNL A   1      39.014  29.497  28.453  1.00  0.00     0.029 A 
ATOM     46  C   UNL A   1      39.945  29.276  29.557  1.00  0.00     0.049 A 
ATOM     47  H   UNL A   1      39.953  30.220  31.413  1.00  0.00     0.167 HD
ATOM     48  C   UNL A   1      39.915  32.251  35.248  1.00  0.00     0.037 A 
ATOM     49  C   UNL A   1      40.970  28.400  29.548  1.00  0.00     0.037 A 
ATOM     50  C   UNL A   1      40.979  31.286  35.361  1.00  0.00     0.049 A 
ATOM     51  C   UNL A   1      41.838  28.252  30.768  1.00  0.00     0.074 A 
ATOM     52  C   UNL A   1      41.791  31.019  36.451  1.00  0.00     0.029 A 
ATOM     53  N   UNL A   1      41.383  30.431  34.348  1.00  0.00    -0.354 N 
ATOM     54  N   UNL A   1      41.757  28.869  31.921  1.00  0.00    -0.248 NA
ATOM     55  C   UNL A   1      42.937  27.278  30.685  1.00  0.00     0.031 C 
ATOM     56  C   UNL A   1      42.713  30.033  36.085  1.00  0.00     0.029 A 
ATOM     57  C   UNL A   1      42.447  29.653  34.781  1.00  0.00     0.049 A 
ATOM     58  H   UNL A   1      40.974  30.383  33.453  1.00  0.00     0.167 HD
ATOM     59  C   UNL A   1      42.773  28.341  32.707  1.00  0.00     0.074 A 
ATOM     60  C   UNL A   1      43.450  27.344  31.906  1.00  0.00     0.031 C 
ATOM     61  C   UNL A   1      43.112  28.658  33.981  1.00  0.00     0.037 A 
BRANCH  48  62
ATOM     62  C   UNL A   1      39.664  33.151  36.424  1.00  0.00     0.064 A 
ATOM     63  C   UNL A   1      40.319  34.385  36.557  1.00  0.00     0.173 A 
ATOM     64  C   UNL A   1      38.719  32.800  37.400  1.00  0.00     0.173 A 
ATOM     65  F   UNL A   1      41.237  34.761  35.654  1.00  0.00    -0.203 F 
ATOM     66  C   UNL A   1      40.054  35.222  37.636  1.00  0.00     0.198 A 
ATOM     67  C   UNL A   1      38.438  33.653  38.465  1.00  0.00     0.198 A 
ATOM     68  F   UNL A   1      38.058  31.636  37.315  1.00  0.00    -0.203 F 
ATOM     69  F   UNL A   1      40.720  36.378  37.764  1.00  0.00    -0.200 F 
ATOM     70  C   UNL A   1      39.110  34.860  38.585  1.00  0.00     0.200 A 
ATOM     71  F   UNL A   1      37.516  33.306  39.374  1.00  0.00    -0.200 F 
ATOM     72  F   UNL A   1      38.852  35.672  39.620  1.00  0.00    -0.200 F 
ENDBRANCH  48  62
BRANCH  49  73
ATOM     73  C   UNL A   1      41.218  27.568  28.342  1.00  0.00     0.064 A 
ATOM     74  C   UNL A   1      40.581  26.331  28.179  1.00  0.00     0.173 A 
ATOM     75  C   UNL A   1      42.103  27.987  27.338  1.00  0.00     0.173 A 
ATOM     76  F   UNL A   1      39.746  25.878  29.126  1.00  0.00    -0.203 F 
ATOM     77  C   UNL A   1      40.830  25.536  27.061  1.00  0.00     0.198 A 
ATOM     78  C   UNL A   1      42.333  27.203  26.211  1.00  0.00     0.198 A 
ATOM     79  F   UNL A   1      42.739  29.163  27.451  1.00  0.00    -0.203 F 
ATOM     80  F   UNL A   1      40.240  24.339  26.949  1.00  0.00    -0.200 F 
ATOM     81  C   UNL A   1      41.701  25.975  26.077  1.00  0.00     0.200 A 
ATOM     82  F   UNL A   1      43.168  27.635  25.256  1.00  0.00    -0.200 F 
ATOM     83  F   UNL A   1      41.940  25.211  25.002  1.00  0.00    -0.200 F 
ENDBRANCH  49  73
BRANCH  61  84
ATOM     84  C   UNL A   1      44.249  27.899  34.602  1.00  0.00     0.064 A 
ATOM     85  C   UNL A   1      44.042  26.684  35.270  1.00  0.00     0.173 A 
ATOM     86  C   UNL A   1      45.564  28.377  34.497  1.00  0.00     0.173 A 
ATOM     87  F   UNL A   1      42.801  26.194  35.411  1.00  0.00    -0.203 F 
ATOM     88  C   UNL A   1      45.108  25.984  35.830  1.00  0.00     0.198 A 
ATOM     89  C   UNL A   1      46.631  27.661  35.036  1.00  0.00     0.198 A 
ATOM     90  F   UNL A   1      45.816  29.531  33.865  1.00  0.00    -0.203 F 
ATOM     91  F   UNL A   1      44.883  24.846  36.500  1.00  0.00    -0.200 F 
ATOM     92  C   UNL A   1      46.402  26.469  35.707  1.00  0.00     0.200 A 
ATOM     93  F   UNL A   1      47.881  28.127  34.908  1.00  0.00    -0.200 F 
ATOM     94  F   UNL A   1      47.426  25.793  36.241  1.00  0.00    -0.200 F 
ENDBRANCH  61  84
ENDBRANCH  35  36
ENDBRANCH  27  30
ENDBRANCH  25  26
ENDBRANCH  24  25
ENDBRANCH   1  24
TORSDOF 14
ENDMDL
