MODEL 1
REMARK VINA RESULT:     -13.9      0.000      0.000
REMARK SMILES Cc1ncc(CO)c([C@H]2[NH2+][C@@H](C(=O)NCCCNC(=O)c3ccc(-c4c5nc(c(-c6c(F)c(F)c(F)c(F)c6F)c6ccc([nH]6)c(-c6c(F)c(F)c(F)c(F)c6F)c6nc(c(-c7c(F)c(F)c(F)c(F)c7F)c7ccc4[nH]7)C=C6)C=C5)cc3)Cc3[nH]cnc32)c1O
REMARK SMILES IDX 15 1 14 2 12 3 13 4 11 6 9 7 10 8 89 9 85 12 88 13 84 14
REMARK SMILES IDX 86 15 87 16 8 18 1 19 2 20 3 21 90 22 4 23 5 24 91 25 6 27
REMARK SMILES IDX 7 28 16 30 17 31 18 32 19 33 20 35 21 36 22 37 83 38 23 39
REMARK SMILES IDX 82 40 24 41 25 42 26 43 76 44 27 45 81 46 75 47 77 48 28 49
REMARK SMILES IDX 80 50 74 51 73 52 29 54 61 55 41 56 60 57 42 58 45 59 59 60
REMARK SMILES IDX 78 61 43 62 44 63 58 65 79 66 46 67 30 68 31 69 39 70 32 71
REMARK SMILES IDX 33 72 37 73 40 74 34 75 35 76 38 77 36 78 62 79 63 80 71 81
REMARK SMILES IDX 64 82 65 83 69 84 72 85 66 86 67 87 70 88 68 89 47 90 48 91
REMARK SMILES IDX 56 92 49 93 50 94 54 95 57 96 51 97 52 98 55 99 53 100
REMARK H PARENT 14 5 10 10 10 11 86 17 91 26 7 29 18 34 77 53 45 64
REMARK Flexibility Score: inf
ROOT
ATOM      1  C   UNL A   1      36.376  20.421  25.134  1.00  0.00     0.118 C 
ENDROOT
BRANCH   1   2
ATOM      2  N   UNL A   1      36.792  21.812  25.289  1.00  0.00    -0.351 N 
ATOM      3  C   UNL A   1      36.041  22.908  25.618  1.00  0.00     0.278 C 
ATOM      4  O   UNL A   1      36.571  24.015  25.635  1.00  0.00    -0.268 OA
ATOM      5  H   UNL A   1      37.749  21.987  25.136  1.00  0.00     0.163 HD
BRANCH   3   6
ATOM      6  C   UNL A   1      34.571  22.664  25.887  1.00  0.00     0.279 C 
ATOM      7  C   UNL A   1      32.689  21.385  25.236  1.00  0.00     0.270 C 
ATOM      8  N   UNL A   1      33.893  22.073  24.715  1.00  0.00    -0.324 N 
ATOM      9  C   UNL A   1      31.765  22.460  25.758  1.00  0.00     0.124 A 
ATOM     10  H   UNL A   1      33.626  22.805  24.056  1.00  0.00     0.347 HD
ATOM     11  H   UNL A   1      34.506  21.426  24.219  1.00  0.00     0.347 HD
ATOM     12  C   UNL A   1      32.351  23.574  26.379  1.00  0.00     0.051 A 
ATOM     13  N   UNL A   1      30.448  22.385  26.139  1.00  0.00    -0.235 NA
ATOM     14  C   UNL A   1      33.815  23.905  26.391  1.00  0.00     0.131 C 
ATOM     15  N   UNL A   1      31.375  24.189  27.095  1.00  0.00    -0.348 N 
ATOM     16  C   UNL A   1      30.240  23.444  26.907  1.00  0.00     0.197 A 
ATOM     17  H   UNL A   1      31.464  25.004  27.639  1.00  0.00     0.167 HD
BRANCH   7  18
ATOM     18  C   UNL A   1      32.483  20.114  24.455  1.00  0.00     0.066 A 
ATOM     19  C   UNL A   1      33.251  16.448  25.428  1.00  0.00     0.071 C 
ATOM     20  C   UNL A   1      32.857  17.659  24.625  1.00  0.00     0.079 A 
ATOM     21  N   UNL A   1      32.657  17.498  23.307  1.00  0.00    -0.257 NA
ATOM     22  C   UNL A   1      32.751  18.916  25.217  1.00  0.00     0.146 A 
ATOM     23  C   UNL A   1      32.397  18.620  22.584  1.00  0.00     0.118 A 
ATOM     24  C   UNL A   1      32.320  19.938  23.079  1.00  0.00     0.009 A 
BRANCH  22  25
ATOM     25  O   UNL A   1      33.062  18.949  26.563  1.00  0.00    -0.505 OA
ATOM     26  H   UNL A   1      33.946  19.098  26.837  1.00  0.00     0.293 HD
ENDBRANCH  22  25
BRANCH  24  27
ATOM     27  C   UNL A   1      32.115  21.035  22.080  1.00  0.00     0.194 C 
BRANCH  27  28
ATOM     28  O   UNL A   1      31.362  20.545  20.974  1.00  0.00    -0.392 OA
ATOM     29  H   UNL A   1      31.265  19.582  21.049  1.00  0.00     0.211 HD
ENDBRANCH  27  28
ENDBRANCH  24  27
ENDBRANCH   7  18
ENDBRANCH   3   6
ENDBRANCH   1   2
BRANCH   1  30
ATOM     30  C   UNL A   1      37.565  19.479  25.004  1.00  0.00     0.042 C 
BRANCH  30  31
ATOM     31  C   UNL A   1      38.828  20.160  25.470  1.00  0.00     0.118 C 
BRANCH  31  32
ATOM     32  N   UNL A   1      39.906  19.223  25.810  1.00  0.00    -0.352 N 
ATOM     33  C   UNL A   1      41.266  19.506  25.980  1.00  0.00     0.251 C 
ATOM     34  H   UNL A   1      39.640  18.282  25.933  1.00  0.00     0.163 HD
ATOM     35  O   UNL A   1      42.101  18.652  25.970  1.00  0.00    -0.269 OA
BRANCH  33  36
ATOM     36  C   UNL A   1      41.581  20.911  26.341  1.00  0.00     0.039 A 
ATOM     37  C   UNL A   1      42.149  21.909  25.551  1.00  0.00     0.014 A 
ATOM     38  C   UNL A   1      41.475  21.194  27.681  1.00  0.00     0.014 A 
ATOM     39  C   UNL A   1      42.650  23.057  26.249  1.00  0.00     0.010 A 
ATOM     40  C   UNL A   1      41.298  22.480  28.010  1.00  0.00     0.010 A 
ATOM     41  C   UNL A   1      42.407  23.178  27.654  1.00  0.00    -0.014 A 
BRANCH  41  42
ATOM     42  C   UNL A   1      42.550  24.327  28.604  1.00  0.00     0.031 A 
ATOM     43  C   UNL A   1      41.340  25.231  28.206  1.00  0.00     0.074 A 
ATOM     44  C   UNL A   1      43.436  24.421  29.700  1.00  0.00     0.049 A 
ATOM     45  N   UNL A   1      41.426  26.188  27.332  1.00  0.00    -0.248 NA
ATOM     46  C   UNL A   1      39.885  24.849  28.348  1.00  0.00     0.031 C 
ATOM     47  C   UNL A   1      44.550  23.551  30.249  1.00  0.00     0.029 A 
ATOM     48  N   UNL A   1      43.602  25.479  30.618  1.00  0.00    -0.354 N 
ATOM     49  C   UNL A   1      40.164  26.784  27.263  1.00  0.00     0.074 A 
ATOM     50  C   UNL A   1      39.238  25.768  27.616  1.00  0.00     0.031 C 
ATOM     51  C   UNL A   1      44.977  23.961  31.494  1.00  0.00     0.029 A 
ATOM     52  C   UNL A   1      44.320  25.204  31.849  1.00  0.00     0.049 A 
ATOM     53  H   UNL A   1      43.241  26.375  30.429  1.00  0.00     0.167 HD
ATOM     54  C   UNL A   1      40.081  28.139  27.379  1.00  0.00     0.037 A 
ATOM     55  C   UNL A   1      44.586  26.065  32.920  1.00  0.00     0.037 A 
ATOM     56  C   UNL A   1      41.407  28.677  27.173  1.00  0.00     0.049 A 
ATOM     57  C   UNL A   1      44.289  27.427  32.394  1.00  0.00     0.074 A 
ATOM     58  C   UNL A   1      42.288  28.702  26.115  1.00  0.00     0.029 A 
ATOM     59  N   UNL A   1      42.155  28.654  28.319  1.00  0.00    -0.354 N 
ATOM     60  N   UNL A   1      45.018  27.947  31.440  1.00  0.00    -0.248 NA
ATOM     61  C   UNL A   1      42.872  27.778  32.422  1.00  0.00     0.031 C 
ATOM     62  C   UNL A   1      43.572  28.411  26.673  1.00  0.00     0.029 A 
ATOM     63  C   UNL A   1      43.474  28.426  28.061  1.00  0.00     0.049 A 
ATOM     64  H   UNL A   1      41.785  28.786  29.222  1.00  0.00     0.167 HD
ATOM     65  C   UNL A   1      44.092  28.267  30.462  1.00  0.00     0.074 A 
ATOM     66  C   UNL A   1      42.775  28.120  31.131  1.00  0.00     0.031 C 
ATOM     67  C   UNL A   1      44.420  28.228  29.130  1.00  0.00     0.037 A 
BRANCH  54  68
ATOM     68  C   UNL A   1      39.061  28.897  28.215  1.00  0.00     0.064 A 
ATOM     69  C   UNL A   1      38.934  28.537  29.573  1.00  0.00     0.173 A 
ATOM     70  C   UNL A   1      38.022  29.715  27.713  1.00  0.00     0.173 A 
ATOM     71  F   UNL A   1      39.854  27.751  30.152  1.00  0.00    -0.203 F 
ATOM     72  C   UNL A   1      37.831  28.912  30.348  1.00  0.00     0.198 A 
ATOM     73  C   UNL A   1      36.946  30.133  28.506  1.00  0.00     0.198 A 
ATOM     74  F   UNL A   1      37.947  30.066  26.424  1.00  0.00    -0.203 F 
ATOM     75  F   UNL A   1      37.710  28.449  31.599  1.00  0.00    -0.200 F 
ATOM     76  C   UNL A   1      36.839  29.712  29.815  1.00  0.00     0.200 A 
ATOM     77  F   UNL A   1      35.982  30.893  27.968  1.00  0.00    -0.200 F 
ATOM     78  F   UNL A   1      35.770  30.050  30.549  1.00  0.00    -0.200 F 
ENDBRANCH  54  68
BRANCH  55  79
ATOM     79  C   UNL A   1      44.533  25.818  34.435  1.00  0.00     0.064 A 
ATOM     80  C   UNL A   1      43.390  25.651  35.279  1.00  0.00     0.173 A 
ATOM     81  C   UNL A   1      45.741  25.439  35.039  1.00  0.00     0.173 A 
ATOM     82  F   UNL A   1      42.148  25.886  34.821  1.00  0.00    -0.203 F 
ATOM     83  C   UNL A   1      43.491  25.187  36.623  1.00  0.00     0.198 A 
ATOM     84  C   UNL A   1      45.838  24.962  36.353  1.00  0.00     0.198 A 
ATOM     85  F   UNL A   1      46.864  25.436  34.312  1.00  0.00    -0.203 F 
ATOM     86  F   UNL A   1      42.398  25.040  37.393  1.00  0.00    -0.200 F 
ATOM     87  C   UNL A   1      44.721  24.837  37.151  1.00  0.00     0.200 A 
ATOM     88  F   UNL A   1      47.034  24.575  36.816  1.00  0.00    -0.200 F 
ATOM     89  F   UNL A   1      44.832  24.351  38.398  1.00  0.00    -0.200 F 
ENDBRANCH  55  79
BRANCH  67  90
ATOM     90  C   UNL A   1      45.858  28.010  28.713  1.00  0.00     0.064 A 
ATOM     91  C   UNL A   1      46.429  26.821  28.214  1.00  0.00     0.173 A 
ATOM     92  C   UNL A   1      46.649  29.159  28.635  1.00  0.00     0.173 A 
ATOM     93  F   UNL A   1      45.702  25.708  28.080  1.00  0.00    -0.203 F 
ATOM     94  C   UNL A   1      47.751  26.777  27.751  1.00  0.00     0.198 A 
ATOM     95  C   UNL A   1      47.943  29.128  28.126  1.00  0.00     0.198 A 
ATOM     96  F   UNL A   1      46.125  30.344  28.981  1.00  0.00    -0.203 F 
ATOM     97  F   UNL A   1      48.278  25.626  27.302  1.00  0.00    -0.200 F 
ATOM     98  C   UNL A   1      48.508  27.934  27.711  1.00  0.00     0.200 A 
ATOM     99  F   UNL A   1      48.626  30.272  28.001  1.00  0.00    -0.200 F 
ATOM    100  F   UNL A   1      49.762  27.911  27.241  1.00  0.00    -0.200 F 
ENDBRANCH  67  90
ENDBRANCH  41  42
ENDBRANCH  33  36
ENDBRANCH  31  32
ENDBRANCH  30  31
ENDBRANCH   1  30
TORSDOF 14
ENDMDL
MODEL 2
REMARK VINA RESULT:     -13.7      4.681      9.110
REMARK SMILES Cc1ncc(CO)c([C@H]2[NH2+][C@@H](C(=O)NCCCNC(=O)c3ccc(-c4c5nc(c(-c6c(F)c(F)c(F)c(F)c6F)c6ccc([nH]6)c(-c6c(F)c(F)c(F)c(F)c6F)c6nc(c(-c7c(F)c(F)c(F)c(F)c7F)c7ccc4[nH]7)C=C6)C=C5)cc3)Cc3[nH]cnc32)c1O
REMARK SMILES IDX 15 1 14 2 12 3 13 4 11 6 9 7 10 8 89 9 85 12 88 13 84 14
REMARK SMILES IDX 86 15 87 16 8 18 1 19 2 20 3 21 90 22 4 23 5 24 91 25 6 27
REMARK SMILES IDX 7 28 16 30 17 31 18 32 19 33 20 35 21 36 22 37 83 38 23 39
REMARK SMILES IDX 82 40 24 41 25 42 26 43 76 44 27 45 81 46 75 47 77 48 28 49
REMARK SMILES IDX 80 50 74 51 73 52 29 54 61 55 41 56 60 57 42 58 45 59 59 60
REMARK SMILES IDX 78 61 43 62 44 63 58 65 79 66 46 67 30 68 31 69 39 70 32 71
REMARK SMILES IDX 33 72 37 73 40 74 34 75 35 76 38 77 36 78 62 79 63 80 71 81
REMARK SMILES IDX 64 82 65 83 69 84 72 85 66 86 67 87 70 88 68 89 47 90 48 91
REMARK SMILES IDX 56 92 49 93 50 94 54 95 57 96 51 97 52 98 55 99 53 100
REMARK H PARENT 14 5 10 10 10 11 86 17 91 26 7 29 18 34 77 53 45 64
REMARK Flexibility Score: inf
ROOT
ATOM      1  C   UNL A   1      34.711  28.992  26.912  1.00  0.00     0.118 C 
ENDROOT
BRANCH   1   2
ATOM      2  N   UNL A   1      33.469  28.658  27.604  1.00  0.00    -0.351 N 
ATOM      3  C   UNL A   1      32.364  28.005  27.130  1.00  0.00     0.278 C 
ATOM      4  O   UNL A   1      31.384  27.876  27.858  1.00  0.00    -0.268 OA
ATOM      5  H   UNL A   1      33.420  28.941  28.545  1.00  0.00     0.163 HD
BRANCH   3   6
ATOM      6  C   UNL A   1      32.424  27.531  25.692  1.00  0.00     0.279 C 
ATOM      7  C   UNL A   1      31.179  27.320  23.691  1.00  0.00     0.270 C 
ATOM      8  N   UNL A   1      31.079  27.220  25.166  1.00  0.00    -0.324 N 
ATOM      9  C   UNL A   1      32.079  26.194  23.237  1.00  0.00     0.124 A 
ATOM     10  H   UNL A   1      30.803  26.277  25.439  1.00  0.00     0.347 HD
ATOM     11  H   UNL A   1      30.378  27.862  25.535  1.00  0.00     0.347 HD
ATOM     12  C   UNL A   1      33.159  25.854  24.066  1.00  0.00     0.051 A 
ATOM     13  N   UNL A   1      32.320  25.709  21.976  1.00  0.00    -0.235 NA
ATOM     14  C   UNL A   1      33.389  26.356  25.462  1.00  0.00     0.131 C 
ATOM     15  N   UNL A   1      34.024  25.128  23.313  1.00  0.00    -0.348 N 
ATOM     16  C   UNL A   1      33.467  25.054  22.062  1.00  0.00     0.197 A 
ATOM     17  H   UNL A   1      34.878  24.736  23.605  1.00  0.00     0.167 HD
BRANCH   7  18
ATOM     18  C   UNL A   1      29.904  27.922  23.161  1.00  0.00     0.066 A 
ATOM     19  C   UNL A   1      29.288  31.351  21.477  1.00  0.00     0.071 C 
ATOM     20  C   UNL A   1      29.043  30.004  22.104  1.00  0.00     0.079 A 
ATOM     21  N   UNL A   1      27.771  29.654  22.357  1.00  0.00    -0.257 NA
ATOM     22  C   UNL A   1      30.100  29.169  22.458  1.00  0.00     0.146 A 
ATOM     23  C   UNL A   1      27.578  28.477  23.011  1.00  0.00     0.118 A 
ATOM     24  C   UNL A   1      28.579  27.590  23.455  1.00  0.00     0.009 A 
BRANCH  22  25
ATOM     25  O   UNL A   1      31.357  29.691  22.214  1.00  0.00    -0.505 OA
ATOM     26  H   UNL A   1      32.106  29.329  22.645  1.00  0.00     0.293 HD
ENDBRANCH  22  25
BRANCH  24  27
ATOM     27  C   UNL A   1      28.137  26.394  24.241  1.00  0.00     0.194 C 
BRANCH  27  28
ATOM     28  O   UNL A   1      26.714  26.318  24.243  1.00  0.00    -0.392 OA
ATOM     29  H   UNL A   1      26.344  27.179  23.993  1.00  0.00     0.211 HD
ENDBRANCH  27  28
ENDBRANCH  24  27
ENDBRANCH   7  18
ENDBRANCH   3   6
ENDBRANCH   1   2
BRANCH   1  30
ATOM     30  C   UNL A   1      35.477  30.103  27.619  1.00  0.00     0.042 C 
BRANCH  30  31
ATOM     31  C   UNL A   1      36.891  29.664  27.908  1.00  0.00     0.118 C 
BRANCH  31  32
ATOM     32  N   UNL A   1      37.443  30.241  29.140  1.00  0.00    -0.352 N 
ATOM     33  C   UNL A   1      38.683  29.975  29.732  1.00  0.00     0.251 C 
ATOM     34  H   UNL A   1      36.871  30.895  29.606  1.00  0.00     0.163 HD
ATOM     35  O   UNL A   1      38.923  30.266  30.865  1.00  0.00    -0.269 OA
BRANCH  33  36
ATOM     36  C   UNL A   1      39.727  29.463  28.811  1.00  0.00     0.039 A 
ATOM     37  C   UNL A   1      39.778  29.537  27.420  1.00  0.00     0.014 A 
ATOM     38  C   UNL A   1      40.658  28.643  29.402  1.00  0.00     0.014 A 
ATOM     39  C   UNL A   1      40.719  28.667  26.776  1.00  0.00     0.010 A 
ATOM     40  C   UNL A   1      41.835  28.521  28.774  1.00  0.00     0.010 A 
ATOM     41  C   UNL A   1      41.631  27.912  27.578  1.00  0.00    -0.014 A 
BRANCH  41  42
ATOM     42  C   UNL A   1      42.870  27.143  27.239  1.00  0.00     0.031 A 
ATOM     43  C   UNL A   1      42.320  25.688  27.091  1.00  0.00     0.074 A 
ATOM     44  C   UNL A   1      44.144  27.672  26.932  1.00  0.00     0.049 A 
ATOM     45  N   UNL A   1      42.289  24.839  28.073  1.00  0.00    -0.248 NA
ATOM     46  C   UNL A   1      41.337  25.233  26.038  1.00  0.00     0.031 C 
ATOM     47  C   UNL A   1      44.746  29.063  26.916  1.00  0.00     0.029 A 
ATOM     48  N   UNL A   1      45.333  26.987  26.606  1.00  0.00    -0.354 N 
ATOM     49  C   UNL A   1      41.765  23.650  27.558  1.00  0.00     0.074 A 
ATOM     50  C   UNL A   1      40.929  24.033  26.477  1.00  0.00     0.031 C 
ATOM     51  C   UNL A   1      45.986  29.096  26.315  1.00  0.00     0.029 A 
ATOM     52  C   UNL A   1      46.410  27.747  25.998  1.00  0.00     0.049 A 
ATOM     53  H   UNL A   1      45.429  26.024  26.785  1.00  0.00     0.167 HD
ATOM     54  C   UNL A   1      42.443  22.491  27.787  1.00  0.00     0.037 A 
ATOM     55  C   UNL A   1      47.662  27.298  25.559  1.00  0.00     0.037 A 
ATOM     56  C   UNL A   1      43.383  22.739  28.857  1.00  0.00     0.049 A 
ATOM     57  C   UNL A   1      47.810  25.943  26.161  1.00  0.00     0.074 A 
ATOM     58  C   UNL A   1      43.268  23.075  30.188  1.00  0.00     0.029 A 
ATOM     59  N   UNL A   1      44.547  23.296  28.400  1.00  0.00    -0.354 N 
ATOM     60  N   UNL A   1      47.909  25.796  27.458  1.00  0.00    -0.248 NA
ATOM     61  C   UNL A   1      47.133  24.884  25.416  1.00  0.00     0.031 C 
ATOM     62  C   UNL A   1      44.261  24.078  30.421  1.00  0.00     0.029 A 
ATOM     63  C   UNL A   1      45.079  24.171  29.299  1.00  0.00     0.049 A 
ATOM     64  H   UNL A   1      44.952  23.089  27.526  1.00  0.00     0.167 HD
ATOM     65  C   UNL A   1      46.885  24.915  27.763  1.00  0.00     0.074 A 
ATOM     66  C   UNL A   1      46.430  24.400  26.447  1.00  0.00     0.031 C 
ATOM     67  C   UNL A   1      46.230  24.973  28.968  1.00  0.00     0.037 A 
BRANCH  54  68
ATOM     68  C   UNL A   1      42.712  21.402  26.759  1.00  0.00     0.064 A 
ATOM     69  C   UNL A   1      42.334  20.084  27.091  1.00  0.00     0.173 A 
ATOM     70  C   UNL A   1      43.566  21.515  25.637  1.00  0.00     0.173 A 
ATOM     71  F   UNL A   1      41.539  19.856  28.147  1.00  0.00    -0.203 F 
ATOM     72  C   UNL A   1      42.816  18.969  26.398  1.00  0.00     0.198 A 
ATOM     73  C   UNL A   1      44.003  20.400  24.912  1.00  0.00     0.198 A 
ATOM     74  F   UNL A   1      44.088  22.685  25.251  1.00  0.00    -0.203 F 
ATOM     75  F   UNL A   1      42.510  17.738  26.826  1.00  0.00    -0.200 F 
ATOM     76  C   UNL A   1      43.648  19.128  25.307  1.00  0.00     0.200 A 
ATOM     77  F   UNL A   1      44.827  20.570  23.867  1.00  0.00    -0.200 F 
ATOM     78  F   UNL A   1      44.131  18.059  24.658  1.00  0.00    -0.200 F 
ENDBRANCH  54  68
BRANCH  55  79
ATOM     79  C   UNL A   1      48.459  27.648  24.295  1.00  0.00     0.064 A 
ATOM     80  C   UNL A   1      49.862  27.509  24.050  1.00  0.00     0.173 A 
ATOM     81  C   UNL A   1      47.704  27.881  23.136  1.00  0.00     0.173 A 
ATOM     82  F   UNL A   1      50.713  27.196  25.041  1.00  0.00    -0.203 F 
ATOM     83  C   UNL A   1      50.429  27.646  22.749  1.00  0.00     0.198 A 
ATOM     84  C   UNL A   1      48.259  27.994  21.854  1.00  0.00     0.198 A 
ATOM     85  F   UNL A   1      46.368  27.909  23.220  1.00  0.00    -0.203 F 
ATOM     86  F   UNL A   1      51.752  27.509  22.549  1.00  0.00    -0.200 F 
ATOM     87  C   UNL A   1      49.619  27.881  21.653  1.00  0.00     0.200 A 
ATOM     88  F   UNL A   1      47.442  28.162  20.806  1.00  0.00    -0.200 F 
ATOM     89  F   UNL A   1      50.128  27.964  20.414  1.00  0.00    -0.200 F 
ENDBRANCH  55  79
BRANCH  67  90
ATOM     90  C   UNL A   1      46.740  25.886  30.061  1.00  0.00     0.064 A 
ATOM     91  C   UNL A   1      48.018  25.867  30.658  1.00  0.00     0.173 A 
ATOM     92  C   UNL A   1      45.926  26.978  30.371  1.00  0.00     0.173 A 
ATOM     93  F   UNL A   1      48.937  24.968  30.297  1.00  0.00    -0.203 F 
ATOM     94  C   UNL A   1      48.413  26.844  31.583  1.00  0.00     0.198 A 
ATOM     95  C   UNL A   1      46.337  27.976  31.247  1.00  0.00     0.198 A 
ATOM     96  F   UNL A   1      44.748  27.119  29.746  1.00  0.00    -0.203 F 
ATOM     97  F   UNL A   1      49.627  26.790  32.154  1.00  0.00    -0.200 F 
ATOM     98  C   UNL A   1      47.566  27.897  31.879  1.00  0.00     0.200 A 
ATOM     99  F   UNL A   1      45.548  29.039  31.446  1.00  0.00    -0.200 F 
ATOM    100  F   UNL A   1      47.945  28.854  32.737  1.00  0.00    -0.200 F 
ENDBRANCH  67  90
ENDBRANCH  41  42
ENDBRANCH  33  36
ENDBRANCH  31  32
ENDBRANCH  30  31
ENDBRANCH   1  30
TORSDOF 14
ENDMDL
MODEL 3
REMARK VINA RESULT:     -13.3      3.414      8.064
REMARK SMILES Cc1ncc(CO)c([C@H]2[NH2+][C@@H](C(=O)NCCCNC(=O)c3ccc(-c4c5nc(c(-c6c(F)c(F)c(F)c(F)c6F)c6ccc([nH]6)c(-c6c(F)c(F)c(F)c(F)c6F)c6nc(c(-c7c(F)c(F)c(F)c(F)c7F)c7ccc4[nH]7)C=C6)C=C5)cc3)Cc3[nH]cnc32)c1O
REMARK SMILES IDX 15 1 14 2 12 3 13 4 11 6 9 7 10 8 89 9 85 12 88 13 84 14
REMARK SMILES IDX 86 15 87 16 8 18 1 19 2 20 3 21 90 22 4 23 5 24 91 25 6 27
REMARK SMILES IDX 7 28 16 30 17 31 18 32 19 33 20 35 21 36 22 37 83 38 23 39
REMARK SMILES IDX 82 40 24 41 25 42 26 43 76 44 27 45 81 46 75 47 77 48 28 49
REMARK SMILES IDX 80 50 74 51 73 52 29 54 61 55 41 56 60 57 42 58 45 59 59 60
REMARK SMILES IDX 78 61 43 62 44 63 58 65 79 66 46 67 30 68 31 69 39 70 32 71
REMARK SMILES IDX 33 72 37 73 40 74 34 75 35 76 38 77 36 78 62 79 63 80 71 81
REMARK SMILES IDX 64 82 65 83 69 84 72 85 66 86 67 87 70 88 68 89 47 90 48 91
REMARK SMILES IDX 56 92 49 93 50 94 54 95 57 96 51 97 52 98 55 99 53 100
REMARK H PARENT 14 5 10 10 10 11 86 17 91 26 7 29 18 34 77 53 45 64
REMARK Flexibility Score: inf
ROOT
ATOM      1  C   UNL A   1      35.355  22.840  25.952  1.00  0.00     0.118 C 
ENDROOT
BRANCH   1   2
ATOM      2  N   UNL A   1      34.108  22.992  26.696  1.00  0.00    -0.351 N 
ATOM      3  C   UNL A   1      32.979  23.687  26.361  1.00  0.00     0.278 C 
ATOM      4  O   UNL A   1      32.050  23.747  27.161  1.00  0.00    -0.268 OA
ATOM      5  H   UNL A   1      34.075  22.527  27.564  1.00  0.00     0.163 HD
BRANCH   3   6
ATOM      6  C   UNL A   1      32.991  24.389  25.019  1.00  0.00     0.279 C 
ATOM      7  C   UNL A   1      32.494  26.421  23.913  1.00  0.00     0.270 C 
ATOM      8  N   UNL A   1      32.025  25.505  24.979  1.00  0.00    -0.324 N 
ATOM      9  C   UNL A   1      32.338  25.684  22.604  1.00  0.00     0.124 A 
ATOM     10  H   UNL A   1      31.091  25.156  24.760  1.00  0.00     0.347 HD
ATOM     11  H   UNL A   1      31.969  25.980  25.880  1.00  0.00     0.347 HD
ATOM     12  C   UNL A   1      32.587  24.303  22.604  1.00  0.00     0.051 A 
ATOM     13  N   UNL A   1      32.418  26.147  21.314  1.00  0.00    -0.235 NA
ATOM     14  C   UNL A   1      32.791  23.446  23.820  1.00  0.00     0.131 C 
ATOM     15  N   UNL A   1      32.773  23.932  21.311  1.00  0.00    -0.348 N 
ATOM     16  C   UNL A   1      32.645  25.077  20.567  1.00  0.00     0.197 A 
ATOM     17  H   UNL A   1      32.961  23.026  20.976  1.00  0.00     0.167 HD
BRANCH   7  18
ATOM     18  C   UNL A   1      32.247  27.840  24.353  1.00  0.00     0.066 A 
ATOM     19  C   UNL A   1      33.796  29.840  27.282  1.00  0.00     0.071 C 
ATOM     20  C   UNL A   1      32.922  29.463  26.116  1.00  0.00     0.079 A 
ATOM     21  N   UNL A   1      31.897  30.278  25.813  1.00  0.00    -0.257 NA
ATOM     22  C   UNL A   1      33.133  28.285  25.404  1.00  0.00     0.146 A 
ATOM     23  C   UNL A   1      31.062  29.870  24.820  1.00  0.00     0.118 A 
ATOM     24  C   UNL A   1      31.161  28.675  24.078  1.00  0.00     0.009 A 
BRANCH  22  25
ATOM     25  O   UNL A   1      34.173  27.504  25.874  1.00  0.00    -0.505 OA
ATOM     26  H   UNL A   1      34.686  27.795  26.602  1.00  0.00     0.293 HD
ENDBRANCH  22  25
BRANCH  24  27
ATOM     27  C   UNL A   1      30.070  28.387  23.093  1.00  0.00     0.194 C 
BRANCH  27  28
ATOM     28  O   UNL A   1      30.547  28.609  21.768  1.00  0.00    -0.392 OA
ATOM     29  H   UNL A   1      30.160  29.428  21.418  1.00  0.00     0.211 HD
ENDBRANCH  27  28
ENDBRANCH  24  27
ENDBRANCH   7  18
ENDBRANCH   3   6
ENDBRANCH   1   2
BRANCH   1  30
ATOM     30  C   UNL A   1      36.272  24.043  26.121  1.00  0.00     0.042 C 
BRANCH  30  31
ATOM     31  C   UNL A   1      37.676  23.699  25.690  1.00  0.00     0.118 C 
BRANCH  31  32
ATOM     32  N   UNL A   1      38.254  22.568  26.427  1.00  0.00    -0.352 N 
ATOM     33  C   UNL A   1      39.546  22.457  26.953  1.00  0.00     0.251 C 
ATOM     34  H   UNL A   1      37.660  21.794  26.569  1.00  0.00     0.163 HD
ATOM     35  O   UNL A   1      40.013  21.406  27.277  1.00  0.00    -0.269 OA
BRANCH  33  36
ATOM     36  C   UNL A   1      40.228  23.744  27.235  1.00  0.00     0.039 A 
ATOM     37  C   UNL A   1      41.583  24.053  27.143  1.00  0.00     0.014 A 
ATOM     38  C   UNL A   1      39.439  24.685  27.852  1.00  0.00     0.014 A 
ATOM     39  C   UNL A   1      42.002  25.258  27.797  1.00  0.00     0.010 A 
ATOM     40  C   UNL A   1      39.821  25.963  27.726  1.00  0.00     0.010 A 
ATOM     41  C   UNL A   1      41.013  26.126  28.356  1.00  0.00    -0.014 A 
BRANCH  41  42
ATOM     42  C   UNL A   1      41.077  27.537  28.854  1.00  0.00     0.031 A 
ATOM     43  C   UNL A   1      42.315  28.098  28.084  1.00  0.00     0.074 A 
ATOM     44  C   UNL A   1      40.119  28.205  29.649  1.00  0.00     0.049 A 
ATOM     45  N   UNL A   1      43.521  28.072  28.565  1.00  0.00    -0.248 NA
ATOM     46  C   UNL A   1      42.405  28.260  26.585  1.00  0.00     0.031 C 
ATOM     47  C   UNL A   1      38.829  27.797  30.333  1.00  0.00     0.029 A 
ATOM     48  N   UNL A   1      40.138  29.528  30.137  1.00  0.00    -0.354 N 
ATOM     49  C   UNL A   1      44.344  28.681  27.614  1.00  0.00     0.074 A 
ATOM     50  C   UNL A   1      43.711  28.469  26.361  1.00  0.00     0.031 C 
ATOM     51  C   UNL A   1      38.117  28.877  30.808  1.00  0.00     0.029 A 
ATOM     52  C   UNL A   1      38.894  30.088  30.632  1.00  0.00     0.049 A 
ATOM     53  H   UNL A   1      40.970  30.055  30.140  1.00  0.00     0.167 HD
ATOM     54  C   UNL A   1      45.187  29.670  28.026  1.00  0.00     0.037 A 
ATOM     55  C   UNL A   1      38.649  31.373  31.133  1.00  0.00     0.037 A 
ATOM     56  C   UNL A   1      45.282  29.591  29.466  1.00  0.00     0.049 A 
ATOM     57  C   UNL A   1      40.000  31.946  31.385  1.00  0.00     0.074 A 
ATOM     58  C   UNL A   1      45.758  28.652  30.354  1.00  0.00     0.029 A 
ATOM     59  N   UNL A   1      44.254  30.248  30.086  1.00  0.00    -0.354 N 
ATOM     60  N   UNL A   1      40.778  31.440  32.308  1.00  0.00    -0.248 NA
ATOM     61  C   UNL A   1      40.643  32.498  30.195  1.00  0.00     0.031 C 
ATOM     62  C   UNL A   1      44.794  28.593  31.409  1.00  0.00     0.029 A 
ATOM     63  C   UNL A   1      43.881  29.631  31.243  1.00  0.00     0.049 A 
ATOM     64  H   UNL A   1      43.834  31.068  29.739  1.00  0.00     0.167 HD
ATOM     65  C   UNL A   1      41.941  31.136  31.621  1.00  0.00     0.074 A 
ATOM     66  C   UNL A   1      41.784  31.805  30.305  1.00  0.00     0.031 C 
ATOM     67  C   UNL A   1      42.730  30.075  31.988  1.00  0.00     0.037 A 
BRANCH  54  68
ATOM     68  C   UNL A   1      45.424  30.990  27.308  1.00  0.00     0.064 A 
ATOM     69  C   UNL A   1      46.761  31.366  27.059  1.00  0.00     0.173 A 
ATOM     70  C   UNL A   1      44.470  32.018  27.127  1.00  0.00     0.173 A 
ATOM     71  F   UNL A   1      47.752  30.476  27.214  1.00  0.00    -0.203 F 
ATOM     72  C   UNL A   1      47.120  32.674  26.719  1.00  0.00     0.198 A 
ATOM     73  C   UNL A   1      44.828  33.313  26.733  1.00  0.00     0.198 A 
ATOM     74  F   UNL A   1      43.173  31.849  27.412  1.00  0.00    -0.203 F 
ATOM     75  F   UNL A   1      48.415  32.998  26.603  1.00  0.00    -0.200 F 
ATOM     76  C   UNL A   1      46.154  33.646  26.553  1.00  0.00     0.200 A 
ATOM     77  F   UNL A   1      43.879  34.251  26.597  1.00  0.00    -0.200 F 
ATOM     78  F   UNL A   1      46.500  34.905  26.252  1.00  0.00    -0.200 F 
ENDBRANCH  54  68
BRANCH  55  79
ATOM     79  C   UNL A   1      37.462  32.320  30.906  1.00  0.00     0.064 A 
ATOM     80  C   UNL A   1      37.120  33.068  29.734  1.00  0.00     0.173 A 
ATOM     81  C   UNL A   1      36.430  32.252  31.853  1.00  0.00     0.173 A 
ATOM     82  F   UNL A   1      37.966  33.155  28.694  1.00  0.00    -0.203 F 
ATOM     83  C   UNL A   1      35.860  33.717  29.581  1.00  0.00     0.198 A 
ATOM     84  C   UNL A   1      35.183  32.872  31.693  1.00  0.00     0.198 A 
ATOM     85  F   UNL A   1      36.585  31.482  32.937  1.00  0.00    -0.203 F 
ATOM     86  F   UNL A   1      35.566  34.413  28.468  1.00  0.00    -0.200 F 
ATOM     87  C   UNL A   1      34.893  33.608  30.564  1.00  0.00     0.200 A 
ATOM     88  F   UNL A   1      34.247  32.699  32.634  1.00  0.00    -0.200 F 
ATOM     89  F   UNL A   1      33.682  34.171  30.417  1.00  0.00    -0.200 F 
ENDBRANCH  55  79
BRANCH  67  90
ATOM     90  C   UNL A   1      42.437  29.324  33.268  1.00  0.00     0.064 A 
ATOM     91  C   UNL A   1      41.809  28.067  33.393  1.00  0.00     0.173 A 
ATOM     92  C   UNL A   1      43.020  29.844  34.425  1.00  0.00     0.173 A 
ATOM     93  F   UNL A   1      41.374  27.401  32.320  1.00  0.00    -0.203 F 
ATOM     94  C   UNL A   1      41.697  27.419  34.631  1.00  0.00     0.198 A 
ATOM     95  C   UNL A   1      42.957  29.177  35.645  1.00  0.00     0.198 A 
ATOM     96  F   UNL A   1      43.735  30.977  34.351  1.00  0.00    -0.203 F 
ATOM     97  F   UNL A   1      41.075  26.233  34.726  1.00  0.00    -0.200 F 
ATOM     98  C   UNL A   1      42.271  27.980  35.758  1.00  0.00     0.200 A 
ATOM     99  F   UNL A   1      43.602  29.683  36.702  1.00  0.00    -0.200 F 
ATOM    100  F   UNL A   1      42.199  27.356  36.941  1.00  0.00    -0.200 F 
ENDBRANCH  67  90
ENDBRANCH  41  42
ENDBRANCH  33  36
ENDBRANCH  31  32
ENDBRANCH  30  31
ENDBRANCH   1  30
TORSDOF 14
ENDMDL
