MODEL 1
REMARK VINA RESULT:     -11.8      0.000      0.000
REMARK SMILES COCc1cccc(C[NH2+][C@H](C)[C@H](C)C(=O)NCCCNC(=O)c2ccc(-c3c4nc(c(-c5c(F)c(F)c(F)c(F)c5F)c5ccc([nH]5)c(-c5c(F)c(F)c(F)c(F)c5F)c5nc(c(-c6c(F)c(F)c(F)c(F)c6F)c6ccc3[nH]6)C=C5)C=C4)cc2)c1
REMARK SMILES IDX 15 1 16 2 17 3 13 5 14 6 11 7 12 8 10 9 9 12 8 13 4 14 5 15
REMARK SMILES IDX 87 16 6 17 7 18 3 19 2 20 1 21 18 22 19 23 20 24 21 25 22 26
REMARK SMILES IDX 23 28 24 29 25 30 86 31 26 32 85 33 27 34 28 35 29 36 79 37
REMARK SMILES IDX 30 38 84 39 78 40 80 41 31 42 83 43 77 44 76 45 32 47 64 48
REMARK SMILES IDX 44 49 63 50 45 51 48 52 62 53 81 54 46 55 47 56 61 58 82 59
REMARK SMILES IDX 49 60 33 61 34 62 42 63 35 64 36 65 40 66 43 67 37 68 38 69
REMARK SMILES IDX 41 70 39 71 65 72 66 73 74 74 67 75 68 76 72 77 75 78 69 79
REMARK SMILES IDX 70 80 73 81 71 82 50 83 51 84 59 85 52 86 53 87 57 88 60 89
REMARK SMILES IDX 54 90 55 91 58 92 56 93
REMARK H PARENT 17 4 10 10 10 11 21 27 80 46 48 57
REMARK Flexibility Score: inf
ROOT
ATOM      1  C   UNL A   1      34.047  28.910  26.622  1.00  0.00     0.228 C 
ATOM      2  O   UNL A   1      35.199  28.815  27.053  1.00  0.00    -0.275 OA
ATOM      3  N   UNL A   1      33.295  29.936  27.087  1.00  0.00    -0.356 N 
ATOM      4  H   UNL A   1      33.764  30.539  27.709  1.00  0.00     0.163 HD
ENDROOT
BRANCH   1   5
ATOM      5  C   UNL A   1      33.505  27.904  25.620  1.00  0.00     0.133 C 
ATOM      6  C   UNL A   1      32.646  26.837  26.314  1.00  0.00     0.024 C 
BRANCH   5   7
ATOM      7  C   UNL A   1      32.804  28.526  24.383  1.00  0.00     0.191 C 
ATOM      8  C   UNL A   1      33.712  28.627  23.153  1.00  0.00     0.076 C 
BRANCH   7   9
ATOM      9  N   UNL A   1      31.628  27.714  24.044  1.00  0.00    -0.340 N 
ATOM     10  H   UNL A   1      31.875  26.730  24.146  1.00  0.00     0.346 HD
ATOM     11  H   UNL A   1      30.878  27.990  24.678  1.00  0.00     0.346 HD
BRANCH   9  12
ATOM     12  C   UNL A   1      31.147  27.934  22.683  1.00  0.00     0.297 C 
BRANCH  12  13
ATOM     13  C   UNL A   1      29.867  28.727  22.740  1.00  0.00     0.006 A 
ATOM     14  C   UNL A   1      28.698  30.863  22.719  1.00  0.00    -0.022 A 
ATOM     15  C   UNL A   1      27.500  30.194  23.007  1.00  0.00     0.006 A 
ATOM     16  C   UNL A   1      29.878  30.121  22.590  1.00  0.00     0.015 A 
ATOM     17  C   UNL A   1      27.482  28.811  23.175  1.00  0.00     0.001 A 
ATOM     18  C   UNL A   1      28.661  28.081  23.043  1.00  0.00     0.009 A 
BRANCH  14  19
ATOM     19  C   UNL A   1      28.729  32.368  22.621  1.00  0.00     0.195 C 
BRANCH  19  20
ATOM     20  O   UNL A   1      27.755  32.869  21.705  1.00  0.00    -0.380 OA
ATOM     21  C   UNL A   1      27.965  32.428  20.368  1.00  0.00     0.195 C 
ENDBRANCH  19  20
ENDBRANCH  14  19
ENDBRANCH  12  13
ENDBRANCH   9  12
ENDBRANCH   7   9
ENDBRANCH   5   7
ENDBRANCH   1   5
BRANCH   3  22
ATOM     22  C   UNL A   1      31.918  30.297  26.823  1.00  0.00     0.117 C 
BRANCH  22  23
ATOM     23  C   UNL A   1      31.737  31.802  26.723  1.00  0.00     0.042 C 
BRANCH  23  24
ATOM     24  C   UNL A   1      32.855  32.596  27.383  1.00  0.00     0.118 C 
BRANCH  24  25
ATOM     25  N   UNL A   1      32.488  33.984  27.635  1.00  0.00    -0.352 N 
ATOM     26  C   UNL A   1      32.979  34.871  28.562  1.00  0.00     0.251 C 
ATOM     27  H   UNL A   1      31.779  34.341  27.051  1.00  0.00     0.163 HD
ATOM     28  O   UNL A   1      32.407  35.940  28.757  1.00  0.00    -0.269 OA
BRANCH  26  29
ATOM     29  C   UNL A   1      34.177  34.519  29.348  1.00  0.00     0.039 A 
ATOM     30  C   UNL A   1      34.016  33.964  30.619  1.00  0.00     0.014 A 
ATOM     31  C   UNL A   1      35.455  34.704  28.816  1.00  0.00     0.014 A 
ATOM     32  C   UNL A   1      35.133  33.496  31.313  1.00  0.00     0.010 A 
ATOM     33  C   UNL A   1      36.554  34.156  29.466  1.00  0.00     0.010 A 
ATOM     34  C   UNL A   1      36.402  33.532  30.713  1.00  0.00    -0.014 A 
BRANCH  34  35
ATOM     35  C   UNL A   1      37.580  32.887  31.344  1.00  0.00     0.031 A 
ATOM     36  C   UNL A   1      38.231  31.702  30.692  1.00  0.00     0.074 A 
ATOM     37  C   UNL A   1      37.993  33.309  32.556  1.00  0.00     0.049 A 
ATOM     38  N   UNL A   1      39.180  30.924  31.148  1.00  0.00    -0.248 NA
ATOM     39  C   UNL A   1      37.729  31.323  29.362  1.00  0.00     0.031 C 
ATOM     40  C   UNL A   1      37.412  34.422  33.307  1.00  0.00     0.029 A 
ATOM     41  N   UNL A   1      38.985  32.836  33.378  1.00  0.00    -0.354 N 
ATOM     42  C   UNL A   1      39.379  29.960  30.169  1.00  0.00     0.074 A 
ATOM     43  C   UNL A   1      38.418  30.218  29.118  1.00  0.00     0.031 C 
ATOM     44  C   UNL A   1      38.065  34.556  34.472  1.00  0.00     0.029 A 
ATOM     45  C   UNL A   1      39.074  33.507  34.575  1.00  0.00     0.049 A 
ATOM     46  H   UNL A   1      39.577  32.088  33.135  1.00  0.00     0.167 HD
ATOM     47  C   UNL A   1      40.295  28.964  30.145  1.00  0.00     0.037 A 
ATOM     48  C   UNL A   1      39.861  33.286  35.644  1.00  0.00     0.037 A 
ATOM     49  C   UNL A   1      41.258  28.725  31.187  1.00  0.00     0.049 A 
ATOM     50  C   UNL A   1      40.839  32.143  35.608  1.00  0.00     0.074 A 
ATOM     51  C   UNL A   1      42.275  27.787  31.223  1.00  0.00     0.029 A 
ATOM     52  N   UNL A   1      41.315  29.423  32.385  1.00  0.00    -0.354 N 
ATOM     53  N   UNL A   1      41.073  31.284  34.645  1.00  0.00    -0.248 NA
ATOM     54  C   UNL A   1      41.657  31.931  36.811  1.00  0.00     0.031 C 
ATOM     55  C   UNL A   1      42.908  27.877  32.467  1.00  0.00     0.029 A 
ATOM     56  C   UNL A   1      42.322  28.908  33.185  1.00  0.00     0.049 A 
ATOM     57  H   UNL A   1      40.725  30.173  32.630  1.00  0.00     0.167 HD
ATOM     58  C   UNL A   1      42.073  30.445  35.116  1.00  0.00     0.074 A 
ATOM     59  C   UNL A   1      42.418  30.911  36.443  1.00  0.00     0.031 C 
ATOM     60  C   UNL A   1      42.648  29.379  34.507  1.00  0.00     0.037 A 
BRANCH  47  61
ATOM     61  C   UNL A   1      40.300  28.052  28.951  1.00  0.00     0.064 A 
ATOM     62  C   UNL A   1      41.055  28.342  27.805  1.00  0.00     0.173 A 
ATOM     63  C   UNL A   1      39.577  26.850  28.972  1.00  0.00     0.173 A 
ATOM     64  F   UNL A   1      41.758  29.483  27.729  1.00  0.00    -0.203 F 
ATOM     65  C   UNL A   1      41.063  27.477  26.714  1.00  0.00     0.198 A 
ATOM     66  C   UNL A   1      39.612  25.973  27.892  1.00  0.00     0.198 A 
ATOM     67  F   UNL A   1      38.842  26.520  30.046  1.00  0.00    -0.203 F 
ATOM     68  F   UNL A   1      41.754  27.799  25.611  1.00  0.00    -0.200 F 
ATOM     69  C   UNL A   1      40.349  26.290  26.761  1.00  0.00     0.200 A 
ATOM     70  F   UNL A   1      38.932  24.819  27.945  1.00  0.00    -0.200 F 
ATOM     71  F   UNL A   1      40.366  25.454  25.714  1.00  0.00    -0.200 F 
ENDBRANCH  47  61
BRANCH  48  72
ATOM     72  C   UNL A   1      39.753  34.160  36.842  1.00  0.00     0.064 A 
ATOM     73  C   UNL A   1      40.477  35.355  36.928  1.00  0.00     0.173 A 
ATOM     74  C   UNL A   1      38.929  33.817  37.926  1.00  0.00     0.173 A 
ATOM     75  F   UNL A   1      41.294  35.716  35.927  1.00  0.00    -0.203 F 
ATOM     76  C   UNL A   1      40.398  36.167  38.059  1.00  0.00     0.198 A 
ATOM     77  C   UNL A   1      38.828  34.644  39.043  1.00  0.00     0.198 A 
ATOM     78  F   UNL A   1      38.212  32.685  37.894  1.00  0.00    -0.203 F 
ATOM     79  F   UNL A   1      41.138  37.282  38.134  1.00  0.00    -0.200 F 
ATOM     80  C   UNL A   1      39.568  35.813  39.112  1.00  0.00     0.200 A 
ATOM     81  F   UNL A   1      38.011  34.307  40.051  1.00  0.00    -0.200 F 
ATOM     82  F   UNL A   1      39.488  36.597  40.197  1.00  0.00    -0.200 F 
ENDBRANCH  48  72
BRANCH  60  83
ATOM     83  C   UNL A   1      43.716  28.646  35.265  1.00  0.00     0.064 A 
ATOM     84  C   UNL A   1      43.403  27.591  36.134  1.00  0.00     0.173 A 
ATOM     85  C   UNL A   1      45.070  28.966  35.080  1.00  0.00     0.173 A 
ATOM     86  F   UNL A   1      42.123  27.260  36.359  1.00  0.00    -0.203 F 
ATOM     87  C   UNL A   1      44.405  26.894  36.803  1.00  0.00     0.198 A 
ATOM     88  C   UNL A   1      46.072  28.246  35.726  1.00  0.00     0.198 A 
ATOM     89  F   UNL A   1      45.423  29.964  34.256  1.00  0.00    -0.203 F 
ATOM     90  F   UNL A   1      44.080  25.916  37.660  1.00  0.00    -0.200 F 
ATOM     91  C   UNL A   1      45.738  27.214  36.590  1.00  0.00     0.200 A 
ATOM     92  F   UNL A   1      47.359  28.547  35.507  1.00  0.00    -0.200 F 
ATOM     93  F   UNL A   1      46.702  26.532  37.224  1.00  0.00    -0.200 F 
ENDBRANCH  60  83
ENDBRANCH  34  35
ENDBRANCH  26  29
ENDBRANCH  24  25
ENDBRANCH  23  24
ENDBRANCH  22  23
ENDBRANCH   3  22
TORSDOF 16
ENDMDL
MODEL 2
REMARK VINA RESULT:     -11.6      2.306      8.526
REMARK SMILES COCc1cccc(C[NH2+][C@H](C)[C@H](C)C(=O)NCCCNC(=O)c2ccc(-c3c4nc(c(-c5c(F)c(F)c(F)c(F)c5F)c5ccc([nH]5)c(-c5c(F)c(F)c(F)c(F)c5F)c5nc(c(-c6c(F)c(F)c(F)c(F)c6F)c6ccc3[nH]6)C=C5)C=C4)cc2)c1
REMARK SMILES IDX 15 1 16 2 17 3 13 5 14 6 11 7 12 8 10 9 9 12 8 13 4 14 5 15
REMARK SMILES IDX 87 16 6 17 7 18 3 19 2 20 1 21 18 22 19 23 20 24 21 25 22 26
REMARK SMILES IDX 23 28 24 29 25 30 86 31 26 32 85 33 27 34 28 35 29 36 79 37
REMARK SMILES IDX 30 38 84 39 78 40 80 41 31 42 83 43 77 44 76 45 32 47 64 48
REMARK SMILES IDX 44 49 63 50 45 51 48 52 62 53 81 54 46 55 47 56 61 58 82 59
REMARK SMILES IDX 49 60 33 61 34 62 42 63 35 64 36 65 40 66 43 67 37 68 38 69
REMARK SMILES IDX 41 70 39 71 65 72 66 73 74 74 67 75 68 76 72 77 75 78 69 79
REMARK SMILES IDX 70 80 73 81 71 82 50 83 51 84 59 85 52 86 53 87 57 88 60 89
REMARK SMILES IDX 54 90 55 91 58 92 56 93
REMARK H PARENT 17 4 10 10 10 11 21 27 80 46 48 57
REMARK Flexibility Score: inf
ROOT
ATOM      1  C   UNL A   1      31.669  28.374  27.207  1.00  0.00     0.228 C 
ATOM      2  O   UNL A   1      31.610  27.797  28.296  1.00  0.00    -0.275 OA
ATOM      3  N   UNL A   1      31.754  29.726  27.227  1.00  0.00    -0.356 N 
ATOM      4  H   UNL A   1      31.799  30.120  28.128  1.00  0.00     0.163 HD
ENDROOT
BRANCH   1   5
ATOM      5  C   UNL A   1      31.634  27.588  25.907  1.00  0.00     0.133 C 
ATOM      6  C   UNL A   1      33.049  27.199  25.454  1.00  0.00     0.024 C 
BRANCH   5   7
ATOM      7  C   UNL A   1      30.651  26.387  25.897  1.00  0.00     0.191 C 
ATOM      8  C   UNL A   1      30.272  25.919  24.487  1.00  0.00     0.076 C 
BRANCH   7   9
ATOM      9  N   UNL A   1      31.260  25.267  26.625  1.00  0.00    -0.340 N 
ATOM     10  H   UNL A   1      32.269  25.416  26.662  1.00  0.00     0.346 HD
ATOM     11  H   UNL A   1      30.841  25.248  27.555  1.00  0.00     0.346 HD
BRANCH   9  12
ATOM     12  C   UNL A   1      31.004  23.969  26.007  1.00  0.00     0.297 C 
BRANCH  12  13
ATOM     13  C   UNL A   1      32.284  23.174  25.996  1.00  0.00     0.006 A 
ATOM     14  C   UNL A   1      33.487  21.105  25.543  1.00  0.00    -0.022 A 
ATOM     15  C   UNL A   1      34.634  21.660  26.128  1.00  0.00     0.006 A 
ATOM     16  C   UNL A   1      32.314  21.869  25.483  1.00  0.00     0.015 A 
ATOM     17  C   UNL A   1      34.608  22.950  26.654  1.00  0.00     0.001 A 
ATOM     18  C   UNL A   1      33.439  23.702  26.589  1.00  0.00     0.009 A 
BRANCH  14  19
ATOM     19  C   UNL A   1      33.493  19.680  25.049  1.00  0.00     0.195 C 
BRANCH  19  20
ATOM     20  O   UNL A   1      32.301  18.979  25.407  1.00  0.00    -0.380 OA
ATOM     21  C   UNL A   1      32.425  17.566  25.284  1.00  0.00     0.195 C 
ENDBRANCH  19  20
ENDBRANCH  14  19
ENDBRANCH  12  13
ENDBRANCH   9  12
ENDBRANCH   7   9
ENDBRANCH   5   7
ENDBRANCH   1   5
BRANCH   3  22
ATOM     22  C   UNL A   1      31.792  30.688  26.146  1.00  0.00     0.117 C 
BRANCH  22  23
ATOM     23  C   UNL A   1      31.505  32.097  26.634  1.00  0.00     0.042 C 
BRANCH  23  24
ATOM     24  C   UNL A   1      32.705  32.777  27.276  1.00  0.00     0.118 C 
BRANCH  24  25
ATOM     25  N   UNL A   1      32.453  34.176  27.603  1.00  0.00    -0.352 N 
ATOM     26  C   UNL A   1      32.992  34.959  28.593  1.00  0.00     0.251 C 
ATOM     27  H   UNL A   1      31.796  34.627  27.025  1.00  0.00     0.163 HD
ATOM     28  O   UNL A   1      32.511  36.062  28.839  1.00  0.00    -0.269 OA
BRANCH  26  29
ATOM     29  C   UNL A   1      34.132  34.457  29.386  1.00  0.00     0.039 A 
ATOM     30  C   UNL A   1      33.889  33.882  30.634  1.00  0.00     0.014 A 
ATOM     31  C   UNL A   1      35.432  34.522  28.880  1.00  0.00     0.014 A 
ATOM     32  C   UNL A   1      34.936  33.275  31.328  1.00  0.00     0.010 A 
ATOM     33  C   UNL A   1      36.454  33.840  29.528  1.00  0.00     0.010 A 
ATOM     34  C   UNL A   1      36.213  33.196  30.750  1.00  0.00    -0.014 A 
BRANCH  34  35
ATOM     35  C   UNL A   1      37.304  32.410  31.377  1.00  0.00     0.031 A 
ATOM     36  C   UNL A   1      37.832  32.795  32.729  1.00  0.00     0.074 A 
ATOM     37  C   UNL A   1      37.885  31.413  30.680  1.00  0.00     0.049 A 
ATOM     38  N   UNL A   1      38.861  32.319  33.382  1.00  0.00    -0.248 NA
ATOM     39  C   UNL A   1      37.125  33.881  33.427  1.00  0.00     0.031 C 
ATOM     40  C   UNL A   1      37.487  30.975  29.341  1.00  0.00     0.029 A 
ATOM     41  N   UNL A   1      38.948  30.603  30.991  1.00  0.00    -0.354 N 
ATOM     42  C   UNL A   1      38.933  33.052  34.559  1.00  0.00     0.074 A 
ATOM     43  C   UNL A   1      37.876  34.040  34.507  1.00  0.00     0.031 C 
ATOM     44  C   UNL A   1      38.285  29.968  28.952  1.00  0.00     0.029 A 
ATOM     45  C   UNL A   1      39.283  29.725  29.988  1.00  0.00     0.049 A 
ATOM     46  H   UNL A   1      39.426  30.646  31.851  1.00  0.00     0.167 HD
ATOM     47  C   UNL A   1      39.792  32.900  35.594  1.00  0.00     0.037 A 
ATOM     48  C   UNL A   1      40.296  28.843  29.902  1.00  0.00     0.037 A 
ATOM     49  C   UNL A   1      40.829  31.904  35.643  1.00  0.00     0.049 A 
ATOM     50  C   UNL A   1      41.264  28.725  31.048  1.00  0.00     0.074 A 
ATOM     51  C   UNL A   1      41.703  31.620  36.678  1.00  0.00     0.029 A 
ATOM     52  N   UNL A   1      41.140  31.035  34.607  1.00  0.00    -0.354 N 
ATOM     53  N   UNL A   1      41.275  29.370  32.190  1.00  0.00    -0.248 NA
ATOM     54  C   UNL A   1      42.364  27.763  30.892  1.00  0.00     0.031 C 
ATOM     55  C   UNL A   1      42.583  30.622  36.245  1.00  0.00     0.029 A 
ATOM     56  C   UNL A   1      42.222  30.245  34.961  1.00  0.00     0.049 A 
ATOM     57  H   UNL A   1      40.663  30.989  33.746  1.00  0.00     0.167 HD
ATOM     58  C   UNL A   1      42.368  28.883  32.893  1.00  0.00     0.074 A 
ATOM     59  C   UNL A   1      42.983  27.871  32.059  1.00  0.00     0.031 C 
ATOM     60  C   UNL A   1      42.826  29.246  34.116  1.00  0.00     0.037 A 
BRANCH  47  61
ATOM     61  C   UNL A   1      39.648  33.833  36.761  1.00  0.00     0.064 A 
ATOM     62  C   UNL A   1      38.882  33.495  37.886  1.00  0.00     0.173 A 
ATOM     63  C   UNL A   1      40.322  35.064  36.774  1.00  0.00     0.173 A 
ATOM     64  F   UNL A   1      38.210  32.334  37.922  1.00  0.00    -0.203 F 
ATOM     65  C   UNL A   1      38.773  34.364  38.968  1.00  0.00     0.198 A 
ATOM     66  C   UNL A   1      40.237  35.917  37.870  1.00  0.00     0.198 A 
ATOM     67  F   UNL A   1      41.074  35.435  35.726  1.00  0.00    -0.203 F 
ATOM     68  F   UNL A   1      37.997  34.040  40.012  1.00  0.00    -0.200 F 
ATOM     69  C   UNL A   1      39.457  35.571  38.964  1.00  0.00     0.200 A 
ATOM     70  F   UNL A   1      40.910  37.076  37.870  1.00  0.00    -0.200 F 
ATOM     71  F   UNL A   1      39.360  36.402  40.010  1.00  0.00    -0.200 F 
ENDBRANCH  47  61
BRANCH  48  72
ATOM     72  C   UNL A   1      40.453  28.005  28.683  1.00  0.00     0.064 A 
ATOM     73  C   UNL A   1      39.830  26.754  28.585  1.00  0.00     0.173 A 
ATOM     74  C   UNL A   1      41.229  28.434  27.596  1.00  0.00     0.173 A 
ATOM     75  F   UNL A   1      39.093  26.292  29.607  1.00  0.00    -0.203 F 
ATOM     76  C   UNL A   1      39.992  25.954  27.456  1.00  0.00     0.198 A 
ATOM     77  C   UNL A   1      41.366  27.647  26.454  1.00  0.00     0.198 A 
ATOM     78  F   UNL A   1      41.844  29.624  27.636  1.00  0.00    -0.203 F 
ATOM     79  F   UNL A   1      39.423  24.742  27.408  1.00  0.00    -0.200 F 
ATOM     80  C   UNL A   1      40.755  26.405  26.388  1.00  0.00     0.200 A 
ATOM     81  F   UNL A   1      42.091  28.093  25.418  1.00  0.00    -0.200 F 
ATOM     82  F   UNL A   1      40.906  25.637  25.299  1.00  0.00    -0.200 F 
ENDBRANCH  48  72
BRANCH  60  83
ATOM     83  C   UNL A   1      44.046  28.541  34.632  1.00  0.00     0.064 A 
ATOM     84  C   UNL A   1      45.331  29.067  34.439  1.00  0.00     0.173 A 
ATOM     85  C   UNL A   1      43.926  27.356  35.374  1.00  0.00     0.173 A 
ATOM     86  F   UNL A   1      45.500  30.188  33.720  1.00  0.00    -0.203 F 
ATOM     87  C   UNL A   1      46.453  28.425  34.955  1.00  0.00     0.198 A 
ATOM     88  C   UNL A   1      45.047  26.733  35.916  1.00  0.00     0.198 A 
ATOM     89  F   UNL A   1      42.719  26.813  35.592  1.00  0.00    -0.203 F 
ATOM     90  F   UNL A   1      47.675  28.924  34.722  1.00  0.00    -0.200 F 
ATOM     91  C   UNL A   1      46.310  27.265  35.702  1.00  0.00     0.200 A 
ATOM     92  F   UNL A   1      44.905  25.620  36.650  1.00  0.00    -0.200 F 
ATOM     93  F   UNL A   1      47.390  26.656  36.210  1.00  0.00    -0.200 F 
ENDBRANCH  60  83
ENDBRANCH  34  35
ENDBRANCH  26  29
ENDBRANCH  24  25
ENDBRANCH  23  24
ENDBRANCH  22  23
ENDBRANCH   3  22
TORSDOF 16
ENDMDL
MODEL 3
REMARK VINA RESULT:     -11.6      0.665      7.520
REMARK SMILES COCc1cccc(C[NH2+][C@H](C)[C@H](C)C(=O)NCCCNC(=O)c2ccc(-c3c4nc(c(-c5c(F)c(F)c(F)c(F)c5F)c5ccc([nH]5)c(-c5c(F)c(F)c(F)c(F)c5F)c5nc(c(-c6c(F)c(F)c(F)c(F)c6F)c6ccc3[nH]6)C=C5)C=C4)cc2)c1
REMARK SMILES IDX 15 1 16 2 17 3 13 5 14 6 11 7 12 8 10 9 9 12 8 13 4 14 5 15
REMARK SMILES IDX 87 16 6 17 7 18 3 19 2 20 1 21 18 22 19 23 20 24 21 25 22 26
REMARK SMILES IDX 23 28 24 29 25 30 86 31 26 32 85 33 27 34 28 35 29 36 79 37
REMARK SMILES IDX 30 38 84 39 78 40 80 41 31 42 83 43 77 44 76 45 32 47 64 48
REMARK SMILES IDX 44 49 63 50 45 51 48 52 62 53 81 54 46 55 47 56 61 58 82 59
REMARK SMILES IDX 49 60 33 61 34 62 42 63 35 64 36 65 40 66 43 67 37 68 38 69
REMARK SMILES IDX 41 70 39 71 65 72 66 73 74 74 67 75 68 76 72 77 75 78 69 79
REMARK SMILES IDX 70 80 73 81 71 82 50 83 51 84 59 85 52 86 53 87 57 88 60 89
REMARK SMILES IDX 54 90 55 91 58 92 56 93
REMARK H PARENT 17 4 10 10 10 11 21 27 80 46 48 57
REMARK Flexibility Score: inf
ROOT
ATOM      1  C   UNL A   1      33.639  29.031  26.520  1.00  0.00     0.228 C 
ATOM      2  O   UNL A   1      34.795  28.938  26.941  1.00  0.00    -0.275 OA
ATOM      3  N   UNL A   1      33.111  30.275  26.433  1.00  0.00    -0.356 N 
ATOM      4  H   UNL A   1      33.726  31.000  26.687  1.00  0.00     0.163 HD
ENDROOT
BRANCH   1   5
ATOM      5  C   UNL A   1      32.851  27.791  26.129  1.00  0.00     0.133 C 
ATOM      6  C   UNL A   1      31.421  27.843  26.688  1.00  0.00     0.024 C 
BRANCH   5   7
ATOM      7  C   UNL A   1      32.891  27.442  24.618  1.00  0.00     0.191 C 
ATOM      8  C   UNL A   1      33.499  26.066  24.324  1.00  0.00     0.076 C 
BRANCH   7   9
ATOM      9  N   UNL A   1      31.524  27.484  24.083  1.00  0.00    -0.340 N 
ATOM     10  H   UNL A   1      31.191  26.526  23.972  1.00  0.00     0.346 HD
ATOM     11  H   UNL A   1      30.957  28.013  24.745  1.00  0.00     0.346 HD
BRANCH   9  12
ATOM     12  C   UNL A   1      31.428  28.162  22.793  1.00  0.00     0.297 C 
BRANCH  12  13
ATOM     13  C   UNL A   1      30.035  28.716  22.636  1.00  0.00     0.006 A 
ATOM     14  C   UNL A   1      28.536  30.512  21.960  1.00  0.00    -0.022 A 
ATOM     15  C   UNL A   1      27.458  29.794  22.497  1.00  0.00     0.006 A 
ATOM     16  C   UNL A   1      29.824  29.965  22.036  1.00  0.00     0.015 A 
ATOM     17  C   UNL A   1      27.661  28.559  23.108  1.00  0.00     0.001 A 
ATOM     18  C   UNL A   1      28.944  28.023  23.178  1.00  0.00     0.009 A 
BRANCH  14  19
ATOM     19  C   UNL A   1      28.326  31.885  21.373  1.00  0.00     0.195 C 
BRANCH  19  20
ATOM     20  O   UNL A   1      27.928  32.839  22.359  1.00  0.00    -0.380 OA
ATOM     21  C   UNL A   1      29.028  33.414  23.056  1.00  0.00     0.195 C 
ENDBRANCH  19  20
ENDBRANCH  14  19
ENDBRANCH  12  13
ENDBRANCH   9  12
ENDBRANCH   7   9
ENDBRANCH   5   7
ENDBRANCH   1   5
BRANCH   3  22
ATOM     22  C   UNL A   1      31.792  30.717  26.031  1.00  0.00     0.117 C 
BRANCH  22  23
ATOM     23  C   UNL A   1      31.465  32.094  26.583  1.00  0.00     0.042 C 
BRANCH  23  24
ATOM     24  C   UNL A   1      32.601  32.716  27.383  1.00  0.00     0.118 C 
BRANCH  24  25
ATOM     25  N   UNL A   1      32.393  34.135  27.647  1.00  0.00    -0.352 N 
ATOM     26  C   UNL A   1      32.977  34.951  28.585  1.00  0.00     0.251 C 
ATOM     27  H   UNL A   1      31.734  34.576  27.063  1.00  0.00     0.163 HD
ATOM     28  O   UNL A   1      32.531  36.076  28.787  1.00  0.00    -0.269 OA
BRANCH  26  29
ATOM     29  C   UNL A   1      34.122  34.456  29.374  1.00  0.00     0.039 A 
ATOM     30  C   UNL A   1      33.888  33.902  30.634  1.00  0.00     0.014 A 
ATOM     31  C   UNL A   1      35.417  34.508  28.855  1.00  0.00     0.014 A 
ATOM     32  C   UNL A   1      34.940  33.302  31.327  1.00  0.00     0.010 A 
ATOM     33  C   UNL A   1      36.443  33.832  29.504  1.00  0.00     0.010 A 
ATOM     34  C   UNL A   1      36.211  33.208  30.739  1.00  0.00    -0.014 A 
BRANCH  34  35
ATOM     35  C   UNL A   1      37.305  32.427  31.368  1.00  0.00     0.031 A 
ATOM     36  C   UNL A   1      37.830  32.816  32.720  1.00  0.00     0.074 A 
ATOM     37  C   UNL A   1      37.891  31.433  30.672  1.00  0.00     0.049 A 
ATOM     38  N   UNL A   1      38.860  32.345  33.375  1.00  0.00    -0.248 NA
ATOM     39  C   UNL A   1      37.117  33.899  33.417  1.00  0.00     0.031 C 
ATOM     40  C   UNL A   1      37.497  30.992  29.333  1.00  0.00     0.029 A 
ATOM     41  N   UNL A   1      38.958  30.628  30.985  1.00  0.00    -0.354 N 
ATOM     42  C   UNL A   1      38.927  33.080  34.551  1.00  0.00     0.074 A 
ATOM     43  C   UNL A   1      37.866  34.062  34.497  1.00  0.00     0.031 C 
ATOM     44  C   UNL A   1      38.301  29.989  28.945  1.00  0.00     0.029 A 
ATOM     45  C   UNL A   1      39.299  29.751  29.983  1.00  0.00     0.049 A 
ATOM     46  H   UNL A   1      39.434  30.674  31.846  1.00  0.00     0.167 HD
ATOM     47  C   UNL A   1      39.785  32.932  35.587  1.00  0.00     0.037 A 
ATOM     48  C   UNL A   1      40.316  28.873  29.899  1.00  0.00     0.037 A 
ATOM     49  C   UNL A   1      40.826  31.941  35.638  1.00  0.00     0.049 A 
ATOM     50  C   UNL A   1      41.282  28.761  31.046  1.00  0.00     0.074 A 
ATOM     51  C   UNL A   1      41.701  31.662  36.674  1.00  0.00     0.029 A 
ATOM     52  N   UNL A   1      41.143  31.073  34.603  1.00  0.00    -0.354 N 
ATOM     53  N   UNL A   1      41.289  29.407  32.188  1.00  0.00    -0.248 NA
ATOM     54  C   UNL A   1      42.387  27.804  30.892  1.00  0.00     0.031 C 
ATOM     55  C   UNL A   1      42.586  30.667  36.243  1.00  0.00     0.029 A 
ATOM     56  C   UNL A   1      42.228  30.288  34.959  1.00  0.00     0.049 A 
ATOM     57  H   UNL A   1      40.668  31.024  33.742  1.00  0.00     0.167 HD
ATOM     58  C   UNL A   1      42.384  28.925  32.892  1.00  0.00     0.074 A 
ATOM     59  C   UNL A   1      43.004  27.915  32.060  1.00  0.00     0.031 C 
ATOM     60  C   UNL A   1      42.838  29.291  34.116  1.00  0.00     0.037 A 
BRANCH  47  61
ATOM     61  C   UNL A   1      39.635  33.865  36.754  1.00  0.00     0.064 A 
ATOM     62  C   UNL A   1      38.874  33.521  37.881  1.00  0.00     0.173 A 
ATOM     63  C   UNL A   1      40.298  35.102  36.764  1.00  0.00     0.173 A 
ATOM     64  F   UNL A   1      38.212  32.355  37.919  1.00  0.00    -0.203 F 
ATOM     65  C   UNL A   1      38.760  34.391  38.962  1.00  0.00     0.198 A 
ATOM     66  C   UNL A   1      40.208  35.956  37.859  1.00  0.00     0.198 A 
ATOM     67  F   UNL A   1      41.044  35.479  35.714  1.00  0.00    -0.203 F 
ATOM     68  F   UNL A   1      37.989  34.061  40.007  1.00  0.00    -0.200 F 
ATOM     69  C   UNL A   1      39.433  35.604  38.955  1.00  0.00     0.200 A 
ATOM     70  F   UNL A   1      40.871  37.121  37.856  1.00  0.00    -0.200 F 
ATOM     71  F   UNL A   1      39.330  36.435  40.000  1.00  0.00    -0.200 F 
ENDBRANCH  47  61
BRANCH  48  72
ATOM     72  C   UNL A   1      40.477  28.036  28.681  1.00  0.00     0.064 A 
ATOM     73  C   UNL A   1      39.866  26.779  28.585  1.00  0.00     0.173 A 
ATOM     74  C   UNL A   1      41.249  28.470  27.592  1.00  0.00     0.173 A 
ATOM     75  F   UNL A   1      39.135  26.311  29.608  1.00  0.00    -0.203 F 
ATOM     76  C   UNL A   1      40.033  25.979  27.456  1.00  0.00     0.198 A 
ATOM     77  C   UNL A   1      41.391  27.683  26.451  1.00  0.00     0.198 A 
ATOM     78  F   UNL A   1      41.853  29.666  27.629  1.00  0.00    -0.203 F 
ATOM     79  F   UNL A   1      39.475  24.762  27.411  1.00  0.00    -0.200 F 
ATOM     80  C   UNL A   1      40.790  26.435  26.387  1.00  0.00     0.200 A 
ATOM     81  F   UNL A   1      42.110  28.134  25.413  1.00  0.00    -0.200 F 
ATOM     82  F   UNL A   1      40.947  25.668  25.299  1.00  0.00    -0.200 F 
ENDBRANCH  48  72
BRANCH  60  83
ATOM     83  C   UNL A   1      44.061  28.592  34.634  1.00  0.00     0.064 A 
ATOM     84  C   UNL A   1      43.971  27.376  35.326  1.00  0.00     0.173 A 
ATOM     85  C   UNL A   1      45.340  29.116  34.388  1.00  0.00     0.173 A 
ATOM     86  F   UNL A   1      42.770  26.844  35.603  1.00  0.00    -0.203 F 
ATOM     87  C   UNL A   1      45.115  26.718  35.768  1.00  0.00     0.198 A 
ATOM     88  C   UNL A   1      46.483  28.439  34.804  1.00  0.00     0.198 A 
ATOM     89  F   UNL A   1      45.481  30.274  33.726  1.00  0.00    -0.203 F 
ATOM     90  F   UNL A   1      45.003  25.578  36.464  1.00  0.00    -0.200 F 
ATOM     91  C   UNL A   1      46.370  27.244  35.498  1.00  0.00     0.200 A 
ATOM     92  F   UNL A   1      47.695  28.942  34.528  1.00  0.00    -0.200 F 
ATOM     93  F   UNL A   1      47.470  26.601  35.912  1.00  0.00    -0.200 F 
ENDBRANCH  60  83
ENDBRANCH  34  35
ENDBRANCH  26  29
ENDBRANCH  24  25
ENDBRANCH  23  24
ENDBRANCH  22  23
ENDBRANCH   3  22
TORSDOF 16
ENDMDL
