MODEL 1
REMARK VINA RESULT:     -13.4      0.000      0.000
REMARK SMILES O=C1C[C@H](C(=O)NCCCNC(=O)c2ccc(-c3c4nc(c(-c5c(F)c(F)c(F)c(F)c5F)c5ccc([nH]5)c(-c5c(F)c(F)c(F)c(F)c5F)c5nc(c(-c6c(F)c(F)c(F)c(F)c6F)c6ccc3[nH]6)C=C5)C=C4)cc2)c2c(nc(N3CCSCC3)[nH]c2=O)N1
REMARK SMILES IDX 9 1 8 2 7 3 5 4 6 5 4 7 1 8 2 9 3 10 90 11 78 12 77 14 79 15
REMARK SMILES IDX 88 16 80 17 87 18 89 19 81 21 82 22 86 23 83 24 85 25 84 26
REMARK SMILES IDX 10 27 11 28 12 29 13 31 14 32 15 33 76 34 16 35 75 36 17 37
REMARK SMILES IDX 18 38 19 39 69 40 20 41 74 42 68 43 70 44 21 45 73 46 67 47
REMARK SMILES IDX 66 48 22 50 54 51 34 52 53 53 35 54 38 55 52 56 71 57 36 58
REMARK SMILES IDX 37 59 51 61 72 62 39 63 23 64 24 65 32 66 25 67 26 68 30 69
REMARK SMILES IDX 33 70 27 71 28 72 31 73 29 74 55 75 56 76 64 77 57 78 58 79
REMARK SMILES IDX 62 80 65 81 59 82 60 83 63 84 61 85 40 86 41 87 49 88 42 89
REMARK SMILES IDX 43 90 47 91 50 92 44 93 45 94 48 95 46 96
REMARK H PARENT 7 6 90 13 87 20 11 30 70 49 38 60
REMARK Flexibility Score: inf
ROOT
ATOM      1  C   UNL A   1      31.459  32.511  26.546  1.00  0.00     0.042 C 
ENDROOT
BRANCH   1   2
ATOM      2  C   UNL A   1      31.376  30.991  26.544  1.00  0.00     0.117 C 
BRANCH   2   3
ATOM      3  N   UNL A   1      32.680  30.382  26.741  1.00  0.00    -0.355 N 
ATOM      4  C   UNL A   1      33.289  29.324  26.137  1.00  0.00     0.228 C 
ATOM      5  O   UNL A   1      34.348  28.928  26.632  1.00  0.00    -0.274 OA
ATOM      6  H   UNL A   1      33.225  30.813  27.439  1.00  0.00     0.163 HD
BRANCH   4   7
ATOM      7  C   UNL A   1      32.668  28.593  24.944  1.00  0.00     0.127 C 
ATOM      8  O   UNL A   1      34.135  27.907  21.612  1.00  0.00    -0.275 OA
ATOM      9  C   UNL A   1      33.693  27.740  22.746  1.00  0.00     0.226 C 
ATOM     10  C   UNL A   1      33.486  28.901  23.689  1.00  0.00     0.119 C 
ATOM     11  N   UNL A   1      33.451  26.486  23.222  1.00  0.00    -0.310 N 
ATOM     12  C   UNL A   1      32.897  26.166  24.421  1.00  0.00     0.146 A 
ATOM     13  H   UNL A   1      33.702  25.735  22.637  1.00  0.00     0.171 HD
ATOM     14  C   UNL A   1      32.472  27.138  25.235  1.00  0.00     0.073 A 
ATOM     15  N   UNL A   1      32.853  24.830  24.690  1.00  0.00    -0.196 NA
ATOM     16  C   UNL A   1      31.816  26.709  26.479  1.00  0.00     0.258 A 
ATOM     17  C   UNL A   1      32.292  24.457  25.799  1.00  0.00     0.207 A 
ATOM     18  N   UNL A   1      31.762  25.363  26.668  1.00  0.00    -0.292 N 
ATOM     19  O   UNL A   1      31.361  27.497  27.298  1.00  0.00    -0.269 OA
ATOM     20  H   UNL A   1      31.316  25.025  27.478  1.00  0.00     0.173 HD
BRANCH  17  21
ATOM     21  N   UNL A   1      32.227  23.150  26.198  1.00  0.00    -0.341 N 
ATOM     22  C   UNL A   1      31.326  22.183  25.564  1.00  0.00     0.130 C 
ATOM     23  C   UNL A   1      33.183  22.609  27.171  1.00  0.00     0.130 C 
ATOM     24  C   UNL A   1      32.103  21.133  24.766  1.00  0.00     0.091 C 
ATOM     25  C   UNL A   1      34.130  21.578  26.561  1.00  0.00     0.091 C 
ATOM     26  S   UNL A   1      33.228  20.168  25.829  1.00  0.00    -0.158 SA
ENDBRANCH  17  21
ENDBRANCH   4   7
ENDBRANCH   2   3
ENDBRANCH   1   2
BRANCH   1  27
ATOM     27  C   UNL A   1      32.637  33.050  27.348  1.00  0.00     0.118 C 
BRANCH  27  28
ATOM     28  N   UNL A   1      32.457  34.447  27.721  1.00  0.00    -0.352 N 
ATOM     29  C   UNL A   1      33.036  35.152  28.746  1.00  0.00     0.251 C 
ATOM     30  H   UNL A   1      31.830  34.957  27.157  1.00  0.00     0.163 HD
ATOM     31  O   UNL A   1      32.617  36.264  29.053  1.00  0.00    -0.269 OA
BRANCH  29  32
ATOM     32  C   UNL A   1      34.161  34.554  29.492  1.00  0.00     0.039 A 
ATOM     33  C   UNL A   1      33.909  33.927  30.713  1.00  0.00     0.014 A 
ATOM     34  C   UNL A   1      35.460  34.614  28.979  1.00  0.00     0.014 A 
ATOM     35  C   UNL A   1      34.956  33.303  31.392  1.00  0.00     0.010 A 
ATOM     36  C   UNL A   1      36.487  33.929  29.618  1.00  0.00     0.010 A 
ATOM     37  C   UNL A   1      36.246  33.279  30.837  1.00  0.00    -0.014 A 
BRANCH  37  38
ATOM     38  C   UNL A   1      37.367  32.614  31.540  1.00  0.00     0.031 A 
ATOM     39  C   UNL A   1      38.073  31.461  30.885  1.00  0.00     0.074 A 
ATOM     40  C   UNL A   1      37.723  33.022  32.773  1.00  0.00     0.049 A 
ATOM     41  N   UNL A   1      39.065  30.737  31.336  1.00  0.00    -0.248 NA
ATOM     42  C   UNL A   1      37.586  31.055  29.557  1.00  0.00     0.031 C 
ATOM     43  C   UNL A   1      37.085  34.104  33.521  1.00  0.00     0.029 A 
ATOM     44  N   UNL A   1      38.709  32.569  33.614  1.00  0.00    -0.354 N 
ATOM     45  C   UNL A   1      39.322  29.799  30.346  1.00  0.00     0.074 A 
ATOM     46  C   UNL A   1      38.342  29.998  29.302  1.00  0.00     0.031 C 
ATOM     47  C   UNL A   1      37.712  34.250  34.700  1.00  0.00     0.029 A 
ATOM     48  C   UNL A   1      38.777  33.255  34.800  1.00  0.00     0.049 A 
ATOM     49  H   UNL A   1      39.309  31.823  33.387  1.00  0.00     0.167 HD
ATOM     50  C   UNL A   1      40.310  28.876  30.297  1.00  0.00     0.037 A 
ATOM     51  C   UNL A   1      39.610  33.100  35.847  1.00  0.00     0.037 A 
ATOM     52  C   UNL A   1      41.293  28.692  31.330  1.00  0.00     0.049 A 
ATOM     53  C   UNL A   1      40.677  32.039  35.785  1.00  0.00     0.074 A 
ATOM     54  C   UNL A   1      42.365  27.818  31.353  1.00  0.00     0.029 A 
ATOM     55  N   UNL A   1      41.320  29.395  32.525  1.00  0.00    -0.354 N 
ATOM     56  N   UNL A   1      40.957  31.205  34.814  1.00  0.00    -0.248 NA
ATOM     57  C   UNL A   1      41.546  31.901  36.963  1.00  0.00     0.031 C 
ATOM     58  C   UNL A   1      43.016  27.962  32.582  1.00  0.00     0.029 A 
ATOM     59  C   UNL A   1      42.378  28.957  33.305  1.00  0.00     0.049 A 
ATOM     60  H   UNL A   1      40.683  30.101  32.781  1.00  0.00     0.167 HD
ATOM     61  C   UNL A   1      42.045  30.461  35.251  1.00  0.00     0.074 A 
ATOM     62  C   UNL A   1      42.383  30.950  36.571  1.00  0.00     0.031 C 
ATOM     63  C   UNL A   1      42.702  29.461  34.615  1.00  0.00     0.037 A 
BRANCH  50  64
ATOM     64  C   UNL A   1      40.393  28.011  29.076  1.00  0.00     0.064 A 
ATOM     65  C   UNL A   1      39.686  26.802  28.993  1.00  0.00     0.173 A 
ATOM     66  C   UNL A   1      41.142  28.413  27.961  1.00  0.00     0.173 A 
ATOM     67  F   UNL A   1      38.966  26.367  30.038  1.00  0.00    -0.203 F 
ATOM     68  C   UNL A   1      39.741  26.017  27.845  1.00  0.00     0.198 A 
ATOM     69  C   UNL A   1      41.172  27.640  26.804  1.00  0.00     0.198 A 
ATOM     70  F   UNL A   1      41.833  29.562  27.990  1.00  0.00    -0.203 F 
ATOM     71  F   UNL A   1      39.088  24.848  27.802  1.00  0.00    -0.200 F 
ATOM     72  C   UNL A   1      40.477  26.441  26.748  1.00  0.00     0.200 A 
ATOM     73  F   UNL A   1      41.874  28.055  25.741  1.00  0.00    -0.200 F 
ATOM     74  F   UNL A   1      40.519  25.691  25.637  1.00  0.00    -0.200 F 
ENDBRANCH  50  64
BRANCH  51  75
ATOM     75  C   UNL A   1      39.496  34.000  37.023  1.00  0.00     0.064 A 
ATOM     76  C   UNL A   1      38.766  33.608  38.154  1.00  0.00     0.173 A 
ATOM     77  C   UNL A   1      40.121  35.255  37.052  1.00  0.00     0.173 A 
ATOM     78  F   UNL A   1      38.134  32.425  38.166  1.00  0.00    -0.203 F 
ATOM     79  C   UNL A   1      38.656  34.442  39.265  1.00  0.00     0.198 A 
ATOM     80  C   UNL A   1      40.030  36.078  38.173  1.00  0.00     0.198 A 
ATOM     81  F   UNL A   1      40.833  35.674  35.996  1.00  0.00    -0.203 F 
ATOM     82  F   UNL A   1      37.925  34.056  40.320  1.00  0.00    -0.200 F 
ATOM     83  C   UNL A   1      39.294  35.673  39.276  1.00  0.00     0.200 A 
ATOM     84  F   UNL A   1      40.657  37.262  38.184  1.00  0.00    -0.200 F 
ATOM     85  F   UNL A   1      39.195  36.471  40.348  1.00  0.00    -0.200 F 
ENDBRANCH  51  75
BRANCH  63  86
ATOM     86  C   UNL A   1      43.865  28.830  35.322  1.00  0.00     0.064 A 
ATOM     87  C   UNL A   1      45.168  29.320  35.160  1.00  0.00     0.173 A 
ATOM     88  C   UNL A   1      43.657  27.792  36.243  1.00  0.00     0.173 A 
ATOM     89  F   UNL A   1      45.415  30.302  34.281  1.00  0.00    -0.203 F 
ATOM     90  C   UNL A   1      46.225  28.788  35.893  1.00  0.00     0.198 A 
ATOM     91  C   UNL A   1      44.713  27.282  36.994  1.00  0.00     0.198 A 
ATOM     92  F   UNL A   1      42.427  27.297  36.439  1.00  0.00    -0.203 F 
ATOM     93  F   UNL A   1      47.468  29.254  35.706  1.00  0.00    -0.200 F 
ATOM     94  C   UNL A   1      45.996  27.779  36.816  1.00  0.00     0.200 A 
ATOM     95  F   UNL A   1      44.487  26.319  37.898  1.00  0.00    -0.200 F 
ATOM     96  F   UNL A   1      47.012  27.286  37.537  1.00  0.00    -0.200 F 
ENDBRANCH  63  86
ENDBRANCH  37  38
ENDBRANCH  29  32
ENDBRANCH  27  28
ENDBRANCH   1  27
TORSDOF 11
ENDMDL
MODEL 2
REMARK VINA RESULT:     -13.4      0.245      1.603
REMARK SMILES O=C1C[C@H](C(=O)NCCCNC(=O)c2ccc(-c3c4nc(c(-c5c(F)c(F)c(F)c(F)c5F)c5ccc([nH]5)c(-c5c(F)c(F)c(F)c(F)c5F)c5nc(c(-c6c(F)c(F)c(F)c(F)c6F)c6ccc3[nH]6)C=C5)C=C4)cc2)c2c(nc(N3CCSCC3)[nH]c2=O)N1
REMARK SMILES IDX 9 1 8 2 7 3 5 4 6 5 4 7 1 8 2 9 3 10 90 11 78 12 77 14 79 15
REMARK SMILES IDX 88 16 80 17 87 18 89 19 81 21 82 22 86 23 83 24 85 25 84 26
REMARK SMILES IDX 10 27 11 28 12 29 13 31 14 32 15 33 76 34 16 35 75 36 17 37
REMARK SMILES IDX 18 38 19 39 69 40 20 41 74 42 68 43 70 44 21 45 73 46 67 47
REMARK SMILES IDX 66 48 22 50 54 51 34 52 53 53 35 54 38 55 52 56 71 57 36 58
REMARK SMILES IDX 37 59 51 61 72 62 39 63 23 64 24 65 32 66 25 67 26 68 30 69
REMARK SMILES IDX 33 70 27 71 28 72 31 73 29 74 55 75 56 76 64 77 57 78 58 79
REMARK SMILES IDX 62 80 65 81 59 82 60 83 63 84 61 85 40 86 41 87 49 88 42 89
REMARK SMILES IDX 43 90 47 91 50 92 44 93 45 94 48 95 46 96
REMARK H PARENT 7 6 90 13 87 20 11 30 70 49 38 60
REMARK Flexibility Score: inf
ROOT
ATOM      1  C   UNL A   1      31.427  32.506  26.563  1.00  0.00     0.042 C 
ENDROOT
BRANCH   1   2
ATOM      2  C   UNL A   1      31.354  30.985  26.582  1.00  0.00     0.117 C 
BRANCH   2   3
ATOM      3  N   UNL A   1      32.664  30.388  26.779  1.00  0.00    -0.355 N 
ATOM      4  C   UNL A   1      33.282  29.336  26.174  1.00  0.00     0.228 C 
ATOM      5  O   UNL A   1      34.345  28.950  26.668  1.00  0.00    -0.274 OA
ATOM      6  H   UNL A   1      33.204  30.823  27.479  1.00  0.00     0.163 HD
BRANCH   4   7
ATOM      7  C   UNL A   1      32.669  28.602  24.978  1.00  0.00     0.127 C 
ATOM      8  O   UNL A   1      34.140  27.948  21.641  1.00  0.00    -0.275 OA
ATOM      9  C   UNL A   1      33.702  27.771  22.775  1.00  0.00     0.226 C 
ATOM     10  C   UNL A   1      33.482  28.926  23.723  1.00  0.00     0.119 C 
ATOM     11  N   UNL A   1      33.477  26.512  23.247  1.00  0.00    -0.310 N 
ATOM     12  C   UNL A   1      32.929  26.180  24.446  1.00  0.00     0.146 A 
ATOM     13  H   UNL A   1      33.737  25.767  22.659  1.00  0.00     0.171 HD
ATOM     14  C   UNL A   1      32.493  27.144  25.264  1.00  0.00     0.073 A 
ATOM     15  N   UNL A   1      32.903  24.842  24.710  1.00  0.00    -0.196 NA
ATOM     16  C   UNL A   1      31.844  26.701  26.508  1.00  0.00     0.258 A 
ATOM     17  C   UNL A   1      32.349  24.458  25.818  1.00  0.00     0.207 A 
ATOM     18  N   UNL A   1      31.808  25.354  26.692  1.00  0.00    -0.292 N 
ATOM     19  O   UNL A   1      31.380  27.480  27.330  1.00  0.00    -0.269 OA
ATOM     20  H   UNL A   1      31.368  25.007  27.501  1.00  0.00     0.173 HD
BRANCH  17  21
ATOM     21  N   UNL A   1      32.301  23.149  26.212  1.00  0.00    -0.341 N 
ATOM     22  C   UNL A   1      31.349  22.194  25.638  1.00  0.00     0.130 C 
ATOM     23  C   UNL A   1      33.320  22.594  27.110  1.00  0.00     0.130 C 
ATOM     24  C   UNL A   1      32.058  21.143  24.780  1.00  0.00     0.091 C 
ATOM     25  C   UNL A   1      34.212  21.559  26.427  1.00  0.00     0.091 C 
ATOM     26  S   UNL A   1      33.248  20.162  25.753  1.00  0.00    -0.158 SA
ENDBRANCH  17  21
ENDBRANCH   4   7
ENDBRANCH   2   3
ENDBRANCH   1   2
BRANCH   1  27
ATOM     27  C   UNL A   1      32.635  33.061  27.306  1.00  0.00     0.118 C 
BRANCH  27  28
ATOM     28  N   UNL A   1      32.439  34.444  27.719  1.00  0.00    -0.352 N 
ATOM     29  C   UNL A   1      33.017  35.128  28.760  1.00  0.00     0.251 C 
ATOM     30  H   UNL A   1      31.804  34.962  27.174  1.00  0.00     0.163 HD
ATOM     31  O   UNL A   1      32.585  36.224  29.101  1.00  0.00    -0.269 OA
BRANCH  29  32
ATOM     32  C   UNL A   1      34.153  34.523  29.483  1.00  0.00     0.039 A 
ATOM     33  C   UNL A   1      33.919  33.877  30.698  1.00  0.00     0.014 A 
ATOM     34  C   UNL A   1      35.445  34.595  28.954  1.00  0.00     0.014 A 
ATOM     35  C   UNL A   1      34.978  33.246  31.354  1.00  0.00     0.010 A 
ATOM     36  C   UNL A   1      36.483  33.905  29.570  1.00  0.00     0.010 A 
ATOM     37  C   UNL A   1      36.260  33.236  30.782  1.00  0.00    -0.014 A 
BRANCH  37  38
ATOM     38  C   UNL A   1      37.393  32.565  31.460  1.00  0.00     0.031 A 
ATOM     39  C   UNL A   1      38.085  31.416  30.785  1.00  0.00     0.074 A 
ATOM     40  C   UNL A   1      37.771  32.964  32.689  1.00  0.00     0.049 A 
ATOM     41  N   UNL A   1      39.084  30.688  31.213  1.00  0.00    -0.248 NA
ATOM     42  C   UNL A   1      37.575  31.020  29.463  1.00  0.00     0.031 C 
ATOM     43  C   UNL A   1      37.148  34.041  33.456  1.00  0.00     0.029 A 
ATOM     44  N   UNL A   1      38.771  32.504  33.510  1.00  0.00    -0.354 N 
ATOM     45  C   UNL A   1      39.323  29.756  30.212  1.00  0.00     0.074 A 
ATOM     46  C   UNL A   1      38.325  29.964  29.187  1.00  0.00     0.031 C 
ATOM     47  C   UNL A   1      37.796  34.179  34.625  1.00  0.00     0.029 A 
ATOM     48  C   UNL A   1      38.861  33.182  34.700  1.00  0.00     0.049 A 
ATOM     49  H   UNL A   1      39.366  31.759  33.267  1.00  0.00     0.167 HD
ATOM     50  C   UNL A   1      40.310  28.833  30.140  1.00  0.00     0.037 A 
ATOM     51  C   UNL A   1      39.713  33.019  35.730  1.00  0.00     0.037 A 
ATOM     52  C   UNL A   1      41.310  28.641  31.154  1.00  0.00     0.049 A 
ATOM     53  C   UNL A   1      40.777  31.958  35.642  1.00  0.00     0.074 A 
ATOM     54  C   UNL A   1      42.381  27.766  31.152  1.00  0.00     0.029 A 
ATOM     55  N   UNL A   1      41.359  29.336  32.353  1.00  0.00    -0.354 N 
ATOM     56  N   UNL A   1      41.039  31.130  34.660  1.00  0.00    -0.248 NA
ATOM     57  C   UNL A   1      41.667  31.810  36.803  1.00  0.00     0.031 C 
ATOM     58  C   UNL A   1      43.055  27.900  32.369  1.00  0.00     0.029 A 
ATOM     59  C   UNL A   1      42.430  28.891  33.111  1.00  0.00     0.049 A 
ATOM     60  H   UNL A   1      40.728  30.040  32.625  1.00  0.00     0.167 HD
ATOM     61  C   UNL A   1      42.133  30.382  35.072  1.00  0.00     0.074 A 
ATOM     62  C   UNL A   1      42.495  30.861  36.390  1.00  0.00     0.031 C 
ATOM     63  C   UNL A   1      42.778  29.386  34.418  1.00  0.00     0.037 A 
BRANCH  50  64
ATOM     64  C   UNL A   1      40.370  27.976  28.911  1.00  0.00     0.064 A 
ATOM     65  C   UNL A   1      41.126  28.360  27.793  1.00  0.00     0.173 A 
ATOM     66  C   UNL A   1      39.709  26.740  28.865  1.00  0.00     0.173 A 
ATOM     67  F   UNL A   1      41.765  29.540  27.783  1.00  0.00    -0.203 F 
ATOM     68  C   UNL A   1      41.204  27.546  26.668  1.00  0.00     0.198 A 
ATOM     69  C   UNL A   1      39.813  25.915  27.749  1.00  0.00     0.198 A 
ATOM     70  F   UNL A   1      38.976  26.327  29.910  1.00  0.00    -0.203 F 
ATOM     71  F   UNL A   1      41.902  27.951  25.597  1.00  0.00    -0.200 F 
ATOM     72  C   UNL A   1      40.555  26.321  26.650  1.00  0.00     0.200 A 
ATOM     73  F   UNL A   1      39.194  24.727  27.737  1.00  0.00    -0.200 F 
ATOM     74  F   UNL A   1      40.641  25.531  25.569  1.00  0.00    -0.200 F 
ENDBRANCH  50  64
BRANCH  51  75
ATOM     75  C   UNL A   1      39.620  33.911  36.915  1.00  0.00     0.064 A 
ATOM     76  C   UNL A   1      38.883  33.525  38.043  1.00  0.00     0.173 A 
ATOM     77  C   UNL A   1      40.273  35.151  36.954  1.00  0.00     0.173 A 
ATOM     78  F   UNL A   1      38.225  32.356  38.045  1.00  0.00    -0.203 F 
ATOM     79  C   UNL A   1      38.794  34.351  39.161  1.00  0.00     0.198 A 
ATOM     80  C   UNL A   1      40.202  35.966  38.081  1.00  0.00     0.198 A 
ATOM     81  F   UNL A   1      40.993  35.563  35.900  1.00  0.00    -0.203 F 
ATOM     82  F   UNL A   1      38.056  33.972  40.214  1.00  0.00    -0.200 F 
ATOM     83  C   UNL A   1      39.459  35.568  39.182  1.00  0.00     0.200 A 
ATOM     84  F   UNL A   1      40.855  37.136  38.102  1.00  0.00    -0.200 F 
ATOM     85  F   UNL A   1      39.379  36.358  40.261  1.00  0.00    -0.200 F 
ENDBRANCH  51  75
BRANCH  63  86
ATOM     86  C   UNL A   1      43.952  28.749  35.100  1.00  0.00     0.064 A 
ATOM     87  C   UNL A   1      43.792  27.633  35.933  1.00  0.00     0.173 A 
ATOM     88  C   UNL A   1      45.255  29.197  34.838  1.00  0.00     0.173 A 
ATOM     89  F   UNL A   1      42.565  27.177  36.222  1.00  0.00    -0.203 F 
ATOM     90  C   UNL A   1      44.898  26.992  36.486  1.00  0.00     0.198 A 
ATOM     91  C   UNL A   1      46.359  28.537  35.370  1.00  0.00     0.198 A 
ATOM     92  F   UNL A   1      45.459  30.255  34.039  1.00  0.00    -0.203 F 
ATOM     93  F   UNL A   1      44.723  25.941  37.300  1.00  0.00    -0.200 F 
ATOM     94  C   UNL A   1      46.179  27.436  36.195  1.00  0.00     0.200 A 
ATOM     95  F   UNL A   1      47.597  28.957  35.074  1.00  0.00    -0.200 F 
ATOM     96  F   UNL A   1      47.242  26.803  36.709  1.00  0.00    -0.200 F 
ENDBRANCH  63  86
ENDBRANCH  37  38
ENDBRANCH  29  32
ENDBRANCH  27  28
ENDBRANCH   1  27
TORSDOF 11
ENDMDL
MODEL 3
REMARK VINA RESULT:     -13.4      0.739      7.303
REMARK SMILES O=C1C[C@H](C(=O)NCCCNC(=O)c2ccc(-c3c4nc(c(-c5c(F)c(F)c(F)c(F)c5F)c5ccc([nH]5)c(-c5c(F)c(F)c(F)c(F)c5F)c5nc(c(-c6c(F)c(F)c(F)c(F)c6F)c6ccc3[nH]6)C=C5)C=C4)cc2)c2c(nc(N3CCSCC3)[nH]c2=O)N1
REMARK SMILES IDX 9 1 8 2 7 3 5 4 6 5 4 7 1 8 2 9 3 10 90 11 78 12 77 14 79 15
REMARK SMILES IDX 88 16 80 17 87 18 89 19 81 21 82 22 86 23 83 24 85 25 84 26
REMARK SMILES IDX 10 27 11 28 12 29 13 31 14 32 15 33 76 34 16 35 75 36 17 37
REMARK SMILES IDX 18 38 19 39 69 40 20 41 74 42 68 43 70 44 21 45 73 46 67 47
REMARK SMILES IDX 66 48 22 50 54 51 34 52 53 53 35 54 38 55 52 56 71 57 36 58
REMARK SMILES IDX 37 59 51 61 72 62 39 63 23 64 24 65 32 66 25 67 26 68 30 69
REMARK SMILES IDX 33 70 27 71 28 72 31 73 29 74 55 75 56 76 64 77 57 78 58 79
REMARK SMILES IDX 62 80 65 81 59 82 60 83 63 84 61 85 40 86 41 87 49 88 42 89
REMARK SMILES IDX 43 90 47 91 50 92 44 93 45 94 48 95 46 96
REMARK H PARENT 7 6 90 13 87 20 11 30 70 49 38 60
REMARK Flexibility Score: inf
ROOT
ATOM      1  C   UNL A   1      31.399  32.470  26.581  1.00  0.00     0.042 C 
ENDROOT
BRANCH   1   2
ATOM      2  C   UNL A   1      31.332  30.949  26.615  1.00  0.00     0.117 C 
BRANCH   2   3
ATOM      3  N   UNL A   1      32.647  30.358  26.792  1.00  0.00    -0.355 N 
ATOM      4  C   UNL A   1      33.265  29.317  26.168  1.00  0.00     0.228 C 
ATOM      5  O   UNL A   1      34.335  28.931  26.647  1.00  0.00    -0.274 OA
ATOM      6  H   UNL A   1      33.191  30.787  27.491  1.00  0.00     0.163 HD
BRANCH   4   7
ATOM      7  C   UNL A   1      32.644  28.593  24.970  1.00  0.00     0.127 C 
ATOM      8  O   UNL A   1      34.104  27.944  21.627  1.00  0.00    -0.275 OA
ATOM      9  C   UNL A   1      33.666  27.764  22.761  1.00  0.00     0.226 C 
ATOM     10  C   UNL A   1      33.457  28.916  23.715  1.00  0.00     0.119 C 
ATOM     11  N   UNL A   1      33.432  26.505  23.228  1.00  0.00    -0.310 N 
ATOM     12  C   UNL A   1      32.884  26.172  24.426  1.00  0.00     0.146 A 
ATOM     13  H   UNL A   1      33.686  25.761  22.636  1.00  0.00     0.171 HD
ATOM     14  C   UNL A   1      32.457  27.135  25.249  1.00  0.00     0.073 A 
ATOM     15  N   UNL A   1      32.849  24.833  24.684  1.00  0.00    -0.196 NA
ATOM     16  C   UNL A   1      31.807  26.692  26.492  1.00  0.00     0.258 A 
ATOM     17  C   UNL A   1      32.293  24.448  25.791  1.00  0.00     0.207 A 
ATOM     18  N   UNL A   1      31.761  25.344  26.670  1.00  0.00    -0.292 N 
ATOM     19  O   UNL A   1      31.351  27.470  27.319  1.00  0.00    -0.269 OA
ATOM     20  H   UNL A   1      31.320  24.997  27.479  1.00  0.00     0.173 HD
BRANCH  17  21
ATOM     21  N   UNL A   1      32.236  23.138  26.179  1.00  0.00    -0.341 N 
ATOM     22  C   UNL A   1      31.348  22.168  25.530  1.00  0.00     0.130 C 
ATOM     23  C   UNL A   1      33.189  22.597  27.156  1.00  0.00     0.130 C 
ATOM     24  C   UNL A   1      32.142  21.131  24.731  1.00  0.00     0.091 C 
ATOM     25  C   UNL A   1      34.150  21.579  26.546  1.00  0.00     0.091 C 
ATOM     26  S   UNL A   1      33.267  20.167  25.795  1.00  0.00    -0.158 SA
ENDBRANCH  17  21
ENDBRANCH   4   7
ENDBRANCH   2   3
ENDBRANCH   1   2
BRANCH   1  27
ATOM     27  C   UNL A   1      32.691  33.029  27.162  1.00  0.00     0.118 C 
BRANCH  27  28
ATOM     28  N   UNL A   1      32.518  34.374  27.694  1.00  0.00    -0.352 N 
ATOM     29  C   UNL A   1      33.132  34.966  28.770  1.00  0.00     0.251 C 
ATOM     30  H   UNL A   1      31.869  34.939  27.214  1.00  0.00     0.163 HD
ATOM     31  O   UNL A   1      32.720  36.033  29.214  1.00  0.00    -0.269 OA
BRANCH  29  32
ATOM     32  C   UNL A   1      34.287  34.299  29.403  1.00  0.00     0.039 A 
ATOM     33  C   UNL A   1      34.065  33.412  30.458  1.00  0.00     0.014 A 
ATOM     34  C   UNL A   1      35.585  34.551  28.948  1.00  0.00     0.014 A 
ATOM     35  C   UNL A   1      35.145  32.728  31.018  1.00  0.00     0.010 A 
ATOM     36  C   UNL A   1      36.649  33.815  29.457  1.00  0.00     0.010 A 
ATOM     37  C   UNL A   1      36.440  32.907  30.504  1.00  0.00    -0.014 A 
BRANCH  37  38
ATOM     38  C   UNL A   1      37.596  32.184  31.081  1.00  0.00     0.031 A 
ATOM     39  C   UNL A   1      38.078  32.537  32.459  1.00  0.00     0.074 A 
ATOM     40  C   UNL A   1      38.229  31.242  30.357  1.00  0.00     0.049 A 
ATOM     41  N   UNL A   1      39.077  32.035  33.138  1.00  0.00    -0.248 NA
ATOM     42  C   UNL A   1      37.353  33.610  33.160  1.00  0.00     0.031 C 
ATOM     43  C   UNL A   1      37.873  30.844  28.996  1.00  0.00     0.029 A 
ATOM     44  N   UNL A   1      39.308  30.452  30.666  1.00  0.00    -0.354 N 
ATOM     45  C   UNL A   1      39.095  32.726  34.342  1.00  0.00     0.074 A 
ATOM     46  C   UNL A   1      38.053  33.726  34.277  1.00  0.00     0.031 C 
ATOM     47  C   UNL A   1      38.702  29.865  28.595  1.00  0.00     0.029 A 
ATOM     48  C   UNL A   1      39.661  29.587  29.660  1.00  0.00     0.049 A 
ATOM     49  H   UNL A   1      39.782  30.501  31.526  1.00  0.00     0.167 HD
ATOM     50  C   UNL A   1      39.887  32.518  35.419  1.00  0.00     0.037 A 
ATOM     51  C   UNL A   1      40.646  28.670  29.610  1.00  0.00     0.037 A 
ATOM     52  C   UNL A   1      40.910  31.511  35.485  1.00  0.00     0.049 A 
ATOM     53  C   UNL A   1      41.540  28.486  30.808  1.00  0.00     0.074 A 
ATOM     54  C   UNL A   1      41.733  31.189  36.550  1.00  0.00     0.029 A 
ATOM     55  N   UNL A   1      41.250  30.664  34.442  1.00  0.00    -0.354 N 
ATOM     56  N   UNL A   1      41.503  29.095  31.968  1.00  0.00    -0.248 NA
ATOM     57  C   UNL A   1      42.611  27.485  30.691  1.00  0.00     0.031 C 
ATOM     58  C   UNL A   1      42.602  30.174  36.135  1.00  0.00     0.029 A 
ATOM     59  C   UNL A   1      42.290  29.835  34.828  1.00  0.00     0.049 A 
ATOM     60  H   UNL A   1      40.817  30.654  33.557  1.00  0.00     0.167 HD
ATOM     61  C   UNL A   1      42.524  28.537  32.725  1.00  0.00     0.074 A 
ATOM     62  C   UNL A   1      43.158  27.532  31.898  1.00  0.00     0.031 C 
ATOM     63  C   UNL A   1      42.903  28.835  33.992  1.00  0.00     0.037 A 
BRANCH  50  64
ATOM     64  C   UNL A   1      39.662  33.383  36.623  1.00  0.00     0.064 A 
ATOM     65  C   UNL A   1      40.307  34.621  36.759  1.00  0.00     0.173 A 
ATOM     66  C   UNL A   1      38.759  32.998  37.624  1.00  0.00     0.173 A 
ATOM     67  F   UNL A   1      41.191  35.028  35.835  1.00  0.00    -0.203 F 
ATOM     68  C   UNL A   1      40.071  35.435  37.863  1.00  0.00     0.198 A 
ATOM     69  C   UNL A   1      38.504  33.827  38.713  1.00  0.00     0.198 A 
ATOM     70  F   UNL A   1      38.115  31.825  37.538  1.00  0.00    -0.203 F 
ATOM     71  F   UNL A   1      40.727  36.596  37.991  1.00  0.00    -0.200 F 
ATOM     72  C   UNL A   1      39.163  35.040  38.835  1.00  0.00     0.200 A 
ATOM     73  F   UNL A   1      37.618  33.450  39.646  1.00  0.00    -0.200 F 
ATOM     74  F   UNL A   1      38.926  35.830  39.892  1.00  0.00    -0.200 F 
ENDBRANCH  50  64
BRANCH  51  75
ATOM     75  C   UNL A   1      40.810  27.826  28.398  1.00  0.00     0.064 A 
ATOM     76  C   UNL A   1      40.167  26.584  28.300  1.00  0.00     0.173 A 
ATOM     77  C   UNL A   1      41.592  28.245  27.312  1.00  0.00     0.173 A 
ATOM     78  F   UNL A   1      39.424  26.133  29.321  1.00  0.00    -0.203 F 
ATOM     79  C   UNL A   1      40.310  25.788  27.166  1.00  0.00     0.198 A 
ATOM     80  C   UNL A   1      41.715  27.458  26.169  1.00  0.00     0.198 A 
ATOM     81  F   UNL A   1      42.225  29.426  27.357  1.00  0.00    -0.203 F 
ATOM     82  F   UNL A   1      39.710  24.590  27.112  1.00  0.00    -0.200 F 
ATOM     83  C   UNL A   1      41.078  26.228  26.098  1.00  0.00     0.200 A 
ATOM     84  F   UNL A   1      42.449  27.891  25.135  1.00  0.00    -0.200 F 
ATOM     85  F   UNL A   1      41.208  25.465  25.005  1.00  0.00    -0.200 F 
ENDBRANCH  51  75
BRANCH  63  86
ATOM     86  C   UNL A   1      44.046  28.060  34.578  1.00  0.00     0.064 A 
ATOM     87  C   UNL A   1      45.355  28.562  34.551  1.00  0.00     0.173 A 
ATOM     88  C   UNL A   1      43.813  26.855  35.258  1.00  0.00     0.173 A 
ATOM     89  F   UNL A   1      45.626  29.703  33.902  1.00  0.00    -0.203 F 
ATOM     90  C   UNL A   1      46.392  27.880  35.180  1.00  0.00     0.198 A 
ATOM     91  C   UNL A   1      44.849  26.191  35.909  1.00  0.00     0.198 A 
ATOM     92  F   UNL A   1      42.576  26.340  35.319  1.00  0.00    -0.203 F 
ATOM     93  F   UNL A   1      47.641  28.364  35.122  1.00  0.00    -0.200 F 
ATOM     94  C   UNL A   1      46.137  26.703  35.868  1.00  0.00     0.200 A 
ATOM     95  F   UNL A   1      44.597  25.063  36.587  1.00  0.00    -0.200 F 
ATOM     96  F   UNL A   1      47.134  26.061  36.493  1.00  0.00    -0.200 F 
ENDBRANCH  63  86
ENDBRANCH  37  38
ENDBRANCH  29  32
ENDBRANCH  27  28
ENDBRANCH   1  27
TORSDOF 11
ENDMDL
