MODEL 1
REMARK VINA RESULT:     -10.9      0.000      0.000
REMARK SMILES O=C(NCCCNC(=O)c1ccc(-c2c3nc(c(-c4c(F)c(F)c(F)c(F)c4F)c4ccc([nH]4)c(-c4c(F)c(F)c(F)c(F)c4F)c4nc(c(-c5c(F)c(F)c(F)c(F)c5F)c5ccc2[nH]5)C=C4)C=C3)cc1)C1=C[C@H]2C(=N1)C=CC(Cl)=C2Cl
REMARK SMILES IDX 6 1 5 2 4 3 3 4 1 5 2 6 73 8 74 9 77 10 75 11 76 12 82 13
REMARK SMILES IDX 78 14 80 15 83 16 79 17 81 18 7 19 8 20 9 22 10 23 11 24
REMARK SMILES IDX 72 25 12 26 71 27 13 28 14 29 15 30 65 31 16 32 70 33 64 34
REMARK SMILES IDX 66 35 17 36 69 37 63 38 62 39 18 41 50 42 30 43 49 44 31 45
REMARK SMILES IDX 34 46 48 47 67 48 32 49 33 50 47 52 68 53 35 54 19 55 20 56
REMARK SMILES IDX 28 57 21 58 22 59 26 60 29 61 23 62 24 63 27 64 25 65 51 66
REMARK SMILES IDX 52 67 60 68 53 69 54 70 58 71 61 72 55 73 56 74 59 75 57 76
REMARK SMILES IDX 36 77 37 78 45 79 38 80 39 81 43 82 46 83 40 84 41 85 44 86
REMARK SMILES IDX 42 87
REMARK H PARENT 3 7 7 21 66 40 34 51
REMARK Flexibility Score: inf
ROOT
ATOM      1  C   UNL A   1      40.467  21.638  26.880  1.00  0.00     0.118 C 
ENDROOT
BRANCH   1   2
ATOM      2  C   UNL A   1      41.041  20.322  26.345  1.00  0.00     0.042 C 
BRANCH   2   3
ATOM      3  C   UNL A   1      42.552  20.132  26.504  1.00  0.00     0.118 C 
BRANCH   3   4
ATOM      4  N   UNL A   1      43.283  20.330  25.267  1.00  0.00    -0.351 N 
ATOM      5  O   UNL A   1      44.611  21.291  23.753  1.00  0.00    -0.268 OA
ATOM      6  C   UNL A   1      44.169  21.296  24.904  1.00  0.00     0.269 C 
ATOM      7  H   UNL A   1      43.108  19.653  24.575  1.00  0.00     0.163 HD
BRANCH   6   8
ATOM      8  C   UNL A   1      44.536  22.392  25.843  1.00  0.00     0.125 C 
ATOM      9  C   UNL A   1      43.763  23.483  25.893  1.00  0.00     0.023 C 
ATOM     10  N   UNL A   1      45.739  22.521  26.510  1.00  0.00    -0.247 NA
ATOM     11  C   UNL A   1      44.405  24.499  26.761  1.00  0.00     0.106 C 
ATOM     12  C   UNL A   1      45.720  23.749  26.938  1.00  0.00     0.054 C 
ATOM     13  C   UNL A   1      44.700  25.871  26.241  1.00  0.00     0.050 C 
ATOM     14  C   UNL A   1      46.843  24.480  27.569  1.00  0.00     0.026 C 
ATOM     15  C   UNL A   1      45.783  26.525  26.706  1.00  0.00     0.056 C 
ATOM     16  Cl  UNL A   1      43.557  26.571  25.152  1.00  0.00    -0.086 Cl
ATOM     17  C   UNL A   1      46.794  25.823  27.490  1.00  0.00     0.023 C 
ATOM     18  Cl  UNL A   1      46.070  28.204  26.406  1.00  0.00    -0.083 Cl
ENDBRANCH   6   8
ENDBRANCH   3   4
ENDBRANCH   2   3
ENDBRANCH   1   2
BRANCH   1  19
ATOM     19  N   UNL A   1      39.359  22.164  26.093  1.00  0.00    -0.352 N 
ATOM     20  C   UNL A   1      38.766  23.399  26.059  1.00  0.00     0.251 C 
ATOM     21  H   UNL A   1      38.963  21.511  25.472  1.00  0.00     0.163 HD
ATOM     22  O   UNL A   1      37.757  23.550  25.359  1.00  0.00    -0.269 OA
BRANCH  20  23
ATOM     23  C   UNL A   1      39.262  24.551  26.850  1.00  0.00     0.039 A 
ATOM     24  C   UNL A   1      40.096  25.480  26.212  1.00  0.00     0.014 A 
ATOM     25  C   UNL A   1      38.989  24.705  28.210  1.00  0.00     0.014 A 
ATOM     26  C   UNL A   1      40.588  26.588  26.909  1.00  0.00     0.010 A 
ATOM     27  C   UNL A   1      39.426  25.847  28.890  1.00  0.00     0.010 A 
ATOM     28  C   UNL A   1      40.225  26.805  28.247  1.00  0.00    -0.014 A 
BRANCH  28  29
ATOM     29  C   UNL A   1      40.655  28.033  28.973  1.00  0.00     0.031 A 
ATOM     30  C   UNL A   1      42.056  28.165  29.503  1.00  0.00     0.074 A 
ATOM     31  C   UNL A   1      39.761  29.015  29.210  1.00  0.00     0.049 A 
ATOM     32  N   UNL A   1      42.583  29.124  30.227  1.00  0.00    -0.248 NA
ATOM     33  C   UNL A   1      42.984  27.067  29.196  1.00  0.00     0.031 C 
ATOM     34  C   UNL A   1      38.361  29.004  28.781  1.00  0.00     0.029 A 
ATOM     35  N   UNL A   1      39.893  30.206  29.882  1.00  0.00    -0.354 N 
ATOM     36  C   UNL A   1      43.894  28.736  30.475  1.00  0.00     0.074 A 
ATOM     37  C   UNL A   1      44.071  27.437  29.860  1.00  0.00     0.031 C 
ATOM     38  C   UNL A   1      37.769  30.138  29.187  1.00  0.00     0.029 A 
ATOM     39  C   UNL A   1      38.731  30.938  29.939  1.00  0.00     0.049 A 
ATOM     40  H   UNL A   1      40.739  30.507  30.285  1.00  0.00     0.167 HD
ATOM     41  C   UNL A   1      44.865  29.408  31.139  1.00  0.00     0.037 A 
ATOM     42  C   UNL A   1      38.465  32.114  30.540  1.00  0.00     0.037 A 
ATOM     43  C   UNL A   1      44.701  30.710  31.732  1.00  0.00     0.049 A 
ATOM     44  C   UNL A   1      39.558  32.833  31.282  1.00  0.00     0.074 A 
ATOM     45  C   UNL A   1      45.646  31.492  32.377  1.00  0.00     0.029 A 
ATOM     46  N   UNL A   1      43.513  31.425  31.756  1.00  0.00    -0.354 N 
ATOM     47  N   UNL A   1      40.807  32.482  31.461  1.00  0.00    -0.248 NA
ATOM     48  C   UNL A   1      39.203  34.118  31.904  1.00  0.00     0.031 C 
ATOM     49  C   UNL A   1      45.018  32.657  32.831  1.00  0.00     0.029 A 
ATOM     50  C   UNL A   1      43.695  32.627  32.423  1.00  0.00     0.049 A 
ATOM     51  H   UNL A   1      42.665  31.124  31.358  1.00  0.00     0.167 HD
ATOM     52  C   UNL A   1      41.394  33.511  32.185  1.00  0.00     0.074 A 
ATOM     53  C   UNL A   1      40.367  34.507  32.403  1.00  0.00     0.031 C 
ATOM     54  C   UNL A   1      42.671  33.619  32.627  1.00  0.00     0.037 A 
BRANCH  41  55
ATOM     55  C   UNL A   1      46.207  28.744  31.265  1.00  0.00     0.064 A 
ATOM     56  C   UNL A   1      46.539  27.961  32.381  1.00  0.00     0.173 A 
ATOM     57  C   UNL A   1      47.156  28.854  30.237  1.00  0.00     0.173 A 
ATOM     58  F   UNL A   1      45.671  27.829  33.396  1.00  0.00    -0.203 F 
ATOM     59  C   UNL A   1      47.781  27.339  32.477  1.00  0.00     0.198 A 
ATOM     60  C   UNL A   1      48.386  28.205  30.322  1.00  0.00     0.198 A 
ATOM     61  F   UNL A   1      46.887  29.582  29.143  1.00  0.00    -0.203 F 
ATOM     62  F   UNL A   1      48.094  26.635  33.574  1.00  0.00    -0.200 F 
ATOM     63  C   UNL A   1      48.701  27.456  31.445  1.00  0.00     0.200 A 
ATOM     64  F   UNL A   1      49.267  28.307  29.318  1.00  0.00    -0.200 F 
ATOM     65  F   UNL A   1      49.892  26.849  31.535  1.00  0.00    -0.200 F 
ENDBRANCH  41  55
BRANCH  42  66
ATOM     66  C   UNL A   1      37.101  32.700  30.449  1.00  0.00     0.064 A 
ATOM     67  C   UNL A   1      36.734  33.502  29.360  1.00  0.00     0.173 A 
ATOM     68  C   UNL A   1      36.143  32.478  31.450  1.00  0.00     0.173 A 
ATOM     69  F   UNL A   1      37.623  33.762  28.391  1.00  0.00    -0.203 F 
ATOM     70  C   UNL A   1      35.467  34.077  29.284  1.00  0.00     0.198 A 
ATOM     71  C   UNL A   1      34.868  33.030  31.358  1.00  0.00     0.198 A 
ATOM     72  F   UNL A   1      36.444  31.715  32.511  1.00  0.00    -0.203 F 
ATOM     73  F   UNL A   1      35.158  34.877  28.255  1.00  0.00    -0.200 F 
ATOM     74  C   UNL A   1      34.533  33.835  30.280  1.00  0.00     0.200 A 
ATOM     75  F   UNL A   1      33.964  32.783  32.316  1.00  0.00    -0.200 F 
ATOM     76  F   UNL A   1      33.314  34.385  30.206  1.00  0.00    -0.200 F 
ENDBRANCH  42  66
BRANCH  54  77
ATOM     77  C   UNL A   1      43.044  34.876  33.357  1.00  0.00     0.064 A 
ATOM     78  C   UNL A   1      43.013  34.955  34.758  1.00  0.00     0.173 A 
ATOM     79  C   UNL A   1      43.473  36.009  32.646  1.00  0.00     0.173 A 
ATOM     80  F   UNL A   1      42.595  33.906  35.483  1.00  0.00    -0.203 F 
ATOM     81  C   UNL A   1      43.372  36.127  35.418  1.00  0.00     0.198 A 
ATOM     82  C   UNL A   1      43.858  37.169  33.311  1.00  0.00     0.198 A 
ATOM     83  F   UNL A   1      43.525  35.984  31.306  1.00  0.00    -0.203 F 
ATOM     84  F   UNL A   1      43.288  36.195  36.754  1.00  0.00    -0.200 F 
ATOM     85  C   UNL A   1      43.801  37.230  34.695  1.00  0.00     0.200 A 
ATOM     86  F   UNL A   1      44.285  38.230  32.611  1.00  0.00    -0.200 F 
ATOM     87  F   UNL A   1      44.152  38.356  35.332  1.00  0.00    -0.200 F 
ENDBRANCH  54  77
ENDBRANCH  28  29
ENDBRANCH  20  23
ENDBRANCH   1  19
TORSDOF 10
ENDMDL
MODEL 2
REMARK VINA RESULT:     -10.9      4.816      8.577
REMARK SMILES O=C(NCCCNC(=O)c1ccc(-c2c3nc(c(-c4c(F)c(F)c(F)c(F)c4F)c4ccc([nH]4)c(-c4c(F)c(F)c(F)c(F)c4F)c4nc(c(-c5c(F)c(F)c(F)c(F)c5F)c5ccc2[nH]5)C=C4)C=C3)cc1)C1=C[C@H]2C(=N1)C=CC(Cl)=C2Cl
REMARK SMILES IDX 6 1 5 2 4 3 3 4 1 5 2 6 73 8 74 9 77 10 75 11 76 12 82 13
REMARK SMILES IDX 78 14 80 15 83 16 79 17 81 18 7 19 8 20 9 22 10 23 11 24
REMARK SMILES IDX 72 25 12 26 71 27 13 28 14 29 15 30 65 31 16 32 70 33 64 34
REMARK SMILES IDX 66 35 17 36 69 37 63 38 62 39 18 41 50 42 30 43 49 44 31 45
REMARK SMILES IDX 34 46 48 47 67 48 32 49 33 50 47 52 68 53 35 54 19 55 20 56
REMARK SMILES IDX 28 57 21 58 22 59 26 60 29 61 23 62 24 63 27 64 25 65 51 66
REMARK SMILES IDX 52 67 60 68 53 69 54 70 58 71 61 72 55 73 56 74 59 75 57 76
REMARK SMILES IDX 36 77 37 78 45 79 38 80 39 81 43 82 46 83 40 84 41 85 44 86
REMARK SMILES IDX 42 87
REMARK H PARENT 3 7 7 21 66 40 34 51
REMARK Flexibility Score: inf
ROOT
ATOM      1  C   UNL A   1      32.824  29.186  25.468  1.00  0.00     0.118 C 
ENDROOT
BRANCH   1   2
ATOM      2  C   UNL A   1      33.443  29.193  24.067  1.00  0.00     0.042 C 
BRANCH   2   3
ATOM      3  C   UNL A   1      32.493  28.883  22.907  1.00  0.00     0.118 C 
BRANCH   3   4
ATOM      4  N   UNL A   1      32.956  27.793  22.070  1.00  0.00    -0.351 N 
ATOM      5  O   UNL A   1      33.648  25.754  21.481  1.00  0.00    -0.268 OA
ATOM      6  C   UNL A   1      33.177  26.483  22.358  1.00  0.00     0.269 C 
ATOM      7  H   UNL A   1      33.142  28.044  21.136  1.00  0.00     0.163 HD
BRANCH   6   8
ATOM      8  C   UNL A   1      32.943  25.950  23.729  1.00  0.00     0.125 C 
ATOM      9  C   UNL A   1      33.998  25.738  24.526  1.00  0.00     0.023 C 
ATOM     10  N   UNL A   1      31.762  25.412  24.200  1.00  0.00    -0.247 NA
ATOM     11  C   UNL A   1      33.547  25.055  25.763  1.00  0.00     0.106 C 
ATOM     12  C   UNL A   1      32.118  24.808  25.297  1.00  0.00     0.054 C 
ATOM     13  C   UNL A   1      34.151  23.750  26.178  1.00  0.00     0.050 C 
ATOM     14  C   UNL A   1      31.276  23.911  26.121  1.00  0.00     0.026 C 
ATOM     15  C   UNL A   1      33.382  22.855  26.830  1.00  0.00     0.056 C 
ATOM     16  Cl  UNL A   1      35.838  23.526  25.886  1.00  0.00    -0.086 Cl
ATOM     17  C   UNL A   1      31.935  23.029  26.897  1.00  0.00     0.023 C 
ATOM     18  Cl  UNL A   1      34.025  21.451  27.607  1.00  0.00    -0.083 Cl
ENDBRANCH   6   8
ENDBRANCH   3   4
ENDBRANCH   2   3
ENDBRANCH   1   2
BRANCH   1  19
ATOM     19  N   UNL A   1      32.491  30.511  25.975  1.00  0.00    -0.352 N 
ATOM     20  C   UNL A   1      33.078  31.299  26.930  1.00  0.00     0.251 C 
ATOM     21  H   UNL A   1      31.698  30.914  25.554  1.00  0.00     0.163 HD
ATOM     22  O   UNL A   1      32.521  32.358  27.245  1.00  0.00    -0.269 OA
BRANCH  20  23
ATOM     23  C   UNL A   1      34.333  30.922  27.624  1.00  0.00     0.039 A 
ATOM     24  C   UNL A   1      35.307  31.912  27.814  1.00  0.00     0.014 A 
ATOM     25  C   UNL A   1      34.606  29.614  28.029  1.00  0.00     0.014 A 
ATOM     26  C   UNL A   1      36.506  31.612  28.468  1.00  0.00     0.010 A 
ATOM     27  C   UNL A   1      35.776  29.328  28.740  1.00  0.00     0.010 A 
ATOM     28  C   UNL A   1      36.737  30.324  28.974  1.00  0.00    -0.014 A 
BRANCH  28  29
ATOM     29  C   UNL A   1      37.963  30.014  29.762  1.00  0.00     0.031 A 
ATOM     30  C   UNL A   1      39.005  29.070  29.229  1.00  0.00     0.074 A 
ATOM     31  C   UNL A   1      38.113  30.540  30.995  1.00  0.00     0.049 A 
ATOM     32  N   UNL A   1      40.093  28.621  29.808  1.00  0.00    -0.248 NA
ATOM     33  C   UNL A   1      38.788  28.545  27.873  1.00  0.00     0.031 C 
ATOM     34  C   UNL A   1      37.166  31.445  31.649  1.00  0.00     0.029 A 
ATOM     35  N   UNL A   1      39.112  30.378  31.925  1.00  0.00    -0.354 N 
ATOM     36  C   UNL A   1      40.678  27.751  28.897  1.00  0.00     0.074 A 
ATOM     37  C   UNL A   1      39.805  27.703  27.742  1.00  0.00     0.031 C 
ATOM     38  C   UNL A   1      37.634  31.768  32.864  1.00  0.00     0.029 A 
ATOM     39  C   UNL A   1      38.892  31.065  33.095  1.00  0.00     0.049 A 
ATOM     40  H   UNL A   1      39.910  29.822  31.768  1.00  0.00     0.167 HD
ATOM     41  C   UNL A   1      41.844  27.069  29.004  1.00  0.00     0.037 A 
ATOM     42  C   UNL A   1      39.614  31.114  34.231  1.00  0.00     0.037 A 
ATOM     43  C   UNL A   1      42.728  27.132  30.140  1.00  0.00     0.049 A 
ATOM     44  C   UNL A   1      40.899  30.336  34.329  1.00  0.00     0.074 A 
ATOM     45  C   UNL A   1      43.958  26.518  30.313  1.00  0.00     0.029 A 
ATOM     46  N   UNL A   1      42.477  27.851  31.299  1.00  0.00    -0.354 N 
ATOM     47  N   UNL A   1      41.468  29.563  33.439  1.00  0.00    -0.248 NA
ATOM     48  C   UNL A   1      41.643  30.443  35.593  1.00  0.00     0.031 C 
ATOM     49  C   UNL A   1      44.428  26.828  31.594  1.00  0.00     0.029 A 
ATOM     50  C   UNL A   1      43.517  27.678  32.200  1.00  0.00     0.049 A 
ATOM     51  H   UNL A   1      41.678  28.403  31.460  1.00  0.00     0.167 HD
ATOM     52  C   UNL A   1      42.648  29.117  34.018  1.00  0.00     0.074 A 
ATOM     53  C   UNL A   1      42.720  29.716  35.333  1.00  0.00     0.031 C 
ATOM     54  C   UNL A   1      43.588  28.286  33.503  1.00  0.00     0.037 A 
BRANCH  41  55
ATOM     55  C   UNL A   1      42.239  26.184  27.856  1.00  0.00     0.064 A 
ATOM     56  C   UNL A   1      41.694  24.901  27.694  1.00  0.00     0.173 A 
ATOM     57  C   UNL A   1      43.139  26.642  26.881  1.00  0.00     0.173 A 
ATOM     58  F   UNL A   1      40.836  24.413  28.602  1.00  0.00    -0.203 F 
ATOM     59  C   UNL A   1      42.059  24.098  26.616  1.00  0.00     0.198 A 
ATOM     60  C   UNL A   1      43.477  25.848  25.787  1.00  0.00     0.198 A 
ATOM     61  F   UNL A   1      43.682  27.864  26.982  1.00  0.00    -0.203 F 
ATOM     62  F   UNL A   1      41.561  22.858  26.508  1.00  0.00    -0.200 F 
ATOM     63  C   UNL A   1      42.944  24.575  25.660  1.00  0.00     0.200 A 
ATOM     64  F   UNL A   1      44.321  26.315  24.857  1.00  0.00    -0.200 F 
ATOM     65  F   UNL A   1      43.286  23.804  24.619  1.00  0.00    -0.200 F 
ENDBRANCH  41  55
BRANCH  42  66
ATOM     66  C   UNL A   1      39.147  31.948  35.370  1.00  0.00     0.064 A 
ATOM     67  C   UNL A   1      38.408  31.383  36.418  1.00  0.00     0.173 A 
ATOM     68  C   UNL A   1      39.420  33.322  35.430  1.00  0.00     0.173 A 
ATOM     69  F   UNL A   1      38.101  30.077  36.394  1.00  0.00    -0.203 F 
ATOM     70  C   UNL A   1      37.942  32.164  37.474  1.00  0.00     0.198 A 
ATOM     71  C   UNL A   1      38.979  34.096  36.500  1.00  0.00     0.198 A 
ATOM     72  F   UNL A   1      40.126  33.910  34.453  1.00  0.00    -0.203 F 
ATOM     73  F   UNL A   1      37.198  31.608  38.439  1.00  0.00    -0.200 F 
ATOM     74  C   UNL A   1      38.234  33.519  37.517  1.00  0.00     0.200 A 
ATOM     75  F   UNL A   1      39.273  35.403  36.544  1.00  0.00    -0.200 F 
ATOM     76  F   UNL A   1      37.789  34.270  38.533  1.00  0.00    -0.200 F 
ENDBRANCH  42  66
BRANCH  54  77
ATOM     77  C   UNL A   1      44.798  28.006  34.346  1.00  0.00     0.064 A 
ATOM     78  C   UNL A   1      45.932  28.831  34.306  1.00  0.00     0.173 A 
ATOM     79  C   UNL A   1      44.810  26.917  35.232  1.00  0.00     0.173 A 
ATOM     80  F   UNL A   1      45.978  29.875  33.465  1.00  0.00    -0.203 F 
ATOM     81  C   UNL A   1      47.042  28.562  35.103  1.00  0.00     0.198 A 
ATOM     82  C   UNL A   1      45.910  26.668  36.047  1.00  0.00     0.198 A 
ATOM     83  F   UNL A   1      43.749  26.100  35.312  1.00  0.00    -0.203 F 
ATOM     84  F   UNL A   1      48.133  29.335  35.014  1.00  0.00    -0.200 F 
ATOM     85  C   UNL A   1      47.027  27.485  35.978  1.00  0.00     0.200 A 
ATOM     86  F   UNL A   1      45.888  25.634  36.901  1.00  0.00    -0.200 F 
ATOM     87  F   UNL A   1      48.094  27.230  36.747  1.00  0.00    -0.200 F 
ENDBRANCH  54  77
ENDBRANCH  28  29
ENDBRANCH  20  23
ENDBRANCH   1  19
TORSDOF 10
ENDMDL
MODEL 3
REMARK VINA RESULT:     -10.9      0.101      2.022
REMARK SMILES O=C(NCCCNC(=O)c1ccc(-c2c3nc(c(-c4c(F)c(F)c(F)c(F)c4F)c4ccc([nH]4)c(-c4c(F)c(F)c(F)c(F)c4F)c4nc(c(-c5c(F)c(F)c(F)c(F)c5F)c5ccc2[nH]5)C=C4)C=C3)cc1)C1=C[C@H]2C(=N1)C=CC(Cl)=C2Cl
REMARK SMILES IDX 6 1 5 2 4 3 3 4 1 5 2 6 73 8 74 9 77 10 75 11 76 12 82 13
REMARK SMILES IDX 78 14 80 15 83 16 79 17 81 18 7 19 8 20 9 22 10 23 11 24
REMARK SMILES IDX 72 25 12 26 71 27 13 28 14 29 15 30 65 31 16 32 70 33 64 34
REMARK SMILES IDX 66 35 17 36 69 37 63 38 62 39 18 41 50 42 30 43 49 44 31 45
REMARK SMILES IDX 34 46 48 47 67 48 32 49 33 50 47 52 68 53 35 54 19 55 20 56
REMARK SMILES IDX 28 57 21 58 22 59 26 60 29 61 23 62 24 63 27 64 25 65 51 66
REMARK SMILES IDX 52 67 60 68 53 69 54 70 58 71 61 72 55 73 56 74 59 75 57 76
REMARK SMILES IDX 36 77 37 78 45 79 38 80 39 81 43 82 46 83 40 84 41 85 44 86
REMARK SMILES IDX 42 87
REMARK H PARENT 3 7 7 21 66 40 34 51
REMARK Flexibility Score: inf
ROOT
ATOM      1  C   UNL A   1      40.645  21.687  26.778  1.00  0.00     0.118 C 
ENDROOT
BRANCH   1   2
ATOM      2  C   UNL A   1      41.140  20.322  26.288  1.00  0.00     0.042 C 
BRANCH   2   3
ATOM      3  C   UNL A   1      42.645  20.066  26.410  1.00  0.00     0.118 C 
BRANCH   3   4
ATOM      4  N   UNL A   1      43.366  20.319  25.178  1.00  0.00    -0.351 N 
ATOM      5  O   UNL A   1      44.659  21.360  23.686  1.00  0.00    -0.268 OA
ATOM      6  C   UNL A   1      44.221  21.321  24.839  1.00  0.00     0.269 C 
ATOM      7  H   UNL A   1      43.210  19.655  24.468  1.00  0.00     0.163 HD
BRANCH   6   8
ATOM      8  C   UNL A   1      44.557  22.402  25.805  1.00  0.00     0.125 C 
ATOM      9  C   UNL A   1      43.782  23.494  25.845  1.00  0.00     0.023 C 
ATOM     10  N   UNL A   1      45.736  22.521  26.514  1.00  0.00    -0.247 NA
ATOM     11  C   UNL A   1      44.396  24.496  26.749  1.00  0.00     0.106 C 
ATOM     12  C   UNL A   1      45.704  23.743  26.959  1.00  0.00     0.054 C 
ATOM     13  C   UNL A   1      44.708  25.875  26.259  1.00  0.00     0.050 C 
ATOM     14  C   UNL A   1      46.805  24.463  27.638  1.00  0.00     0.026 C 
ATOM     15  C   UNL A   1      45.776  26.521  26.769  1.00  0.00     0.056 C 
ATOM     16  Cl  UNL A   1      43.604  26.593  25.143  1.00  0.00    -0.086 Cl
ATOM     17  C   UNL A   1      46.759  25.808  27.577  1.00  0.00     0.023 C 
ATOM     18  Cl  UNL A   1      46.074  28.204  26.504  1.00  0.00    -0.083 Cl
ENDBRANCH   6   8
ENDBRANCH   3   4
ENDBRANCH   2   3
ENDBRANCH   1   2
BRANCH   1  19
ATOM     19  N   UNL A   1      39.469  22.178  26.073  1.00  0.00    -0.352 N 
ATOM     20  C   UNL A   1      38.821  23.386  26.105  1.00  0.00     0.251 C 
ATOM     21  H   UNL A   1      39.064  21.521  25.462  1.00  0.00     0.163 HD
ATOM     22  O   UNL A   1      37.765  23.506  25.471  1.00  0.00    -0.269 OA
BRANCH  20  23
ATOM     23  C   UNL A   1      39.314  24.542  26.891  1.00  0.00     0.039 A 
ATOM     24  C   UNL A   1      40.145  25.471  26.250  1.00  0.00     0.014 A 
ATOM     25  C   UNL A   1      39.040  24.701  28.251  1.00  0.00     0.014 A 
ATOM     26  C   UNL A   1      40.634  26.584  26.943  1.00  0.00     0.010 A 
ATOM     27  C   UNL A   1      39.474  25.846  28.926  1.00  0.00     0.010 A 
ATOM     28  C   UNL A   1      40.270  26.804  28.280  1.00  0.00    -0.014 A 
BRANCH  28  29
ATOM     29  C   UNL A   1      40.697  28.036  29.001  1.00  0.00     0.031 A 
ATOM     30  C   UNL A   1      42.094  28.169  29.542  1.00  0.00     0.074 A 
ATOM     31  C   UNL A   1      39.803  29.021  29.224  1.00  0.00     0.049 A 
ATOM     32  N   UNL A   1      42.616  29.132  30.263  1.00  0.00    -0.248 NA
ATOM     33  C   UNL A   1      43.022  27.067  29.250  1.00  0.00     0.031 C 
ATOM     34  C   UNL A   1      38.407  29.011  28.784  1.00  0.00     0.029 A 
ATOM     35  N   UNL A   1      39.931  30.217  29.889  1.00  0.00    -0.354 N 
ATOM     36  C   UNL A   1      43.925  28.743  30.525  1.00  0.00     0.074 A 
ATOM     37  C   UNL A   1      44.104  27.439  29.919  1.00  0.00     0.031 C 
ATOM     38  C   UNL A   1      37.813  30.148  29.177  1.00  0.00     0.029 A 
ATOM     39  C   UNL A   1      38.770  30.951  29.932  1.00  0.00     0.049 A 
ATOM     40  H   UNL A   1      40.775  30.519  30.298  1.00  0.00     0.167 HD
ATOM     41  C   UNL A   1      44.892  29.417  31.193  1.00  0.00     0.037 A 
ATOM     42  C   UNL A   1      38.501  32.132  30.522  1.00  0.00     0.037 A 
ATOM     43  C   UNL A   1      44.725  30.724  31.775  1.00  0.00     0.049 A 
ATOM     44  C   UNL A   1      39.590  32.854  31.269  1.00  0.00     0.074 A 
ATOM     45  C   UNL A   1      45.666  31.508  32.423  1.00  0.00     0.029 A 
ATOM     46  N   UNL A   1      43.538  31.441  31.784  1.00  0.00    -0.354 N 
ATOM     47  N   UNL A   1      40.837  32.501  31.460  1.00  0.00    -0.248 NA
ATOM     48  C   UNL A   1      39.232  34.143  31.880  1.00  0.00     0.031 C 
ATOM     49  C   UNL A   1      45.037  32.678  32.864  1.00  0.00     0.029 A 
ATOM     50  C   UNL A   1      43.717  32.648  32.445  1.00  0.00     0.049 A 
ATOM     51  H   UNL A   1      42.693  31.139  31.382  1.00  0.00     0.167 HD
ATOM     52  C   UNL A   1      41.420  33.534  32.182  1.00  0.00     0.074 A 
ATOM     53  C   UNL A   1      40.393  34.533  32.386  1.00  0.00     0.031 C 
ATOM     54  C   UNL A   1      42.693  33.642  32.635  1.00  0.00     0.037 A 
BRANCH  41  55
ATOM     55  C   UNL A   1      46.231  28.752  31.334  1.00  0.00     0.064 A 
ATOM     56  C   UNL A   1      47.231  28.896  30.360  1.00  0.00     0.173 A 
ATOM     57  C   UNL A   1      46.536  27.999  32.479  1.00  0.00     0.173 A 
ATOM     58  F   UNL A   1      46.990  29.599  29.243  1.00  0.00    -0.203 F 
ATOM     59  C   UNL A   1      48.474  28.286  30.512  1.00  0.00     0.198 A 
ATOM     60  C   UNL A   1      47.790  27.416  32.642  1.00  0.00     0.198 A 
ATOM     61  F   UNL A   1      45.620  27.837  33.445  1.00  0.00    -0.203 F 
ATOM     62  F   UNL A   1      49.397  28.400  29.547  1.00  0.00    -0.200 F 
ATOM     63  C   UNL A   1      48.755  27.553  31.656  1.00  0.00     0.200 A 
ATOM     64  F   UNL A   1      48.065  26.721  33.753  1.00  0.00    -0.200 F 
ATOM     65  F   UNL A   1      49.954  26.975  31.804  1.00  0.00    -0.200 F 
ENDBRANCH  41  55
BRANCH  42  66
ATOM     66  C   UNL A   1      37.140  32.720  30.417  1.00  0.00     0.064 A 
ATOM     67  C   UNL A   1      36.182  32.498  31.416  1.00  0.00     0.173 A 
ATOM     68  C   UNL A   1      36.766  33.503  29.316  1.00  0.00     0.173 A 
ATOM     69  F   UNL A   1      36.486  31.735  32.477  1.00  0.00    -0.203 F 
ATOM     70  C   UNL A   1      34.895  33.021  31.309  1.00  0.00     0.198 A 
ATOM     71  C   UNL A   1      35.488  34.050  29.224  1.00  0.00     0.198 A 
ATOM     72  F   UNL A   1      37.646  33.748  28.334  1.00  0.00    -0.203 F 
ATOM     73  F   UNL A   1      33.986  32.755  32.256  1.00  0.00    -0.200 F 
ATOM     74  C   UNL A   1      34.552  33.802  30.216  1.00  0.00     0.200 A 
ATOM     75  F   UNL A   1      35.164  34.815  28.173  1.00  0.00    -0.200 F 
ATOM     76  F   UNL A   1      33.315  34.309  30.115  1.00  0.00    -0.200 F 
ENDBRANCH  42  66
BRANCH  54  77
ATOM     77  C   UNL A   1      43.063  34.904  33.359  1.00  0.00     0.064 A 
ATOM     78  C   UNL A   1      43.478  36.056  32.673  1.00  0.00     0.173 A 
ATOM     79  C   UNL A   1      42.968  34.973  34.758  1.00  0.00     0.173 A 
ATOM     80  F   UNL A   1      43.601  36.037  31.337  1.00  0.00    -0.203 F 
ATOM     81  C   UNL A   1      43.808  37.220  33.361  1.00  0.00     0.198 A 
ATOM     82  C   UNL A   1      43.271  36.148  35.440  1.00  0.00     0.198 A 
ATOM     83  F   UNL A   1      42.572  33.902  35.461  1.00  0.00    -0.203 F 
ATOM     84  F   UNL A   1      44.248  38.293  32.688  1.00  0.00    -0.200 F 
ATOM     85  C   UNL A   1      43.697  37.268  34.743  1.00  0.00     0.200 A 
ATOM     86  F   UNL A   1      43.151  36.195  36.775  1.00  0.00    -0.200 F 
ATOM     87  F   UNL A   1      44.010  38.391  35.403  1.00  0.00    -0.200 F 
ENDBRANCH  54  77
ENDBRANCH  28  29
ENDBRANCH  20  23
ENDBRANCH   1  19
TORSDOF 10
ENDMDL
