MODEL 1
REMARK VINA RESULT:     -12.8      0.000      0.000
REMARK SMILES Cc1ccc(Cl)c(NC(=O)C[N@@H+]2CCC[C@H]2C(=O)NCCCNC(=O)c2ccc(-c3c4nc(c(-c5c(F)c(F)c(F)c(F)c5F)c5ccc([nH]5)c(-c5c(F)c(F)c(F)c(F)c5F)c5nc(c(-c6c(F)c(F)c(F)c(F)c6F)c6ccc3[nH]6)C=C5)C=C4)cc2)c1Cl
REMARK SMILES IDX 20 1 19 2 17 3 18 4 16 6 12 7 13 8 14 10 15 11 11 12 9 13
REMARK SMILES IDX 8 14 10 16 7 17 1 18 2 19 3 20 89 21 4 22 90 23 5 24 6 25
REMARK SMILES IDX 21 26 22 27 23 28 24 29 25 31 26 32 27 33 88 34 28 35 87 36
REMARK SMILES IDX 29 37 30 38 31 39 81 40 32 41 86 42 80 43 82 44 33 45 85 46
REMARK SMILES IDX 79 47 78 48 34 50 66 51 46 52 65 53 47 54 50 55 64 56 83 57
REMARK SMILES IDX 48 58 49 59 63 61 84 62 51 63 35 64 36 65 44 66 37 67 38 68
REMARK SMILES IDX 42 69 45 70 39 71 40 72 43 73 41 74 67 75 68 76 76 77 69 78
REMARK SMILES IDX 70 79 74 80 77 81 71 82 72 83 75 84 73 85 52 86 53 87 61 88
REMARK SMILES IDX 54 89 55 90 59 91 62 92 56 93 57 94 60 95 58 96
REMARK H PARENT 19 5 12 9 8 15 23 30 82 49 50 60
REMARK Flexibility Score: inf
ROOT
ATOM      1  C   UNL A   1      32.107  28.236  27.620  1.00  0.00     0.118 C 
ENDROOT
BRANCH   1   2
ATOM      2  N   UNL A   1      31.131  27.218  27.280  1.00  0.00    -0.351 N 
ATOM      3  C   UNL A   1      30.973  26.509  26.120  1.00  0.00     0.278 C 
ATOM      4  O   UNL A   1      30.111  25.625  26.128  1.00  0.00    -0.268 OA
ATOM      5  H   UNL A   1      30.482  27.008  27.990  1.00  0.00     0.163 HD
BRANCH   3   6
ATOM      6  C   UNL A   1      31.740  26.905  24.830  1.00  0.00     0.274 C 
ATOM      7  N   UNL A   1      31.920  25.754  23.907  1.00  0.00    -0.317 N 
ATOM      8  C   UNL A   1      30.662  25.746  23.132  1.00  0.00     0.263 C 
ATOM      9  H   UNL A   1      32.111  24.889  24.412  1.00  0.00     0.349 HD
ATOM     10  C   UNL A   1      30.376  27.205  22.826  1.00  0.00     0.068 C 
ATOM     11  C   UNL A   1      30.968  27.957  24.012  1.00  0.00     0.081 C 
BRANCH   7  12
ATOM     12  C   UNL A   1      33.077  25.939  22.984  1.00  0.00     0.364 C 
BRANCH  12  13
ATOM     13  C   UNL A   1      33.269  24.801  21.978  1.00  0.00     0.279 C 
ATOM     14  N   UNL A   1      33.530  23.493  22.268  1.00  0.00    -0.319 N 
ATOM     15  H   UNL A   1      33.783  22.972  21.472  1.00  0.00     0.170 HD
ATOM     16  O   UNL A   1      33.137  25.043  20.766  1.00  0.00    -0.268 OA
BRANCH  14  17
ATOM     17  C   UNL A   1      33.523  22.710  23.449  1.00  0.00     0.079 A 
ATOM     18  C   UNL A   1      34.357  22.793  27.197  1.00  0.00     0.046 C 
ATOM     19  C   UNL A   1      33.826  22.373  25.851  1.00  0.00    -0.030 A 
ATOM     20  C   UNL A   1      32.812  21.404  25.834  1.00  0.00     0.006 A 
ATOM     21  C   UNL A   1      34.230  22.967  24.633  1.00  0.00     0.069 A 
ATOM     22  C   UNL A   1      32.274  20.971  24.629  1.00  0.00     0.023 A 
ATOM     23  Cl  UNL A   1      35.772  23.760  24.565  1.00  0.00    -0.082 Cl
ATOM     24  C   UNL A   1      32.643  21.606  23.445  1.00  0.00     0.066 A 
ATOM     25  Cl  UNL A   1      31.918  21.032  21.976  1.00  0.00    -0.082 Cl
ENDBRANCH  14  17
ENDBRANCH  12  13
ENDBRANCH   7  12
ENDBRANCH   3   6
ENDBRANCH   1   2
BRANCH   1  26
ATOM     26  C   UNL A   1      31.654  29.640  27.248  1.00  0.00     0.042 C 
BRANCH  26  27
ATOM     27  C   UNL A   1      32.640  30.440  26.402  1.00  0.00     0.118 C 
BRANCH  27  28
ATOM     28  N   UNL A   1      32.678  31.845  26.765  1.00  0.00    -0.352 N 
ATOM     29  C   UNL A   1      33.539  32.579  27.536  1.00  0.00     0.251 C 
ATOM     30  H   UNL A   1      31.941  32.374  26.382  1.00  0.00     0.163 HD
ATOM     31  O   UNL A   1      33.230  33.738  27.806  1.00  0.00    -0.269 OA
BRANCH  29  32
ATOM     32  C   UNL A   1      34.826  32.043  28.047  1.00  0.00     0.039 A 
ATOM     33  C   UNL A   1      34.830  30.732  28.542  1.00  0.00     0.014 A 
ATOM     34  C   UNL A   1      35.981  32.820  28.171  1.00  0.00     0.014 A 
ATOM     35  C   UNL A   1      35.972  30.208  29.155  1.00  0.00     0.010 A 
ATOM     36  C   UNL A   1      37.147  32.271  28.714  1.00  0.00     0.010 A 
ATOM     37  C   UNL A   1      37.143  30.972  29.247  1.00  0.00    -0.014 A 
BRANCH  37  38
ATOM     38  C   UNL A   1      38.334  30.447  29.967  1.00  0.00     0.031 A 
ATOM     39  C   UNL A   1      38.584  30.839  31.400  1.00  0.00     0.074 A 
ATOM     40  C   UNL A   1      39.194  29.624  29.338  1.00  0.00     0.049 A 
ATOM     41  N   UNL A   1      39.565  30.491  32.198  1.00  0.00    -0.248 NA
ATOM     42  C   UNL A   1      37.619  31.764  32.012  1.00  0.00     0.031 C 
ATOM     43  C   UNL A   1      39.089  29.198  27.943  1.00  0.00     0.029 A 
ATOM     44  N   UNL A   1      40.326  28.994  29.795  1.00  0.00    -0.354 N 
ATOM     45  C   UNL A   1      39.342  31.168  33.390  1.00  0.00     0.074 A 
ATOM     46  C   UNL A   1      38.167  31.987  33.197  1.00  0.00     0.031 C 
ATOM     47  C   UNL A   1      40.097  28.355  27.665  1.00  0.00     0.029 A 
ATOM     48  C   UNL A   1      40.931  28.200  28.853  1.00  0.00     0.049 A 
ATOM     49  H   UNL A   1      40.670  29.103  30.711  1.00  0.00     0.167 HD
ATOM     50  C   UNL A   1      40.038  31.095  34.551  1.00  0.00     0.037 A 
ATOM     51  C   UNL A   1      42.030  27.426  28.942  1.00  0.00     0.037 A 
ATOM     52  C   UNL A   1      41.185  30.251  34.760  1.00  0.00     0.049 A 
ATOM     53  C   UNL A   1      42.762  27.333  30.253  1.00  0.00     0.074 A 
ATOM     54  C   UNL A   1      41.932  30.074  35.911  1.00  0.00     0.029 A 
ATOM     55  N   UNL A   1      41.745  29.432  33.790  1.00  0.00    -0.354 N 
ATOM     56  N   UNL A   1      42.511  27.938  31.388  1.00  0.00    -0.248 NA
ATOM     57  C   UNL A   1      43.923  26.433  30.298  1.00  0.00     0.031 C 
ATOM     58  C   UNL A   1      42.964  29.170  35.630  1.00  0.00     0.029 A 
ATOM     59  C   UNL A   1      42.832  28.751  34.316  1.00  0.00     0.049 A 
ATOM     60  H   UNL A   1      41.418  29.346  32.866  1.00  0.00     0.167 HD
ATOM     61  C   UNL A   1      43.457  27.468  32.289  1.00  0.00     0.074 A 
ATOM     62  C   UNL A   1      44.280  26.517  31.572  1.00  0.00     0.031 C 
ATOM     63  C   UNL A   1      43.630  27.796  33.594  1.00  0.00     0.037 A 
BRANCH  50  64
ATOM     64  C   UNL A   1      39.571  31.953  35.693  1.00  0.00     0.064 A 
ATOM     65  C   UNL A   1      40.106  33.230  35.920  1.00  0.00     0.173 A 
ATOM     66  C   UNL A   1      38.561  31.503  36.556  1.00  0.00     0.173 A 
ATOM     67  F   UNL A   1      41.084  33.702  35.132  1.00  0.00    -0.203 F 
ATOM     68  C   UNL A   1      39.671  34.011  36.987  1.00  0.00     0.198 A 
ATOM     69  C   UNL A   1      38.105  32.300  37.604  1.00  0.00     0.198 A 
ATOM     70  F   UNL A   1      38.009  30.293  36.381  1.00  0.00    -0.203 F 
ATOM     71  F   UNL A   1      40.235  35.205  37.216  1.00  0.00    -0.200 F 
ATOM     72  C   UNL A   1      38.667  33.549  37.825  1.00  0.00     0.200 A 
ATOM     73  F   UNL A   1      37.128  31.857  38.406  1.00  0.00    -0.200 F 
ATOM     74  F   UNL A   1      38.247  34.303  38.849  1.00  0.00    -0.200 F 
ENDBRANCH  50  64
BRANCH  51  75
ATOM     75  C   UNL A   1      42.478  26.637  27.766  1.00  0.00     0.064 A 
ATOM     76  C   UNL A   1      41.955  25.361  27.515  1.00  0.00     0.173 A 
ATOM     77  C   UNL A   1      43.439  27.136  26.875  1.00  0.00     0.173 A 
ATOM     78  F   UNL A   1      41.048  24.834  28.351  1.00  0.00    -0.203 F 
ATOM     79  C   UNL A   1      42.393  24.604  26.431  1.00  0.00     0.198 A 
ATOM     80  C   UNL A   1      43.857  26.389  25.776  1.00  0.00     0.198 A 
ATOM     81  F   UNL A   1      43.967  28.353  27.070  1.00  0.00    -0.203 F 
ATOM     82  F   UNL A   1      41.911  23.368  26.242  1.00  0.00    -0.200 F 
ATOM     83  C   UNL A   1      43.340  25.120  25.560  1.00  0.00     0.200 A 
ATOM     84  F   UNL A   1      44.764  26.895  24.931  1.00  0.00    -0.200 F 
ATOM     85  F   UNL A   1      43.761  24.392  24.517  1.00  0.00    -0.200 F 
ENDBRANCH  51  75
BRANCH  63  86
ATOM     86  C   UNL A   1      44.722  27.084  34.339  1.00  0.00     0.064 A 
ATOM     87  C   UNL A   1      46.017  27.614  34.434  1.00  0.00     0.173 A 
ATOM     88  C   UNL A   1      44.461  25.865  34.981  1.00  0.00     0.173 A 
ATOM     89  F   UNL A   1      46.320  28.771  33.826  1.00  0.00    -0.203 F 
ATOM     90  C   UNL A   1      47.020  26.930  35.115  1.00  0.00     0.198 A 
ATOM     91  C   UNL A   1      45.459  25.197  35.685  1.00  0.00     0.198 A 
ATOM     92  F   UNL A   1      43.236  25.319  34.927  1.00  0.00    -0.203 F 
ATOM     93  F   UNL A   1      48.265  27.427  35.146  1.00  0.00    -0.200 F 
ATOM     94  C   UNL A   1      46.740  25.726  35.743  1.00  0.00     0.200 A 
ATOM     95  F   UNL A   1      45.183  24.040  36.301  1.00  0.00    -0.200 F 
ATOM     96  F   UNL A   1      47.709  25.068  36.397  1.00  0.00    -0.200 F 
ENDBRANCH  63  86
ENDBRANCH  37  38
ENDBRANCH  29  32
ENDBRANCH  27  28
ENDBRANCH  26  27
ENDBRANCH   1  26
TORSDOF 13
ENDMDL
MODEL 2
REMARK VINA RESULT:     -12.7      4.773     10.008
REMARK SMILES Cc1ccc(Cl)c(NC(=O)C[N@@H+]2CCC[C@H]2C(=O)NCCCNC(=O)c2ccc(-c3c4nc(c(-c5c(F)c(F)c(F)c(F)c5F)c5ccc([nH]5)c(-c5c(F)c(F)c(F)c(F)c5F)c5nc(c(-c6c(F)c(F)c(F)c(F)c6F)c6ccc3[nH]6)C=C5)C=C4)cc2)c1Cl
REMARK SMILES IDX 20 1 19 2 17 3 18 4 16 6 12 7 13 8 14 10 15 11 11 12 9 13
REMARK SMILES IDX 8 14 10 16 7 17 1 18 2 19 3 20 89 21 4 22 90 23 5 24 6 25
REMARK SMILES IDX 21 26 22 27 23 28 24 29 25 31 26 32 27 33 88 34 28 35 87 36
REMARK SMILES IDX 29 37 30 38 31 39 81 40 32 41 86 42 80 43 82 44 33 45 85 46
REMARK SMILES IDX 79 47 78 48 34 50 66 51 46 52 65 53 47 54 50 55 64 56 83 57
REMARK SMILES IDX 48 58 49 59 63 61 84 62 51 63 35 64 36 65 44 66 37 67 38 68
REMARK SMILES IDX 42 69 45 70 39 71 40 72 43 73 41 74 67 75 68 76 76 77 69 78
REMARK SMILES IDX 70 79 74 80 77 81 71 82 72 83 75 84 73 85 52 86 53 87 61 88
REMARK SMILES IDX 54 89 55 90 59 91 62 92 56 93 57 94 60 95 58 96
REMARK H PARENT 19 5 12 9 8 15 23 30 82 49 50 60
REMARK Flexibility Score: inf
ROOT
ATOM      1  C   UNL A   1      36.847  20.537  24.964  1.00  0.00     0.118 C 
ENDROOT
BRANCH   1   2
ATOM      2  N   UNL A   1      37.117  21.882  25.437  1.00  0.00    -0.351 N 
ATOM      3  C   UNL A   1      36.264  22.938  25.605  1.00  0.00     0.278 C 
ATOM      4  O   UNL A   1      36.741  23.955  26.119  1.00  0.00    -0.268 OA
ATOM      5  H   UNL A   1      38.056  22.062  25.672  1.00  0.00     0.163 HD
BRANCH   3   6
ATOM      6  C   UNL A   1      34.820  22.898  25.039  1.00  0.00     0.274 C 
ATOM      7  N   UNL A   1      34.011  24.067  25.475  1.00  0.00    -0.317 N 
ATOM      8  C   UNL A   1      34.352  25.101  24.475  1.00  0.00     0.263 C 
ATOM      9  H   UNL A   1      34.213  24.329  26.439  1.00  0.00     0.349 HD
ATOM     10  C   UNL A   1      34.372  24.373  23.144  1.00  0.00     0.068 C 
ATOM     11  C   UNL A   1      34.811  22.957  23.500  1.00  0.00     0.081 C 
BRANCH   7  12
ATOM     12  C   UNL A   1      32.546  23.794  25.436  1.00  0.00     0.364 C 
BRANCH  12  13
ATOM     13  C   UNL A   1      31.744  24.494  26.537  1.00  0.00     0.279 C 
ATOM     14  N   UNL A   1      31.320  25.792  26.535  1.00  0.00    -0.319 N 
ATOM     15  H   UNL A   1      30.972  26.077  27.411  1.00  0.00     0.170 HD
ATOM     16  O   UNL A   1      31.385  23.836  27.528  1.00  0.00    -0.268 OA
BRANCH  14  17
ATOM     17  C   UNL A   1      31.265  26.824  25.566  1.00  0.00     0.079 A 
ATOM     18  C   UNL A   1      29.022  28.394  22.873  1.00  0.00     0.046 C 
ATOM     19  C   UNL A   1      30.140  28.159  23.856  1.00  0.00    -0.030 A 
ATOM     20  C   UNL A   1      30.918  29.267  24.220  1.00  0.00     0.006 A 
ATOM     21  C   UNL A   1      30.376  26.915  24.484  1.00  0.00     0.069 A 
ATOM     22  C   UNL A   1      31.964  29.124  25.122  1.00  0.00     0.023 A 
ATOM     23  Cl  UNL A   1      29.799  25.470  23.715  1.00  0.00    -0.082 Cl
ATOM     24  C   UNL A   1      32.148  27.905  25.774  1.00  0.00     0.066 A 
ATOM     25  Cl  UNL A   1      33.460  27.798  26.905  1.00  0.00    -0.082 Cl
ENDBRANCH  14  17
ENDBRANCH  12  13
ENDBRANCH   7  12
ENDBRANCH   3   6
ENDBRANCH   1   2
BRANCH   1  26
ATOM     26  C   UNL A   1      38.078  19.643  24.989  1.00  0.00     0.042 C 
BRANCH  26  27
ATOM     27  C   UNL A   1      39.157  20.048  25.989  1.00  0.00     0.118 C 
BRANCH  27  28
ATOM     28  N   UNL A   1      40.320  19.180  25.940  1.00  0.00    -0.352 N 
ATOM     29  C   UNL A   1      41.665  19.431  26.019  1.00  0.00     0.251 C 
ATOM     30  H   UNL A   1      40.101  18.227  25.828  1.00  0.00     0.163 HD
ATOM     31  O   UNL A   1      42.440  18.507  25.781  1.00  0.00    -0.269 OA
BRANCH  29  32
ATOM     32  C   UNL A   1      42.222  20.756  26.388  1.00  0.00     0.039 A 
ATOM     33  C   UNL A   1      42.272  21.081  27.750  1.00  0.00     0.014 A 
ATOM     34  C   UNL A   1      42.572  21.726  25.445  1.00  0.00     0.014 A 
ATOM     35  C   UNL A   1      42.663  22.358  28.162  1.00  0.00     0.010 A 
ATOM     36  C   UNL A   1      43.038  22.978  25.859  1.00  0.00     0.010 A 
ATOM     37  C   UNL A   1      43.052  23.320  27.220  1.00  0.00    -0.014 A 
BRANCH  37  38
ATOM     38  C   UNL A   1      43.394  24.703  27.650  1.00  0.00     0.031 A 
ATOM     39  C   UNL A   1      44.832  25.150  27.684  1.00  0.00     0.074 A 
ATOM     40  C   UNL A   1      42.418  25.557  28.013  1.00  0.00     0.049 A 
ATOM     41  N   UNL A   1      45.334  26.310  28.032  1.00  0.00    -0.248 NA
ATOM     42  C   UNL A   1      45.844  24.154  27.303  1.00  0.00     0.031 C 
ATOM     43  C   UNL A   1      40.992  25.239  28.061  1.00  0.00     0.029 A 
ATOM     44  N   UNL A   1      42.481  26.871  28.407  1.00  0.00    -0.354 N 
ATOM     45  C   UNL A   1      46.712  26.174  27.928  1.00  0.00     0.074 A 
ATOM     46  C   UNL A   1      46.973  24.807  27.538  1.00  0.00     0.031 C 
ATOM     47  C   UNL A   1      40.310  26.336  28.433  1.00  0.00     0.029 A 
ATOM     48  C   UNL A   1      41.253  27.424  28.674  1.00  0.00     0.049 A 
ATOM     49  H   UNL A   1      43.327  27.369  28.490  1.00  0.00     0.167 HD
ATOM     50  C   UNL A   1      47.675  27.110  28.115  1.00  0.00     0.037 A 
ATOM     51  C   UNL A   1      40.925  28.673  29.058  1.00  0.00     0.037 A 
ATOM     52  C   UNL A   1      47.417  28.482  28.465  1.00  0.00     0.049 A 
ATOM     53  C   UNL A   1      42.009  29.703  29.221  1.00  0.00     0.074 A 
ATOM     54  C   UNL A   1      48.320  29.517  28.634  1.00  0.00     0.029 A 
ATOM     55  N   UNL A   1      46.155  29.013  28.689  1.00  0.00    -0.354 N 
ATOM     56  N   UNL A   1      43.305  29.575  29.069  1.00  0.00    -0.248 NA
ATOM     57  C   UNL A   1      41.580  31.059  29.593  1.00  0.00     0.031 C 
ATOM     58  C   UNL A   1      47.607  30.668  28.992  1.00  0.00     0.029 A 
ATOM     59  C   UNL A   1      46.257  30.359  29.001  1.00  0.00     0.049 A 
ATOM     60  H   UNL A   1      45.312  28.508  28.634  1.00  0.00     0.167 HD
ATOM     61  C   UNL A   1      43.841  30.836  29.293  1.00  0.00     0.074 A 
ATOM     62  C   UNL A   1      42.730  31.719  29.577  1.00  0.00     0.031 C 
ATOM     63  C   UNL A   1      45.139  31.228  29.265  1.00  0.00     0.037 A 
BRANCH  50  64
ATOM     64  C   UNL A   1      49.103  26.678  27.939  1.00  0.00     0.064 A 
ATOM     65  C   UNL A   1      49.685  26.562  26.667  1.00  0.00     0.173 A 
ATOM     66  C   UNL A   1      49.907  26.399  29.054  1.00  0.00     0.173 A 
ATOM     67  F   UNL A   1      48.955  26.804  25.567  1.00  0.00    -0.203 F 
ATOM     68  C   UNL A   1      51.006  26.152  26.517  1.00  0.00     0.198 A 
ATOM     69  C   UNL A   1      51.238  26.019  28.902  1.00  0.00     0.198 A 
ATOM     70  F   UNL A   1      49.404  26.500  30.294  1.00  0.00    -0.203 F 
ATOM     71  F   UNL A   1      51.523  25.997  25.290  1.00  0.00    -0.200 F 
ATOM     72  C   UNL A   1      51.784  25.887  27.634  1.00  0.00     0.200 A 
ATOM     73  F   UNL A   1      51.992  25.774  29.983  1.00  0.00    -0.200 F 
ATOM     74  F   UNL A   1      53.057  25.495  27.489  1.00  0.00    -0.200 F 
ENDBRANCH  50  64
BRANCH  51  75
ATOM     75  C   UNL A   1      39.499  29.033  29.267  1.00  0.00     0.064 A 
ATOM     76  C   UNL A   1      38.700  29.456  28.196  1.00  0.00     0.173 A 
ATOM     77  C   UNL A   1      38.909  28.968  30.537  1.00  0.00     0.173 A 
ATOM     78  F   UNL A   1      39.226  29.553  26.966  1.00  0.00    -0.203 F 
ATOM     79  C   UNL A   1      37.371  29.824  28.392  1.00  0.00     0.198 A 
ATOM     80  C   UNL A   1      37.572  29.311  30.727  1.00  0.00     0.198 A 
ATOM     81  F   UNL A   1      39.631  28.566  31.593  1.00  0.00    -0.203 F 
ATOM     82  F   UNL A   1      36.642  30.271  27.359  1.00  0.00    -0.200 F 
ATOM     83  C   UNL A   1      36.806  29.747  29.656  1.00  0.00     0.200 A 
ATOM     84  F   UNL A   1      37.027  29.225  31.948  1.00  0.00    -0.200 F 
ATOM     85  F   UNL A   1      35.528  30.101  29.844  1.00  0.00    -0.200 F 
ENDBRANCH  51  75
BRANCH  63  86
ATOM     86  C   UNL A   1      45.420  32.683  29.504  1.00  0.00     0.064 A 
ATOM     87  C   UNL A   1      45.605  33.196  30.797  1.00  0.00     0.173 A 
ATOM     88  C   UNL A   1      45.524  33.570  28.423  1.00  0.00     0.173 A 
ATOM     89  F   UNL A   1      45.502  32.391  31.864  1.00  0.00    -0.203 F 
ATOM     90  C   UNL A   1      45.847  34.552  30.999  1.00  0.00     0.198 A 
ATOM     91  C   UNL A   1      45.794  34.920  28.626  1.00  0.00     0.198 A 
ATOM     92  F   UNL A   1      45.364  33.127  27.166  1.00  0.00    -0.203 F 
ATOM     93  F   UNL A   1      45.964  35.032  32.245  1.00  0.00    -0.200 F 
ATOM     94  C   UNL A   1      45.945  35.412  29.915  1.00  0.00     0.200 A 
ATOM     95  F   UNL A   1      45.901  35.746  27.577  1.00  0.00    -0.200 F 
ATOM     96  F   UNL A   1      46.177  36.718  30.112  1.00  0.00    -0.200 F 
ENDBRANCH  63  86
ENDBRANCH  37  38
ENDBRANCH  29  32
ENDBRANCH  27  28
ENDBRANCH  26  27
ENDBRANCH   1  26
TORSDOF 13
ENDMDL
MODEL 3
REMARK VINA RESULT:     -12.7      1.711      2.694
REMARK SMILES Cc1ccc(Cl)c(NC(=O)C[N@@H+]2CCC[C@H]2C(=O)NCCCNC(=O)c2ccc(-c3c4nc(c(-c5c(F)c(F)c(F)c(F)c5F)c5ccc([nH]5)c(-c5c(F)c(F)c(F)c(F)c5F)c5nc(c(-c6c(F)c(F)c(F)c(F)c6F)c6ccc3[nH]6)C=C5)C=C4)cc2)c1Cl
REMARK SMILES IDX 20 1 19 2 17 3 18 4 16 6 12 7 13 8 14 10 15 11 11 12 9 13
REMARK SMILES IDX 8 14 10 16 7 17 1 18 2 19 3 20 89 21 4 22 90 23 5 24 6 25
REMARK SMILES IDX 21 26 22 27 23 28 24 29 25 31 26 32 27 33 88 34 28 35 87 36
REMARK SMILES IDX 29 37 30 38 31 39 81 40 32 41 86 42 80 43 82 44 33 45 85 46
REMARK SMILES IDX 79 47 78 48 34 50 66 51 46 52 65 53 47 54 50 55 64 56 83 57
REMARK SMILES IDX 48 58 49 59 63 61 84 62 51 63 35 64 36 65 44 66 37 67 38 68
REMARK SMILES IDX 42 69 45 70 39 71 40 72 43 73 41 74 67 75 68 76 76 77 69 78
REMARK SMILES IDX 70 79 74 80 77 81 71 82 72 83 75 84 73 85 52 86 53 87 61 88
REMARK SMILES IDX 54 89 55 90 59 91 62 92 56 93 57 94 60 95 58 96
REMARK H PARENT 19 5 12 9 8 15 23 30 82 49 50 60
REMARK Flexibility Score: inf
ROOT
ATOM      1  C   UNL A   1      31.575  30.738  26.127  1.00  0.00     0.118 C 
ENDROOT
BRANCH   1   2
ATOM      2  N   UNL A   1      32.797  30.079  26.549  1.00  0.00    -0.351 N 
ATOM      3  C   UNL A   1      33.304  28.861  26.187  1.00  0.00     0.278 C 
ATOM      4  O   UNL A   1      34.423  28.578  26.626  1.00  0.00    -0.268 OA
ATOM      5  H   UNL A   1      33.343  30.584  27.194  1.00  0.00     0.163 HD
BRANCH   3   6
ATOM      6  C   UNL A   1      32.446  27.842  25.392  1.00  0.00     0.274 C 
ATOM      7  N   UNL A   1      33.240  26.668  24.941  1.00  0.00    -0.317 N 
ATOM      8  C   UNL A   1      33.193  25.764  26.110  1.00  0.00     0.263 C 
ATOM      9  H   UNL A   1      34.180  26.935  24.651  1.00  0.00     0.349 HD
ATOM     10  C   UNL A   1      31.763  25.838  26.611  1.00  0.00     0.068 C 
ATOM     11  C   UNL A   1      31.317  27.253  26.257  1.00  0.00     0.081 C 
BRANCH   7  12
ATOM     12  C   UNL A   1      32.636  25.991  23.758  1.00  0.00     0.364 C 
BRANCH  12  13
ATOM     13  C   UNL A   1      33.656  25.400  22.780  1.00  0.00     0.279 C 
ATOM     14  N   UNL A   1      34.289  24.196  22.894  1.00  0.00    -0.319 N 
ATOM     15  H   UNL A   1      35.025  24.094  22.247  1.00  0.00     0.170 HD
ATOM     16  O   UNL A   1      33.927  26.030  21.744  1.00  0.00    -0.268 OA
BRANCH  14  17
ATOM     17  C   UNL A   1      34.135  23.060  23.726  1.00  0.00     0.079 A 
ATOM     18  C   UNL A   1      32.417  19.634  23.962  1.00  0.00     0.046 C 
ATOM     19  C   UNL A   1      33.318  20.812  24.227  1.00  0.00    -0.030 A 
ATOM     20  C   UNL A   1      34.446  20.590  25.031  1.00  0.00     0.006 A 
ATOM     21  C   UNL A   1      33.131  22.084  23.639  1.00  0.00     0.069 A 
ATOM     22  C   UNL A   1      35.321  21.630  25.315  1.00  0.00     0.023 A 
ATOM     23  Cl  UNL A   1      31.546  22.520  23.085  1.00  0.00    -0.082 Cl
ATOM     24  C   UNL A   1      35.154  22.861  24.683  1.00  0.00     0.066 A 
ATOM     25  Cl  UNL A   1      36.294  24.113  25.066  1.00  0.00    -0.082 Cl
ENDBRANCH  14  17
ENDBRANCH  12  13
ENDBRANCH   7  12
ENDBRANCH   3   6
ENDBRANCH   1   2
BRANCH   1  26
ATOM     26  C   UNL A   1      31.423  32.134  26.714  1.00  0.00     0.042 C 
BRANCH  26  27
ATOM     27  C   UNL A   1      32.729  32.881  26.965  1.00  0.00     0.118 C 
BRANCH  27  28
ATOM     28  N   UNL A   1      32.522  34.182  27.575  1.00  0.00    -0.352 N 
ATOM     29  C   UNL A   1      33.069  34.785  28.677  1.00  0.00     0.251 C 
ATOM     30  H   UNL A   1      31.860  34.740  27.107  1.00  0.00     0.163 HD
ATOM     31  O   UNL A   1      32.579  35.846  29.058  1.00  0.00    -0.269 OA
BRANCH  29  32
ATOM     32  C   UNL A   1      34.225  34.222  29.418  1.00  0.00     0.039 A 
ATOM     33  C   UNL A   1      35.507  34.513  28.933  1.00  0.00     0.014 A 
ATOM     34  C   UNL A   1      34.088  33.327  30.482  1.00  0.00     0.014 A 
ATOM     35  C   UNL A   1      36.635  33.914  29.502  1.00  0.00     0.010 A 
ATOM     36  C   UNL A   1      35.220  32.788  31.102  1.00  0.00     0.010 A 
ATOM     37  C   UNL A   1      36.503  33.046  30.594  1.00  0.00    -0.014 A 
BRANCH  37  38
ATOM     38  C   UNL A   1      37.691  32.347  31.152  1.00  0.00     0.031 A 
ATOM     39  C   UNL A   1      38.202  32.700  32.524  1.00  0.00     0.074 A 
ATOM     40  C   UNL A   1      38.317  31.398  30.429  1.00  0.00     0.049 A 
ATOM     41  N   UNL A   1      39.223  32.210  33.184  1.00  0.00    -0.248 NA
ATOM     42  C   UNL A   1      37.487  33.765  33.243  1.00  0.00     0.031 C 
ATOM     43  C   UNL A   1      37.949  30.988  29.074  1.00  0.00     0.029 A 
ATOM     44  N   UNL A   1      39.395  30.604  30.737  1.00  0.00    -0.354 N 
ATOM     45  C   UNL A   1      39.280  32.917  34.378  1.00  0.00     0.074 A 
ATOM     46  C   UNL A   1      38.227  33.906  34.332  1.00  0.00     0.031 C 
ATOM     47  C   UNL A   1      38.767  29.999  28.678  1.00  0.00     0.029 A 
ATOM     48  C   UNL A   1      39.731  29.723  29.739  1.00  0.00     0.049 A 
ATOM     49  H   UNL A   1      39.879  30.662  31.592  1.00  0.00     0.167 HD
ATOM     50  C   UNL A   1      40.116  32.743  35.430  1.00  0.00     0.037 A 
ATOM     51  C   UNL A   1      40.701  28.790  29.692  1.00  0.00     0.037 A 
ATOM     52  C   UNL A   1      41.140  31.733  35.495  1.00  0.00     0.049 A 
ATOM     53  C   UNL A   1      41.592  28.590  30.888  1.00  0.00     0.074 A 
ATOM     54  C   UNL A   1      42.010  31.448  36.533  1.00  0.00     0.029 A 
ATOM     55  N   UNL A   1      41.424  30.834  34.478  1.00  0.00    -0.354 N 
ATOM     56  N   UNL A   1      41.601  29.231  32.031  1.00  0.00    -0.248 NA
ATOM     57  C   UNL A   1      42.597  27.523  30.791  1.00  0.00     0.031 C 
ATOM     58  C   UNL A   1      42.842  30.395  36.132  1.00  0.00     0.029 A 
ATOM     59  C   UNL A   1      42.460  29.997  34.862  1.00  0.00     0.049 A 
ATOM     60  H   UNL A   1      40.959  30.796  33.612  1.00  0.00     0.167 HD
ATOM     61  C   UNL A   1      42.585  28.625  32.800  1.00  0.00     0.074 A 
ATOM     62  C   UNL A   1      43.142  27.556  31.999  1.00  0.00     0.031 C 
ATOM     63  C   UNL A   1      42.992  28.927  34.058  1.00  0.00     0.037 A 
BRANCH  50  64
ATOM     64  C   UNL A   1      39.954  33.666  36.604  1.00  0.00     0.064 A 
ATOM     65  C   UNL A   1      40.665  34.873  36.694  1.00  0.00     0.173 A 
ATOM     66  C   UNL A   1      39.061  33.354  37.639  1.00  0.00     0.173 A 
ATOM     67  F   UNL A   1      41.542  35.213  35.736  1.00  0.00    -0.203 F 
ATOM     68  C   UNL A   1      40.512  35.716  37.791  1.00  0.00     0.198 A 
ATOM     69  C   UNL A   1      38.887  34.214  38.721  1.00  0.00     0.198 A 
ATOM     70  F   UNL A   1      38.351  32.216  37.601  1.00  0.00    -0.203 F 
ATOM     71  F   UNL A   1      41.242  36.837  37.880  1.00  0.00    -0.200 F 
ATOM     72  C   UNL A   1      39.619  35.390  38.801  1.00  0.00     0.200 A 
ATOM     73  F   UNL A   1      38.016  33.903  39.690  1.00  0.00    -0.200 F 
ATOM     74  F   UNL A   1      39.470  36.203  39.855  1.00  0.00    -0.200 F 
ENDBRANCH  50  64
BRANCH  51  75
ATOM     75  C   UNL A   1      40.850  27.937  28.485  1.00  0.00     0.064 A 
ATOM     76  C   UNL A   1      41.661  28.339  27.416  1.00  0.00     0.173 A 
ATOM     77  C   UNL A   1      40.182  26.709  28.372  1.00  0.00     0.173 A 
ATOM     78  F   UNL A   1      42.304  29.516  27.470  1.00  0.00    -0.203 F 
ATOM     79  C   UNL A   1      41.781  27.558  26.269  1.00  0.00     0.198 A 
ATOM     80  C   UNL A   1      40.323  25.916  27.235  1.00  0.00     0.198 A 
ATOM     81  F   UNL A   1      39.396  26.278  29.370  1.00  0.00    -0.203 F 
ATOM     82  F   UNL A   1      42.526  27.990  25.241  1.00  0.00    -0.200 F 
ATOM     83  C   UNL A   1      41.116  26.345  26.181  1.00  0.00     0.200 A 
ATOM     84  F   UNL A   1      39.687  24.739  27.159  1.00  0.00    -0.200 F 
ATOM     85  F   UNL A   1      41.231  25.593  25.078  1.00  0.00    -0.200 F 
ENDBRANCH  51  75
BRANCH  63  86
ATOM     86  C   UNL A   1      44.059  28.059  34.660  1.00  0.00     0.064 A 
ATOM     87  C   UNL A   1      45.418  28.396  34.576  1.00  0.00     0.173 A 
ATOM     88  C   UNL A   1      43.713  26.885  35.344  1.00  0.00     0.173 A 
ATOM     89  F   UNL A   1      45.801  29.502  33.921  1.00  0.00    -0.203 F 
ATOM     90  C   UNL A   1      46.394  27.569  35.125  1.00  0.00     0.198 A 
ATOM     91  C   UNL A   1      44.689  26.075  35.916  1.00  0.00     0.198 A 
ATOM     92  F   UNL A   1      42.426  26.522  35.459  1.00  0.00    -0.203 F 
ATOM     93  F   UNL A   1      47.690  27.880  34.985  1.00  0.00    -0.200 F 
ATOM     94  C   UNL A   1      46.029  26.412  35.798  1.00  0.00     0.200 A 
ATOM     95  F   UNL A   1      44.334  24.964  36.576  1.00  0.00    -0.200 F 
ATOM     96  F   UNL A   1      46.971  25.616  36.324  1.00  0.00    -0.200 F 
ENDBRANCH  63  86
ENDBRANCH  37  38
ENDBRANCH  29  32
ENDBRANCH  27  28
ENDBRANCH  26  27
ENDBRANCH   1  26
TORSDOF 13
ENDMDL
