MODEL 1
REMARK VINA RESULT:     -11.7      0.000      0.000
REMARK SMILES O=C(NCCCNC(=O)c1cn2ccnc2s1)c1ccc(-c2c3nc(c(-c4c(F)c(F)c(F)c(F)c4F)c4ccc([nH]4)c(-c4c(F)c(F)c(F)c(F)c4F)c4nc(c(-c5c(F)c(F)c(F)c(F)c5F)c5ccc2[nH]5)C=C4)C=C3)cc1
REMARK SMILES IDX 4 1 3 2 1 3 2 4 18 6 19 7 80 8 20 9 79 10 21 11 22 12 23 13
REMARK SMILES IDX 73 14 24 15 78 16 72 17 74 18 25 19 77 20 71 21 70 22 26 24
REMARK SMILES IDX 58 25 38 26 57 27 39 28 42 29 56 30 75 31 40 32 41 33 55 35
REMARK SMILES IDX 76 36 43 37 27 38 28 39 36 40 29 41 30 42 34 43 37 44 31 45
REMARK SMILES IDX 32 46 35 47 33 48 59 49 60 50 68 51 61 52 62 53 66 54 69 55
REMARK SMILES IDX 63 56 64 57 67 58 65 59 44 60 45 61 53 62 46 63 47 64 51 65
REMARK SMILES IDX 54 66 48 67 49 68 52 69 50 70 5 71 6 72 7 73 8 74 9 76 10 77
REMARK SMILES IDX 11 78 17 79 12 80 16 81 13 82 15 83 14 84
REMARK H PARENT 3 5 74 23 42 34 7 75
REMARK Flexibility Score: inf
ROOT
ATOM      1  C   UNL A   1      32.617  32.813  27.225  1.00  0.00     0.118 C 
ENDROOT
BRANCH   1   2
ATOM      2  N   UNL A   1      32.438  34.203  27.626  1.00  0.00    -0.352 N 
ATOM      3  O   UNL A   1      32.610  36.016  28.954  1.00  0.00    -0.269 OA
ATOM      4  C   UNL A   1      33.042  34.909  28.635  1.00  0.00     0.251 C 
ATOM      5  H   UNL A   1      31.783  34.710  27.094  1.00  0.00     0.163 HD
BRANCH   4   6
ATOM      6  C   UNL A   1      34.207  34.340  29.342  1.00  0.00     0.039 A 
ATOM      7  C   UNL A   1      34.025  33.553  30.481  1.00  0.00     0.014 A 
ATOM      8  C   UNL A   1      35.492  34.559  28.840  1.00  0.00     0.014 A 
ATOM      9  C   UNL A   1      35.125  33.103  31.196  1.00  0.00     0.010 A 
ATOM     10  C   UNL A   1      36.596  34.013  29.499  1.00  0.00     0.010 A 
ATOM     11  C   UNL A   1      36.419  33.286  30.687  1.00  0.00    -0.014 A 
BRANCH  11  12
ATOM     12  C   UNL A   1      37.548  32.580  31.338  1.00  0.00     0.031 A 
ATOM     13  C   UNL A   1      38.242  31.428  30.677  1.00  0.00     0.074 A 
ATOM     14  C   UNL A   1      37.935  33.009  32.557  1.00  0.00     0.049 A 
ATOM     15  N   UNL A   1      39.225  30.693  31.133  1.00  0.00    -0.248 NA
ATOM     16  C   UNL A   1      37.774  31.039  29.337  1.00  0.00     0.031 C 
ATOM     17  C   UNL A   1      37.314  34.113  33.296  1.00  0.00     0.029 A 
ATOM     18  N   UNL A   1      38.936  32.579  33.389  1.00  0.00    -0.354 N 
ATOM     19  C   UNL A   1      39.481  29.746  30.150  1.00  0.00     0.074 A 
ATOM     20  C   UNL A   1      38.542  29.989  29.075  1.00  0.00     0.031 C 
ATOM     21  C   UNL A   1      37.963  34.292  34.454  1.00  0.00     0.029 A 
ATOM     22  C   UNL A   1      38.990  33.267  34.577  1.00  0.00     0.049 A 
ATOM     23  H   UNL A   1      39.556  31.850  33.158  1.00  0.00     0.167 HD
ATOM     24  C   UNL A   1      40.417  28.768  30.157  1.00  0.00     0.037 A 
ATOM     25  C   UNL A   1      39.752  33.069  35.667  1.00  0.00     0.037 A 
ATOM     26  C   UNL A   1      41.360  28.557  31.228  1.00  0.00     0.049 A 
ATOM     27  C   UNL A   1      40.751  31.947  35.652  1.00  0.00     0.074 A 
ATOM     28  C   UNL A   1      42.399  27.644  31.291  1.00  0.00     0.029 A 
ATOM     29  N   UNL A   1      41.367  29.254  32.427  1.00  0.00    -0.354 N 
ATOM     30  N   UNL A   1      41.035  31.108  34.687  1.00  0.00    -0.248 NA
ATOM     31  C   UNL A   1      41.528  31.738  36.880  1.00  0.00     0.031 C 
ATOM     32  C   UNL A   1      42.989  27.739  32.555  1.00  0.00     0.029 A 
ATOM     33  C   UNL A   1      42.359  28.754  33.258  1.00  0.00     0.049 A 
ATOM     34  H   UNL A   1      40.759  29.993  32.656  1.00  0.00     0.167 HD
ATOM     35  C   UNL A   1      42.028  30.279  35.185  1.00  0.00     0.074 A 
ATOM     36  C   UNL A   1      42.323  30.739  36.526  1.00  0.00     0.031 C 
ATOM     37  C   UNL A   1      42.634  29.222  34.592  1.00  0.00     0.037 A 
BRANCH  24  38
ATOM     38  C   UNL A   1      40.477  27.824  28.992  1.00  0.00     0.064 A 
ATOM     39  C   UNL A   1      39.675  26.677  28.925  1.00  0.00     0.173 A 
ATOM     40  C   UNL A   1      41.268  28.139  27.876  1.00  0.00     0.173 A 
ATOM     41  F   UNL A   1      38.906  26.328  29.967  1.00  0.00    -0.203 F 
ATOM     42  C   UNL A   1      39.663  25.878  27.784  1.00  0.00     0.198 A 
ATOM     43  C   UNL A   1      41.235  27.353  26.727  1.00  0.00     0.198 A 
ATOM     44  F   UNL A   1      42.049  29.231  27.886  1.00  0.00    -0.203 F 
ATOM     45  F   UNL A   1      38.902  24.776  27.746  1.00  0.00    -0.200 F 
ATOM     46  C   UNL A   1      40.433  26.223  26.682  1.00  0.00     0.200 A 
ATOM     47  F   UNL A   1      41.967  27.698  25.659  1.00  0.00    -0.200 F 
ATOM     48  F   UNL A   1      40.400  25.468  25.575  1.00  0.00    -0.200 F 
ENDBRANCH  24  38
BRANCH  25  49
ATOM     49  C   UNL A   1      39.558  33.909  36.878  1.00  0.00     0.064 A 
ATOM     50  C   UNL A   1      38.770  33.469  37.949  1.00  0.00     0.173 A 
ATOM     51  C   UNL A   1      40.137  35.185  36.974  1.00  0.00     0.173 A 
ATOM     52  F   UNL A   1      38.182  32.266  37.899  1.00  0.00    -0.203 F 
ATOM     53  C   UNL A   1      38.539  34.287  39.054  1.00  0.00     0.198 A 
ATOM     54  C   UNL A   1      39.939  35.984  38.097  1.00  0.00     0.198 A 
ATOM     55  F   UNL A   1      40.906  35.652  35.980  1.00  0.00    -0.203 F 
ATOM     56  F   UNL A   1      37.727  33.869  40.034  1.00  0.00    -0.200 F 
ATOM     57  C   UNL A   1      39.127  35.541  39.129  1.00  0.00     0.200 A 
ATOM     58  F   UNL A   1      40.526  37.186  38.173  1.00  0.00    -0.200 F 
ATOM     59  F   UNL A   1      38.902  36.327  40.190  1.00  0.00    -0.200 F 
ENDBRANCH  25  49
BRANCH  37  60
ATOM     60  C   UNL A   1      43.680  28.500  35.388  1.00  0.00     0.064 A 
ATOM     61  C   UNL A   1      45.037  28.836  35.285  1.00  0.00     0.173 A 
ATOM     62  C   UNL A   1      43.320  27.486  36.287  1.00  0.00     0.173 A 
ATOM     63  F   UNL A   1      45.434  29.785  34.422  1.00  0.00    -0.203 F 
ATOM     64  C   UNL A   1      45.999  28.168  36.036  1.00  0.00     0.198 A 
ATOM     65  C   UNL A   1      44.280  26.844  37.064  1.00  0.00     0.198 A 
ATOM     66  F   UNL A   1      42.033  27.130  36.427  1.00  0.00    -0.203 F 
ATOM     67  F   UNL A   1      47.295  28.470  35.883  1.00  0.00    -0.200 F 
ATOM     68  C   UNL A   1      45.619  27.179  36.931  1.00  0.00     0.200 A 
ATOM     69  F   UNL A   1      43.909  25.899  37.939  1.00  0.00    -0.200 F 
ATOM     70  F   UNL A   1      46.545  26.544  37.663  1.00  0.00    -0.200 F 
ENDBRANCH  37  60
ENDBRANCH  11  12
ENDBRANCH   4   6
ENDBRANCH   1   2
BRANCH   1  71
ATOM     71  C   UNL A   1      31.402  32.255  26.505  1.00  0.00     0.042 C 
BRANCH  71  72
ATOM     72  C   UNL A   1      31.611  30.844  25.980  1.00  0.00     0.118 C 
BRANCH  72  73
ATOM     73  N   UNL A   1      31.672  29.861  27.053  1.00  0.00    -0.351 N 
ATOM     74  C   UNL A   1      31.778  28.500  26.984  1.00  0.00     0.263 C 
ATOM     75  H   UNL A   1      31.631  30.233  27.963  1.00  0.00     0.163 HD
ATOM     76  O   UNL A   1      31.655  27.826  28.002  1.00  0.00    -0.268 OA
BRANCH  74  77
ATOM     77  C   UNL A   1      32.039  27.889  25.669  1.00  0.00     0.112 A 
ATOM     78  C   UNL A   1      31.147  27.204  24.932  1.00  0.00     0.118 A 
ATOM     79  S   UNL A   1      33.654  27.952  24.965  1.00  0.00    -0.091 S 
ATOM     80  N   UNL A   1      31.753  26.644  23.838  1.00  0.00    -0.297 N 
ATOM     81  C   UNL A   1      33.078  26.926  23.686  1.00  0.00     0.194 A 
ATOM     82  C   UNL A   1      31.403  25.779  22.848  1.00  0.00     0.114 A 
ATOM     83  N   UNL A   1      33.625  26.316  22.673  1.00  0.00    -0.227 NA
ATOM     84  C   UNL A   1      32.576  25.593  22.135  1.00  0.00     0.133 A 
ENDBRANCH  74  77
ENDBRANCH  72  73
ENDBRANCH  71  72
ENDBRANCH   1  71
TORSDOF 10
ENDMDL
MODEL 2
REMARK VINA RESULT:     -11.7      0.240      1.697
REMARK SMILES O=C(NCCCNC(=O)c1cn2ccnc2s1)c1ccc(-c2c3nc(c(-c4c(F)c(F)c(F)c(F)c4F)c4ccc([nH]4)c(-c4c(F)c(F)c(F)c(F)c4F)c4nc(c(-c5c(F)c(F)c(F)c(F)c5F)c5ccc2[nH]5)C=C4)C=C3)cc1
REMARK SMILES IDX 4 1 3 2 1 3 2 4 18 6 19 7 80 8 20 9 79 10 21 11 22 12 23 13
REMARK SMILES IDX 73 14 24 15 78 16 72 17 74 18 25 19 77 20 71 21 70 22 26 24
REMARK SMILES IDX 58 25 38 26 57 27 39 28 42 29 56 30 75 31 40 32 41 33 55 35
REMARK SMILES IDX 76 36 43 37 27 38 28 39 36 40 29 41 30 42 34 43 37 44 31 45
REMARK SMILES IDX 32 46 35 47 33 48 59 49 60 50 68 51 61 52 62 53 66 54 69 55
REMARK SMILES IDX 63 56 64 57 67 58 65 59 44 60 45 61 53 62 46 63 47 64 51 65
REMARK SMILES IDX 54 66 48 67 49 68 52 69 50 70 5 71 6 72 7 73 8 74 9 76 10 77
REMARK SMILES IDX 11 78 17 79 12 80 16 81 13 82 15 83 14 84
REMARK H PARENT 3 5 74 23 42 34 7 75
REMARK Flexibility Score: inf
ROOT
ATOM      1  C   UNL A   1      32.587  32.771  27.248  1.00  0.00     0.118 C 
ENDROOT
BRANCH   1   2
ATOM      2  N   UNL A   1      32.400  34.167  27.626  1.00  0.00    -0.352 N 
ATOM      3  O   UNL A   1      32.570  36.004  28.920  1.00  0.00    -0.269 OA
ATOM      4  C   UNL A   1      33.008  34.895  28.617  1.00  0.00     0.251 C 
ATOM      5  H   UNL A   1      31.737  34.660  27.090  1.00  0.00     0.163 HD
BRANCH   4   6
ATOM      6  C   UNL A   1      34.182  34.347  29.324  1.00  0.00     0.039 A 
ATOM      7  C   UNL A   1      34.015  33.587  30.484  1.00  0.00     0.014 A 
ATOM      8  C   UNL A   1      35.461  34.559  28.803  1.00  0.00     0.014 A 
ATOM      9  C   UNL A   1      35.125  33.158  31.197  1.00  0.00     0.010 A 
ATOM     10  C   UNL A   1      36.574  34.032  29.463  1.00  0.00     0.010 A 
ATOM     11  C   UNL A   1      36.413  33.334  30.670  1.00  0.00    -0.014 A 
BRANCH  11  12
ATOM     12  C   UNL A   1      37.551  32.647  31.325  1.00  0.00     0.031 A 
ATOM     13  C   UNL A   1      38.251  31.490  30.678  1.00  0.00     0.074 A 
ATOM     14  C   UNL A   1      37.941  33.098  32.535  1.00  0.00     0.049 A 
ATOM     15  N   UNL A   1      39.243  30.771  31.139  1.00  0.00    -0.248 NA
ATOM     16  C   UNL A   1      37.779  31.077  29.346  1.00  0.00     0.031 C 
ATOM     17  C   UNL A   1      37.316  34.208  33.261  1.00  0.00     0.029 A 
ATOM     18  N   UNL A   1      38.951  32.690  33.367  1.00  0.00    -0.354 N 
ATOM     19  C   UNL A   1      39.501  29.811  30.170  1.00  0.00     0.074 A 
ATOM     20  C   UNL A   1      38.554  30.029  29.097  1.00  0.00     0.031 C 
ATOM     21  C   UNL A   1      37.970  34.410  34.411  1.00  0.00     0.029 A 
ATOM     22  C   UNL A   1      39.006  33.396  34.544  1.00  0.00     0.049 A 
ATOM     23  H   UNL A   1      39.575  31.962  33.144  1.00  0.00     0.167 HD
ATOM     24  C   UNL A   1      40.446  28.841  30.187  1.00  0.00     0.037 A 
ATOM     25  C   UNL A   1      39.776  33.221  35.633  1.00  0.00     0.037 A 
ATOM     26  C   UNL A   1      41.396  28.655  31.254  1.00  0.00     0.049 A 
ATOM     27  C   UNL A   1      40.784  32.108  35.630  1.00  0.00     0.074 A 
ATOM     28  C   UNL A   1      42.443  27.752  31.326  1.00  0.00     0.029 A 
ATOM     29  N   UNL A   1      41.405  29.370  32.443  1.00  0.00    -0.354 N 
ATOM     30  N   UNL A   1      41.069  31.256  34.675  1.00  0.00    -0.248 NA
ATOM     31  C   UNL A   1      41.570  31.925  36.855  1.00  0.00     0.031 C 
ATOM     32  C   UNL A   1      43.040  27.871  32.584  1.00  0.00     0.029 A 
ATOM     33  C   UNL A   1      42.406  28.892  33.275  1.00  0.00     0.049 A 
ATOM     34  H   UNL A   1      40.791  30.107  32.664  1.00  0.00     0.167 HD
ATOM     35  C   UNL A   1      42.073  30.443  35.181  1.00  0.00     0.074 A 
ATOM     36  C   UNL A   1      42.372  30.927  36.512  1.00  0.00     0.031 C 
ATOM     37  C   UNL A   1      42.684  29.382  34.600  1.00  0.00     0.037 A 
BRANCH  24  38
ATOM     38  C   UNL A   1      40.507  27.880  29.036  1.00  0.00     0.064 A 
ATOM     39  C   UNL A   1      39.713  26.726  28.990  1.00  0.00     0.173 A 
ATOM     40  C   UNL A   1      41.290  28.183  27.911  1.00  0.00     0.173 A 
ATOM     41  F   UNL A   1      38.953  26.387  30.042  1.00  0.00    -0.203 F 
ATOM     42  C   UNL A   1      39.702  25.910  27.862  1.00  0.00     0.198 A 
ATOM     43  C   UNL A   1      41.257  27.380  26.775  1.00  0.00     0.198 A 
ATOM     44  F   UNL A   1      42.063  29.281  27.900  1.00  0.00    -0.203 F 
ATOM     45  F   UNL A   1      38.948  24.801  27.845  1.00  0.00    -0.200 F 
ATOM     46  C   UNL A   1      40.463  26.243  26.751  1.00  0.00     0.200 A 
ATOM     47  F   UNL A   1      41.981  27.713  25.697  1.00  0.00    -0.200 F 
ATOM     48  F   UNL A   1      40.431  25.471  25.656  1.00  0.00    -0.200 F 
ENDBRANCH  24  38
BRANCH  25  49
ATOM     49  C   UNL A   1      39.582  34.079  36.832  1.00  0.00     0.064 A 
ATOM     50  C   UNL A   1      40.206  35.327  36.940  1.00  0.00     0.173 A 
ATOM     51  C   UNL A   1      38.789  33.650  37.908  1.00  0.00     0.173 A 
ATOM     52  F   UNL A   1      40.987  35.775  35.947  1.00  0.00    -0.203 F 
ATOM     53  C   UNL A   1      40.073  36.099  38.093  1.00  0.00     0.198 A 
ATOM     54  C   UNL A   1      38.623  34.440  39.042  1.00  0.00     0.198 A 
ATOM     55  F   UNL A   1      38.163  32.465  37.854  1.00  0.00    -0.203 F 
ATOM     56  F   UNL A   1      40.734  37.260  38.199  1.00  0.00    -0.200 F 
ATOM     57  C   UNL A   1      39.278  35.658  39.141  1.00  0.00     0.200 A 
ATOM     58  F   UNL A   1      37.838  34.017  40.042  1.00  0.00    -0.200 F 
ATOM     59  F   UNL A   1      39.153  36.398  40.249  1.00  0.00    -0.200 F 
ENDBRANCH  25  49
BRANCH  37  60
ATOM     60  C   UNL A   1      43.740  28.682  35.401  1.00  0.00     0.064 A 
ATOM     61  C   UNL A   1      43.414  27.663  36.307  1.00  0.00     0.173 A 
ATOM     62  C   UNL A   1      45.095  29.008  35.238  1.00  0.00     0.173 A 
ATOM     63  F   UNL A   1      42.130  27.330  36.515  1.00  0.00    -0.203 F 
ATOM     64  C   UNL A   1      44.402  27.011  37.038  1.00  0.00     0.198 A 
ATOM     65  C   UNL A   1      46.084  28.330  35.944  1.00  0.00     0.198 A 
ATOM     66  F   UNL A   1      45.461  29.972  34.380  1.00  0.00    -0.203 F 
ATOM     67  F   UNL A   1      44.063  26.076  37.936  1.00  0.00    -0.200 F 
ATOM     68  C   UNL A   1      45.737  27.339  36.849  1.00  0.00     0.200 A 
ATOM     69  F   UNL A   1      47.374  28.638  35.750  1.00  0.00    -0.200 F 
ATOM     70  F   UNL A   1      46.690  26.703  37.545  1.00  0.00    -0.200 F 
ENDBRANCH  37  60
ENDBRANCH  11  12
ENDBRANCH   4   6
ENDBRANCH   1   2
BRANCH   1  71
ATOM     71  C   UNL A   1      31.344  32.170  26.616  1.00  0.00     0.042 C 
BRANCH  71  72
ATOM     72  C   UNL A   1      31.602  30.836  25.935  1.00  0.00     0.118 C 
BRANCH  72  73
ATOM     73  N   UNL A   1      31.650  29.733  26.886  1.00  0.00    -0.351 N 
ATOM     74  C   UNL A   1      31.758  28.389  26.659  1.00  0.00     0.263 C 
ATOM     75  H   UNL A   1      31.596  29.995  27.832  1.00  0.00     0.163 HD
ATOM     76  O   UNL A   1      31.622  27.600  27.588  1.00  0.00    -0.268 OA
BRANCH  74  77
ATOM     77  C   UNL A   1      32.038  27.937  25.284  1.00  0.00     0.112 A 
ATOM     78  C   UNL A   1      31.152  27.355  24.455  1.00  0.00     0.118 A 
ATOM     79  S   UNL A   1      33.666  28.067  24.620  1.00  0.00    -0.091 S 
ATOM     80  N   UNL A   1      31.773  26.924  23.313  1.00  0.00    -0.297 N 
ATOM     81  C   UNL A   1      33.103  27.207  23.218  1.00  0.00     0.194 A 
ATOM     82  C   UNL A   1      31.433  26.188  22.221  1.00  0.00     0.114 A 
ATOM     83  N   UNL A   1      33.663  26.717  22.148  1.00  0.00    -0.227 NA
ATOM     84  C   UNL A   1      32.617  26.075  21.510  1.00  0.00     0.133 A 
ENDBRANCH  74  77
ENDBRANCH  72  73
ENDBRANCH  71  72
ENDBRANCH   1  71
TORSDOF 10
ENDMDL
MODEL 3
REMARK VINA RESULT:     -11.7      6.252     11.676
REMARK SMILES O=C(NCCCNC(=O)c1cn2ccnc2s1)c1ccc(-c2c3nc(c(-c4c(F)c(F)c(F)c(F)c4F)c4ccc([nH]4)c(-c4c(F)c(F)c(F)c(F)c4F)c4nc(c(-c5c(F)c(F)c(F)c(F)c5F)c5ccc2[nH]5)C=C4)C=C3)cc1
REMARK SMILES IDX 4 1 3 2 1 3 2 4 18 6 19 7 80 8 20 9 79 10 21 11 22 12 23 13
REMARK SMILES IDX 73 14 24 15 78 16 72 17 74 18 25 19 77 20 71 21 70 22 26 24
REMARK SMILES IDX 58 25 38 26 57 27 39 28 42 29 56 30 75 31 40 32 41 33 55 35
REMARK SMILES IDX 76 36 43 37 27 38 28 39 36 40 29 41 30 42 34 43 37 44 31 45
REMARK SMILES IDX 32 46 35 47 33 48 59 49 60 50 68 51 61 52 62 53 66 54 69 55
REMARK SMILES IDX 63 56 64 57 67 58 65 59 44 60 45 61 53 62 46 63 47 64 51 65
REMARK SMILES IDX 54 66 48 67 49 68 52 69 50 70 5 71 6 72 7 73 8 74 9 76 10 77
REMARK SMILES IDX 11 78 17 79 12 80 16 81 13 82 15 83 14 84
REMARK H PARENT 3 5 74 23 42 34 7 75
REMARK Flexibility Score: inf
ROOT
ATOM      1  C   UNL A   1      39.101  20.191  25.765  1.00  0.00     0.118 C 
ENDROOT
BRANCH   1   2
ATOM      2  N   UNL A   1      40.159  19.203  25.933  1.00  0.00    -0.352 N 
ATOM      3  O   UNL A   1      42.272  18.425  26.031  1.00  0.00    -0.269 OA
ATOM      4  C   UNL A   1      41.506  19.384  26.117  1.00  0.00     0.251 C 
ATOM      5  H   UNL A   1      39.862  18.264  25.909  1.00  0.00     0.163 HD
BRANCH   4   6
ATOM      6  C   UNL A   1      42.039  20.728  26.412  1.00  0.00     0.039 A 
ATOM      7  C   UNL A   1      42.279  21.635  25.376  1.00  0.00     0.014 A 
ATOM      8  C   UNL A   1      42.262  21.106  27.739  1.00  0.00     0.014 A 
ATOM      9  C   UNL A   1      42.870  22.859  25.650  1.00  0.00     0.010 A 
ATOM     10  C   UNL A   1      42.754  22.382  28.023  1.00  0.00     0.010 A 
ATOM     11  C   UNL A   1      43.069  23.265  26.978  1.00  0.00    -0.014 A 
BRANCH  11  12
ATOM     12  C   UNL A   1      43.464  24.668  27.243  1.00  0.00     0.031 A 
ATOM     13  C   UNL A   1      42.485  25.677  27.762  1.00  0.00     0.074 A 
ATOM     14  C   UNL A   1      44.744  25.015  27.000  1.00  0.00     0.049 A 
ATOM     15  N   UNL A   1      42.674  26.947  28.016  1.00  0.00    -0.248 NA
ATOM     16  C   UNL A   1      41.113  25.211  28.025  1.00  0.00     0.031 C 
ATOM     17  C   UNL A   1      45.775  24.112  26.478  1.00  0.00     0.029 A 
ATOM     18  N   UNL A   1      45.403  26.207  27.158  1.00  0.00    -0.354 N 
ATOM     19  C   UNL A   1      41.449  27.438  28.447  1.00  0.00     0.074 A 
ATOM     20  C   UNL A   1      40.515  26.331  28.411  1.00  0.00     0.031 C 
ATOM     21  C   UNL A   1      46.937  24.770  26.386  1.00  0.00     0.029 A 
ATOM     22  C   UNL A   1      46.718  26.160  26.763  1.00  0.00     0.049 A 
ATOM     23  H   UNL A   1      44.975  27.017  27.519  1.00  0.00     0.167 HD
ATOM     24  C   UNL A   1      41.143  28.698  28.836  1.00  0.00     0.037 A 
ATOM     25  C   UNL A   1      47.637  27.137  26.671  1.00  0.00     0.037 A 
ATOM     26  C   UNL A   1      42.093  29.781  28.888  1.00  0.00     0.049 A 
ATOM     27  C   UNL A   1      47.249  28.531  27.072  1.00  0.00     0.074 A 
ATOM     28  C   UNL A   1      41.899  31.074  29.345  1.00  0.00     0.029 A 
ATOM     29  N   UNL A   1      43.409  29.705  28.454  1.00  0.00    -0.354 N 
ATOM     30  N   UNL A   1      46.108  28.964  27.551  1.00  0.00    -0.248 NA
ATOM     31  C   UNL A   1      48.269  29.573  26.912  1.00  0.00     0.031 C 
ATOM     32  C   UNL A   1      43.074  31.798  29.121  1.00  0.00     0.029 A 
ATOM     33  C   UNL A   1      44.021  30.942  28.583  1.00  0.00     0.049 A 
ATOM     34  H   UNL A   1      43.843  28.894  28.106  1.00  0.00     0.167 HD
ATOM     35  C   UNL A   1      46.276  30.325  27.757  1.00  0.00     0.074 A 
ATOM     36  C   UNL A   1      47.640  30.639  27.387  1.00  0.00     0.031 C 
ATOM     37  C   UNL A   1      45.379  31.237  28.203  1.00  0.00     0.037 A 
BRANCH  24  38
ATOM     38  C   UNL A   1      39.726  29.007  29.221  1.00  0.00     0.064 A 
ATOM     39  C   UNL A   1      38.776  29.424  28.279  1.00  0.00     0.173 A 
ATOM     40  C   UNL A   1      39.289  28.770  30.533  1.00  0.00     0.173 A 
ATOM     41  F   UNL A   1      39.143  29.671  27.012  1.00  0.00    -0.203 F 
ATOM     42  C   UNL A   1      37.440  29.593  28.637  1.00  0.00     0.198 A 
ATOM     43  C   UNL A   1      37.950  28.915  30.882  1.00  0.00     0.198 A 
ATOM     44  F   UNL A   1      40.158  28.362  31.472  1.00  0.00    -0.203 F 
ATOM     45  F   UNL A   1      36.551  30.009  27.725  1.00  0.00    -0.200 F 
ATOM     46  C   UNL A   1      37.026  29.327  29.934  1.00  0.00     0.200 A 
ATOM     47  F   UNL A   1      37.549  28.642  32.132  1.00  0.00    -0.200 F 
ATOM     48  F   UNL A   1      35.736  29.466  30.270  1.00  0.00    -0.200 F 
ENDBRANCH  24  38
BRANCH  25  49
ATOM     49  C   UNL A   1      48.989  26.843  26.124  1.00  0.00     0.064 A 
ATOM     50  C   UNL A   1      49.282  27.039  24.769  1.00  0.00     0.173 A 
ATOM     51  C   UNL A   1      50.006  26.331  26.946  1.00  0.00     0.173 A 
ATOM     52  F   UNL A   1      48.340  27.510  23.940  1.00  0.00    -0.203 F 
ATOM     53  C   UNL A   1      50.530  26.701  24.249  1.00  0.00     0.198 A 
ATOM     54  C   UNL A   1      51.265  26.033  26.433  1.00  0.00     0.198 A 
ATOM     55  F   UNL A   1      49.780  26.130  28.252  1.00  0.00    -0.203 F 
ATOM     56  F   UNL A   1      50.764  26.836  22.937  1.00  0.00    -0.200 F 
ATOM     57  C   UNL A   1      51.522  26.203  25.081  1.00  0.00     0.200 A 
ATOM     58  F   UNL A   1      52.225  25.571  27.245  1.00  0.00    -0.200 F 
ATOM     59  F   UNL A   1      52.720  25.876  24.580  1.00  0.00    -0.200 F 
ENDBRANCH  25  49
BRANCH  37  60
ATOM     60  C   UNL A   1      45.849  32.656  28.319  1.00  0.00     0.064 A 
ATOM     61  C   UNL A   1      45.682  33.568  27.267  1.00  0.00     0.173 A 
ATOM     62  C   UNL A   1      46.441  33.118  29.503  1.00  0.00     0.173 A 
ATOM     63  F   UNL A   1      45.141  33.169  26.106  1.00  0.00    -0.203 F 
ATOM     64  C   UNL A   1      46.113  34.886  27.389  1.00  0.00     0.198 A 
ATOM     65  C   UNL A   1      46.838  34.445  29.635  1.00  0.00     0.198 A 
ATOM     66  F   UNL A   1      46.619  32.286  30.541  1.00  0.00    -0.203 F 
ATOM     67  F   UNL A   1      45.990  35.727  26.353  1.00  0.00    -0.200 F 
ATOM     68  C   UNL A   1      46.681  35.326  28.575  1.00  0.00     0.200 A 
ATOM     69  F   UNL A   1      47.374  34.872  30.787  1.00  0.00    -0.200 F 
ATOM     70  F   UNL A   1      47.085  36.598  28.695  1.00  0.00    -0.200 F 
ENDBRANCH  37  60
ENDBRANCH  11  12
ENDBRANCH   4   6
ENDBRANCH   1   2
BRANCH   1  71
ATOM     71  C   UNL A   1      37.909  19.642  25.000  1.00  0.00     0.042 C 
BRANCH  71  72
ATOM     72  C   UNL A   1      36.711  20.577  25.003  1.00  0.00     0.118 C 
BRANCH  72  73
ATOM     73  N   UNL A   1      35.448  19.853  25.001  1.00  0.00    -0.351 N 
ATOM     74  C   UNL A   1      34.168  20.330  25.078  1.00  0.00     0.263 C 
ATOM     75  H   UNL A   1      35.527  18.875  24.934  1.00  0.00     0.163 HD
ATOM     76  O   UNL A   1      33.234  19.549  25.221  1.00  0.00    -0.268 OA
BRANCH  74  77
ATOM     77  C   UNL A   1      33.963  21.786  24.985  1.00  0.00     0.112 A 
ATOM     78  C   UNL A   1      33.758  22.478  23.850  1.00  0.00     0.118 A 
ATOM     79  S   UNL A   1      34.053  22.789  26.432  1.00  0.00    -0.091 S 
ATOM     80  N   UNL A   1      33.756  23.825  24.101  1.00  0.00    -0.297 N 
ATOM     81  C   UNL A   1      33.901  24.185  25.408  1.00  0.00     0.194 A 
ATOM     82  C   UNL A   1      33.723  24.967  23.363  1.00  0.00     0.114 A 
ATOM     83  N   UNL A   1      33.962  25.475  25.587  1.00  0.00    -0.227 NA
ATOM     84  C   UNL A   1      33.847  25.977  24.304  1.00  0.00     0.133 A 
ENDBRANCH  74  77
ENDBRANCH  72  73
ENDBRANCH  71  72
ENDBRANCH   1  71
TORSDOF 10
ENDMDL
